data_PCOD9203392
_publ_section_title
;
Structure prediction by ZEFSAII (Michael W. Deem and Ramdas Pophale) SiO2 
 PCOD9203392
Probable space group: C 2/M
;
_chemical_formula_sum "Si O2"
_cell_formula_units_Z 56
_cell_length_a 29.488728
_cell_length_b 8.931426
_cell_length_c 12.832724
_cell_angle_alpha 90.000000
_cell_angle_beta 122.061192
_cell_angle_gamma 90.000000
_cell_volume 2864.349479
_symmetry_space_group_name_H-M "C 2/M"
_symmetry_group_IT_number 12
_symmetry_cell_setting 'monoclinic'
loop_
_space_group_symop_operation_xyz
x,y,z
-x,y,-z
-x,-y,-z
x,-y,z
1/2+x,1/2+y,z
1/2-x,1/2+y,-z
1/2-x,1/2-y,-z
1/2+x,1/2-y,z
loop_
_atom_site_type_symbol
_atom_site_label
_atom_site_fract_x
_atom_site_fract_y
_atom_site_fract_z
Si Si1 0.285731 0.820723 0.954188
Si Si2 0.054073 0.178212 0.003087
Si Si3 0.252568 0.320114 0.324822
Si Si4 0.632786 0.820881 0.491813
Si Si5 0.907598 0.320559 0.152985
Si Si6 0.563487 0.322968 0.591045
Si Si7 0.637216 0.820383 0.262248
O O1 0.263890 0.781283 0.813698
O O2 0.283271 0.000000 0.959469
O O3 0.250000 0.750000 0.000000
O O4 0.347343 0.777447 0.045559
O O5 0.102926 0.240367 0.131911
O O6 0.058771 0.000000 0.996651
O O7 0.054697 0.254649 0.890891
O O8 0.000000 0.212235 0.000000
O O9 0.261170 0.500000 0.341915
O O10 0.306587 0.235866 0.419274
O O11 0.200153 0.282317 0.328869
O O12 0.595376 0.745949 0.532619
O O13 0.617078 0.783412 0.353551
O O14 0.630927 0.000000 0.500891
O O15 0.911675 0.500000 0.160247
O O16 0.919177 0.254672 0.280434
O O17 0.500000 0.302024 0.500000
O O18 0.574854 0.500000 0.610673
O O19 0.633231 0.000000 0.241100
#
# Coordination Sequence:
#
# PCOD9203392 Si02
#       7
#     8   8   8   8   8   8   8
#     4  10  21  36  58  88 123 161 202 250 304 367
#     4  11  25  42  64  96 130 166 212 259 314 379
#     4  10  20  39  62  88 127 168 207 253 315 378
#     4  11  24  40  63  96 128 164 215 263 313 374
#     4  11  23  43  68  94 126 162 210 262 313 372
#     4  11  26  46  66  90 126 168 212 261 316 376
#     4  10  22  42  65  93 128 167 213 261 313 375
#
# _framework density 19.550687
#
# number of rings (size 3 to 8) (size 9 to 14) (size 15 to 20)
#    0.000    1.429    1.429    3.000    2.000    8.000 
#    0.000    0.000    0.000    0.000    0.000    0.000 
#    0.000    0.000    0.000    0.000    0.000    0.000 
#
# Total GULP energy -156580.451787 kJ/mol
# GULP energy per Si atom -5592.158992 kJ/mol
# Density = 1.950619 g / cm^3
# Si number density = 19.550687 Si / 1000 Ang^3
#
#
#
# Elastic Constant Matrix: (Units=GPa)
#
#
# Indices 1 2 3 4 5 6 
#
# 1 116.9597 46.7527 32.6379 0.0000 -31.8689 0.0000
# 2 46.7527 38.6265 28.8787 0.0000 -12.4196 0.0000
# 3 32.6379 28.8787 74.5455 0.0000 -28.2713 0.0000
# 4 0.0000 0.0000 0.0000 22.9795 0.0000 -2.8101
# 5 -31.8689 -12.4196 -28.2713 0.0000 37.1374 0.0000
# 6 0.0000 0.0000 0.0000 -2.8101 0.0000 35.5080
#
#
#
# Elastic Compliance Matrix: (Units=1/GPa)
#
#
# Indices 1 2 3 4 5 6 
#
# 1 0.020653 -0.024933 0.005870 0.000000 0.013854 0.000000
# 2 -0.024933 0.066652 -0.020477 0.000000 -0.014694 0.000000
# 3 0.005870 -0.020477 0.025433 0.000000 0.017551 0.000000
# 4 0.000000 0.000000 0.000000 0.043942 0.000000 0.003478
# 5 0.013854 -0.014694 0.017551 0.000000 0.047263 0.000000
# 6 0.000000 0.000000 0.000000 0.003478 0.000000 0.028438
#
#
# Mechanical properties :
#
#
# Convention : Reuss Voigt Hill
#
# Bulk Modulus (GPa) = 29.70923 49.63004 39.66963
# Shear Modulus (GPa) = 15.49524 27.24914 21.37219
#
# Velocity S-wave (km/s) = 2.81831 3.73737 3.30990
# Velocity P-wave (km/s) = 5.08129 6.63810 5.91117
#
# Compressibility (1/GPa) = 0.03365957
#
# Stress axis : x y z
#
# Youngs Moduli (GPa) = 48.41892 15.00335 39.31833
#
# Poissons Ratio (x) = 0.37407 -0.23082
# Poissons Ratio (y) = 1.20721 0.80513
# Poissons Ratio (z) = -0.28424 0.30723
#
# Static dielectric constant tensor:
#      x y z
#    x 1.678770 0.000000 -0.005860 
#    y 0.000000 1.653090 0.000000 
#    z -0.005860 0.000000 1.662090 
# 
# From -- ./inp_files/187715.got.cif
#   From: 2010.05.17/outbox.cif.g08.bks.cpg/sg12_94_cif.got.tgz:187715.got - 2010.06.03 13:09:07.
