data_PCOD9203732
_publ_section_title
;
Structure prediction by ZEFSAII (Michael W. Deem and Ramdas Pophale) SiO2 
 PCOD9203732
Probable space group: C 2/M
;
_chemical_formula_sum "Si O2"
_cell_formula_units_Z 48
_cell_length_a 30.803226
_cell_length_b 15.797660
_cell_length_c 8.809819
_cell_angle_alpha 90.000000
_cell_angle_beta 148.515408
_cell_angle_gamma 90.000000
_cell_volume 2238.981009
_symmetry_space_group_name_H-M "C 2/M"
_symmetry_group_IT_number 12
_symmetry_cell_setting 'monoclinic'
loop_
_space_group_symop_operation_xyz
x,y,z
-x,y,-z
-x,-y,-z
x,-y,z
1/2+x,1/2+y,z
1/2-x,1/2+y,-z
1/2-x,1/2-y,-z
1/2+x,1/2-y,z
loop_
_atom_site_type_symbol
_atom_site_label
_atom_site_fract_x
_atom_site_fract_y
_atom_site_fract_z
Si Si1 0.083129 0.776650 0.663652
Si Si2 0.078778 0.802337 0.297206
Si Si3 0.416573 0.122657 0.837211
Si Si4 0.105268 0.593257 0.877651
Si Si5 0.199995 0.093855 0.490631
Si Si6 0.718863 0.400820 0.202325
O O1 0.070761 0.777917 0.446779
O O2 0.089376 0.678746 0.736707
O O3 0.000000 0.811261 0.500000
O O4 0.165036 0.834025 0.943815
O O5 0.082386 0.721907 0.196678
O O6 0.160920 0.852521 0.506536
O O7 0.000000 0.853964 0.000000
O O8 0.321065 0.099378 0.502215
O O9 0.500000 0.090488 0.000000
O O10 0.427577 0.102782 0.047658
O O11 0.083253 0.500000 0.747536
O O12 0.203227 0.590451 0.191596
O O13 0.192805 0.125240 0.296519
O O14 0.164009 0.000000 0.386129
O O15 0.695605 0.500000 0.106367
#
# Coordination Sequence:
#
# PCOD9203732 Si02
#       6
#     8   8   8   8   8   8
#     4  12  25  42  63  90 128 168 210 263 315 367
#     4  11  23  39  61  88 121 167 215 262 317 372
#     4  10  20  39  66  94 128 166 207 251 306 375
#     4  10  22  41  65  92 123 163 207 255 314 375
#     4   9  19  38  62  89 123 162 206 255 310 375
#     4  10  22  40  65  95 127 167 210 255 310 369
#
# _framework density 21.438323
#
# number of rings (size 3 to 8) (size 9 to 14) (size 15 to 20)
#    0.000    1.667    0.000    6.500    0.000    8.333 
#    0.000    3.333    0.000    0.500    0.000    0.000 
#    0.000    0.000    0.000    0.000    0.000    0.000 
#
# Total GULP energy -133759.952116 kJ/mol
# GULP energy per Si atom -5573.331338 kJ/mol
# Density = 2.138953 g / cm^3
# Si number density = 21.438323 Si / 1000 Ang^3
#
#
#
# Elastic Constant Matrix: (Units=GPa)
#
#
# Indices 1 2 3 4 5 6 
#
# 1 134.6669 58.3783 40.2873 0.0000 9.5891 0.0000
# 2 58.3783 67.0743 52.9317 0.0000 -1.1968 0.0000
# 3 40.2873 52.9317 97.7396 0.0000 -11.1968 0.0000
# 4 0.0000 0.0000 0.0000 5.9535 0.0000 83.2499
# 5 9.5891 -1.1968 -11.1968 0.0000 25.8433 0.0000
# 6 0.0000 0.0000 0.0000 83.2499 0.0000 -54.5696
#
#
#
# Elastic Compliance Matrix: (Units=1/GPa)
#
#
# Indices 1 2 3 4 5 6 
#
# 1 0.012589 -0.011346 0.000379 0.000000 -0.005032 0.000000
# 2 -0.011346 0.036931 -0.015411 0.000000 -0.000757 0.000000
# 3 0.000379 -0.015411 0.019280 0.000000 0.007499 0.000000
# 4 0.000000 0.000000 0.000000 0.007521 0.000000 0.011474
# 5 -0.005032 -0.000757 0.007499 0.000000 0.043776 0.000000
# 6 0.000000 0.000000 0.000000 0.011474 0.000000 -0.000821
#
#
# Mechanical properties :
#
#
# Convention : Reuss Voigt Hill
#
# Bulk Modulus (GPa) = 62.32329 66.96394 64.64361
# Shear Modulus (GPa) = 28.18795 5.30433 16.74614
#
# Velocity S-wave (km/s) = 3.63000 1.57467 2.79790
# Velocity P-wave (km/s) = 6.83398 5.88299 6.37624
#
# Compressibility (1/GPa) = 0.01604537
#
# Stress axis : x y z
#
# Youngs Moduli (GPa) = 79.43361 27.07727 51.86716
#
# Poissons Ratio (x) = 0.30721 -0.01964
# Poissons Ratio (y) = 0.90122 0.79931
# Poissons Ratio (z) = -0.03008 0.41728
#
# Static dielectric constant tensor:
#      x y z
#    x 1.759610 0.000000 0.041780 
#    y 0.000000 1.803140 0.000000 
#    z 0.041780 0.000000 1.840670 
# 
# From -- ./inp_files/112937.got.cif
#   From: 2010.05.17/outbox.cif.g08.bks.cpg/sg12_57_cif.got.tgz:112937.got - 2010.06.03 13:09:07.
