data_PCOD9203308
_publ_section_title
;
Structure prediction by ZEFSAII (Michael W. Deem and Ramdas Pophale) SiO2 
 PCOD9203308
Probable space group: C 2/M
;
_chemical_formula_sum "Si O2"
_cell_formula_units_Z 56
_cell_length_a 29.545121
_cell_length_b 8.916231
_cell_length_c 11.085446
_cell_angle_alpha 90.000000
_cell_angle_beta 68.560227
_cell_angle_gamma 90.000000
_cell_volume 2718.176825
_symmetry_space_group_name_H-M "C 2/M"
_symmetry_group_IT_number 12
_symmetry_cell_setting 'monoclinic'
loop_
_space_group_symop_operation_xyz
x,y,z
-x,y,-z
-x,-y,-z
x,-y,z
1/2+x,1/2+y,z
1/2-x,1/2+y,-z
1/2-x,1/2-y,-z
1/2+x,1/2-y,z
loop_
_atom_site_type_symbol
_atom_site_label
_atom_site_fract_x
_atom_site_fract_y
_atom_site_fract_z
Si Si1 0.047669 0.671974 0.387174
Si Si2 0.623937 0.323638 0.932439
Si Si3 0.530241 0.171022 0.120655
Si Si4 0.618992 0.677755 0.474551
Si Si5 0.081758 0.678196 0.750457
Si Si6 0.732274 0.680212 0.390604
Si Si7 0.279063 0.819434 0.085316
O O1 0.054872 0.500000 0.422773
O O2 0.036271 0.667875 0.258337
O O3 0.094688 0.766572 0.375215
O O4 0.000000 0.734280 0.500000
O O5 0.633151 0.500000 0.922098
O O6 0.620202 0.257014 0.801107
O O7 0.665576 0.238954 0.966245
O O8 0.570888 0.284196 0.035746
O O9 0.473769 0.207774 0.152888
O O10 0.540448 0.000000 0.066524
O O11 0.614202 0.500000 0.491173
O O12 0.589745 0.758111 0.609950
O O13 0.675428 0.717229 0.429993
O O14 0.088722 0.500000 0.743946
O O15 0.737614 0.500000 0.394967
O O16 0.750000 0.750000 0.500000
O O17 0.758168 0.725109 0.238889
O O18 0.277132 0.000000 0.078886
O O19 0.250000 0.750000 0.000000
#
# Coordination Sequence:
#
# PCOD9203308 Si02
#       7
#     8   8   8   8   8   8   8
#     4  10  20  39  61  88 123 165 212 254 303 374
#     4  12  26  42  63  93 128 164 209 264 321 381
#     4  10  22  40  63  90 124 167 214 257 307 375
#     4  11  23  38  61  95 130 162 201 258 322 377
#     4  11  22  41  65  92 127 168 212 257 308 379
#     4  10  24  44  67  96 129 164 213 268 323 384
#     4  11  25  47  70  96 130 173 221 273 328 389
#
# _framework density 20.602046000000001
#
# number of rings (size 3 to 8) (size 9 to 14) (size 15 to 20)
#    0.000    1.286    1.429    3.857    2.000    8.286 
#    0.000    0.000    0.000    0.000    0.000    0.000 
#    0.000    0.000    0.000    0.000    0.000    0.000 
#
# Total GULP energy -156524.252859 kJ/mol
# GULP energy per Si atom -5590.151888 kJ/mol
# Density = 2.055515 g / cm^3
# Si number density = 20.602046 Si / 1000 Ang^3
#
#
#
# Elastic Constant Matrix: (Units=GPa)
#
#
# Indices 1 2 3 4 5 6 
#
# 1 138.5833 59.6248 36.5886 0.0000 25.3719 0.0000
# 2 59.6248 75.0817 28.7703 0.0000 1.6351 0.0000
# 3 36.5886 28.7703 67.2720 0.0000 11.3122 0.0000
# 4 0.0000 0.0000 0.0000 28.5563 0.0000 6.9604
# 5 25.3719 1.6351 11.3122 0.0000 35.8270 0.0000
# 6 0.0000 0.0000 0.0000 6.9604 0.0000 31.7433
#
#
#
# Elastic Compliance Matrix: (Units=1/GPa)
#
#
# Indices 1 2 3 4 5 6 
#
# 1 0.013471 -0.009874 -0.001664 0.000000 -0.008564 0.000000
# 2 -0.009874 0.023243 -0.005880 0.000000 0.007788 0.000000
# 3 -0.001664 -0.005880 0.019053 0.000000 -0.004569 0.000000
# 4 0.000000 0.000000 0.000000 0.036996 0.000000 -0.008112
# 5 -0.008564 0.007788 -0.004569 0.000000 0.035064 0.000000
# 6 0.000000 0.000000 0.000000 -0.008112 0.000000 0.033281
#
#
# Mechanical properties :
#
#
# Convention : Reuss Voigt Hill
#
# Bulk Modulus (GPa) = 47.77320 58.98935 53.38128
# Shear Modulus (GPa) = 24.64003 29.62222 27.13113
#
# Velocity S-wave (km/s) = 3.46207 3.79599 3.63287
# Velocity P-wave (km/s) = 6.26260 6.92153 6.60029
#
# Compressibility (1/GPa) = 0.02093224
#
# Stress axis : x y z
#
# Youngs Moduli (GPa) = 74.23203 43.02299 52.48500
#
# Poissons Ratio (x) = 0.42480 0.08734
# Poissons Ratio (y) = 0.73295 0.30861
# Poissons Ratio (z) = 0.12353 0.25297
#
# Static dielectric constant tensor:
#      x y z
#    x 1.721950 0.000000 0.000310 
#    y 0.000000 1.693880 0.000000 
#    z 0.000310 0.000000 1.770810 
# 
# From -- ./inp_files/180748.got.cif
#   From: 2010.05.17/outbox.cif.g08.bks.cpg/sg12_91_cif.got.tgz:180748.got - 2010.06.03 13:09:07.
