data_PCOD9203445
_publ_section_title
;
Structure prediction by ZEFSAII (Michael W. Deem and Ramdas Pophale) SiO2 
 PCOD9203445
Probable space group: C 2/M
;
_chemical_formula_sum "Si O2"
_cell_formula_units_Z 56
_cell_length_a 22.330110
_cell_length_b 8.662228
_cell_length_c 15.045177
_cell_angle_alpha 90.000000
_cell_angle_beta 112.909344
_cell_angle_gamma 90.000000
_cell_volume 2680.617807
_symmetry_space_group_name_H-M "C 2/M"
_symmetry_group_IT_number 12
_symmetry_cell_setting 'monoclinic'
loop_
_space_group_symop_operation_xyz
x,y,z
-x,y,-z
-x,-y,-z
x,-y,z
1/2+x,1/2+y,z
1/2-x,1/2+y,-z
1/2-x,1/2-y,-z
1/2+x,1/2-y,z
loop_
_atom_site_type_symbol
_atom_site_label
_atom_site_fract_x
_atom_site_fract_y
_atom_site_fract_z
Si Si1 0.657347 0.319370 0.749494
Si Si2 0.425604 0.184733 0.447590
Si Si3 0.341847 0.823008 0.059566
Si Si4 0.107932 0.819287 0.250369
Si Si5 0.698948 0.186024 0.155933
Si Si6 0.676785 0.816073 0.461217
Si Si7 0.507599 0.177335 0.904376
O O1 0.646319 0.500000 0.728519
O O2 0.603767 0.225199 0.665263
O O3 0.659426 0.281722 0.854735
O O4 0.730766 0.280156 0.761415
O O5 0.500000 0.243281 0.500000
O O6 0.371834 0.242132 0.488330
O O7 0.428498 0.000000 0.460037
O O8 0.416938 0.827110 0.073671
O O9 0.321846 0.000000 0.069479
O O10 0.303921 0.768734 0.949640
O O11 0.144697 0.770469 0.181374
O O12 0.140598 0.726066 0.348989
O O13 0.033563 0.772584 0.190206
O O14 0.114891 0.000000 0.271099
O O15 0.688833 0.000000 0.152007
O O16 0.750000 0.750000 0.500000
O O17 0.682558 0.000000 0.474036
O O18 0.482396 0.000000 0.889544
O O19 0.500000 0.239021 0.000000
#
# Coordination Sequence:
#
# PCOD9203445 Si02
#       7
#     8   8   8   8   8   8   8
#     4  11  24  39  62  93 126 159 198 258 316 364
#     4  10  24  46  68  90 119 164 218 262 308 378
#     4  10  21  38  63  88 120 167 211 248 297 371
#     4  12  25  38  61  95 130 163 202 257 315 371
#     4  10  21  41  63  89 125 168 210 248 302 372
#     4  11  24  44  70  97 127 163 213 268 321 382
#     4  10  20  39  63  86 119 166 212 252 303 368
#
# _framework density 20.890706000000002
#
# number of rings (size 3 to 8) (size 9 to 14) (size 15 to 20)
#    0.000    1.429    1.429    3.429    2.000    6.286 
#    0.000    0.000    0.000    0.000    0.000    0.000 
#    0.000    0.000    0.000    0.000    0.000    0.000 
#
# Total GULP energy -156471.722246 kJ/mol
# GULP energy per Si atom -5588.275795 kJ/mol
# Density = 2.084316 g / cm^3
# Si number density = 20.890706 Si / 1000 Ang^3
#
#
#
# Elastic Constant Matrix: (Units=GPa)
#
#
# Indices 1 2 3 4 5 6 
#
# 1 92.3266 18.5683 38.4724 0.0000 18.9560 0.0000
# 2 18.5683 17.7875 -2.6030 0.0000 7.5280 0.0000
# 3 38.4724 -2.6030 96.7319 0.0000 18.5007 0.0000
# 4 0.0000 0.0000 0.0000 -2.8574 0.0000 0.3144
# 5 18.9560 7.5280 18.5007 0.0000 35.4783 0.0000
# 6 0.0000 0.0000 0.0000 0.3144 0.0000 26.0790
#
#
#
# Elastic Compliance Matrix: (Units=1/GPa)
#
#
# Indices 1 2 3 4 5 6 
#
# 1 0.018157 -0.019301 -0.007408 0.000000 -0.001743 0.000000
# 2 -0.019301 0.084207 0.012649 0.000000 -0.014151 0.000000
# 3 -0.007408 0.012649 0.014863 0.000000 -0.006477 0.000000
# 4 0.000000 0.000000 0.000000 -0.349508 0.000000 0.004214
# 5 -0.001743 -0.014151 -0.006477 0.000000 0.035498 0.000000
# 6 0.000000 0.000000 0.000000 0.004214 0.000000 0.038294
#
#
# Mechanical properties :
#
#
# Convention : Reuss Voigt Hill
#
# Bulk Modulus (GPa) = 11.22222 35.08015 23.15118
# Shear Modulus (GPa) = -49.66891 21.90054 -13.88419
#
# Velocity S-wave (km/s) = -4.88131 3.24132 -2.58080
# Velocity P-wave (km/s) = 5.13674 5.55310 1.49178
#
# Compressibility (1/GPa) = 0.08910894
#
# Stress axis : x y z
#
# Youngs Moduli (GPa) = 55.07392 11.87546 67.28088
#
# Poissons Ratio (x) = 0.22920 0.49839
# Poissons Ratio (y) = 1.06296 -0.85102
# Poissons Ratio (z) = 0.40796 -0.15021
#
# Static dielectric constant tensor:
#      x y z
#    x 1.776860 0.000000 -0.007660 
#    y 0.000000 1.731830 0.000000 
#    z -0.007660 0.000000 1.725900 
# 
# From -- ./inp_files/238871.got.cif
#   From: 2010.05.17/outbox.cif.g08.bks.cpg/sg12_120_cif.got.tgz:238871.got - 2010.06.03 13:09:07.
