data_PCOD9203314
_publ_section_title
;
Structure prediction by ZEFSAII (Michael W. Deem and Ramdas Pophale) SiO2 
 PCOD9203314
Probable space group: C 2/M
;
_chemical_formula_sum "Si O2"
_cell_formula_units_Z 64
_cell_length_a 24.480731
_cell_length_b 23.642000
_cell_length_c 5.451846
_cell_angle_alpha 90.000000
_cell_angle_beta 105.678109
_cell_angle_gamma 90.000000
_cell_volume 3037.987830
_symmetry_space_group_name_H-M "C 2/M"
_symmetry_group_IT_number 12
_symmetry_cell_setting 'monoclinic'
loop_
_space_group_symop_operation_xyz
x,y,z
-x,y,-z
-x,-y,-z
x,-y,z
1/2+x,1/2+y,z
1/2-x,1/2+y,-z
1/2-x,1/2-y,-z
1/2+x,1/2-y,z
loop_
_atom_site_type_symbol
_atom_site_label
_atom_site_fract_x
_atom_site_fract_y
_atom_site_fract_z
Si Si1 0.872845 0.717363 0.269822
Si Si2 0.177125 0.191363 0.478264
Si Si3 0.022158 0.435357 0.276886
Si Si4 0.535948 0.693198 0.794406
Si Si5 0.793921 0.668887 0.820935
Si Si6 0.642036 0.104873 0.487842
Si Si7 0.751808 0.564119 0.091700
Si Si8 0.356012 0.629381 0.056175
O O1 0.855604 0.751493 0.493387
O O2 0.923186 0.752142 0.203917
O O3 0.879264 0.651216 0.339089
O O4 0.816832 0.716052 0.032169
O O5 0.244609 0.192293 0.589977
O O6 0.163195 0.169363 0.192943
O O7 0.157191 0.151185 0.682846
O O8 0.999546 0.500000 0.248347
O O9 0.089919 0.435591 0.371100
O O10 0.000000 0.408089 0.500000
O O11 0.000000 0.407843 0.000000
O O12 0.500000 0.687833 0.500000
O O13 0.500000 0.700407 0.000000
O O14 0.576158 0.637590 0.873336
O O15 0.845003 0.642314 0.732344
O O16 0.768588 0.614863 0.931963
O O17 0.701515 0.075459 0.636808
O O18 0.760132 0.500000 0.014838
O O19 0.684377 0.575363 0.048532
#
# Coordination Sequence:
#
# PCOD9203314 Si02
#       8
#     8   8   8   8   8   8   8   8
#     4  10  24  37  59  90 125 169 205 253 307 373
#     4  10  20  39  61  89 131 166 201 245 309 391
#     4  10  24  45  64  81 111 164 214 259 311 359
#     4  11  24  43  65  90 125 174 220 261 311 378
#     4  10  22  38  58  94 128 165 206 250 316 373
#     4  11  23  40  60  96 125 162 209 262 315 370
#     4  10  22  41  65  96 130 164 207 266 330 389
#     4  10  21  41  64  95 127 163 213 264 320 380
#
# _framework density 21.066576000000001
#
# number of rings (size 3 to 8) (size 9 to 14) (size 15 to 20)
#    0.000    1.750    1.250    2.250    8.750    3.000 
#    0.000    0.000    0.000    0.750    0.000    0.000 
#    0.000    0.000    0.000    0.000    0.000    0.000 
#
# Total GULP energy -178296.522216 kJ/mol
# GULP energy per Si atom -5571.766319 kJ/mol
# Density = 2.101863 g / cm^3
# Si number density = 21.066576 Si / 1000 Ang^3
#
#
#
# Elastic Constant Matrix: (Units=GPa)
#
#
# Indices 1 2 3 4 5 6 
#
# 1 88.6462 17.5656 17.8480 0.0000 4.8738 0.0000
# 2 17.5656 54.7869 13.5049 0.0000 7.6383 0.0000
# 3 17.8480 13.5049 103.8604 0.0000 11.8341 0.0000
# 4 0.0000 0.0000 0.0000 3.4110 0.0000 7.9456
# 5 4.8738 7.6383 11.8341 0.0000 40.3903 0.0000
# 6 0.0000 0.0000 0.0000 7.9456 0.0000 27.4246
#
#
#
# Elastic Compliance Matrix: (Units=1/GPa)
#
#
# Indices 1 2 3 4 5 6 
#
# 1 0.012320 -0.003502 -0.001622 0.000000 -0.000349 0.000000
# 2 -0.003502 0.020197 -0.001694 0.000000 -0.002901 0.000000
# 3 -0.001622 -0.001694 0.010416 0.000000 -0.002536 0.000000
# 4 0.000000 0.000000 0.000000 0.901781 0.000000 -0.261268
# 5 -0.000349 -0.002901 -0.002536 0.000000 0.026092 0.000000
# 6 0.000000 0.000000 0.000000 -0.261268 0.000000 0.112160
#
#
# Mechanical properties :
#
#
# Convention : Reuss Voigt Hill
#
# Bulk Modulus (GPa) = 34.13144 38.34783 36.23963
# Shear Modulus (GPa) = 4.51929 27.47017 15.99473
#
# Velocity S-wave (km/s) = 1.46625 3.61497 2.75843
# Velocity P-wave (km/s) = 4.37074 5.97216 5.23307
#
# Compressibility (1/GPa) = 0.02929850
#
# Stress axis : x y z
#
# Youngs Moduli (GPa) = 81.16588 49.51185 96.00369
#
# Poissons Ratio (x) = 0.17337 0.15573
# Poissons Ratio (y) = 0.28421 0.16263
# Poissons Ratio (z) = 0.13166 0.08387
#
# Static dielectric constant tensor:
#      x y z
#    x 1.815920 0.000000 0.000360 
#    y 0.000000 1.754990 0.000000 
#    z 0.000360 0.000000 1.849850 
# 
# From -- ./inp_files/26230.got.cif
#   From: 2010.05.17/outbox.cif.g08.bks.cpg/sg12_14_cif.got.tgz:26230.got - 2010.06.03 13:09:07.
