data_PCOD9203523
_publ_section_title
;
Structure prediction by ZEFSAII (Michael W. Deem and Ramdas Pophale) SiO2 
 PCOD9203523
Probable space group: C 2/M
;
_chemical_formula_sum "Si O2"
_cell_formula_units_Z 50
_cell_length_a 18.892505
_cell_length_b 7.534204
_cell_length_c 17.313996
_cell_angle_alpha 90.000000
_cell_angle_beta 62.189398
_cell_angle_gamma 90.000000
_cell_volume 2179.814058
_symmetry_space_group_name_H-M "C 2/M"
_symmetry_group_IT_number 12
_symmetry_cell_setting 'monoclinic'
loop_
_space_group_symop_operation_xyz
x,y,z
-x,y,-z
-x,-y,-z
x,-y,z
1/2+x,1/2+y,z
1/2-x,1/2+y,-z
1/2-x,1/2-y,-z
1/2+x,1/2-y,z
loop_
_atom_site_type_symbol
_atom_site_label
_atom_site_fract_x
_atom_site_fract_y
_atom_site_fract_z
Si Si1 0.924426 0.705466 0.493404
Si Si2 0.590440 0.707956 0.671973
Si Si3 0.500000 0.500000 0.000000
Si Si4 0.260422 0.782983 0.647852
Si Si5 0.715557 0.214769 0.187508
Si Si6 0.114265 0.706064 0.964894
Si Si7 0.932022 0.286517 0.839242
O O1 0.920602 0.500000 0.520999
O O2 0.935854 0.710503 0.396070
O O3 0.837085 0.778352 0.559701
O O4 0.000000 0.786055 0.500000
O O5 0.600313 0.500000 0.651743
O O6 0.675517 0.779732 0.658032
O O7 0.520186 0.731412 0.769543
O O8 0.436520 0.342613 0.059665
O O9 0.274101 0.728514 0.729373
O O10 0.256887 0.000000 0.648514
O O11 0.792264 0.276290 0.100283
O O12 0.633479 0.275703 0.189651
O O13 0.715052 0.000000 0.186732
O O14 0.091922 0.500000 0.966846
O O15 0.094681 0.771292 0.061930
O O16 0.929998 0.500000 0.841334
#
# Coordination Sequence:
#
# PCOD9203523 Si02
#       7
#     8   8   2   8   8   8   8
#     4  10  20  39  64  86 114 159 210 261 316 388
#     4  11  23  36  58  90 126 162 203 259 327 389
#     4  12  26  44  68  94 136 180 208 284 340 374
#     4   9  20  36  60  89 120 163 210 252 321 398
#     4  10  20  41  67  92 126 171 214 268 330 383
#     4  11  25  42  67 100 132 173 227 269 323 396
#     4  10  23  41  64  93 126 169 221 268 315 389
#
# _framework density 22.937735
#
# number of rings (size 3 to 8) (size 9 to 14) (size 15 to 20)
#    0.000    1.760    0.800    2.640    3.360    3.520 
#    0.000    2.400    0.000    0.000    0.000    0.000 
#    0.000    0.000    0.000    0.000    0.000    0.000 
#
# Total GULP energy -139583.790460 kJ/mol
# GULP energy per Si atom -5583.351618 kJ/mol
# Density = 2.288553 g / cm^3
# Si number density = 22.937735 Si / 1000 Ang^3
#
#
#
# Elastic Constant Matrix: (Units=GPa)
#
#
# Indices 1 2 3 4 5 6 
#
# 1 60.1984 10.2558 12.6038 -0.0001 -6.2444 -0.0002
# 2 10.2558 79.8384 -4.8907 -0.0002 -1.9096 -0.0005
# 3 12.6038 -4.8907 103.1951 0.0000 -7.6460 0.0000
# 4 -0.0001 -0.0002 0.0000 14.4301 0.0000 -11.6014
# 5 -6.2444 -1.9096 -7.6460 0.0000 44.2197 -0.0001
# 6 -0.0002 -0.0005 0.0000 -11.6014 -0.0001 7.6881
#
#
#
# Elastic Compliance Matrix: (Units=1/GPa)
#
#
# Indices 1 2 3 4 5 6 
#
# 1 0.017666 -0.002351 -0.002119 -0.000001 0.002027 -0.000002
# 2 -0.002351 0.012893 0.000927 -0.000004 0.000385 -0.000005
# 3 -0.002119 0.000927 0.010103 0.000000 0.001488 0.000000
# 4 -0.000001 -0.000004 0.000000 -0.325054 -0.000001 -0.490507
# 5 0.002027 0.000385 0.001488 -0.000001 0.023174 -0.000001
# 6 -0.000002 -0.000005 0.000000 -0.490507 -0.000001 -0.610104
#
#
# Mechanical properties :
#
#
# Convention : Reuss Voigt Hill
#
# Bulk Modulus (GPa) = 29.78238 31.01886 30.40062
# Shear Modulus (GPa) = -5.86137 28.28510 11.21187
#
# Velocity S-wave (km/s) = -1.60028 3.51540 2.21327
# Velocity P-wave (km/s) = 3.09801 5.47994 4.45126
#
# Compressibility (1/GPa) = 0.03357690
#
# Stress axis : x y z
#
# Youngs Moduli (GPa) = 56.60560 77.56008 98.97728
#
# Poissons Ratio (x) = 0.18232 0.20972
# Poissons Ratio (y) = 0.13306 -0.09172
# Poissons Ratio (z) = 0.11994 -0.07187
#
# Static dielectric constant tensor:
#      x y z
#    x 1.891790 0.000000 0.019650 
#    y 0.000000 1.887910 0.000000 
#    z 0.019650 0.000000 1.827640 
# 
# From -- ./inp_files/274914.got.cif
#   From: 2010.05.17/outbox.cif.g08.bks.cpg/sg12_138_cif.got.tgz:274914.got - 2010.06.03 13:09:07.
