data_PCOD9203089
_publ_section_title
;
Structure prediction by ZEFSAII (Michael W. Deem and Ramdas Pophale) SiO2 
 PCOD9203089
Probable space group: C 2/M
;
_chemical_formula_sum "Si O2"
_cell_formula_units_Z 40
_cell_length_a 18.133651
_cell_length_b 11.656085
_cell_length_c 15.711543
_cell_angle_alpha 90.000000
_cell_angle_beta 33.665312
_cell_angle_gamma 90.000000
_cell_volume 1840.914080
_symmetry_space_group_name_H-M "C 2/M"
_symmetry_group_IT_number 12
_symmetry_cell_setting 'monoclinic'
loop_
_space_group_symop_operation_xyz
x,y,z
-x,y,-z
-x,-y,-z
x,-y,z
1/2+x,1/2+y,z
1/2-x,1/2+y,-z
1/2-x,1/2-y,-z
1/2+x,1/2-y,z
loop_
_atom_site_type_symbol
_atom_site_label
_atom_site_fract_x
_atom_site_fract_y
_atom_site_fract_z
Si Si1 0.273820 0.132309 0.920999
Si Si2 0.571983 0.801348 0.635623
Si Si3 0.345894 0.289008 0.141242
Si Si4 0.150758 0.119609 0.680423
Si Si5 0.864697 0.127241 0.577200
O O1 0.433394 0.137446 0.752577
O O2 0.195743 0.153382 0.907443
O O3 0.244870 0.000000 0.980326
O O4 0.250000 0.250000 0.000000
O O5 0.705396 0.875646 0.502863
O O6 0.571729 0.730186 0.723642
O O7 0.601696 0.706561 0.535025
O O8 0.326076 0.371840 0.241388
O O9 0.248178 0.183828 0.255911
O O10 0.500000 0.255455 0.000000
O O11 0.081953 0.000000 0.725379
O O12 0.000000 0.121929 0.500000
O O13 0.825049 0.000000 0.588231
#
# Coordination Sequence:
#
# PCOD9203089 Si02
#       5
#     8   8   8   8   8
#     4  12  27  45  67  95 131 176 226 277 335 397
#     4  10  21  40  63  96 129 169 220 274 325 389
#     4  11  24  42  63  96 134 170 218 277 334 388
#     4  10  21  38  66  95 128 170 216 272 332 391
#     4  10  20  38  66  96 131 175 221 267 322 393
#
# _framework density 21.728335999999999
#
# number of rings (size 3 to 8) (size 9 to 14) (size 15 to 20)
#    0.000    1.400    2.000    3.000    0.000    6.000 
#    0.000   10.000    0.000    0.000    0.000    0.000 
#    0.000    0.000    0.000    0.000    0.000    0.000 
#
# Total GULP energy -111623.155740 kJ/mol
# GULP energy per Si atom -5581.157787 kJ/mol
# Density = 2.167888 g / cm^3
# Si number density = 21.728336 Si / 1000 Ang^3
#
#
#
# Elastic Constant Matrix: (Units=GPa)
#
#
# Indices 1 2 3 4 5 6 
#
# 1 117.2592 30.6149 32.4852 0.0000 -4.6777 0.0000
# 2 30.6149 158.5108 35.9587 0.0000 5.2068 0.0000
# 3 32.4852 35.9587 88.2484 0.0000 -21.9912 0.0000
# 4 0.0000 0.0000 0.0000 9.2741 0.0000 -1.4902
# 5 -4.6777 5.2068 -21.9912 0.0000 52.7910 0.0000
# 6 0.0000 0.0000 0.0000 -1.4902 0.0000 0.4882
#
#
#
# Elastic Compliance Matrix: (Units=1/GPa)
#
#
# Indices 1 2 3 4 5 6 
#
# 1 0.009696 -0.001136 -0.003196 0.000000 -0.000360 0.000000
# 2 -0.001136 0.007296 -0.003079 0.000000 -0.002103 0.000000
# 3 -0.003196 -0.003079 0.015362 0.000000 0.006420 0.000000
# 4 0.000000 0.000000 0.000000 0.211616 0.000000 0.645920
# 5 -0.000360 -0.002103 0.006420 0.000000 0.021792 0.000000
# 6 0.000000 0.000000 0.000000 0.645920 0.000000 4.019787
#
#
# Mechanical properties :
#
#
# Convention : Reuss Voigt Hill
#
# Bulk Modulus (GPa) = 57.03601 62.45955 59.74778
# Shear Modulus (GPa) = 1.16111 30.17465 15.66788
#
# Velocity S-wave (km/s) = 0.73180 3.73060 2.68821
# Velocity P-wave (km/s) = 5.19814 6.88219 6.09857
#
# Compressibility (1/GPa) = 0.01753278
#
# Stress axis : x y z
#
# Youngs Moduli (GPa) = 103.13834 137.06997 65.09377
#
# Poissons Ratio (x) = 0.15568 0.20805
# Poissons Ratio (y) = 0.11714 0.20040
# Poissons Ratio (z) = 0.32964 0.42199
#
# Static dielectric constant tensor:
#      x y z
#    x 1.809000 0.000000 0.011950 
#    y 0.000000 1.829680 0.000000 
#    z 0.011950 0.000000 1.802740 
# 
# From -- ./inp_files/222890.got.cif
#   From: 2010.05.17/outbox.cif.g08.bks.cpg/sg12_112_cif.got.tgz:222890.got - 2010.06.03 13:09:07.
