data_PCOD9203005
_publ_section_title
;
Structure prediction by ZEFSAII (Michael W. Deem and Ramdas Pophale) SiO2 
 PCOD9203005
Probable space group: C 2/M
;
_chemical_formula_sum "Si O2"
_cell_formula_units_Z 64
_cell_length_a 19.274607
_cell_length_b 8.105161
_cell_length_c 33.658780
_cell_angle_alpha 90.000000
_cell_angle_beta 143.510195
_cell_angle_gamma 90.000000
_cell_volume 3127.005842
_symmetry_space_group_name_H-M "C 2/M"
_symmetry_group_IT_number 12
_symmetry_cell_setting 'monoclinic'
loop_
_space_group_symop_operation_xyz
x,y,z
-x,y,-z
-x,-y,-z
x,-y,z
1/2+x,1/2+y,z
1/2-x,1/2+y,-z
1/2-x,1/2-y,-z
1/2+x,1/2-y,z
loop_
_atom_site_type_symbol
_atom_site_label
_atom_site_fract_x
_atom_site_fract_y
_atom_site_fract_z
Si Si1 0.104334 0.301002 0.182416
Si Si2 0.217551 0.807787 0.801458
Si Si3 0.040581 0.305040 0.315532
Si Si4 0.361472 0.310258 0.940639
Si Si5 0.684743 0.202268 0.305594
Si Si6 0.115432 0.697716 0.436328
Si Si7 0.635309 0.302650 0.969920
Si Si8 0.453911 0.301166 0.435774
O O1 0.109673 0.500000 0.184837
O O2 0.210834 0.241407 0.203559
O O3 0.121911 0.244768 0.235833
O O4 0.982261 0.253831 0.106028
O O5 0.301617 0.787367 0.877831
O O6 0.096199 0.719847 0.754235
O O7 0.192007 0.000000 0.782777
O O8 0.066266 0.500000 0.328885
O O9 0.117602 0.239388 0.314294
O O10 0.068458 0.237341 0.372233
O O11 0.316900 0.500000 0.918281
O O12 0.500000 0.317029 0.000000
O O13 0.346208 0.236301 0.977125
O O14 0.820257 0.254122 0.367698
O O15 0.682941 0.000000 0.305017
O O16 0.108847 0.500000 0.433315
O O17 0.250000 0.750000 0.500000
O O18 0.039009 0.756000 0.438639
O O19 0.627292 0.500000 0.969689
O O20 0.750000 0.250000 0.000000
O O21 0.500000 0.241679 0.500000
O O22 0.451189 0.500000 0.436252
#
# Coordination Sequence:
#
# PCOD9203005 Si02
#       8
#     8   8   8   8   8   8   8   8
#     4  10  21  38  58  82 114 153 194 239 295 353
#     4  11  23  37  59  89 120 151 193 252 302 344
#     4  10  22  40  61  86 118 158 203 244 292 357
#     4  10  21  40  62  83 111 154 199 238 291 360
#     4   9  19  37  60  84 114 155 200 240 288 355
#     4  11  23  39  62  92 125 162 204 250 297 351
#     4  11  24  40  60  84 114 149 191 243 296 355
#     4  10  20  38  65  92 122 161 203 246 297 357
#
# _framework density 20.466864000000001
#
# number of rings (size 3 to 8) (size 9 to 14) (size 15 to 20)
#    0.000    1.750    1.250    2.625    1.750    6.000 
#    0.000    1.250    0.000    0.000    0.000    0.000 
#    0.000    0.000    0.000    0.000    0.000    0.000 
#
# Total GULP energy -178715.642530 kJ/mol
# GULP energy per Si atom -5584.863829 kJ/mol
# Density = 2.042028 g / cm^3
# Si number density = 20.466864 Si / 1000 Ang^3
#
#
#
# Elastic Constant Matrix: (Units=GPa)
#
#
# Indices 1 2 3 4 5 6 
#
# 1 194.2474 4.6660 66.9827 -0.0002 -14.7529 0.0003
# 2 4.6660 11.7923 0.9663 -0.0003 -5.7930 0.0005
# 3 66.9827 0.9663 101.9195 -0.0001 -14.6582 0.0002
# 4 -0.0002 -0.0003 -0.0001 14.2000 0.0001 3.6847
# 5 -14.7529 -5.7930 -14.6582 0.0001 40.3440 -0.0001
# 6 0.0003 0.0005 0.0002 3.6847 -0.0001 24.8080
#
#
#
# Elastic Compliance Matrix: (Units=1/GPa)
#
#
# Indices 1 2 3 4 5 6 
#
# 1 0.006731 -0.002013 -0.004318 0.000000 0.000604 0.000000
# 2 -0.002013 0.091951 0.002368 0.000002 0.013328 -0.000002
# 3 -0.004318 0.002368 0.013135 0.000000 0.003533 0.000000
# 4 0.000000 0.000002 0.000000 0.073245 0.000000 -0.010879
# 5 0.000604 0.013328 0.003533 0.000000 0.028205 0.000000
# 6 0.000000 -0.000002 0.000000 -0.010879 0.000000 0.041925
#
#
# Mechanical properties :
#
#
# Convention : Reuss Voigt Hill
#
# Bulk Modulus (GPa) = 9.62547 50.35434 29.98991
# Shear Modulus (GPa) = 16.79266 31.56003 24.17634
#
# Velocity S-wave (km/s) = 2.86751 3.93110 3.44065
# Velocity P-wave (km/s) = 3.95937 6.72763 5.51986
#
# Compressibility (1/GPa) = 0.10389103
#
# Stress axis : x y z
#
# Youngs Moduli (GPa) = 148.56113 10.87541 76.13125
#
# Poissons Ratio (x) = 0.02189 0.32873
# Poissons Ratio (y) = 0.29906 -0.18028
# Poissons Ratio (z) = 0.64148 -0.02575
#
# Static dielectric constant tensor:
#      x y z
#    x 1.738080 0.000000 0.006190 
#    y 0.000000 1.746930 0.000000 
#    z 0.006190 0.000000 1.721210 
# 
# From -- ./inp_files/378468.got.cif
#   From: 2010.05.17/outbox.cif.g08.bks.cpg/sg12_190_cif.got.tgz:378468.got - 2010.06.03 13:09:07.
