data_PCOD9203100
_publ_section_title
;
Structure prediction by ZEFSAII (Michael W. Deem and Ramdas Pophale) SiO2 
 PCOD9203100
Probable space group: C 2/M
;
_chemical_formula_sum "Si O2"
_cell_formula_units_Z 44
_cell_length_a 12.961126
_cell_length_b 14.563210
_cell_length_c 13.973572
_cell_angle_alpha 90.000000
_cell_angle_beta 139.126996
_cell_angle_gamma 90.000000
_cell_volume 1725.998270
_symmetry_space_group_name_H-M "C 2/M"
_symmetry_group_IT_number 12
_symmetry_cell_setting 'monoclinic'
loop_
_space_group_symop_operation_xyz
x,y,z
-x,y,-z
-x,-y,-z
x,-y,z
1/2+x,1/2+y,z
1/2-x,1/2+y,-z
1/2-x,1/2-y,-z
1/2+x,1/2-y,z
loop_
_atom_site_type_symbol
_atom_site_label
_atom_site_fract_x
_atom_site_fract_y
_atom_site_fract_z
Si Si1 0.064223 0.500000 0.383134
Si Si2 0.087006 0.000000 0.346433
Si Si3 0.114709 0.704386 0.968258
Si Si4 0.190248 0.205885 0.716829
Si Si5 0.558508 0.000000 0.912734
Si Si6 0.398864 0.291510 0.663846
Si Si7 0.702013 0.500000 0.708826
Si Si8 0.000000 0.353469 0.500000
O O1 0.247113 0.500000 0.479959
O O2 0.024171 0.415004 0.423453
O O3 0.968812 0.500000 0.219953
O O4 0.100263 0.900368 0.304601
O O5 0.929887 0.000000 0.299847
O O6 0.141247 0.595245 0.990171
O O7 0.960270 0.728395 0.795688
O O8 0.250000 0.750000 0.000000
O O9 0.160142 0.726746 0.110030
O O10 0.151111 0.289387 0.620024
O O11 0.041103 0.208698 0.685242
O O12 0.182677 0.106175 0.660389
O O13 0.608854 0.000000 0.150455
O O14 0.250000 0.250000 0.500000
#
# Coordination Sequence:
#
# PCOD9203100 Si02
#       8
#     4   4   8   8   4   8   4   4
#     4  11  24  42  66  97 132 187 237 283 339 404
#     4  10  21  40  63  94 140 178 224 284 347 412
#     4  10  22  40  67  99 133 178 226 278 340 409
#     4  10  22  42  63  95 136 173 223 283 339 409
#     4  12  24  43  70 101 139 176 228 283 344 419
#     4  10  20  38  66  98 133 179 226 279 347 410
#     4  10  25  41  63  99 135 176 219 281 354 414
#     4  11  24  43  68  96 136 183 240 287 334 410
#
# _framework density 25.492493
#
# number of rings (size 3 to 8) (size 9 to 14) (size 15 to 20)
#    0.000    1.636    0.000    4.909    0.000   10.182 
#    0.000    2.727    0.000    1.091    0.000    0.000 
#    0.000    0.000    0.000    0.000    0.000    0.000 
#
# Total GULP energy -122948.405318 kJ/mol
# GULP energy per Si atom -5588.563878 kJ/mol
# Density = 2.543447 g / cm^3
# Si number density = 25.492493 Si / 1000 Ang^3
#
#
#
# Elastic Constant Matrix: (Units=GPa)
#
#
# Indices 1 2 3 4 5 6 
#
# 1 97.8046 51.2647 41.5606 0.0000 -10.2814 0.0000
# 2 51.2647 225.1942 60.7535 0.0000 -11.0352 0.0000
# 3 41.5606 60.7535 183.0020 0.0000 -1.8851 0.0000
# 4 0.0000 0.0000 0.0000 51.2789 0.0000 1.7110
# 5 -10.2814 -11.0352 -1.8851 0.0000 58.6953 0.0000
# 6 0.0000 0.0000 0.0000 1.7110 0.0000 41.8698
#
#
#
# Elastic Compliance Matrix: (Units=1/GPa)
#
#
# Indices 1 2 3 4 5 6 
#
# 1 0.012433 -0.002186 -0.002080 0.000000 0.001700 0.000000
# 2 -0.002186 0.005306 -0.001259 0.000000 0.000574 0.000000
# 3 -0.002080 -0.001259 0.006351 0.000000 -0.000397 0.000000
# 4 0.000000 0.000000 0.000000 0.019528 0.000000 -0.000798
# 5 0.001700 0.000574 -0.000397 0.000000 0.017430 0.000000
# 6 0.000000 0.000000 0.000000 -0.000798 0.000000 0.023916
#
#
# Mechanical properties :
#
#
# Convention : Reuss Voigt Hill
#
# Bulk Modulus (GPa) = 76.69285 90.35094 83.52190
# Shear Modulus (GPa) = 49.82015 53.86360 51.84187
#
# Velocity S-wave (km/s) = 4.42555 4.60164 4.51445
# Velocity P-wave (km/s) = 7.50092 7.98452 7.74649
#
# Compressibility (1/GPa) = 0.01303903
#
# Stress axis : x y z
#
# Youngs Moduli (GPa) = 80.43187 188.46443 157.45951
#
# Poissons Ratio (x) = 0.41193 0.32758
# Poissons Ratio (y) = 0.17580 0.19827
# Poissons Ratio (z) = 0.16733 0.23732
#
# Static dielectric constant tensor:
#      x y z
#    x 2.169840 0.000000 0.059030 
#    y 0.000000 1.957340 0.000000 
#    z 0.059030 0.000000 1.952470 
# 
# From -- ./inp_files/277982.got.cif
#   From: 2010.05.17/outbox.cif.g08.bks.cpg/sg12_139_cif.got.tgz:277982.got - 2010.06.03 13:09:07.
