data_PCOD9203145
_publ_section_title
;
Structure prediction by ZEFSAII (Michael W. Deem and Ramdas Pophale) SiO2 
 PCOD9203145
Probable space group: C 2/M
;
_chemical_formula_sum "Si O2"
_cell_formula_units_Z 52
_cell_length_a 23.983914
_cell_length_b 13.851646
_cell_length_c 7.872952
_cell_angle_alpha 90.000000
_cell_angle_beta 117.189267
_cell_angle_gamma 90.000000
_cell_volume 2326.515589
_symmetry_space_group_name_H-M "C 2/M"
_symmetry_group_IT_number 12
_symmetry_cell_setting 'monoclinic'
loop_
_space_group_symop_operation_xyz
x,y,z
-x,y,-z
-x,-y,-z
x,-y,z
1/2+x,1/2+y,z
1/2-x,1/2+y,-z
1/2-x,1/2-y,-z
1/2+x,1/2-y,z
loop_
_atom_site_type_symbol
_atom_site_label
_atom_site_fract_x
_atom_site_fract_y
_atom_site_fract_z
Si Si1 0.552423 0.391749 0.924016
Si Si2 0.164032 0.789464 0.247213
Si Si3 0.149167 0.641398 0.731129
Si Si4 0.409350 0.107201 0.721140
Si Si5 0.743171 0.000000 0.039256
Si Si6 0.529482 0.187078 0.728005
Si Si7 0.287304 0.316276 0.308918
O O1 0.551960 0.500000 0.847173
O O2 0.536636 0.298894 0.788297
O O3 0.500000 0.391108 0.000000
O O4 0.621184 0.368204 0.095648
O O5 0.121095 0.694325 0.216957
O O6 0.225382 0.750832 0.237944
O O7 0.186208 0.825814 0.462946
O O8 0.124724 0.609424 0.511536
O O9 0.095152 0.632675 0.796796
O O10 0.163502 0.754478 0.730573
O O11 0.208654 0.582918 0.873264
O O12 0.481325 0.133457 0.784121
O O13 0.401271 0.000000 0.782443
O O14 0.771661 0.915729 0.201942
O O15 0.500000 0.183809 0.500000
#
# Coordination Sequence:
#
# PCOD9203145 Si02
#       7
#     8   8   8   8   4   8   8
#     4  11  23  42  66  91 124 167 210 262 317 376
#     4  10  22  45  63  90 130 160 217 267 315 376
#     4  10  22  41  61  92 133 164 208 264 309 377
#     4  10  20  38  68  96 125 169 202 252 331 384
#     4  12  22  38  65  91 124 168 222 252 318 378
#     4  10  22  41  66  96 132 161 206 262 320 383
#     4  10  24  42  63  90 126 172 211 270 311 372
#
# _framework density 22.351020999999999
#
# number of rings (size 3 to 8) (size 9 to 14) (size 15 to 20)
#    0.000    1.692    2.308    1.385    3.231    1.231 
#    5.538    0.769    0.000    0.000    0.000    0.000 
#    0.000    0.000    0.000    0.000    0.000    0.000 
#
# Total GULP energy -144943.052619 kJ/mol
# GULP energy per Si atom -5574.732793 kJ/mol
# Density = 2.230015 g / cm^3
# Si number density = 22.351021 Si / 1000 Ang^3
#
#
#
# Elastic Constant Matrix: (Units=GPa)
#
#
# Indices 1 2 3 4 5 6 
#
# 1 44.2283 -15.5001 -2.5713 0.0000 5.7818 0.0000
# 2 -15.5001 115.8522 19.7359 0.0000 -5.0712 0.0000
# 3 -2.5713 19.7359 52.4095 0.0000 -2.2850 0.0000
# 4 0.0000 0.0000 0.0000 194.4674 0.0000 72.7697
# 5 5.7818 -5.0712 -2.2850 0.0000 14.0748 0.0000
# 6 0.0000 0.0000 0.0000 72.7697 0.0000 19.9260
#
#
#
# Elastic Compliance Matrix: (Units=1/GPa)
#
#
# Indices 1 2 3 4 5 6 
#
# 1 0.024834 0.002972 -0.000301 0.000000 -0.009180 0.000000
# 2 0.002972 0.009688 -0.003428 0.000000 0.001713 0.000000
# 3 -0.000301 -0.003428 0.020453 0.000000 0.002209 0.000000
# 4 0.000000 0.000000 0.000000 -0.014028 0.000000 0.051229
# 5 -0.009180 0.001713 0.002209 0.000000 0.075796 0.000000
# 6 0.000000 0.000000 0.000000 0.051229 0.000000 -0.136904
#
#
# Mechanical properties :
#
#
# Convention : Reuss Voigt Hill
#
# Bulk Modulus (GPa) = 18.70496 23.97986 21.34241
# Shear Modulus (GPa) = -6046.28692 59.74868 -2993.26912
#
# Velocity S-wave (km/s) = -52.06748 5.17591 -36.63491
# Velocity P-wave (km/s) = 60.05256 6.81704 42.18909
#
# Compressibility (1/GPa) = 0.05346175
#
# Stress axis : x y z
#
# Youngs Moduli (GPa) = 40.26726 103.21762 48.89287
#
# Poissons Ratio (x) = -0.30677 0.01472
# Poissons Ratio (y) = -0.11968 0.16760
# Poissons Ratio (z) = 0.01212 0.35381
#
# Static dielectric constant tensor:
#      x y z
#    x 1.856640 0.000000 0.027080 
#    y 0.000000 1.754720 0.000000 
#    z 0.027080 0.000000 1.835660 
# 
# From -- ./inp_files/96562.got.cif
#   From: 2010.05.17/outbox.cif.g08.bks.cpg/sg12_49_cif.got.tgz:96562.got - 2010.06.03 13:09:07.
