data_PCOD9203796
_publ_section_title
;
Structure prediction by ZEFSAII (Michael W. Deem and Ramdas Pophale) SiO2 
 PCOD9203796
Probable space group: C 2/M
;
_chemical_formula_sum "Si O2"
_cell_formula_units_Z 40
_cell_length_a 5.742506
_cell_length_b 21.444981
_cell_length_c 16.749413
_cell_angle_alpha 90.000000
_cell_angle_beta 120.079841
_cell_angle_gamma 90.000000
_cell_volume 1784.873249
_symmetry_space_group_name_H-M "C 2/M"
_symmetry_group_IT_number 12
_symmetry_cell_setting 'monoclinic'
loop_
_space_group_symop_operation_xyz
x,y,z
-x,y,-z
-x,-y,-z
x,-y,z
1/2+x,1/2+y,z
1/2-x,1/2+y,-z
1/2-x,1/2-y,-z
1/2+x,1/2-y,z
loop_
_atom_site_type_symbol
_atom_site_label
_atom_site_fract_x
_atom_site_fract_y
_atom_site_fract_z
Si Si1 0.005073 0.326057 0.826431
Si Si2 0.714370 0.732882 0.337391
Si Si3 0.500000 0.860480 0.000000
Si Si4 0.548373 0.430112 0.120602
Si Si5 0.032338 0.898878 0.296813
Si Si6 0.327343 0.500000 0.552119
O O1 0.262185 0.370733 0.863722
O O2 0.968483 0.265395 0.764469
O O3 0.974303 0.318139 0.916434
O O4 0.761809 0.368841 0.753198
O O5 0.518570 0.742140 0.380411
O O6 0.733753 0.659345 0.327839
O O7 0.243351 0.906586 0.958228
O O8 0.621217 0.500000 0.103409
O O9 0.549433 0.434219 0.216550
O O10 0.083408 0.940360 0.381571
O O11 0.500000 0.500000 0.500000
O O12 0.000000 0.500000 0.500000
#
# Coordination Sequence:
#
# PCOD9203796 Si02
#       6
#     8   8   4   8   8   4
#     4  10  22  38  65  95 135 188 239 288 337 396
#     4  10  20  39  67  97 128 179 235 277 326 400
#     4  10  23  38  54 100 140 183 238 298 342 387
#     4  11  21  37  64  92 136 188 237 288 340 405
#     4  10  23  42  68 100 133 178 229 276 348 422
#     4  12  30  48  78 113 146 169 214 288 358 428
#
# _framework density 22.410553
#
# number of rings (size 3 to 8) (size 9 to 14) (size 15 to 20)
#    0.000    1.600    3.000    0.900    4.200    2.400 
#    0.000    9.000    0.000   14.400    0.000    0.000 
#    0.000    0.000    0.000    0.000    0.000    0.000 
#
# Total GULP energy -111573.181400 kJ/mol
# GULP energy per Si atom -5578.659070 kJ/mol
# Density = 2.235955 g / cm^3
# Si number density = 22.410553 Si / 1000 Ang^3
#
#
#
# Elastic Constant Matrix: (Units=GPa)
#
#
# Indices 1 2 3 4 5 6 
#
# 1 91.7373 -7.9685 32.0034 0.0000 -10.5834 0.0000
# 2 -7.9685 85.4484 27.6657 0.0000 -26.2133 0.0000
# 3 32.0034 27.6657 106.2212 0.0000 -14.7194 0.0000
# 4 0.0000 0.0000 0.0000 26.1073 0.0000 -6.8168
# 5 -10.5834 -26.2133 -14.7194 0.0000 18.1538 0.0000
# 6 0.0000 0.0000 0.0000 -6.8168 0.0000 44.1654
#
#
#
# Elastic Compliance Matrix: (Units=1/GPa)
#
#
# Indices 1 2 3 4 5 6 
#
# 1 0.015001 0.007902 -0.004264 0.000000 0.016698 0.000000
# 2 0.007902 0.025366 -0.003688 0.000000 0.038244 0.000000
# 3 -0.004264 -0.003688 0.011916 0.000000 0.001851 0.000000
# 4 0.000000 0.000000 0.000000 0.039912 0.000000 0.006160
# 5 0.016698 0.038244 0.001851 0.000000 0.121544 0.000000
# 6 0.000000 0.000000 0.000000 0.006160 0.000000 0.023593
#
#
# Mechanical properties :
#
#
# Convention : Reuss Voigt Hill
#
# Bulk Modulus (GPa) = 19.16303 42.97868 31.07085
# Shear Modulus (GPa) = 19.62124 33.13240 26.37682
#
# Velocity S-wave (km/s) = 2.96216 3.84921 3.43444
# Velocity P-wave (km/s) = 4.50207 6.24297 5.44258
#
# Compressibility (1/GPa) = 0.05218382
#
# Stress axis : x y z
#
# Youngs Moduli (GPa) = 66.66239 39.42244 83.92115
#
# Poissons Ratio (x) = -0.31152 0.35782
# Poissons Ratio (y) = -0.52677 0.30949
# Poissons Ratio (z) = 0.28424 0.14539
#
# Static dielectric constant tensor:
#      x y z
#    x 1.917320 0.000000 -0.056370 
#    y 0.000000 1.845660 0.000000 
#    z -0.056370 0.000000 1.839090 
# 
# From -- ./inp_files/191554.got.cif
#   From: 2010.05.17/outbox.cif.g08.bks.cpg/sg12_96_cif.got.tgz:191554.got - 2010.06.03 13:09:07.
