data_PCOD9203891
_publ_section_title
;
Structure prediction by ZEFSAII (Michael W. Deem and Ramdas Pophale) SiO2 
 PCOD9203891
Probable space group: C 2/M
;
_chemical_formula_sum "Si O2"
_cell_formula_units_Z 50
_cell_length_a 12.124982
_cell_length_b 30.848124
_cell_length_c 11.559095
_cell_angle_alpha 90.000000
_cell_angle_beta 37.435597
_cell_angle_gamma 90.000000
_cell_volume 2628.112124
_symmetry_space_group_name_H-M "C 2/M"
_symmetry_group_IT_number 12
_symmetry_cell_setting 'monoclinic'
loop_
_space_group_symop_operation_xyz
x,y,z
-x,y,-z
-x,-y,-z
x,-y,z
1/2+x,1/2+y,z
1/2-x,1/2+y,-z
1/2-x,1/2-y,-z
1/2+x,1/2-y,z
loop_
_atom_site_type_symbol
_atom_site_label
_atom_site_fract_x
_atom_site_fract_y
_atom_site_fract_z
Si Si1 0.938786 0.175611 0.806729
Si Si2 0.000000 0.000000 0.000000
Si Si3 0.202145 0.566595 0.351591
Si Si4 0.169209 0.658355 0.244145
Si Si5 0.300240 0.830313 0.221022
Si Si6 0.791947 0.374964 0.459296
Si Si7 0.150304 0.236247 0.773175
O O1 0.836713 0.171823 0.771346
O O2 0.106260 0.143576 0.663616
O O3 0.034760 0.220968 0.758791
O O4 0.803965 0.164232 0.023673
O O5 0.863449 0.037524 0.169775
O O6 0.206872 0.613437 0.280774
O O7 0.202248 0.577808 0.488341
O O8 0.000000 0.548750 0.500000
O O9 0.212106 0.699637 0.291707
O O10 0.968171 0.651751 0.358353
O O11 0.281620 0.868061 0.330604
O O12 0.273952 0.784142 0.307189
O O13 0.500000 0.833211 0.000000
O O14 0.000000 0.239997 0.000000
#
# Coordination Sequence:
#
# PCOD9203891 Si02
#       7
#     8   2   8   8   8   8   8
#     4  11  21  37  56  80 117 166 221 258 307 354
#     4  12  22  40  72  98 136 146 184 242 324 390
#     4  10  22  39  63 100 124 153 190 242 312 379
#     4  10  20  40  60  83 126 159 200 259 315 356
#     4  11  23  38  54  84 123 173 223 263 302 338
#     4  11  22  38  59  86 123 161 207 255 302 367
#     4   9  21  34  57  81 119 171 214 270 307 347
#
# _framework density 19.025064
#
# number of rings (size 3 to 8) (size 9 to 14) (size 15 to 20)
#    0.000    1.600    3.200    1.680    3.360    2.560 
#    2.880    0.000    0.000    0.000    0.000    9.520 
#    0.000    0.160    0.000    0.000    0.000    0.000 
#
# Total GULP energy -139184.688264 kJ/mol
# GULP energy per Si atom -5567.387531 kJ/mol
# Density = 1.898176 g / cm^3
# Si number density = 19.025064 Si / 1000 Ang^3
#
#
#
# Elastic Constant Matrix: (Units=GPa)
#
#
# Indices 1 2 3 4 5 6 
#
# 1 142.7306 32.3470 48.1732 0.0000 3.6847 0.0000
# 2 32.3470 71.7505 33.1441 0.0000 5.7892 0.0000
# 3 48.1732 33.1441 127.6815 0.0000 -5.7598 0.0000
# 4 0.0000 0.0000 0.0000 1.7479 0.0000 -0.4732
# 5 3.6847 5.7892 -5.7598 0.0000 34.1210 0.0000
# 6 0.0000 0.0000 0.0000 -0.4732 0.0000 -7.4199
#
#
#
# Elastic Compliance Matrix: (Units=1/GPa)
#
#
# Indices 1 2 3 4 5 6 
#
# 1 0.008479 -0.002559 -0.002576 0.000000 -0.000916 0.000000
# 2 -0.002559 0.017011 -0.003596 0.000000 -0.003217 0.000000
# 3 -0.002576 -0.003596 0.009852 0.000000 0.002551 0.000000
# 4 0.000000 0.000000 0.000000 0.562416 0.000000 -0.035866
# 5 -0.000916 -0.003217 0.002551 0.000000 0.030383 0.000000
# 6 0.000000 0.000000 0.000000 -0.035866 0.000000 -0.132486
#
#
# Mechanical properties :
#
#
# Convention : Reuss Voigt Hill
#
# Bulk Modulus (GPa) = 55.92274 63.27679 59.59976
# Shear Modulus (GPa) = 9.63246 20.92302 15.27774
#
# Velocity S-wave (km/s) = 2.25256 3.31986 2.83686
# Velocity P-wave (km/s) = 6.01859 6.93017 6.49040
#
# Compressibility (1/GPa) = 0.01788181
#
# Stress axis : x y z
#
# Youngs Moduli (GPa) = 117.93479 58.78488 101.49745
#
# Poissons Ratio (x) = 0.15041 0.26149
# Poissons Ratio (y) = 0.30175 0.36494
# Poissons Ratio (z) = 0.30384 0.21137
#
# Static dielectric constant tensor:
#      x y z
#    x 1.719290 0.000000 0.011760 
#    y 0.000000 1.697740 0.000000 
#    z 0.011760 0.000000 1.691760 
# 
# From -- ./inp_files/137557.got.cif
#   From: 2010.05.17/outbox.cif.g08.bks.cpg/sg12_69_cif.got.tgz:137557.got - 2010.06.03 13:09:07.
