data_PCOD9203765
_publ_section_title
;
Structure prediction by ZEFSAII (Michael W. Deem and Ramdas Pophale) SiO2 
 PCOD9203765
Probable space group: C 2/M
;
_chemical_formula_sum "Si O2"
_cell_formula_units_Z 48
_cell_length_a 7.703599
_cell_length_b 26.363489
_cell_length_c 9.577860
_cell_angle_alpha 90.000000
_cell_angle_beta 74.714352
_cell_angle_gamma 90.000000
_cell_volume 1876.388962
_symmetry_space_group_name_H-M "C 2/M"
_symmetry_group_IT_number 12
_symmetry_cell_setting 'monoclinic'
loop_
_space_group_symop_operation_xyz
x,y,z
-x,y,-z
-x,-y,-z
x,-y,z
1/2+x,1/2+y,z
1/2-x,1/2+y,-z
1/2-x,1/2-y,-z
1/2+x,1/2-y,z
loop_
_atom_site_type_symbol
_atom_site_label
_atom_site_fract_x
_atom_site_fract_y
_atom_site_fract_z
Si Si1 0.510717 0.500000 0.330531
Si Si2 0.490620 0.687099 0.807814
Si Si3 0.785070 0.387996 0.056557
Si Si4 0.614292 0.115641 0.661014
Si Si5 0.300613 0.225125 0.340360
Si Si6 0.230620 0.906414 0.671321
Si Si7 0.785241 0.500000 0.048444
O O1 0.500000 0.500000 0.500000
O O2 0.401923 0.452783 0.292793
O O3 0.707191 0.500000 0.221933
O O4 0.341938 0.661023 0.942591
O O5 0.607978 0.738273 0.794581
O O6 0.378351 0.702780 0.692649
O O7 0.631766 0.642994 0.747411
O O8 0.771372 0.394571 0.226617
O O9 0.733728 0.443182 0.003410
O O10 0.000000 0.377262 0.000000
O O11 0.575555 0.175911 0.660491
O O12 0.721399 0.101052 0.501189
O O13 0.423870 0.087517 0.703190
O O14 0.250000 0.250000 0.500000
O O15 0.000000 0.500000 0.000000
#
# Coordination Sequence:
#
# PCOD9203765 Si02
#       7
#     4   8   8   8   8   8   4
#     4  12  24  36  63  99 126 164 205 257 321 384
#     4  11  22  37  59  88 122 157 202 256 301 364
#     4  10  22  41  66  89 119 164 212 251 302 363
#     4  10  23  39  59  91 127 162 199 255 313 369
#     4  11  21  32  59  90 118 156 206 248 306 365
#     4  11  23  38  59  91 129 156 198 256 319 368
#     4  10  20  39  67  91 119 162 214 252 298 372
#
# _framework density 25.581050000000001
#
# number of rings (size 3 to 8) (size 9 to 14) (size 15 to 20)
#    0.000    1.333    3.333    2.500    7.000    2.000 
#    0.000    4.167    0.000    2.000    0.000    0.000 
#    0.000    0.000    0.000    0.000    0.000    0.000 
#
# Total GULP energy -134198.496469 kJ/mol
# GULP energy per Si atom -5591.604020 kJ/mol
# Density = 2.552283 g / cm^3
# Si number density = 25.581050 Si / 1000 Ang^3
#
#
#
# Elastic Constant Matrix: (Units=GPa)
#
#
# Indices 1 2 3 4 5 6 
#
# 1 71.6349 13.7359 33.3103 0.0000 -18.0315 0.0000
# 2 13.7359 138.4863 36.4890 0.0000 -20.7559 0.0000
# 3 33.3103 36.4890 117.6382 0.0000 -15.5843 0.0000
# 4 0.0000 0.0000 0.0000 25.1115 0.0000 -18.8767
# 5 -18.0315 -20.7559 -15.5843 0.0000 52.1485 0.0000
# 6 0.0000 0.0000 0.0000 -18.8767 0.0000 31.0464
#
#
#
# Elastic Compliance Matrix: (Units=1/GPa)
#
#
# Indices 1 2 3 4 5 6 
#
# 1 0.017096 0.000130 -0.004260 0.000000 0.004690 0.000000
# 2 0.000130 0.008191 -0.002228 0.000000 0.002639 0.000000
# 3 -0.004260 -0.002228 0.010501 0.000000 0.000779 0.000000
# 4 0.000000 0.000000 0.000000 0.073345 0.000000 0.044595
# 5 0.004690 0.002639 0.000779 0.000000 0.022081 0.000000
# 6 0.000000 0.000000 0.000000 0.044595 0.000000 0.059324
#
#
# Mechanical properties :
#
#
# Convention : Reuss Voigt Hill
#
# Bulk Modulus (GPa) = 43.34257 54.98109 49.16183
# Shear Modulus (GPa) = 23.70291 37.94289 30.82290
#
# Velocity S-wave (km/s) = 3.04728 3.85547 3.47495
# Velocity P-wave (km/s) = 5.41860 6.43110 5.94644
#
# Compressibility (1/GPa) = 0.02307201
#
# Stress axis : x y z
#
# Youngs Moduli (GPa) = 58.49260 122.09183 95.22939
#
# Poissons Ratio (x) = -0.01582 0.40566
# Poissons Ratio (y) = -0.00758 0.21214
# Poissons Ratio (z) = 0.24917 0.27198
#
# Static dielectric constant tensor:
#      x y z
#    x 2.000860 0.000000 -0.011570 
#    y 0.000000 2.074500 0.000000 
#    z -0.011570 0.000000 2.051790 
# 
# From -- ./inp_files/123548.got.cif
#   From: 2010.05.17/outbox.cif.g08.bks.cpg/sg12_62_cif.got.tgz:123548.got - 2010.06.03 13:09:07.
