data_PCOD9203563
_publ_section_title
;
Structure prediction by ZEFSAII (Michael W. Deem and Ramdas Pophale) SiO2 
 PCOD9203563
Probable space group: C 2/M
;
_chemical_formula_sum "Si O2"
_cell_formula_units_Z 64
_cell_length_a 30.251049
_cell_length_b 18.409497
_cell_length_c 9.860749
_cell_angle_alpha 90.000000
_cell_angle_beta 38.643372
_cell_angle_gamma 90.000000
_cell_volume 3429.292677
_symmetry_space_group_name_H-M "C 2/M"
_symmetry_group_IT_number 12
_symmetry_cell_setting 'monoclinic'
loop_
_space_group_symop_operation_xyz
x,y,z
-x,y,-z
-x,-y,-z
x,-y,z
1/2+x,1/2+y,z
1/2-x,1/2+y,-z
1/2-x,1/2-y,-z
1/2+x,1/2-y,z
loop_
_atom_site_type_symbol
_atom_site_label
_atom_site_fract_x
_atom_site_fract_y
_atom_site_fract_z
Si Si1 0.738772 0.084849 0.499288
Si Si2 0.982556 0.829344 0.384266
Si Si3 0.812659 0.586043 0.925520
Si Si4 0.359430 0.350770 0.043243
Si Si5 0.656477 0.586579 0.217398
Si Si6 0.853252 0.322303 0.078576
Si Si7 0.128723 0.416246 0.516835
Si Si8 0.994541 0.697249 0.163919
O O1 0.815873 0.108984 0.264074
O O2 0.706644 0.137755 0.689402
O O3 0.688677 0.093269 0.487009
O O4 0.737194 0.000000 0.544654
O O5 0.914178 0.880301 0.547980
O O6 0.000000 0.812174 0.500000
O O7 0.969188 0.756919 0.331948
O O8 0.055888 0.861572 0.150388
O O9 0.822269 0.500000 0.934164
O O10 0.728628 0.602317 0.125241
O O11 0.851861 0.637660 0.937390
O O12 0.840239 0.598176 0.706865
O O13 0.343696 0.264426 0.087588
O O14 0.337484 0.380869 0.948454
O O15 0.650270 0.500000 0.220077
O O16 0.929080 0.330859 0.969949
O O17 0.106499 0.500000 0.573809
O O18 0.062488 0.366011 0.705094
O O19 0.000000 0.729666 0.000000
#
# Coordination Sequence:
#
# PCOD9203563 Si02
#       8
#     8   8   8   8   8   8   8   8
#     4  11  21  39  61  85 120 158 198 245 292 352
#     4   9  22  39  61  91 118 152 199 247 296 349
#     4  10  22  40  60  89 122 155 197 245 297 350
#     4  10  21  37  60  91 120 150 197 249 291 352
#     4  10  20  39  64  90 119 156 198 245 296 354
#     4  11  24  39  59  89 121 156 200 246 297 347
#     4  10  22  37  61  88 114 158 207 239 289 355
#     4  11  23  41  60  83 123 160 195 247 294 352
#
# _framework density 18.662741
#
# number of rings (size 3 to 8) (size 9 to 14) (size 15 to 20)
#    0.000    1.750    2.500    1.125    5.250    5.500 
#    4.500    1.250    0.000    0.375    0.000    0.000 
#    0.000    0.000    0.000    0.000    0.000    0.000 
#
# Total GULP energy -178687.750112 kJ/mol
# GULP energy per Si atom -5583.992191 kJ/mol
# Density = 1.862026 g / cm^3
# Si number density = 18.662741 Si / 1000 Ang^3
#
#
#
# Elastic Constant Matrix: (Units=GPa)
#
#
# Indices 1 2 3 4 5 6 
#
# 1 42.0923 25.0436 1.9048 0.0000 3.8194 0.0000
# 2 25.0436 54.0739 43.4621 0.0000 -2.3335 0.0000
# 3 1.9048 43.4621 77.5183 0.0000 -7.1564 0.0000
# 4 0.0000 0.0000 0.0000 45.6816 0.0000 20.3360
# 5 3.8194 -2.3335 -7.1564 0.0000 18.5089 0.0000
# 6 0.0000 0.0000 0.0000 20.3360 0.0000 33.9203
#
#
#
# Elastic Compliance Matrix: (Units=1/GPa)
#
#
# Indices 1 2 3 4 5 6 
#
# 1 0.044839 -0.035812 0.018361 0.000000 -0.006668 0.000000
# 2 -0.035812 0.062446 -0.033934 0.000000 0.002143 0.000000
# 3 0.018361 -0.033934 0.031867 0.000000 0.004254 0.000000
# 4 0.000000 0.000000 0.000000 0.029860 0.000000 -0.017902
# 5 -0.006668 0.002143 0.004254 0.000000 0.057319 0.000000
# 6 0.000000 0.000000 0.000000 -0.017902 0.000000 0.040213
#
#
# Mechanical properties :
#
#
# Convention : Reuss Voigt Hill
#
# Bulk Modulus (GPa) = 27.48547 34.94503 31.21525
# Shear Modulus (GPa) = 13.10818 26.50707 19.80763
#
# Velocity S-wave (km/s) = 2.65310 3.77280 3.26137
# Velocity P-wave (km/s) = 4.91373 6.14360 5.56276
#
# Compressibility (1/GPa) = 0.03638286
#
# Stress axis : x y z
#
# Youngs Moduli (GPa) = 22.30217 16.01386 31.38019
#
# Poissons Ratio (x) = 0.57349 -0.57618
# Poissons Ratio (y) = 0.79869 1.06484
# Poissons Ratio (z) = -0.40950 0.54341
#
# Static dielectric constant tensor:
#      x y z
#    x 1.632350 0.000000 -0.001110 
#    y 0.000000 1.620120 0.000000 
#    z -0.001110 0.000000 1.651000 
# 
# From -- ./inp_files/112843.got.cif
#   From: 2010.05.17/outbox.cif.g08.bks.cpg/sg12_57_cif.got.tgz:112843.got - 2010.06.03 13:09:07.
