data_PCOD9203685
_publ_section_title
;
Structure prediction by ZEFSAII (Michael W. Deem and Ramdas Pophale) SiO2 
 PCOD9203685
Probable space group: C 2/M
;
_chemical_formula_sum "Si O2"
_cell_formula_units_Z 64
_cell_length_a 21.846366
_cell_length_b 13.538814
_cell_length_c 15.046159
_cell_angle_alpha 90.000000
_cell_angle_beta 47.053883
_cell_angle_gamma 90.000000
_cell_volume 3257.567642
_symmetry_space_group_name_H-M "C 2/M"
_symmetry_group_IT_number 12
_symmetry_cell_setting 'monoclinic'
loop_
_space_group_symop_operation_xyz
x,y,z
-x,y,-z
-x,-y,-z
x,-y,z
1/2+x,1/2+y,z
1/2-x,1/2+y,-z
1/2-x,1/2-y,-z
1/2+x,1/2-y,z
loop_
_atom_site_type_symbol
_atom_site_label
_atom_site_fract_x
_atom_site_fract_y
_atom_site_fract_z
Si Si1 0.323729 0.884207 0.457501
Si Si2 0.645576 0.261066 0.198872
Si Si3 0.400861 0.298667 0.093868
Si Si4 0.800438 0.118611 0.028032
Si Si5 0.815488 0.388256 0.259704
Si Si6 0.042920 0.234835 0.626831
Si Si7 0.625590 0.385796 0.397384
Si Si8 0.633817 0.614807 0.684150
O O1 0.344461 0.873235 0.332461
O O2 0.389105 0.821278 0.448356
O O3 0.228251 0.852397 0.568058
O O4 0.328132 0.000000 0.475153
O O5 0.712404 0.172623 0.137356
O O6 0.550916 0.226631 0.274807
O O7 0.641271 0.322210 0.294189
O O8 0.671965 0.335274 0.093617
O O9 0.366561 0.346916 0.037727
O O10 0.354315 0.194930 0.158874
O O11 0.379043 0.367828 0.199221
O O12 0.500000 0.283412 0.000000
O O13 0.794472 0.000000 0.031151
O O14 0.837496 0.500000 0.209689
O O15 0.714845 0.382757 0.360202
O O16 0.057214 0.161686 0.529870
O O17 0.068415 0.175184 0.690068
O O18 0.607194 0.500000 0.395344
O O19 0.626382 0.500000 0.668113
#
# Coordination Sequence:
#
# PCOD9203685 Si02
#       8
#     8   8   8   8   8   8   8   8
#     4  10  21  38  63  94 128 166 199 245 316 379
#     4  11  26  44  64  89 121 168 212 259 308 354
#     4  12  24  40  65  94 124 159 207 259 310 366
#     4  11  26  48  66  84 121 169 216 258 306 366
#     4  10  20  39  65  94 128 163 200 248 313 379
#     4  12  22  37  64  97 128 156 203 257 307 376
#     4  11  22  40  66  94 126 162 204 254 313 373
#     4  11  22  37  61  93 128 162 195 250 322 374
#
# _framework density 19.646560999999998
#
# number of rings (size 3 to 8) (size 9 to 14) (size 15 to 20)
#    0.000    1.000    3.750    3.375    0.000    5.250 
#    0.000    0.000    0.000    1.500    0.000    0.000 
#    0.000    0.000    0.000    0.000    0.000    0.000 
#
# Total GULP energy -178945.995132 kJ/mol
# GULP energy per Si atom -5592.062348 kJ/mol
# Density = 1.960184 g / cm^3
# Si number density = 19.646561 Si / 1000 Ang^3
#
#
#
# Elastic Constant Matrix: (Units=GPa)
#
#
# Indices 1 2 3 4 5 6 
#
# 1 67.2350 8.6664 21.0152 0.0000 -17.5067 0.0000
# 2 8.6664 65.6662 17.3430 0.0000 -12.9956 0.0000
# 3 21.0152 17.3430 56.5613 0.0000 -7.3515 0.0000
# 4 0.0000 0.0000 0.0000 15.1267 0.0000 11.3345
# 5 -17.5067 -12.9956 -7.3515 0.0000 34.9227 0.0000
# 6 0.0000 0.0000 0.0000 11.3345 0.0000 13.5485
#
#
#
# Elastic Compliance Matrix: (Units=1/GPa)
#
#
# Indices 1 2 3 4 5 6 
#
# 1 0.018906 0.000813 -0.006171 0.000000 0.008481 0.000000
# 2 0.000813 0.017594 -0.004928 0.000000 0.005917 0.000000
# 3 -0.006171 -0.004928 0.021430 0.000000 -0.000416 0.000000
# 4 0.000000 0.000000 0.000000 0.177167 0.000000 -0.148216
# 5 0.008481 0.005917 -0.000416 0.000000 0.035000 0.000000
# 6 0.000000 0.000000 0.000000 -0.148216 0.000000 0.197804
#
#
# Mechanical properties :
#
#
# Convention : Reuss Voigt Hill
#
# Bulk Modulus (GPa) = 26.76850 31.50129 29.13490
# Shear Modulus (GPa) = 9.98154 22.21546 16.09850
#
# Velocity S-wave (km/s) = 2.25645 3.36632 2.86563
# Velocity P-wave (km/s) = 4.52144 5.58375 5.08044
#
# Compressibility (1/GPa) = 0.03735734
#
# Stress axis : x y z
#
# Youngs Moduli (GPa) = 52.89446 56.83845 46.66413
#
# Poissons Ratio (x) = -0.04622 0.28798
# Poissons Ratio (y) = -0.04301 0.22995
# Poissons Ratio (z) = 0.32643 0.28008
#
# Static dielectric constant tensor:
#      x y z
#    x 1.688580 0.000000 -0.008100 
#    y 0.000000 1.682550 0.000000 
#    z -0.008100 0.000000 1.673870 
# 
# From -- ./inp_files/225676.got.cif
#   From: 2010.05.17/outbox.cif.g08.bks.cpg/sg12_113_cif.got.tgz:225676.got - 2010.06.03 13:09:07.
