data_PCOD9203899
_publ_section_title
;
Structure prediction by ZEFSAII (Michael W. Deem and Ramdas Pophale) SiO2 
 PCOD9203899
Probable space group: C 2/M
;
_chemical_formula_sum "Si O2"
_cell_formula_units_Z 56
_cell_length_a 17.545957
_cell_length_b 14.122037
_cell_length_c 20.950452
_cell_angle_alpha 90.000000
_cell_angle_beta 146.733861
_cell_angle_gamma 90.000000
_cell_volume 2847.522834
_symmetry_space_group_name_H-M "C 2/M"
_symmetry_group_IT_number 12
_symmetry_cell_setting 'monoclinic'
loop_
_space_group_symop_operation_xyz
x,y,z
-x,y,-z
-x,-y,-z
x,-y,z
1/2+x,1/2+y,z
1/2-x,1/2+y,-z
1/2-x,1/2-y,-z
1/2+x,1/2-y,z
loop_
_atom_site_type_symbol
_atom_site_label
_atom_site_fract_x
_atom_site_fract_y
_atom_site_fract_z
Si Si1 0.139269 0.775730 0.519327
Si Si2 0.446705 0.610921 0.077917
Si Si3 0.958949 0.893253 0.229877
Si Si4 0.091762 0.697766 0.351078
Si Si5 0.641496 0.390781 0.701070
Si Si6 0.264121 0.718098 0.735937
Si Si7 0.311636 0.887632 0.190279
O O1 0.124847 0.704757 0.449364
O O2 0.276775 0.836537 0.597029
O O3 0.173859 0.720693 0.608189
O O4 0.002799 0.841421 0.423112
O O5 0.481226 0.500000 0.089357
O O6 0.394119 0.615940 0.114303
O O7 0.585689 0.672405 0.169304
O O8 0.327387 0.640164 0.945367
O O9 0.861789 0.884418 0.223968
O O10 0.064470 0.806506 0.310732
O O11 0.020557 0.000000 0.276403
O O12 0.947170 0.643330 0.245643
O O13 0.645786 0.500000 0.685564
O O14 0.763611 0.327230 0.758127
O O15 0.191866 0.662301 0.743434
O O16 0.311042 0.000000 0.197832
#
# Coordination Sequence:
#
# PCOD9203899 Si02
#       7
#     8   8   8   8   8   8   8
#     4  10  21  37  61  86 121 154 197 244 296 357
#     4  10  22  40  64  89 118 161 206 247 301 357
#     4   9  17  37  63  87 111 152 205 250 294 349
#     4  10  20  40  60  88 120 152 200 252 296 354
#     4  10  22  39  63  90 123 161 199 243 300 364
#     4  12  21  38  61  88 122 162 197 243 299 364
#     4  11  24  41  60  89 124 160 202 250 302 358
#
# _framework density 19.666215999999999
#
# number of rings (size 3 to 8) (size 9 to 14) (size 15 to 20)
#    0.000    1.714    4.286    1.286    0.000    3.429 
#    0.000    4.286    0.000    2.571    0.000    0.000 
#    0.000    0.000    0.000    0.000    0.000    0.000 
#
# Total GULP energy -156156.451670 kJ/mol
# GULP energy per Si atom -5577.016131 kJ/mol
# Density = 1.962146 g / cm^3
# Si number density = 19.666216 Si / 1000 Ang^3
#
#
#
# Elastic Constant Matrix: (Units=GPa)
#
#
# Indices 1 2 3 4 5 6 
#
# 1 77.7615 27.8510 57.4247 0.0000 -10.7122 0.0000
# 2 27.8510 74.6024 46.7602 0.0001 -7.1545 0.0000
# 3 57.4247 46.7602 86.8324 0.0002 -6.3908 0.0001
# 4 0.0000 0.0001 0.0002 22.9100 0.0001 -2.7992
# 5 -10.7122 -7.1545 -6.3908 0.0001 27.2632 0.0000
# 6 0.0000 0.0000 0.0001 -2.7992 0.0000 20.9534
#
#
#
# Elastic Compliance Matrix: (Units=1/GPa)
#
#
# Indices 1 2 3 4 5 6 
#
# 1 0.026391 0.002143 -0.018115 0.000000 0.006685 0.000000
# 2 0.002143 0.020621 -0.012273 0.000000 0.003377 0.000000
# 3 -0.018115 -0.012273 0.029860 0.000000 -0.003339 0.000000
# 4 0.000000 0.000000 0.000000 0.044373 0.000000 0.005928
# 5 0.006685 0.003377 -0.003339 0.000000 0.039410 0.000000
# 6 0.000000 0.000000 0.000000 0.005928 0.000000 0.048517
#
#
# Mechanical properties :
#
#
# Convention : Reuss Voigt Hill
#
# Bulk Modulus (GPa) = 49.06495 55.91868 52.49181
# Shear Modulus (GPa) = 18.35163 21.36935 19.86049
#
# Velocity S-wave (km/s) = 3.05807 3.29994 3.18131
# Velocity P-wave (km/s) = 6.12144 6.55859 6.34378
#
# Compressibility (1/GPa) = 0.02038115
#
# Stress axis : x y z
#
# Youngs Moduli (GPa) = 37.89233 48.49421 33.48971
#
# Poissons Ratio (x) = -0.10393 0.60666
# Poissons Ratio (y) = -0.08121 0.41103
# Poissons Ratio (z) = 0.68641 0.59519
#
# Static dielectric constant tensor:
#      x y z
#    x 1.747960 0.000000 -0.010610 
#    y 0.000000 1.690800 0.000000 
#    z -0.010610 0.000000 1.693410 
# 
# From -- ./inp_files/316769.got.cif
#   From: 2010.05.17/outbox.cif.g08.bks.cpg/sg12_159_cif.got.tgz:316769.got - 2010.06.03 13:09:07.
