data_PCOD9203463
_publ_section_title
;
Structure prediction by ZEFSAII (Michael W. Deem and Ramdas Pophale) SiO2 
 PCOD9203463
Probable space group: C 2/M
;
_chemical_formula_sum "Si O2"
_cell_formula_units_Z 58
_cell_length_a 16.451527
_cell_length_b 20.913161
_cell_length_c 8.526093
_cell_angle_alpha 90.000000
_cell_angle_beta 113.764030
_cell_angle_gamma 90.000000
_cell_volume 2684.714208
_symmetry_space_group_name_H-M "C 2/M"
_symmetry_group_IT_number 12
_symmetry_cell_setting 'monoclinic'
loop_
_space_group_symop_operation_xyz
x,y,z
-x,y,-z
-x,-y,-z
x,-y,z
1/2+x,1/2+y,z
1/2-x,1/2+y,-z
1/2-x,1/2-y,-z
1/2+x,1/2-y,z
loop_
_atom_site_type_symbol
_atom_site_label
_atom_site_fract_x
_atom_site_fract_y
_atom_site_fract_z
Si Si1 0.349705 0.099739 0.005022
Si Si2 0.451366 0.822264 0.299875
Si Si3 0.500000 0.000000 0.000000
Si Si4 0.754341 0.925138 0.531057
Si Si5 0.160935 0.932368 0.746126
Si Si6 0.132325 0.180640 0.222490
Si Si7 0.134032 0.679063 0.278600
Si Si8 0.569900 0.313992 0.821326
O O1 0.379706 0.125093 0.196951
O O2 0.252609 0.070178 0.916469
O O3 0.346015 0.159542 0.883618
O O4 0.426381 0.054554 0.995522
O O5 0.500000 0.834730 0.500000
O O6 0.528933 0.821730 0.229110
O O7 0.413981 0.750855 0.262928
O O8 0.809709 0.929169 0.411882
O O9 0.811490 0.882504 0.695066
O O10 0.673849 0.877551 0.418148
O O11 0.732370 0.000000 0.555246
O O12 0.102920 0.872977 0.747084
O O13 0.115237 0.000000 0.740971
O O14 0.167158 0.247987 0.322138
O O15 0.033541 0.175908 0.218341
O O16 0.120521 0.188647 0.026926
#
# Coordination Sequence:
#
# PCOD9203463 Si02
#       8
#     8   8   2   8   8   8   8   8
#     4  11  21  40  67  92 121 170 206 250 305 377
#     4  11  23  38  61  94 124 157 206 257 313 362
#     4  12  20  36  78  88 120 172 216 238 304 378
#     4  10  23  39  63  92 121 159 209 258 312 371
#     4  10  23  40  59  92 126 161 207 254 312 369
#     4  10  21  41  63  89 118 166 215 254 310 367
#     4  10  20  39  63  87 126 158 208 255 307 372
#     4  10  23  40  62  87 123 165 207 258 308 372
#
# _framework density 21.60379
#
# number of rings (size 3 to 8) (size 9 to 14) (size 15 to 20)
#    0.000    1.655    3.448    0.414    4.828    2.759 
#    0.000    3.103    0.000    0.000    0.000    0.000 
#    0.000    0.000    0.000    0.000    0.000    0.000 
#
# Total GULP energy -161667.423352 kJ/mol
# GULP energy per Si atom -5574.738736 kJ/mol
# Density = 2.155462 g / cm^3
# Si number density = 21.603790 Si / 1000 Ang^3
#
#
#
# Elastic Constant Matrix: (Units=GPa)
#
#
# Indices 1 2 3 4 5 6 
#
# 1 13.3837 21.2081 -6.2982 0.0000 -3.1199 0.0000
# 2 21.2081 165.7233 30.2099 0.0000 14.7529 0.0000
# 3 -6.2982 30.2099 89.6139 0.0000 18.0278 0.0000
# 4 0.0000 0.0000 0.0000 -25.0732 0.0000 7.8766
# 5 -3.1199 14.7529 18.0278 0.0000 12.7784 0.0000
# 6 0.0000 0.0000 0.0000 7.8766 0.0000 27.9422
#
#
#
# Elastic Compliance Matrix: (Units=1/GPa)
#
#
# Indices 1 2 3 4 5 6 
#
# 1 0.120577 -0.020534 0.006570 0.000000 0.043878 0.000000
# 2 -0.020534 0.010285 -0.002113 0.000000 -0.013907 0.000000
# 3 0.006570 -0.002113 0.016085 0.000000 -0.018649 0.000000
# 4 0.000000 0.000000 0.000000 -0.036639 0.000000 0.010328
# 5 0.043878 -0.013907 -0.018649 0.000000 0.131337 0.000000
# 6 0.000000 0.000000 0.000000 0.010328 0.000000 0.032877
#
#
# Mechanical properties :
#
#
# Convention : Reuss Voigt Hill
#
# Bulk Modulus (GPa) = 8.71139 39.88449 24.29794
# Shear Modulus (GPa) = 14.49527 18.03621 16.26574
#
# Velocity S-wave (km/s) = 2.59310 2.89253 2.74690
# Velocity P-wave (km/s) = 3.60647 5.44588 4.61867
#
# Compressibility (1/GPa) = 0.11479224
#
# Stress axis : x y z
#
# Youngs Moduli (GPa) = 8.29345 97.22747 62.17143
#
# Poissons Ratio (x) = 1.99649 -0.40844
# Poissons Ratio (y) = 0.17030 0.13135
# Poissons Ratio (z) = -0.05449 0.20541
#
# Static dielectric constant tensor:
#      x y z
#    x 1.771130 0.000000 0.005440 
#    y 0.000000 1.785550 0.000000 
#    z 0.005440 0.000000 1.826350 
# 
# From -- ./inp_files/78072.got.cif
#   From: 2010.05.17/outbox.cif.g08.bks.cpg/sg12_40_cif.got.tgz:78072.got - 2010.06.03 13:09:07.
