data_PCOD9203123
_publ_section_title
;
Structure prediction by ZEFSAII (Michael W. Deem and Ramdas Pophale) SiO2 
 PCOD9203123
Probable space group: C 2/M
;
_chemical_formula_sum "Si O2"
_cell_formula_units_Z 64
_cell_length_a 26.353454
_cell_length_b 30.840366
_cell_length_c 5.278013
_cell_angle_alpha 90.000000
_cell_angle_beta 131.921035
_cell_angle_gamma 90.000000
_cell_volume 3191.825694
_symmetry_space_group_name_H-M "C 2/M"
_symmetry_group_IT_number 12
_symmetry_cell_setting 'monoclinic'
loop_
_space_group_symop_operation_xyz
x,y,z
-x,y,-z
-x,-y,-z
x,-y,z
1/2+x,1/2+y,z
1/2-x,1/2+y,-z
1/2-x,1/2-y,-z
1/2+x,1/2-y,z
loop_
_atom_site_type_symbol
_atom_site_label
_atom_site_fract_x
_atom_site_fract_y
_atom_site_fract_z
Si Si1 0.921779 0.289694 0.294542
Si Si2 0.818075 0.250861 0.558545
Si Si3 0.176203 0.049931 0.855369
Si Si4 0.542562 0.391168 0.385401
Si Si5 0.767919 0.450775 0.657036
Si Si6 0.749461 0.171052 0.792859
Si Si7 0.684055 0.863747 0.053142
Si Si8 0.111334 0.198730 0.579217
O O1 0.918236 0.246378 0.458922
O O2 0.000000 0.299040 0.500000
O O3 0.880524 0.271990 0.914481
O O4 0.881924 0.334197 0.227166
O O5 0.750000 0.250000 0.500000
O O6 0.792093 0.285418 0.264198
O O7 0.844934 0.206927 0.528373
O O8 0.113367 0.082938 0.642552
O O9 0.215283 0.050899 0.717288
O O10 0.152166 0.000000 0.812680
O O11 0.226843 0.059195 0.260558
O O12 0.500000 0.396523 0.500000
O O13 0.558618 0.340048 0.398808
O O14 0.500000 0.406568 0.000000
O O15 0.794072 0.500000 0.725846
O O16 0.823876 0.414173 0.903637
O O17 0.719743 0.155556 0.425679
O O18 0.732934 0.139538 0.970314
O O19 0.828521 0.183339 0.032156
#
# Coordination Sequence:
#
# PCOD9203123 Si02
#       8
#     8   8   8   8   8   8   8   8
#     4  11  25  39  57  82 124 171 209 250 301 365
#     4  11  22  39  61  85 114 160 216 264 309 360
#     4  10  22  43  67  91 120 154 201 262 322 373
#     4  12  28  41  58  87 123 171 216 251 307 368
#     4  10  20  38  67  97 119 147 191 259 329 373
#     4  11  22  37  61  88 113 154 204 260 304 353
#     4  11  22  39  60  90 122 153 201 248 308 369
#     4  12  23  38  58  81 125 158 213 260 302 354
#
# _framework density 20.051220000000001
#
# number of rings (size 3 to 8) (size 9 to 14) (size 15 to 20)
#    0.000    1.000    2.500    5.250    3.500    0.500 
#    0.000    0.000    0.000    0.375    0.000    0.000 
#    0.000    6.250    0.000    0.000    0.000    0.875 
#
# Total GULP energy -178611.552036 kJ/mol
# GULP energy per Si atom -5581.611001 kJ/mol
# Density = 2.000558 g / cm^3
# Si number density = 20.051220 Si / 1000 Ang^3
#
#
#
# Elastic Constant Matrix: (Units=GPa)
#
#
# Indices 1 2 3 4 5 6 
#
# 1 86.2253 29.4508 41.3770 0.0000 -8.1697 0.0000
# 2 29.4508 125.8655 28.8439 0.0000 10.2913 0.0000
# 3 41.3770 28.8439 70.1774 0.0000 -0.1708 0.0000
# 4 0.0000 0.0000 0.0000 26.0038 0.0000 0.6571
# 5 -8.1697 10.2913 -0.1708 0.0000 37.7527 0.0000
# 6 0.0000 0.0000 0.0000 0.6571 0.0000 21.2273
#
#
#
# Elastic Compliance Matrix: (Units=1/GPa)
#
#
# Indices 1 2 3 4 5 6 
#
# 1 0.017191 -0.002267 -0.009193 0.000000 0.004296 0.000000
# 2 -0.002267 0.009294 -0.002491 0.000000 -0.003035 0.000000
# 3 -0.009193 -0.002491 0.020691 0.000000 -0.001217 0.000000
# 4 0.000000 0.000000 0.000000 0.038486 0.000000 -0.001191
# 5 0.004296 -0.003035 -0.001217 0.000000 0.028240 0.000000
# 6 0.000000 0.000000 0.000000 -0.001191 0.000000 0.047146
#
#
# Mechanical properties :
#
#
# Convention : Reuss Voigt Hill
#
# Bulk Modulus (GPa) = 51.88507 53.51238 52.69873
# Shear Modulus (GPa) = 25.59184 29.16987 27.38086
#
# Velocity S-wave (km/s) = 3.57644 3.81828 3.69934
# Velocity P-wave (km/s) = 6.55645 6.79594 6.67727
#
# Compressibility (1/GPa) = 0.01927337
#
# Stress axis : x y z
#
# Youngs Moduli (GPa) = 58.17160 107.59131 48.33025
#
# Poissons Ratio (x) = 0.24389 0.44432
# Poissons Ratio (y) = 0.13186 0.12039
# Poissons Ratio (z) = 0.53480 0.26801
#
# Static dielectric constant tensor:
#      x y z
#    x 1.747220 0.000000 -0.068990 
#    y 0.000000 1.807640 0.000000 
#    z -0.068990 0.000000 1.737230 
# 
# From -- ./inp_files/29881.got.cif
#   From: 2010.05.17/outbox.cif.g08.bks.cpg/sg12_15_cif.got.tgz:29881.got - 2010.06.03 13:09:07.
