data_PCOD9203751
_publ_section_title
;
Structure prediction by ZEFSAII (Michael W. Deem and Ramdas Pophale) SiO2 
 PCOD9203751
Probable space group: C 2/M
;
_chemical_formula_sum "Si O2"
_cell_formula_units_Z 46
_cell_length_a 11.644740
_cell_length_b 16.479382
_cell_length_c 9.953738
_cell_angle_alpha 90.000000
_cell_angle_beta 80.292641
_cell_angle_gamma 90.000000
_cell_volume 1882.754390
_symmetry_space_group_name_H-M "C 2/M"
_symmetry_group_IT_number 12
_symmetry_cell_setting 'monoclinic'
loop_
_space_group_symop_operation_xyz
x,y,z
-x,y,-z
-x,-y,-z
x,-y,z
1/2+x,1/2+y,z
1/2-x,1/2+y,-z
1/2-x,1/2-y,-z
1/2+x,1/2-y,z
loop_
_atom_site_type_symbol
_atom_site_label
_atom_site_fract_x
_atom_site_fract_y
_atom_site_fract_z
Si Si1 0.158267 0.405058 0.817472
Si Si2 0.190761 0.361249 0.514408
Si Si3 0.736054 0.592599 0.903519
Si Si4 0.064268 0.708653 0.167298
Si Si5 0.920540 0.191466 0.409704
Si Si6 0.000000 0.500000 0.500000
Si Si7 0.000000 0.161345 0.000000
O O1 0.132674 0.500000 0.800670
O O2 0.218364 0.371655 0.669524
O O3 0.035534 0.357502 0.846690
O O4 0.229414 0.399234 0.942598
O O5 0.131419 0.273219 0.510993
O O6 0.308417 0.362434 0.406044
O O7 0.099906 0.429334 0.495062
O O8 0.768026 0.500000 0.859864
O O9 0.597702 0.605917 0.910925
O O10 0.821440 0.658619 0.818711
O O11 0.999981 0.771284 0.279148
O O12 0.089131 0.771923 0.044642
O O13 0.000000 0.146150 0.500000
#
# Coordination Sequence:
#
# PCOD9203751 Si02
#       7
#     8   8   8   8   8   2   4
#     4  10  20  39  67 100 131 178 224 284 338 407
#     4  10  22  39  66 101 137 178 229 284 345 403
#     4  11  24  43  68  97 141 177 227 284 349 413
#     4  11  23  40  68  99 133 179 236 282 341 405
#     4  10  23  42  66  96 138 182 229 284 347 408
#     4  12  20  44  70 100 138 178 232 284 326 418
#     4  12  25  42  65 102 134 182 224 288 349 410
#
# _framework density 24.432286999999999
#
# number of rings (size 3 to 8) (size 9 to 14) (size 15 to 20)
#    0.000    1.391    3.478    1.304    2.435    4.174 
#    0.000    0.435    1.913    0.000    0.000    0.000 
#    0.000    0.000    0.000    0.000    0.000    0.000 
#
# Total GULP energy -128165.202899 kJ/mol
# GULP energy per Si atom -5572.400126 kJ/mol
# Density = 2.437668 g / cm^3
# Si number density = 24.432287 Si / 1000 Ang^3
#
#
#
# Elastic Constant Matrix: (Units=GPa)
#
#
# Indices 1 2 3 4 5 6 
#
# 1 128.3289 39.7359 25.0216 0.0000 -7.9657 0.0000
# 2 39.7359 78.0118 10.6539 0.0000 0.0403 0.0000
# 3 25.0216 10.6539 53.4355 0.0000 -6.0831 0.0000
# 4 0.0000 0.0000 0.0000 14.8917 0.0000 -6.1061
# 5 -7.9657 0.0403 -6.0831 0.0000 29.9333 0.0000
# 6 0.0000 0.0000 0.0000 -6.1061 0.0000 44.1227
#
#
#
# Elastic Compliance Matrix: (Units=1/GPa)
#
#
# Indices 1 2 3 4 5 6 
#
# 1 0.010041 -0.004630 -0.003556 0.000000 0.001956 0.000000
# 2 -0.004630 0.015321 -0.001054 0.000000 -0.001467 0.000000
# 3 -0.003556 -0.001054 0.020967 0.000000 0.003316 0.000000
# 4 0.000000 0.000000 0.000000 0.071191 0.000000 0.009852
# 5 0.001956 -0.001467 0.003316 0.000000 0.034604 0.000000
# 6 0.000000 0.000000 0.000000 0.009852 0.000000 0.024027
#
#
# Mechanical properties :
#
#
# Convention : Reuss Voigt Hill
#
# Bulk Modulus (GPa) = 35.90664 45.62212 40.76438
# Shear Modulus (GPa) = 24.52017 30.08053 27.30035
#
# Velocity S-wave (km/s) = 3.17140 3.51262 3.34636
# Velocity P-wave (km/s) = 5.30459 5.92999 5.62599
#
# Compressibility (1/GPa) = 0.02785000
#
# Stress axis : x y z
#
# Youngs Moduli (GPa) = 99.59405 65.26804 47.69421
#
# Poissons Ratio (x) = 0.30217 0.16960
# Poissons Ratio (y) = 0.46109 0.05026
# Poissons Ratio (z) = 0.35415 0.06878
#
# Static dielectric constant tensor:
#      x y z
#    x 1.967050 0.000000 0.070820 
#    y 0.000000 1.849530 0.000000 
#    z 0.070820 0.000000 2.220460 
# 
# From -- ./inp_files/131101.got.cif
#   From: 2010.05.17/outbox.cif.g08.bks.cpg/sg12_66_cif.got.tgz:131101.got - 2010.06.03 13:09:07.
