data_PCOD9203248
_publ_section_title
;
Structure prediction by ZEFSAII (Michael W. Deem and Ramdas Pophale) SiO2 
 PCOD9203248
Probable space group: C 2/M
;
_chemical_formula_sum "Si O2"
_cell_formula_units_Z 44
_cell_length_a 23.381213
_cell_length_b 7.689650
_cell_length_c 13.394147
_cell_angle_alpha 90.000000
_cell_angle_beta 135.485352
_cell_angle_gamma 90.000000
_cell_volume 1688.353679
_symmetry_space_group_name_H-M "C 2/M"
_symmetry_group_IT_number 12
_symmetry_cell_setting 'monoclinic'
loop_
_space_group_symop_operation_xyz
x,y,z
-x,y,-z
-x,-y,-z
x,-y,z
1/2+x,1/2+y,z
1/2-x,1/2+y,-z
1/2-x,1/2-y,-z
1/2+x,1/2-y,z
loop_
_atom_site_type_symbol
_atom_site_label
_atom_site_fract_x
_atom_site_fract_y
_atom_site_fract_z
Si Si1 0.179738 0.205767 0.833764
Si Si2 0.056494 0.315725 0.972261
Si Si3 0.500544 0.202120 0.610742
Si Si4 0.268662 0.296535 0.743219
Si Si5 0.357101 0.211160 0.578695
Si Si6 0.548114 0.500000 0.221212
O O1 0.093426 0.282250 0.760517
O O2 0.204960 0.272878 0.755706
O O3 0.171090 0.000000 0.817574
O O4 0.250000 0.250000 0.000000
O O5 0.043762 0.500000 0.902177
O O6 0.024069 0.149713 0.875153
O O7 0.149680 0.300506 0.122356
O O8 0.000000 0.317874 0.000000
O O9 0.500000 0.283821 0.500000
O O10 0.430305 0.272863 0.593972
O O11 0.478165 0.000000 0.572730
O O12 0.287196 0.500000 0.761807
O O13 0.223816 0.243804 0.584743
O O14 0.381103 0.343447 0.695735
O O15 0.359349 0.000000 0.599490
#
# Coordination Sequence:
#
# PCOD9203248 Si02
#       6
#     8   8   8   8   8   4
#     4  12  26  38  59  94 134 176 233 285 331 397
#     4  11  26  49  78 103 136 177 230 286 351 420
#     4  10  20  39  60  85 130 180 225 270 331 392
#     4  11  23  45  71  99 138 184 231 282 351 416
#     4  10  24  41  67 103 143 184 229 286 346 411
#     4  12  25  44  75 106 137 179 232 283 352 418
#
# _framework density 26.060891000000002
#
# number of rings (size 3 to 8) (size 9 to 14) (size 15 to 20)
#    0.000    1.091    2.727    3.000    6.364    0.364 
#    0.000    0.909    0.000    0.000    0.000    0.000 
#    0.000    0.000    0.000    0.000    0.000    0.000 
#
# Total GULP energy -122764.411375 kJ/mol
# GULP energy per Si atom -5580.200517 kJ/mol
# Density = 2.600158 g / cm^3
# Si number density = 26.060891 Si / 1000 Ang^3
#
#
#
# Elastic Constant Matrix: (Units=GPa)
#
#
# Indices 1 2 3 4 5 6 
#
# 1 84.3713 9.4930 1.2277 0.0000 25.9740 0.0000
# 2 9.4930 171.8632 36.4491 0.0000 -6.7837 0.0000
# 3 1.2277 36.4491 164.3229 0.0000 24.8344 0.0000
# 4 0.0000 0.0000 0.0000 34.3588 0.0000 21.6378
# 5 25.9740 -6.7837 24.8344 0.0000 48.4793 0.0000
# 6 0.0000 0.0000 0.0000 21.6378 0.0000 -30.4212
#
#
#
# Elastic Compliance Matrix: (Units=1/GPa)
#
#
# Indices 1 2 3 4 5 6 
#
# 1 0.014742 -0.001499 0.001569 0.000000 -0.008912 0.000000
# 2 -0.001499 0.006387 -0.001801 0.000000 0.002620 0.000000
# 3 0.001569 -0.001801 0.007196 0.000000 -0.004779 0.000000
# 4 0.000000 0.000000 0.000000 0.020101 0.000000 0.014297
# 5 -0.008912 0.002620 -0.004779 0.000000 0.028217 0.000000
# 6 0.000000 0.000000 0.000000 0.014297 0.000000 -0.022703
#
#
# Mechanical properties :
#
#
# Convention : Reuss Voigt Hill
#
# Bulk Modulus (GPa) = 40.22183 57.21077 48.71630
# Shear Modulus (GPa) = 76.11673 35.37588 55.74630
#
# Velocity S-wave (km/s) = 5.41024 3.68833 4.63004
# Velocity P-wave (km/s) = 7.38206 6.33552 6.87872
#
# Compressibility (1/GPa) = 0.02486212
#
# Stress axis : x y z
#
# Youngs Moduli (GPa) = 67.83478 156.57278 138.97250
#
# Poissons Ratio (x) = 0.23467 -0.21807
# Poissons Ratio (y) = 0.10167 0.25034
# Poissons Ratio (z) = -0.10644 0.28205
#
# Static dielectric constant tensor:
#      x y z
#    x 2.204820 0.000000 -0.103580 
#    y 0.000000 1.969560 0.000000 
#    z -0.103580 0.000000 2.079920 
# 
# From -- ./inp_files/295271.got.cif
#   From: 2010.05.17/outbox.cif.g08.bks.cpg/sg12_148_cif.got.tgz:295271.got - 2010.06.03 13:09:07.
