data_PCOD9203502
_publ_section_title
;
Structure prediction by ZEFSAII (Michael W. Deem and Ramdas Pophale) SiO2 
 PCOD9203502
Probable space group: C 2/M
;
_chemical_formula_sum "Si O2"
_cell_formula_units_Z 56
_cell_length_a 8.906691
_cell_length_b 30.211002
_cell_length_c 19.138494
_cell_angle_alpha 90.000000
_cell_angle_beta 147.479549
_cell_angle_gamma 90.000000
_cell_volume 2768.528700
_symmetry_space_group_name_H-M "C 2/M"
_symmetry_group_IT_number 12
_symmetry_cell_setting 'monoclinic'
loop_
_space_group_symop_operation_xyz
x,y,z
-x,y,-z
-x,-y,-z
x,-y,z
1/2+x,1/2+y,z
1/2-x,1/2+y,-z
1/2-x,1/2-y,-z
1/2+x,1/2-y,z
loop_
_atom_site_type_symbol
_atom_site_label
_atom_site_fract_x
_atom_site_fract_y
_atom_site_fract_z
Si Si1 0.067761 0.114195 0.135449
Si Si2 0.003480 0.051251 0.585688
Si Si3 0.989604 0.386545 0.413258
Si Si4 0.851169 0.299309 0.771629
Si Si5 0.829047 0.214817 0.861106
Si Si6 0.051386 0.397536 0.850753
Si Si7 0.207144 0.702339 0.515926
O O1 0.201050 0.102087 0.262094
O O2 0.066823 0.168006 0.129349
O O3 0.282524 0.100746 0.157828
O O4 0.775642 0.091541 0.999422
O O5 0.268296 0.075487 0.725794
O O6 0.000000 0.053054 0.500000
O O7 0.720989 0.076870 0.491810
O O8 0.000865 0.000000 0.605930
O O9 0.078144 0.337749 0.420065
O O10 0.000000 0.380519 0.500000
O O11 0.887449 0.256236 0.834206
O O12 0.526262 0.311456 0.652157
O O13 0.002491 0.286878 0.757387
O O14 0.992014 0.346059 0.843501
O O15 0.000000 0.220927 0.000000
O O16 0.250000 0.750000 0.500000
O O17 0.000000 0.708565 0.500000
#
# Coordination Sequence:
#
# PCOD9203502 Si02
#       7
#     8   8   8   8   8   8   8
#     4  10  20  39  63  91 133 172 214 258 324 382
#     4  11  23  43  73 101 123 162 218 270 325 396
#     4  11  24  42  65  94 134 171 213 266 327 391
#     4  11  21  36  56  85 127 171 215 262 317 371
#     4  11  21  35  56  90 128 174 221 264 313 382
#     4  10  20  40  64  93 126 169 208 270 324 371
#     4  11  23  38  55  86 126 170 218 259 312 370
#
# _framework density 20.227350000000001
#
# number of rings (size 3 to 8) (size 9 to 14) (size 15 to 20)
#    0.000    1.286    5.714    2.143    0.000    3.143 
#    0.000    2.857    0.000    0.857    0.000    0.000 
#    0.000    0.000    0.000    0.000    0.000    0.000 
#
# Total GULP energy -156063.903158 kJ/mol
# GULP energy per Si atom -5573.710827 kJ/mol
# Density = 2.018131 g / cm^3
# Si number density = 20.227350 Si / 1000 Ang^3
#
#
#
# Elastic Constant Matrix: (Units=GPa)
#
#
# Indices 1 2 3 4 5 6 
#
# 1 60.1382 30.1056 35.2897 0.0000 3.2548 0.0000
# 2 30.1056 107.6145 36.7620 0.0000 -3.2557 0.0000
# 3 35.2897 36.7620 147.0112 -0.0003 -14.2460 0.0001
# 4 0.0000 0.0000 -0.0003 14.3178 0.0000 -8.1723
# 5 3.2548 -3.2557 -14.2460 0.0000 31.3460 0.0000
# 6 0.0000 0.0000 0.0001 -8.1723 0.0000 27.8152
#
#
#
# Elastic Compliance Matrix: (Units=1/GPa)
#
#
# Indices 1 2 3 4 5 6 
#
# 1 0.021926 -0.004726 -0.004550 0.000000 -0.004835 0.000000
# 2 -0.004726 0.011179 -0.001570 0.000000 0.000938 0.000000
# 3 -0.004550 -0.001570 0.008700 0.000000 0.004263 0.000000
# 4 0.000000 0.000000 0.000000 0.083916 0.000000 0.024655
# 5 -0.004835 0.000938 0.004263 0.000000 0.034439 0.000000
# 6 0.000000 0.000000 0.000000 0.024655 0.000000 0.043195
#
#
# Mechanical properties :
#
#
# Convention : Reuss Voigt Hill
#
# Bulk Modulus (GPa) = 49.71847 57.67537 53.69692
# Shear Modulus (GPa) = 21.57475 28.86956 25.22215
#
# Velocity S-wave (km/s) = 3.26945 3.78200 3.53502
# Velocity P-wave (km/s) = 6.23583 6.90267 6.57770
#
# Compressibility (1/GPa) = 0.02011325
#
# Stress axis : x y z
#
# Youngs Moduli (GPa) = 45.60820 89.45141 114.93960
#
# Poissons Ratio (x) = 0.42273 0.52298
# Poissons Ratio (y) = 0.21553 0.18048
# Poissons Ratio (z) = 0.20752 0.14045
#
# Static dielectric constant tensor:
#      x y z
#    x 1.655940 0.000000 0.103690 
#    y 0.000000 1.708200 0.000000 
#    z 0.103690 0.000000 1.712830 
# 
# From -- ./inp_files/303076.got.cif
#   From: 2010.05.17/outbox.cif.g08.bks.cpg/sg12_152_cif.got.tgz:303076.got - 2010.06.03 13:09:07.
