data_PCOD9203711
_publ_section_title
;
Structure prediction by ZEFSAII (Michael W. Deem and Ramdas Pophale) SiO2 
 PCOD9203711
Probable space group: C 2/M
;
_chemical_formula_sum "Si O2"
_cell_formula_units_Z 56
_cell_length_a 20.350355
_cell_length_b 13.899131
_cell_length_c 9.876697
_cell_angle_alpha 90.000000
_cell_angle_beta 97.230788
_cell_angle_gamma 90.000000
_cell_volume 2771.428690
_symmetry_space_group_name_H-M "C 2/M"
_symmetry_group_IT_number 12
_symmetry_cell_setting 'monoclinic'
loop_
_space_group_symop_operation_xyz
x,y,z
-x,y,-z
-x,-y,-z
x,-y,z
1/2+x,1/2+y,z
1/2-x,1/2+y,-z
1/2-x,1/2-y,-z
1/2+x,1/2-y,z
loop_
_atom_site_type_symbol
_atom_site_label
_atom_site_fract_x
_atom_site_fract_y
_atom_site_fract_z
Si Si1 0.622798 0.112094 0.777731
Si Si2 0.354928 0.883705 0.698081
Si Si3 0.350666 0.393127 0.784182
Si Si4 0.178613 0.721878 0.040326
Si Si5 0.502076 0.607404 0.837236
Si Si6 0.729026 0.115880 0.580525
Si Si7 0.502964 0.788904 0.341175
O O1 0.676578 0.145644 0.681273
O O2 0.550033 0.127016 0.699446
O O3 0.634745 0.000000 0.809624
O O4 0.634880 0.173759 0.913861
O O5 0.325325 0.850591 0.833774
O O6 0.300677 0.855374 0.570647
O O7 0.424227 0.827291 0.685554
O O8 0.365935 0.000000 0.696436
O O9 0.327977 0.500000 0.819353
O O10 0.348390 0.321523 0.908373
O O11 0.426574 0.399337 0.764088
O O12 0.301846 0.358175 0.652966
O O13 0.250000 0.750000 0.000000
O O14 0.532743 0.500000 0.825736
O O15 0.524283 0.699431 0.756605
O O16 0.500000 0.623711 0.000000
O O17 0.728614 0.000000 0.575695
O O18 0.500000 0.764987 0.500000
#
# Coordination Sequence:
#
# PCOD9203711 Si02
#       7
#     8   8   8   8   8   8   8
#     4  11  23  40  63  94 134 172 210 264 325 388
#     4  11  24  42  64  97 135 172 217 270 322 390
#     4  10  20  39  66  89 120 166 214 264 324 387
#     4  12  24  40  62  95 126 168 213 266 326 388
#     4  10  22  43  68  92 126 170 219 274 330 386
#     4   9  19  38  63  91 126 168 211 259 323 388
#     4  12  24  40  66 100 131 174 220 265 326 393
#
# _framework density 20.206185000000001
#
# number of rings (size 3 to 8) (size 9 to 14) (size 15 to 20)
#    0.000    1.286    4.286    1.714    0.000    2.000 
#    2.571    1.429    0.000    0.000    0.000    0.000 
#    0.000    0.000    0.000    0.000    0.000    0.000 
#
# Total GULP energy -156169.807286 kJ/mol
# GULP energy per Si atom -5577.493117 kJ/mol
# Density = 2.016019 g / cm^3
# Si number density = 20.206185 Si / 1000 Ang^3
#
#
#
# Elastic Constant Matrix: (Units=GPa)
#
#
# Indices 1 2 3 4 5 6 
#
# 1 70.1073 -8.0390 23.7629 0.0000 19.4130 0.0000
# 2 -8.0390 114.1675 43.9852 0.0000 -1.1707 0.0000
# 3 23.7629 43.9852 139.0475 0.0000 19.3948 0.0000
# 4 0.0000 0.0000 0.0000 31.6164 0.0000 8.6667
# 5 19.4130 -1.1707 19.3948 0.0000 29.1499 0.0000
# 6 0.0000 0.0000 0.0000 8.6667 0.0000 51.6092
#
#
#
# Elastic Compliance Matrix: (Units=1/GPa)
#
#
# Indices 1 2 3 4 5 6 
#
# 1 0.018185 0.002056 -0.002293 0.000000 -0.010502 0.000000
# 2 0.002056 0.010412 -0.003872 0.000000 0.001625 0.000000
# 3 -0.002293 -0.003872 0.009499 0.000000 -0.004948 0.000000
# 4 0.000000 0.000000 0.000000 0.033155 0.000000 -0.005568
# 5 -0.010502 0.001625 -0.004948 0.000000 0.044657 0.000000
# 6 0.000000 0.000000 0.000000 -0.005568 0.000000 0.020311
#
#
# Mechanical properties :
#
#
# Convention : Reuss Voigt Hill
#
# Bulk Modulus (GPa) = 33.46901 49.19340 41.33120
# Shear Modulus (GPa) = 32.38408 40.04932 36.21670
#
# Velocity S-wave (km/s) = 4.00769 4.45683 4.23822
# Velocity P-wave (km/s) = 6.16565 7.13323 6.66702
#
# Compressibility (1/GPa) = 0.02987838
#
# Stress axis : x y z
#
# Youngs Moduli (GPa) = 54.98999 96.04132 105.27803
#
# Poissons Ratio (x) = -0.19750 0.24144
# Poissons Ratio (y) = -0.11308 0.40761
# Poissons Ratio (z) = 0.12611 0.37185
#
# Static dielectric constant tensor:
#      x y z
#    x 1.779160 0.000000 0.023750 
#    y 0.000000 1.790640 0.000000 
#    z 0.023750 0.000000 1.718450 
# 
# From -- ./inp_files/86355.got.cif
#   From: 2010.05.17/outbox.cif.g08.bks.cpg/sg12_44_cif.got.tgz:86355.got - 2010.06.03 13:09:07.
