data_PCOD9203616
_publ_section_title
;
Structure prediction by ZEFSAII (Michael W. Deem and Ramdas Pophale) SiO2 
 PCOD9203616
Probable space group: C 2/M
;
_chemical_formula_sum "Si O2"
_cell_formula_units_Z 60
_cell_length_a 7.414236
_cell_length_b 27.090625
_cell_length_c 13.327136
_cell_angle_alpha 90.000000
_cell_angle_beta 109.018986
_cell_angle_gamma 90.000000
_cell_volume 2530.712126
_symmetry_space_group_name_H-M "C 2/M"
_symmetry_group_IT_number 12
_symmetry_cell_setting 'monoclinic'
loop_
_space_group_symop_operation_xyz
x,y,z
-x,y,-z
-x,-y,-z
x,-y,z
1/2+x,1/2+y,z
1/2-x,1/2+y,-z
1/2-x,1/2-y,-z
1/2+x,1/2-y,z
loop_
_atom_site_type_symbol
_atom_site_label
_atom_site_fract_x
_atom_site_fract_y
_atom_site_fract_z
Si Si1 0.372912 0.204370 0.328996
Si Si2 0.768626 0.945213 0.965692
Si Si3 0.313462 0.054567 0.574624
Si Si4 0.000000 0.361876 0.500000
Si Si5 0.002517 0.910686 0.357332
Si Si6 0.377069 0.630783 0.832416
Si Si7 0.222739 0.182597 0.684348
Si Si8 0.302496 0.137407 0.915041
O O1 0.340309 0.175340 0.427750
O O2 0.232577 0.178879 0.224997
O O3 0.590124 0.190362 0.346358
O O4 0.360699 0.262793 0.321597
O O5 0.739863 0.902269 0.877727
O O6 0.692536 0.000000 0.933611
O O7 0.702105 0.921280 0.058784
O O8 0.000000 0.949051 0.000000
O O9 0.458080 0.099030 0.582020
O O10 0.190685 0.059135 0.653934
O O11 0.163104 0.064843 0.456213
O O12 0.396095 0.000000 0.582789
O O13 0.931983 0.856610 0.380546
O O14 0.069380 0.902981 0.255451
O O15 0.584030 0.648315 0.912712
O O16 0.292713 0.158487 0.801744
O O17 0.500000 0.156260 0.000000
#
# Coordination Sequence:
#
# PCOD9203616 Si02
#       8
#     8   8   8   4   8   8   8   8
#     4  12  25  45  67 100 132 180 223 280 338 394
#     4   9  19  37  63  95 131 176 221 272 337 396
#     4  11  23  41  65  97 139 180 227 276 330 394
#     4  12  25  44  70  94 142 182 225 280 324 402
#     4  10  20  39  64  96 136 179 218 277 327 390
#     4  10  21  40  66  94 139 171 226 278 329 401
#     4  11  24  42  68  95 135 171 226 279 339 404
#     4  10  21  41  67  95 131 170 212 282 333 404
#
# _framework density 23.708742999999998
#
# number of rings (size 3 to 8) (size 9 to 14) (size 15 to 20)
#    0.000    1.467    2.667    3.400    0.000    2.933 
#    0.000   10.667    0.000    0.000    0.000    0.000 
#    0.000    0.000    0.000    0.000    0.000    0.000 
#
# Total GULP energy -167217.838227 kJ/mol
# GULP energy per Si atom -5573.927941 kJ/mol
# Density = 2.365478 g / cm^3
# Si number density = 23.708743 Si / 1000 Ang^3
#
#
#
# Elastic Constant Matrix: (Units=GPa)
#
#
# Indices 1 2 3 4 5 6 
#
# 1 63.3260 17.1099 20.8440 0.0000 -6.5387 0.0000
# 2 17.1099 182.6514 39.3349 0.0000 -2.5137 0.0000
# 3 20.8440 39.3349 81.2301 0.0000 -3.5875 0.0000
# 4 0.0000 0.0000 0.0000 15.6978 0.0000 10.3878
# 5 -6.5387 -2.5137 -3.5875 0.0000 40.6569 0.0000
# 6 0.0000 0.0000 0.0000 10.3878 0.0000 9.5116
#
#
#
# Elastic Compliance Matrix: (Units=1/GPa)
#
#
# Indices 1 2 3 4 5 6 
#
# 1 0.017573 -0.000742 -0.004043 0.000000 0.002424 0.000000
# 2 -0.000742 0.006144 -0.002784 0.000000 0.000015 0.000000
# 3 -0.004043 -0.002784 0.014717 0.000000 0.000476 0.000000
# 4 0.000000 0.000000 0.000000 0.229724 0.000000 -0.250887
# 5 0.002424 0.000015 0.000476 0.000000 0.025029 0.000000
# 6 0.000000 0.000000 0.000000 -0.250887 0.000000 0.379134
#
#
# Mechanical properties :
#
#
# Convention : Reuss Voigt Hill
#
# Bulk Modulus (GPa) = 42.92574 53.53167 48.22871
# Shear Modulus (GPa) = 7.19192 29.83451 18.51321
#
# Velocity S-wave (km/s) = 1.74357 3.55121 2.79742
# Velocity P-wave (km/s) = 4.71149 6.28034 5.55161
#
# Compressibility (1/GPa) = 0.02329605
#
# Stress axis : x y z
#
# Youngs Moduli (GPa) = 56.90619 162.75446 67.94695
#
# Poissons Ratio (x) = 0.12079 0.27470
# Poissons Ratio (y) = 0.04223 0.18918
# Poissons Ratio (z) = 0.23006 0.45314
#
# Static dielectric constant tensor:
#      x y z
#    x 2.043260 0.000000 -0.028050 
#    y 0.000000 1.871480 0.000000 
#    z -0.028050 0.000000 1.980090 
# 
# From -- ./inp_files/198911.got.cif
#   From: 2010.05.17/outbox.cif.g08.bks.cpg/sg12_100_cif.got.tgz:198911.got - 2010.06.03 13:09:07.
