data_PCOD9203747
_publ_section_title
;
Structure prediction by ZEFSAII (Michael W. Deem and Ramdas Pophale) SiO2 
 PCOD9203747
Probable space group: C 2/M
;
_chemical_formula_sum "Si O2"
_cell_formula_units_Z 42
_cell_length_a 5.841483
_cell_length_b 26.069860
_cell_length_c 14.382569
_cell_angle_alpha 90.000000
_cell_angle_beta 55.953601
_cell_angle_gamma 90.000000
_cell_volume 1814.826303
_symmetry_space_group_name_H-M "C 2/M"
_symmetry_group_IT_number 12
_symmetry_cell_setting 'monoclinic'
loop_
_space_group_symop_operation_xyz
x,y,z
-x,y,-z
-x,-y,-z
x,-y,z
1/2+x,1/2+y,z
1/2-x,1/2+y,-z
1/2-x,1/2-y,-z
1/2+x,1/2-y,z
loop_
_atom_site_type_symbol
_atom_site_label
_atom_site_fract_x
_atom_site_fract_y
_atom_site_fract_z
Si Si1 0.417210 0.085620 0.160961
Si Si2 0.500000 0.377845 0.000000
Si Si3 0.811649 0.443118 0.392903
Si Si4 0.500000 0.000000 0.000000
Si Si5 0.000000 0.365044 0.500000
Si Si6 0.649102 0.274238 0.643607
Si Si7 0.733149 0.690075 0.111156
O O1 0.749230 0.086080 0.086706
O O2 0.308543 0.070109 0.285364
O O3 0.342925 0.143663 0.151108
O O4 0.345265 0.045237 0.097561
O O5 0.430277 0.340426 0.930870
O O6 0.500000 0.443872 0.500000
O O7 0.934148 0.500000 0.378540
O O8 0.965093 0.400483 0.418075
O O9 0.737562 0.328877 0.580812
O O10 0.443818 0.248522 0.614176
O O11 0.463625 0.276833 0.779376
O O12 0.000000 0.715149 0.000000
#
# Coordination Sequence:
#
# PCOD9203747 Si02
#       7
#     8   4   8   2   4   8   8
#     4  11  22  42  66 105 149 195 243 303 370 445
#     4  10  20  39  66  97 134 204 233 296 385 436
#     4  11  25  44  74 108 149 201 249 305 374 456
#     4  12  20  42  62 108 144 188 250 290 354 460
#     4  12  27  50  76 102 152 192 251 326 380 454
#     4  12  30  50  78 113 144 197 261 324 393 465
#     4  10  23  43  70 102 149 192 243 307 389 451
#
# _framework density 23.142710000000001
#
# number of rings (size 3 to 8) (size 9 to 14) (size 15 to 20)
#    0.000    0.952    3.810    3.143   10.667    1.143 
#    0.000    0.000    0.000    0.000    0.000    0.000 
#    0.000    0.000    0.000    0.000    0.000    0.000 
#
# Total GULP energy -117210.114952 kJ/mol
# GULP energy per Si atom -5581.434045 kJ/mol
# Density = 2.309004 g / cm^3
# Si number density = 23.142710 Si / 1000 Ang^3
#
#
#
# Elastic Constant Matrix: (Units=GPa)
#
#
# Indices 1 2 3 4 5 6 
#
# 1 79.0440 40.6899 42.6347 0.0000 -6.4268 0.0000
# 2 40.6899 90.7157 33.0087 0.0000 3.9387 0.0000
# 3 42.6347 33.0087 159.2265 0.0000 27.5632 0.0000
# 4 0.0000 0.0000 0.0000 157.9817 0.0000 28.5618
# 5 -6.4268 3.9387 27.5632 0.0000 31.1286 0.0000
# 6 0.0000 0.0000 0.0000 28.5618 0.0000 195.1240
#
#
#
# Elastic Compliance Matrix: (Units=1/GPa)
#
#
# Indices 1 2 3 4 5 6 
#
# 1 0.020417 -0.007538 -0.005668 0.000000 0.010188 0.000000
# 2 -0.007538 0.014723 -0.000522 0.000000 -0.002957 0.000000
# 3 -0.005668 -0.000522 0.009563 0.000000 -0.009572 0.000000
# 4 0.000000 0.000000 0.000000 0.006502 0.000000 -0.000952
# 5 0.010188 -0.002957 -0.009572 0.000000 0.043078 0.000000
# 6 0.000000 0.000000 0.000000 -0.000952 0.000000 0.005264
#
#
# Mechanical properties :
#
#
# Convention : Reuss Voigt Hill
#
# Bulk Modulus (GPa) = 57.97848 62.40586 60.19217
# Shear Modulus (GPa) = 37.66457 91.02374 64.34415
#
# Velocity S-wave (km/s) = 4.03859 6.27829 5.27859
# Velocity P-wave (km/s) = 6.84500 8.92077 7.95091
#
# Compressibility (1/GPa) = 0.01724778
#
# Stress axis : x y z
#
# Youngs Moduli (GPa) = 48.97924 67.92198 104.56852
#
# Poissons Ratio (x) = 0.51198 0.59266
# Poissons Ratio (y) = 0.36920 0.05458
# Poissons Ratio (z) = 0.27760 0.03545
#
# Static dielectric constant tensor:
#      x y z
#    x 1.922260 0.000000 0.003810 
#    y 0.000000 1.937170 0.000000 
#    z 0.003810 0.000000 1.895840 
# 
# From -- ./inp_files/192043.got.cif
#   From: 2010.05.17/outbox.cif.g08.bks.cpg/sg12_97_cif.got.tgz:192043.got - 2010.06.03 13:09:07.
