data_PCOD9203708
_publ_section_title
;
Structure prediction by ZEFSAII (Michael W. Deem and Ramdas Pophale) SiO2 
 PCOD9203708
Probable space group: C 2/M
;
_chemical_formula_sum "Si O2"
_cell_formula_units_Z 48
_cell_length_a 16.124461
_cell_length_b 30.049474
_cell_length_c 7.951973
_cell_angle_alpha 90.000000
_cell_angle_beta 141.519711
_cell_angle_gamma 90.000000
_cell_volume 2397.500177
_symmetry_space_group_name_H-M "C 2/M"
_symmetry_group_IT_number 12
_symmetry_cell_setting 'monoclinic'
loop_
_space_group_symop_operation_xyz
x,y,z
-x,y,-z
-x,-y,-z
x,-y,z
1/2+x,1/2+y,z
1/2-x,1/2+y,-z
1/2-x,1/2-y,-z
1/2+x,1/2-y,z
loop_
_atom_site_type_symbol
_atom_site_label
_atom_site_fract_x
_atom_site_fract_y
_atom_site_fract_z
Si Si1 0.863964 0.131678 0.887548
Si Si2 0.541942 0.777120 0.378707
Si Si3 0.926041 0.450177 0.202015
Si Si4 0.808217 0.227442 0.920867
Si Si5 0.622239 0.447379 0.824186
Si Si6 0.572069 0.131890 0.284108
O O1 0.732469 0.127791 0.558531
O O2 0.835153 0.174456 0.962815
O O3 0.881702 0.087203 0.027622
O O4 0.000000 0.139259 0.000000
O O5 0.500000 0.763301 0.500000
O O6 0.443928 0.752352 0.100617
O O7 0.530997 0.829999 0.350335
O O8 0.695224 0.764997 0.603420
O O9 0.939203 0.500000 0.154590
O O10 0.000000 0.449058 0.500000
O O11 0.002429 0.414334 0.214769
O O12 0.768741 0.440662 0.974234
O O13 0.750000 0.250000 0.000000
O O14 0.500000 0.439544 0.500000
O O15 0.616033 0.500000 0.864406
O O16 0.500000 0.147498 0.000000
#
# Coordination Sequence:
#
# PCOD9203708 Si02
#       6
#     8   8   8   8   8   8
#     4  11  25  42  61  94 133 165 204 260 320 380
#     4   9  19  37  60  85 115 153 202 253 297 359
#     4  10  20  39  66  89 117 160 215 263 298 364
#     4   9  20  37  61  88 115 158 205 249 300 364
#     4  10  23  42  66  95 125 166 213 259 311 374
#     4  11  24  38  59  90 125 165 204 255 318 364
#
# _framework density 20.020852999999999
#
# number of rings (size 3 to 8) (size 9 to 14) (size 15 to 20)
#    0.000    2.000    1.667    0.500    7.000    4.667 
#    0.000    3.333    0.000    0.000    0.000    0.000 
#    0.000    0.000    0.000    0.000    0.000    0.000 
#
# Total GULP energy -133680.355231 kJ/mol
# GULP energy per Si atom -5570.014801 kJ/mol
# Density = 1.997528 g / cm^3
# Si number density = 20.020853 Si / 1000 Ang^3
#
#
#
# Elastic Constant Matrix: (Units=GPa)
#
#
# Indices 1 2 3 4 5 6 
#
# 1 55.2423 42.1916 46.8239 0.0000 4.6308 0.0000
# 2 42.1916 91.6036 61.4154 0.0000 18.1025 0.0000
# 3 46.8239 61.4154 169.2672 0.0000 33.3612 0.0000
# 4 0.0000 0.0000 0.0000 14.2806 0.0000 17.4036
# 5 4.6308 18.1025 33.3612 0.0000 21.5186 0.0000
# 6 0.0000 0.0000 0.0000 17.4036 0.0000 -4.0435
#
#
#
# Elastic Compliance Matrix: (Units=1/GPa)
#
#
# Indices 1 2 3 4 5 6 
#
# 1 0.033399 -0.013501 -0.007434 0.000000 0.015695 0.000000
# 2 -0.013501 0.020402 -0.001235 0.000000 -0.012343 0.000000
# 3 -0.007434 -0.001235 0.011365 0.000000 -0.014981 0.000000
# 4 0.000000 0.000000 0.000000 0.011212 0.000000 0.048259
# 5 0.015695 -0.012343 -0.014981 0.000000 0.076703 0.000000
# 6 0.000000 0.000000 0.000000 0.048259 0.000000 -0.039599
#
#
# Mechanical properties :
#
#
# Convention : Reuss Voigt Hill
#
# Bulk Modulus (GPa) = 48.01605 68.55275 58.28440
# Shear Modulus (GPa) = 30.34652 17.39662 23.87157
#
# Velocity S-wave (km/s) = 3.89748 2.95095 3.45677
# Velocity P-wave (km/s) = 6.65499 6.77686 6.71620
#
# Compressibility (1/GPa) = 0.02082637
#
# Stress axis : x y z
#
# Youngs Moduli (GPa) = 29.94131 49.01431 87.98953
#
# Poissons Ratio (x) = 0.66173 0.65410
# Poissons Ratio (y) = 0.40423 0.10868
# Poissons Ratio (z) = 0.22258 0.06054
#
# Static dielectric constant tensor:
#      x y z
#    x 1.724920 0.000000 -0.021140 
#    y 0.000000 1.700750 0.000000 
#    z -0.021140 0.000000 1.738250 
# 
# From -- ./inp_files/80861.got.cif
#   From: 2010.05.17/outbox.cif.g08.bks.cpg/sg12_41_cif.got.tgz:80861.got - 2010.06.03 13:09:07.
