data_PCOD9203790
_publ_section_title
;
Structure prediction by ZEFSAII (Michael W. Deem and Ramdas Pophale) SiO2 
 PCOD9203790
Probable space group: C 2/M
;
_chemical_formula_sum "Si O2"
_cell_formula_units_Z 44
_cell_length_a 11.065434
_cell_length_b 24.308103
_cell_length_c 7.973877
_cell_angle_alpha 90.000000
_cell_angle_beta 63.165263
_cell_angle_gamma 90.000000
_cell_volume 1913.841339
_symmetry_space_group_name_H-M "C 2/M"
_symmetry_group_IT_number 12
_symmetry_cell_setting 'monoclinic'
loop_
_space_group_symop_operation_xyz
x,y,z
-x,y,-z
-x,-y,-z
x,-y,z
1/2+x,1/2+y,z
1/2-x,1/2+y,-z
1/2-x,1/2-y,-z
1/2+x,1/2-y,z
loop_
_atom_site_type_symbol
_atom_site_label
_atom_site_fract_x
_atom_site_fract_y
_atom_site_fract_z
Si Si1 0.410107 0.128469 0.206470
Si Si2 0.990399 0.939279 0.705995
Si Si3 0.500000 0.740405 0.500000
Si Si4 0.847709 0.326093 0.753690
Si Si5 0.845711 0.832455 0.840939
Si Si6 0.695538 0.937446 0.413233
O O1 0.515436 0.171939 0.220909
O O2 0.276551 0.157456 0.214809
O O3 0.363841 0.083772 0.372016
O O4 0.500000 0.103003 0.000000
O O5 0.142676 0.938134 0.674847
O O6 0.000000 0.928851 0.500000
O O7 0.902451 0.892666 0.844641
O O8 0.931583 0.000000 0.767471
O O9 0.372700 0.782218 0.591771
O O10 0.533875 0.701602 0.320943
O O11 0.839283 0.388186 0.691396
O O12 0.722016 0.310063 0.948092
O O13 0.652767 0.000000 0.400046
#
# Coordination Sequence:
#
# PCOD9203790 Si02
#       6
#     8   8   4   8   8   8
#     4  10  21  40  63  92 130 167 214 257 309 385
#     4  10  20  39  67  96 124 160 210 263 310 373
#     4  12  22  44  68  90 128 170 214 272 308 376
#     4  11  25  42  62  96 132 166 213 263 317 381
#     4  11  23  42  68  95 124 170 216 258 324 374
#     4  11  22  41  66  93 131 171 207 260 322 375
#
# _framework density 22.990413
#
# number of rings (size 3 to 8) (size 9 to 14) (size 15 to 20)
#    0.000    1.273    4.545    0.545    0.000    4.000 
#    3.273    5.455    0.000    0.000    0.000    0.000 
#    0.000    0.000    0.000    0.000    0.000    0.000 
#
# Total GULP energy -122897.252226 kJ/mol
# GULP energy per Si atom -5586.238738 kJ/mol
# Density = 2.293809 g / cm^3
# Si number density = 22.990413 Si / 1000 Ang^3
#
#
#
# Elastic Constant Matrix: (Units=GPa)
#
#
# Indices 1 2 3 4 5 6 
#
# 1 73.0585 7.9984 6.8976 0.0000 -9.5644 0.0000
# 2 7.9984 125.5874 69.6873 0.0000 -13.0389 0.0000
# 3 6.8976 69.6873 173.8580 0.0000 -24.5077 0.0000
# 4 0.0000 0.0000 0.0000 3.1708 0.0000 -6.0992
# 5 -9.5644 -13.0389 -24.5077 0.0000 19.6172 0.0000
# 6 0.0000 0.0000 0.0000 -6.0992 0.0000 1.5413
#
#
#
# Elastic Compliance Matrix: (Units=1/GPa)
#
#
# Indices 1 2 3 4 5 6 
#
# 1 0.014687 -0.000534 0.000717 0.000000 0.007701 0.000000
# 2 -0.000534 0.010327 -0.003869 0.000000 0.001771 0.000000
# 3 0.000717 -0.003869 0.008449 0.000000 0.008333 0.000000
# 4 0.000000 0.000000 0.000000 -0.047698 0.000000 -0.188752
# 5 0.007701 0.001771 0.008333 0.000000 0.066318 0.000000
# 6 0.000000 0.000000 0.000000 -0.188752 0.000000 -0.098125
#
#
# Mechanical properties :
#
#
# Convention : Reuss Voigt Hill
#
# Bulk Modulus (GPa) = 38.32634 60.18562 49.25598
# Shear Modulus (GPa) = -166.80108 24.06057 -71.37026
#
# Velocity S-wave (km/s) = -8.52701 3.23855 -5.57771
# Velocity P-wave (km/s) = 8.95767 6.34190 4.47326
#
# Compressibility (1/GPa) = 0.02609172
#
# Stress axis : x y z
#
# Youngs Moduli (GPa) = 68.08926 96.83292 118.36169
#
# Poissons Ratio (x) = 0.05166 -0.08484
# Poissons Ratio (y) = 0.03633 0.45789
# Poissons Ratio (z) = -0.04881 0.37461
#
# Static dielectric constant tensor:
#      x y z
#    x 1.866450 0.000000 0.014950 
#    y 0.000000 1.885530 0.000000 
#    z 0.014950 0.000000 1.883660 
# 
# From -- ./inp_files/51200.got.cif
#   From: 2010.05.17/outbox.cif.g08.bks.cpg/sg12_26_cif.got.tgz:51200.got - 2010.06.03 13:09:07.
