data_PCOD9203967
_publ_section_title
;
Structure prediction by ZEFSAII (Michael W. Deem and Ramdas Pophale) SiO2 
 PCOD9203967
Probable space group: C 2/M
;
_chemical_formula_sum "Si O2"
_cell_formula_units_Z 40
_cell_length_a 18.644374
_cell_length_b 12.508735
_cell_length_c 9.512312
_cell_angle_alpha 90.000000
_cell_angle_beta 114.132368
_cell_angle_gamma 90.000000
_cell_volume 2024.553908
_symmetry_space_group_name_H-M "C 2/M"
_symmetry_group_IT_number 12
_symmetry_cell_setting 'monoclinic'
loop_
_space_group_symop_operation_xyz
x,y,z
-x,y,-z
-x,-y,-z
x,-y,z
1/2+x,1/2+y,z
1/2-x,1/2+y,-z
1/2-x,1/2-y,-z
1/2+x,1/2-y,z
loop_
_atom_site_type_symbol
_atom_site_label
_atom_site_fract_x
_atom_site_fract_y
_atom_site_fract_z
Si Si1 0.272057 0.299842 0.167197
Si Si2 0.055486 0.121959 0.764167
Si Si3 0.000000 0.222358 0.000000
Si Si4 0.500000 0.211406 0.500000
Si Si5 0.332433 0.877264 0.423073
Si Si6 0.868020 0.621468 0.772335
O O1 0.354633 0.360380 0.212947
O O2 0.283836 0.205081 0.290245
O O3 0.201785 0.370864 0.170622
O O4 0.250000 0.250000 0.000000
O O5 0.005992 0.208526 0.636626
O O6 0.031506 0.000000 0.718110
O O7 0.043269 0.151499 0.917151
O O8 0.064232 0.297561 0.126847
O O9 0.577441 0.140260 0.552799
O O10 0.333048 0.853538 0.589992
O O11 0.308005 0.000000 0.382212
O O12 0.898976 0.500000 0.789756
#
# Coordination Sequence:
#
# PCOD9203967 Si02
#       6
#     8   8   4   4   8   8
#     4  11  23  42  62  90 128 158 208 257 302 371
#     4  11  23  40  63  89 122 165 204 253 310 365
#     4  12  22  42  62  94 126 158 208 258 302 364
#     4  10  20  40  62  90 128 152 208 254 304 370
#     4  10  22  39  64  92 123 165 204 250 308 365
#     4  11  23  42  64  91 126 165 205 251 310 365
#
# _framework density 19.757439000000002
#
# number of rings (size 3 to 8) (size 9 to 14) (size 15 to 20)
#    0.000    1.200    4.000    2.400    0.000    1.600 
#    0.000    0.000    0.000    0.000    0.000    0.000 
#    0.000    0.000    0.000    0.000    0.000    0.000 
#
# Total GULP energy -111749.908154 kJ/mol
# GULP energy per Si atom -5587.495408 kJ/mol
# Density = 1.971247 g / cm^3
# Si number density = 19.757439 Si / 1000 Ang^3
#
#
#
# Elastic Constant Matrix: (Units=GPa)
#
#
# Indices 1 2 3 4 5 6 
#
# 1 56.2661 18.4958 2.2573 0.0000 -12.4311 0.0000
# 2 18.4958 65.1274 25.1477 0.0000 -10.9711 0.0000
# 3 2.2573 25.1477 81.8598 0.0000 -22.1245 0.0000
# 4 0.0000 0.0000 0.0000 16.8683 0.0000 -5.4515
# 5 -12.4311 -10.9711 -22.1245 0.0000 33.2774 0.0000
# 6 0.0000 0.0000 0.0000 -5.4515 0.0000 6.5940
#
#
#
# Elastic Compliance Matrix: (Units=1/GPa)
#
#
# Indices 1 2 3 4 5 6 
#
# 1 0.021469 -0.006050 0.003529 0.000000 0.008372 0.000000
# 2 -0.006050 0.019322 -0.005678 0.000000 0.000335 0.000000
# 3 0.003529 -0.005678 0.016717 0.000000 0.010561 0.000000
# 4 0.000000 0.000000 0.000000 0.080897 0.000000 0.066880
# 5 0.008372 0.000335 0.010561 0.000000 0.040310 0.000000
# 6 0.000000 0.000000 0.000000 0.066880 0.000000 0.206945
#
#
# Mechanical properties :
#
#
# Convention : Reuss Voigt Hill
#
# Bulk Modulus (GPa) = 24.32444 32.78387 28.55416
# Shear Modulus (GPa) = 12.02613 21.83811 16.93212
#
# Velocity S-wave (km/s) = 2.46984 3.32823 2.93063
# Velocity P-wave (km/s) = 4.52457 5.60345 5.09266
#
# Compressibility (1/GPa) = 0.04111091
#
# Stress axis : x y z
#
# Youngs Moduli (GPa) = 46.57782 51.75561 59.81778
#
# Poissons Ratio (x) = 0.31310 -0.21111
# Poissons Ratio (y) = 0.28178 0.33967
# Poissons Ratio (z) = -0.16438 0.29389
#
# Static dielectric constant tensor:
#      x y z
#    x 1.679370 0.000000 -0.010850 
#    y 0.000000 1.655210 0.000000 
#    z -0.010850 0.000000 1.687800 
# 
# From -- ./inp_files/83757.got.cif
#   From: 2010.05.17/outbox.cif.g08.bks.cpg/sg12_42_cif.got.tgz:83757.got - 2010.06.03 13:09:07.
