data_PCOD9203107
_publ_section_title
;
Structure prediction by ZEFSAII (Michael W. Deem and Ramdas Pophale) SiO2 
 PCOD9203107
Probable space group: C 2/M
;
_chemical_formula_sum "Si O2"
_cell_formula_units_Z 46
_cell_length_a 9.173889
_cell_length_b 22.585269
_cell_length_c 14.800418
_cell_angle_alpha 90.000000
_cell_angle_beta 44.000834
_cell_angle_gamma 90.000000
_cell_volume 2130.249878
_symmetry_space_group_name_H-M "C 2/M"
_symmetry_group_IT_number 12
_symmetry_cell_setting 'monoclinic'
loop_
_space_group_symop_operation_xyz
x,y,z
-x,y,-z
-x,-y,-z
x,-y,z
1/2+x,1/2+y,z
1/2-x,1/2+y,-z
1/2-x,1/2-y,-z
1/2+x,1/2-y,z
loop_
_atom_site_type_symbol
_atom_site_label
_atom_site_fract_x
_atom_site_fract_y
_atom_site_fract_z
Si Si1 0.000000 0.500000 0.000000
Si Si2 0.000000 0.358418 0.500000
Si Si3 0.722635 0.931084 0.243869
Si Si4 0.095107 0.774366 0.676975
Si Si5 0.934873 0.170404 0.930365
Si Si6 0.326450 0.668193 0.644253
Si Si7 0.042122 0.598705 0.129985
O O1 0.932033 0.551040 0.957895
O O2 0.927060 0.400189 0.615170
O O3 0.799426 0.316094 0.572169
O O4 0.613107 0.925886 0.195409
O O5 0.932012 0.890790 0.142429
O O6 0.765278 0.000000 0.246037
O O7 0.169867 0.707156 0.652960
O O8 0.993189 0.790819 0.818442
O O9 0.937412 0.787751 0.665877
O O10 0.691778 0.154074 0.041924
O O11 0.000000 0.194710 0.000000
O O12 0.500000 0.642393 0.500000
O O13 0.197110 0.619649 0.755389
#
# Coordination Sequence:
#
# PCOD9203107 Si02
#       7
#     2   4   8   8   8   8   8
#     4  12  24  44  64  86 128 178 208 260 334 382
#     4  10  21  40  68  98 138 167 214 266 330 392
#     4  10  20  38  67 101 126 173 219 270 320 387
#     4  11  24  42  67  98 131 177 215 269 331 391
#     4   9  22  40  65  97 130 166 221 268 328 392
#     4  12  26  43  69  97 132 174 222 269 331 393
#     4  11  24  42  65  91 134 171 218 271 324 386
#
# _framework density 21.593713000000001
#
# number of rings (size 3 to 8) (size 9 to 14) (size 15 to 20)
#    0.000    1.391    1.739    2.870    8.522    1.739 
#    1.565    0.435    5.739    0.000    0.000    0.000 
#    0.000    0.000    0.000    0.000    0.000    0.000 
#
# Total GULP energy -128476.504837 kJ/mol
# GULP energy per Si atom -5585.934993 kJ/mol
# Density = 2.154456 g / cm^3
# Si number density = 21.593713 Si / 1000 Ang^3
#
#
#
# Elastic Constant Matrix: (Units=GPa)
#
#
# Indices 1 2 3 4 5 6 
#
# 1 69.6032 -1.7412 20.9073 0.0000 13.2250 0.0000
# 2 -1.7412 37.1677 -1.6180 0.0000 -0.8633 0.0000
# 3 20.9073 -1.6180 115.7670 0.0000 11.7034 0.0000
# 4 0.0000 0.0000 0.0000 12.5225 0.0000 15.1731
# 5 13.2250 -0.8633 11.7034 0.0000 33.5854 0.0000
# 6 0.0000 0.0000 0.0000 15.1731 0.0000 19.6848
#
#
#
# Elastic Compliance Matrix: (Units=1/GPa)
#
#
# Indices 1 2 3 4 5 6 
#
# 1 0.016135 0.000525 -0.002348 0.000000 -0.005522 0.000000
# 2 0.000525 0.026950 0.000241 0.000000 0.000402 0.000000
# 3 -0.002348 0.000241 0.009299 0.000000 -0.002309 0.000000
# 4 0.000000 0.000000 0.000000 1.209132 0.000000 -0.932003
# 5 -0.005522 0.000402 -0.002309 0.000000 0.032764 0.000000
# 6 0.000000 0.000000 0.000000 -0.932003 0.000000 0.769192
#
#
# Mechanical properties :
#
#
# Convention : Reuss Voigt Hill
#
# Bulk Modulus (GPa) = 20.31709 28.62603 24.47156
# Shear Modulus (GPa) = 2.40034 26.82452 14.61243
#
# Velocity S-wave (km/s) = 1.05546 3.52836 2.60416
# Velocity P-wave (km/s) = 3.30372 5.46668 4.51659
#
# Compressibility (1/GPa) = 0.04921965
#
# Stress axis : x y z
#
# Youngs Moduli (GPa) = 61.97765 37.10640 107.53851
#
# Poissons Ratio (x) = -0.01949 0.25254
# Poissons Ratio (y) = -0.03256 -0.02593
# Poissons Ratio (z) = 0.14555 -0.00895
#
# Static dielectric constant tensor:
#      x y z
#    x 1.770900 0.000000 -0.013520 
#    y 0.000000 1.712470 0.000000 
#    z -0.013520 0.000000 1.804370 
# 
# From -- ./inp_files/121910.got.cif
#   From: 2010.05.17/outbox.cif.g08.bks.cpg/sg12_61_cif.got.tgz:121910.got - 2010.06.03 13:09:07.
