data_PCOD9203277
_publ_section_title
;
Structure prediction by ZEFSAII (Michael W. Deem and Ramdas Pophale) SiO2 
 PCOD9203277
Probable space group: C 2/M
;
_chemical_formula_sum "Si O2"
_cell_formula_units_Z 60
_cell_length_a 14.857463
_cell_length_b 7.724702
_cell_length_c 25.251355
_cell_angle_alpha 90.000000
_cell_angle_beta 106.400801
_cell_angle_gamma 90.000000
_cell_volume 2780.161746
_symmetry_space_group_name_H-M "C 2/M"
_symmetry_group_IT_number 12
_symmetry_cell_setting 'monoclinic'
loop_
_space_group_symop_operation_xyz
x,y,z
-x,y,-z
-x,-y,-z
x,-y,z
1/2+x,1/2+y,z
1/2-x,1/2+y,-z
1/2-x,1/2-y,-z
1/2+x,1/2-y,z
loop_
_atom_site_type_symbol
_atom_site_label
_atom_site_fract_x
_atom_site_fract_y
_atom_site_fract_z
Si Si1 0.000000 0.247630 0.000000
Si Si2 0.192392 0.791805 0.211230
Si Si3 0.458357 0.794118 0.414045
Si Si4 0.374048 0.202709 0.070045
Si Si5 0.613586 0.700573 0.712879
Si Si6 0.645009 0.791958 0.499387
Si Si7 0.678604 0.711230 0.087280
Si Si8 0.520515 0.289173 0.804812
O O1 0.916194 0.305349 0.946591
O O2 0.072116 0.187550 0.965531
O O3 0.275369 0.722085 0.261137
O O4 0.204763 0.741251 0.151704
O O5 0.088458 0.740027 0.211195
O O6 0.197542 0.000000 0.214025
O O7 0.424040 0.765212 0.349133
O O8 0.562908 0.728896 0.445857
O O9 0.386803 0.728418 0.447520
O O10 0.462145 0.000000 0.421710
O O11 0.266590 0.250067 0.064324
O O12 0.426906 0.220681 0.134686
O O13 0.378767 0.000000 0.053995
O O14 0.589209 0.500000 0.710001
O O15 0.567375 0.776604 0.758500
O O16 0.750000 0.750000 0.500000
O O17 0.641218 0.000000 0.499502
O O18 0.661310 0.500000 0.083477
O O19 0.526429 0.500000 0.808510
#
# Coordination Sequence:
#
# PCOD9203277 Si02
#       8
#     4   8   8   8   8   8   8   8
#     4  12  22  38  58  86 115 144 185 242 291 350
#     4  10  20  39  61  82 110 151 194 233 288 356
#     4   9  20  39  60  86 124 167 201 236 288 354
#     4  11  23  39  57  84 114 143 182 233 294 352
#     4  11  23  38  59  90 119 150 196 250 295 337
#     4   9  19  37  62  91 124 163 205 244 291 338
#     4  10  21  37  60  84 109 146 189 229 284 358
#     4  10  22  40  60  82 110 149 192 236 288 346
#
# _framework density 21.581475999999999
#
# number of rings (size 3 to 8) (size 9 to 14) (size 15 to 20)
#    0.000    1.867    2.667    2.000    0.000    3.733 
#    0.000    6.667    0.000    0.000    0.000    0.000 
#    0.000    0.000    0.000    0.000    0.000    0.000 
#
# Total GULP energy -167336.550896 kJ/mol
# GULP energy per Si atom -5577.885030 kJ/mol
# Density = 2.153236 g / cm^3
# Si number density = 21.581476 Si / 1000 Ang^3
#
#
#
# Elastic Constant Matrix: (Units=GPa)
#
#
# Indices 1 2 3 4 5 6 
#
# 1 147.3917 9.8556 44.6108 0.0000 11.8613 0.0000
# 2 9.8556 48.8826 4.4718 0.0000 -0.2509 0.0000
# 3 44.6108 4.4718 142.4725 0.0000 14.0905 0.0000
# 4 0.0000 0.0000 0.0000 -235.6811 0.0000 -25.7160
# 5 11.8613 -0.2509 14.0905 0.0000 20.8497 0.0000
# 6 0.0000 0.0000 0.0000 -25.7160 0.0000 7.5335
#
#
#
# Elastic Compliance Matrix: (Units=1/GPa)
#
#
# Indices 1 2 3 4 5 6 
#
# 1 0.007751 -0.001388 -0.002085 0.000000 -0.003017 0.000000
# 2 -0.001388 0.020775 -0.000343 0.000000 0.001271 0.000000
# 3 -0.002085 -0.000343 0.008108 0.000000 -0.004297 0.000000
# 4 0.000000 0.000000 0.000000 -0.003092 0.000000 -0.010553
# 5 -0.003017 0.001271 -0.004297 0.000000 0.052598 0.000000
# 6 0.000000 0.000000 0.000000 -0.010553 0.000000 0.096717
#
#
# Mechanical properties :
#
#
# Convention : Reuss Voigt Hill
#
# Bulk Modulus (GPa) = 34.48068 50.73590 42.60829
# Shear Modulus (GPa) = 24.98046 -22.80569 1.08739
#
# Velocity S-wave (km/s) = 3.40589 -3.25426 0.71060
# Velocity P-wave (km/s) = 5.61056 3.07242 4.52318
#
# Compressibility (1/GPa) = 0.02900175
#
# Stress axis : x y z
#
# Youngs Moduli (GPa) = 129.00996 48.13506 123.34170
#
# Poissons Ratio (x) = 0.06679 0.25718
# Poissons Ratio (y) = 0.17901 0.04235
# Poissons Ratio (z) = 0.26900 0.01653
#
# Static dielectric constant tensor:
#      x y z
#    x 1.770550 0.000000 -0.018040 
#    y 0.000000 1.865930 0.000000 
#    z -0.018040 0.000000 1.765870 
# 
# From -- ./inp_files/338950.got.cif
#   From: 2010.05.17/outbox.cif.g08.bks.cpg/sg12_170_cif.got.tgz:338950.got - 2010.06.03 13:09:07.
