data_PCOD9203064
_publ_section_title
;
Structure prediction by ZEFSAII (Michael W. Deem and Ramdas Pophale) SiO2 
 PCOD9203064
Probable space group: C 2/M
;
_chemical_formula_sum "Si O2"
_cell_formula_units_Z 56
_cell_length_a 18.265184
_cell_length_b 14.091136
_cell_length_c 20.525548
_cell_angle_alpha 90.000000
_cell_angle_beta 147.128158
_cell_angle_gamma 90.000000
_cell_volume 2867.306081
_symmetry_space_group_name_H-M "C 2/M"
_symmetry_group_IT_number 12
_symmetry_cell_setting 'monoclinic'
loop_
_space_group_symop_operation_xyz
x,y,z
-x,y,-z
-x,-y,-z
x,-y,z
1/2+x,1/2+y,z
1/2-x,1/2+y,-z
1/2-x,1/2-y,-z
1/2+x,1/2-y,z
loop_
_atom_site_type_symbol
_atom_site_label
_atom_site_fract_x
_atom_site_fract_y
_atom_site_fract_z
Si Si1 0.297412 0.113756 0.852424
Si Si2 0.576876 0.712756 0.243267
Si Si3 0.934283 0.386552 0.378269
Si Si4 0.156175 0.250999 0.493945
Si Si5 0.974437 0.387280 0.868819
Si Si6 0.386970 0.614147 0.862927
Si Si7 0.512181 0.387542 0.690287
O O1 0.348876 0.145860 0.820426
O O2 0.154948 0.147220 0.770500
O O3 0.290337 0.000000 0.839805
O O4 0.403383 0.128684 0.989563
O O5 0.737340 0.726063 0.371211
O O6 0.516639 0.817124 0.185109
O O7 0.558583 0.649817 0.165749
O O8 0.520575 0.662095 0.265491
O O9 0.944931 0.500000 0.373698
O O10 0.774166 0.360745 0.250989
O O11 0.000000 0.371198 0.500000
O O12 0.034021 0.326137 0.406103
O O13 0.250000 0.250000 0.500000
O O14 0.092199 0.146972 0.442737
O O15 0.967031 0.500000 0.848364
O O16 0.387944 0.500000 0.865152
O O17 0.500000 0.647817 0.000000
O O18 0.510884 0.500000 0.697937
#
# Coordination Sequence:
#
# PCOD9203064 Si02
#       7
#     8   8   8   8   8   8   8
#     4   8  17  36  58  81 112 155 200 241 298 364
#     4  11  22  36  59  89 118 160 201 250 307 361
#     4  10  20  38  66  92 121 165 208 255 312 368
#     4  10  23  38  56  87 118 158 209 250 298 368
#     4   9  19  35  57  85 116 153 200 249 300 358
#     4  10  22  38  60  95 131 160 202 258 310 365
#     4  10  22  39  59  82 117 160 201 251 309 364
#
# _framework density 19.530526999999999
#
# number of rings (size 3 to 8) (size 9 to 14) (size 15 to 20)
#    0.000    2.286    1.429    1.286    4.000    3.429 
#    0.000    3.571    0.000    9.857    0.000    0.000 
#    0.000    0.000    0.000    0.000    0.000    0.000 
#
# Total GULP energy -155921.936422 kJ/mol
# GULP energy per Si atom -5568.640587 kJ/mol
# Density = 1.948607 g / cm^3
# Si number density = 19.530527 Si / 1000 Ang^3
#
#
#
# Elastic Constant Matrix: (Units=GPa)
#
#
# Indices 1 2 3 4 5 6 
#
# 1 50.8661 24.7149 31.3844 0.0000 12.5395 0.0000
# 2 24.7149 72.6721 17.1475 0.0001 6.2889 0.0000
# 3 31.3844 17.1475 87.2854 0.0001 3.6362 0.0001
# 4 0.0000 0.0001 0.0001 30.7396 0.0001 -2.0282
# 5 12.5395 6.2889 3.6362 0.0001 23.5502 0.0000
# 6 0.0000 0.0000 0.0001 -2.0282 0.0000 32.6571
#
#
#
# Elastic Compliance Matrix: (Units=1/GPa)
#
#
# Indices 1 2 3 4 5 6 
#
# 1 0.032805 -0.007661 -0.009710 0.000000 -0.013922 0.000000
# 2 -0.007661 0.016500 -0.000477 0.000000 -0.000254 0.000000
# 3 -0.009710 -0.000477 0.014917 0.000000 0.002994 0.000000
# 4 0.000000 0.000000 0.000000 0.032665 0.000000 0.002029
# 5 -0.013922 -0.000254 0.002994 0.000000 0.049481 0.000000
# 6 0.000000 0.000000 0.000000 0.002029 0.000000 0.030747
#
#
# Mechanical properties :
#
#
# Convention : Reuss Voigt Hill
#
# Bulk Modulus (GPa) = 35.05429 39.70193 37.37811
# Shear Modulus (GPa) = 22.49013 26.56116 24.52564
#
# Velocity S-wave (km/s) = 3.39711 3.69179 3.54751
# Velocity P-wave (km/s) = 5.77707 6.20844 5.99664
#
# Compressibility (1/GPa) = 0.02852717
#
# Stress axis : x y z
#
# Youngs Moduli (GPa) = 30.48308 60.60582 67.03739
#
# Poissons Ratio (x) = 0.46427 0.65097
# Poissons Ratio (y) = 0.23352 0.03194
# Poissons Ratio (z) = 0.29601 0.02888
#
# Static dielectric constant tensor:
#      x y z
#    x 1.688880 0.000000 0.022830 
#    y 0.000000 1.704660 0.000000 
#    z 0.022830 0.000000 1.727960 
# 
# From -- ./inp_files/316794.got.cif
#   From: 2010.05.17/outbox.cif.g08.bks.cpg/sg12_159_cif.got.tgz:316794.got - 2010.06.03 13:09:07.
