data_PCOD9203929
_publ_section_title
;
Structure prediction by ZEFSAII (Michael W. Deem and Ramdas Pophale) SiO2 
 PCOD9203929
Probable space group: C 2/M
;
_chemical_formula_sum "Si O2"
_cell_formula_units_Z 58
_cell_length_a 16.328406
_cell_length_b 11.998043
_cell_length_c 20.465049
_cell_angle_alpha 90.000000
_cell_angle_beta 44.293125
_cell_angle_gamma 90.000000
_cell_volume 2799.802016
_symmetry_space_group_name_H-M "C 2/M"
_symmetry_group_IT_number 12
_symmetry_cell_setting 'monoclinic'
loop_
_space_group_symop_operation_xyz
x,y,z
-x,y,-z
-x,-y,-z
x,-y,z
1/2+x,1/2+y,z
1/2-x,1/2+y,-z
1/2-x,1/2-y,-z
1/2+x,1/2-y,z
loop_
_atom_site_type_symbol
_atom_site_label
_atom_site_fract_x
_atom_site_fract_y
_atom_site_fract_z
Si Si1 0.084589 0.206486 0.539883
Si Si2 0.108705 0.625386 0.307551
Si Si3 0.134920 0.183953 0.790200
Si Si4 0.111882 0.879909 0.067482
Si Si5 0.874315 0.630822 0.107316
Si Si6 0.698343 0.632429 0.610271
Si Si7 0.500000 0.500000 0.500000
Si Si8 0.805133 0.282039 0.870246
O O1 0.186173 0.290291 0.457696
O O2 0.122669 0.163876 0.590007
O O3 0.968026 0.281525 0.612869
O O4 0.064111 0.099330 0.507005
O O5 0.064388 0.500000 0.343374
O O6 0.243096 0.633399 0.254557
O O7 0.113378 0.656502 0.228230
O O8 0.129225 0.309857 0.820191
O O9 0.132153 0.163469 0.714767
O O10 0.018607 0.128522 0.886138
O O11 0.128558 0.780364 0.109373
O O12 0.126735 0.000000 0.091682
O O13 0.210964 0.864220 0.956619
O O14 0.853843 0.500000 0.123930
O O15 0.773100 0.690436 0.123219
O O16 0.000000 0.648240 0.000000
O O17 0.724457 0.500000 0.595409
#
# Coordination Sequence:
#
# PCOD9203929 Si02
#       8
#     8   8   8   8   8   8   2   8
#     4  11  25  45  73 100 142 173 228 276 353 403
#     4  11  23  42  64  96 130 178 222 284 331 414
#     4  11  23  39  62  96 127 166 230 261 335 404
#     4  11  21  37  59  88 125 174 217 281 333 401
#     4  10  20  40  61  86 127 171 216 278 334 397
#     4  11  23  46  71 102 134 183 221 285 338 418
#     4  12  24  48  70 112 136 184 214 298 328 422
#     4  10  22  38  59  90 125 167 230 270 340 399
#
# _framework density 20.71575
#
# number of rings (size 3 to 8) (size 9 to 14) (size 15 to 20)
#    0.000    1.241    2.069    4.138    0.000    0.000 
#   12.414    6.207    0.000    0.000    0.000    0.000 
#    0.000    0.000    0.000    0.000    0.000    0.000 
#
# Total GULP energy -161797.431779 kJ/mol
# GULP energy per Si atom -5579.221785 kJ/mol
# Density = 2.066860 g / cm^3
# Si number density = 20.715750 Si / 1000 Ang^3
#
#
#
# Elastic Constant Matrix: (Units=GPa)
#
#
# Indices 1 2 3 4 5 6 
#
# 1 62.1919 46.6240 10.8076 0.0000 -6.0197 0.0000
# 2 46.6240 164.1465 37.4609 0.0000 -5.1865 0.0000
# 3 10.8076 37.4609 41.8435 0.0000 -7.4483 0.0000
# 4 0.0000 0.0000 0.0000 16.2948 0.0000 6.8311
# 5 -6.0197 -5.1865 -7.4483 0.0000 29.9963 0.0000
# 6 0.0000 0.0000 0.0000 6.8311 0.0000 51.6802
#
#
#
# Elastic Compliance Matrix: (Units=1/GPa)
#
#
# Indices 1 2 3 4 5 6 
#
# 1 0.020731 -0.005902 0.000510 0.000000 0.003267 0.000000
# 2 -0.005902 0.009341 -0.007074 0.000000 -0.001326 0.000000
# 3 0.000510 -0.007074 0.031283 0.000000 0.006647 0.000000
# 4 0.000000 0.000000 0.000000 0.064970 0.000000 -0.008588
# 5 0.003267 -0.001326 0.006647 0.000000 0.035414 0.000000
# 6 0.000000 0.000000 0.000000 -0.008588 0.000000 0.020485
#
#
# Mechanical properties :
#
#
# Convention : Reuss Voigt Hill
#
# Bulk Modulus (GPa) = 27.45421 50.88521 39.16971
# Shear Modulus (GPa) = 22.80016 31.14687 26.97352
#
# Velocity S-wave (km/s) = 3.32116 3.88175 3.61235
# Velocity P-wave (km/s) = 5.29040 6.68637 6.02893
#
# Compressibility (1/GPa) = 0.03642429
#
# Stress axis : x y z
#
# Youngs Moduli (GPa) = 48.23658 107.05472 31.96599
#
# Poissons Ratio (x) = 0.63181 -0.01632
# Poissons Ratio (y) = 0.28468 0.22614
# Poissons Ratio (z) = -0.02462 0.75734
#
# Static dielectric constant tensor:
#      x y z
#    x 1.755720 0.000000 -0.000320 
#    y 0.000000 1.713610 0.000000 
#    z -0.000320 0.000000 1.744900 
# 
# From -- ./inp_files/315935.got.cif
#   From: 2010.05.17/outbox.cif.g08.bks.cpg/sg12_158_cif.got.tgz:315935.got - 2010.06.03 13:09:07.
