data_PCOD9203566
_publ_section_title
;
Structure prediction by ZEFSAII (Michael W. Deem and Ramdas Pophale) SiO2 
 PCOD9203566
Probable space group: C 2/M
;
_chemical_formula_sum "Si O2"
_cell_formula_units_Z 50
_cell_length_a 21.651234
_cell_length_b 15.438376
_cell_length_c 9.608477
_cell_angle_alpha 90.000000
_cell_angle_beta 51.326546
_cell_angle_gamma 90.000000
_cell_volume 2507.460683
_symmetry_space_group_name_H-M "C 2/M"
_symmetry_group_IT_number 12
_symmetry_cell_setting 'monoclinic'
loop_
_space_group_symop_operation_xyz
x,y,z
-x,y,-z
-x,-y,-z
x,-y,z
1/2+x,1/2+y,z
1/2-x,1/2+y,-z
1/2-x,1/2-y,-z
1/2+x,1/2-y,z
loop_
_atom_site_type_symbol
_atom_site_label
_atom_site_fract_x
_atom_site_fract_y
_atom_site_fract_z
Si Si1 0.313922 0.397326 0.843753
Si Si2 0.881318 0.641432 0.179345
Si Si3 0.367726 0.098545 0.872903
Si Si4 0.453459 0.274094 0.705303
Si Si5 0.208216 0.102796 0.448519
Si Si6 0.560975 0.676903 0.813531
Si Si7 0.000000 0.500000 0.000000
O O1 0.333343 0.500000 0.823560
O O2 0.378421 0.337774 0.826156
O O3 0.311155 0.370922 0.683942
O O4 0.225162 0.386623 0.027819
O O5 0.794113 0.639336 0.367663
O O6 0.910391 0.739089 0.141594
O O7 0.873323 0.604297 0.033564
O O8 0.945627 0.576474 0.151600
O O9 0.421005 0.176066 0.742056
O O10 0.389425 0.000000 0.802739
O O11 0.500000 0.297282 0.500000
O O12 0.512925 0.288573 0.748212
O O13 0.137412 0.127860 0.649527
O O14 0.217658 0.000000 0.431459
O O15 0.500000 0.627230 0.000000
#
# Coordination Sequence:
#
# PCOD9203566 Si02
#       7
#     8   8   8   8   8   8   2
#     4   9  20  39  65  89 117 164 213 250 298 373
#     4  11  20  37  63  92 122 155 206 252 305 368
#     4  10  20  39  64  90 122 161 206 254 309 366
#     4  12  23  39  61  92 127 162 200 258 308 362
#     4  10  21  40  62  90 125 163 207 256 308 363
#     4  12  24  39  60  92 128 164 206 253 307 371
#     4  12  16  32  64  92 110 154 204 248 290 360
#
# _framework density 19.940491000000002
#
# number of rings (size 3 to 8) (size 9 to 14) (size 15 to 20)
#    0.000    1.280    5.600    1.920    0.000    1.600 
#    0.000    0.000    0.000    1.920    0.000    0.000 
#    0.000    0.000    0.000    0.000    0.000    0.000 
#
# Total GULP energy -139316.350310 kJ/mol
# GULP energy per Si atom -5572.654012 kJ/mol
# Density = 1.989511 g / cm^3
# Si number density = 19.940491 Si / 1000 Ang^3
#
#
#
# Elastic Constant Matrix: (Units=GPa)
#
#
# Indices 1 2 3 4 5 6 
#
# 1 41.6220 19.3240 26.5476 0.0000 -23.3593 0.0000
# 2 19.3240 24.0950 -3.6456 0.0000 -10.3586 0.0000
# 3 26.5476 -3.6456 75.6384 0.0000 -25.4582 0.0000
# 4 0.0000 0.0000 0.0000 55.4023 0.0000 -31.8556
# 5 -23.3593 -10.3586 -25.4582 0.0000 25.0637 0.0000
# 6 0.0000 0.0000 0.0000 -31.8556 0.0000 57.5138
#
#
#
# Elastic Compliance Matrix: (Units=1/GPa)
#
#
# Indices 1 2 3 4 5 6 
#
# 1 0.078480 -0.052078 -0.019268 0.000000 0.032049 0.000000
# 2 -0.052078 0.097922 0.030819 0.000000 0.023238 0.000000
# 3 -0.019268 0.030819 0.029952 0.000000 0.025202 0.000000
# 4 0.000000 0.000000 0.000000 0.026484 0.000000 0.014669
# 5 0.032049 0.023238 0.025202 0.000000 0.104971 0.000000
# 6 0.000000 0.000000 0.000000 0.014669 0.000000 0.025512
#
#
# Mechanical properties :
#
#
# Convention : Reuss Voigt Hill
#
# Bulk Modulus (GPa) = 7.98084 25.08970 16.53527
# Shear Modulus (GPa) = 10.28508 34.20458 22.24483
#
# Velocity S-wave (km/s) = 2.27356 4.14615 3.34362
# Velocity P-wave (km/s) = 3.30199 5.96073 4.81838
#
# Compressibility (1/GPa) = 0.12530014
#
# Stress axis : x y z
#
# Youngs Moduli (GPa) = 12.74204 10.21226 33.38723
#
# Poissons Ratio (x) = 0.53183 0.64331
# Poissons Ratio (y) = 0.66358 -1.02897
# Poissons Ratio (z) = 0.24552 -0.31473
#
# Static dielectric constant tensor:
#      x y z
#    x 1.764940 0.000000 -0.026840 
#    y 0.000000 1.676580 0.000000 
#    z -0.026840 0.000000 1.711230 
# 
# From -- ./inp_files/176407.got.cif
#   From: 2010.05.17/outbox.cif.g08.bks.cpg/sg12_89_cif.got.tgz:176407.got - 2010.06.03 13:09:07.
