data_PCOD9203395
_publ_section_title
;
Structure prediction by ZEFSAII (Michael W. Deem and Ramdas Pophale) SiO2 
 PCOD9203395
Probable space group: C 2/M
;
_chemical_formula_sum "Si O2"
_cell_formula_units_Z 56
_cell_length_a 11.751569
_cell_length_b 17.732062
_cell_length_c 17.494273
_cell_angle_alpha 90.000000
_cell_angle_beta 54.748894
_cell_angle_gamma 90.000000
_cell_volume 2976.984312
_symmetry_space_group_name_H-M "C 2/M"
_symmetry_group_IT_number 12
_symmetry_cell_setting 'monoclinic'
loop_
_space_group_symop_operation_xyz
x,y,z
-x,y,-z
-x,-y,-z
x,-y,z
1/2+x,1/2+y,z
1/2-x,1/2+y,-z
1/2-x,1/2-y,-z
1/2+x,1/2-y,z
loop_
_atom_site_type_symbol
_atom_site_label
_atom_site_fract_x
_atom_site_fract_y
_atom_site_fract_z
Si Si1 0.199721 0.135036 0.164297
Si Si2 0.746365 0.310809 0.814980
Si Si3 0.773612 0.662209 0.971109
Si Si4 0.886778 0.163268 0.293523
Si Si5 0.570833 0.167022 0.667759
Si Si6 0.351468 0.912332 0.515626
Si Si7 0.940718 0.415283 0.173587
O O1 0.242484 0.221728 0.169547
O O2 0.311250 0.086901 0.166775
O O3 0.038544 0.127866 0.248085
O O4 0.213596 0.121139 0.068359
O O5 0.714184 0.350181 0.908871
O O6 0.643673 0.327643 0.785214
O O7 0.901951 0.334815 0.728462
O O8 0.936622 0.640652 0.901532
O O9 0.750000 0.750000 0.000000
O O10 0.888172 0.247740 0.327368
O O11 0.767726 0.116228 0.381334
O O12 0.639892 0.137443 0.564049
O O13 0.607665 0.114299 0.725238
O O14 0.500000 0.905496 0.500000
O O15 0.330230 0.000000 0.504106
O O16 0.997712 0.500000 0.156927
#
# Coordination Sequence:
#
# PCOD9203395 Si02
#       7
#     8   8   8   8   8   8   8
#     4  10  21  35  55  87 123 159 192 240 301 350
#     4   9  18  35  58  87 116 150 207 248 286 341
#     4   9  20  36  58  86 119 159 203 246 283 345
#     4  11  21  38  62  88 121 156 202 249 301 358
#     4  10  20  39  62  89 115 155 205 252 295 359
#     4  11  23  39  61  87 116 154 200 253 310 360
#     4  11  22  38  62  90 125 160 198 244 299 364
#
# _framework density 18.810981999999999
#
# number of rings (size 3 to 8) (size 9 to 14) (size 15 to 20)
#    0.000    1.857    2.857    2.143    0.000    2.286 
#    0.000    0.714    0.000    1.714    0.000    4.000 
#    0.000    0.000    0.000    0.000    0.000    0.000 
#
# Total GULP energy -156250.627981 kJ/mol
# GULP energy per Si atom -5580.379571 kJ/mol
# Density = 1.876817 g / cm^3
# Si number density = 18.810982 Si / 1000 Ang^3
#
#
#
# Elastic Constant Matrix: (Units=GPa)
#
#
# Indices 1 2 3 4 5 6 
#
# 1 75.9004 38.0427 38.1637 0.0000 2.4386 0.0000
# 2 38.0427 44.6853 27.1816 0.0000 1.4818 0.0000
# 3 38.1637 27.1816 101.6952 0.0000 12.3327 0.0000
# 4 0.0000 0.0000 0.0000 -0.0168 0.0000 -16.3805
# 5 2.4386 1.4818 12.3327 0.0000 26.0073 0.0000
# 6 0.0000 0.0000 0.0000 -16.3805 0.0000 3.2895
#
#
#
# Elastic Compliance Matrix: (Units=1/GPa)
#
#
# Indices 1 2 3 4 5 6 
#
# 1 0.024489 -0.018180 -0.004433 0.000000 0.000842 0.000000
# 2 -0.018180 0.040317 -0.004118 0.000000 0.001361 0.000000
# 3 -0.004433 -0.004118 0.013283 0.000000 -0.005648 0.000000
# 4 0.000000 0.000000 0.000000 -0.012257 0.000000 -0.061036
# 5 0.000842 0.001361 -0.005648 0.000000 0.040973 0.000000
# 6 0.000000 0.000000 0.000000 -0.061036 0.000000 0.000063
#
#
# Mechanical properties :
#
#
# Convention : Reuss Voigt Hill
#
# Bulk Modulus (GPa) = 40.60884 47.67300 44.14092
# Shear Modulus (GPa) = 29.66671 13.78218 21.72445
#
# Velocity S-wave (km/s) = 3.97557 2.70972 3.40204
# Velocity P-wave (km/s) = 6.53516 5.93197 6.24086
#
# Compressibility (1/GPa) = 0.02462518
#
# Stress axis : x y z
#
# Youngs Moduli (GPa) = 40.83392 24.80370 75.28603
#
# Poissons Ratio (x) = 0.45094 0.33375
# Poissons Ratio (y) = 0.74238 0.31006
# Poissons Ratio (z) = 0.18102 0.10215
#
# Static dielectric constant tensor:
#      x y z
#    x 1.661760 0.000000 0.013310 
#    y 0.000000 1.657440 0.000000 
#    z 0.013310 0.000000 1.634020 
# 
# From -- ./inp_files/264213.got.cif
#   From: 2010.05.17/outbox.cif.g08.bks.cpg/sg12_133_cif.got.tgz:264213.got - 2010.06.03 13:09:07.
