data_PCOD9203355
_publ_section_title
;
Structure prediction by ZEFSAII (Michael W. Deem and Ramdas Pophale) SiO2 
 PCOD9203355
Probable space group: C 2/M
;
_chemical_formula_sum "Si O2"
_cell_formula_units_Z 64
_cell_length_a 27.360756
_cell_length_b 15.220523
_cell_length_c 11.223138
_cell_angle_alpha 90.000000
_cell_angle_beta 142.066681
_cell_angle_gamma 90.000000
_cell_volume 2873.202587
_symmetry_space_group_name_H-M "C 2/M"
_symmetry_group_IT_number 12
_symmetry_cell_setting 'monoclinic'
loop_
_space_group_symop_operation_xyz
x,y,z
-x,y,-z
-x,-y,-z
x,-y,z
1/2+x,1/2+y,z
1/2-x,1/2+y,-z
1/2-x,1/2-y,-z
1/2+x,1/2-y,z
loop_
_atom_site_type_symbol
_atom_site_label
_atom_site_fract_x
_atom_site_fract_y
_atom_site_fract_z
Si Si1 0.991147 0.721563 0.839654
Si Si2 0.726593 0.397339 0.809465
Si Si3 0.055011 0.904351 0.223910
Si Si4 0.849882 0.737592 0.956434
Si Si5 0.794383 0.161761 0.624399
Si Si6 0.091884 0.787022 0.673537
Si Si7 0.649181 0.903142 0.734951
Si Si8 0.651516 0.093109 0.474061
O O1 0.978308 0.821131 0.770033
O O2 0.912021 0.668529 0.663491
O O3 0.069773 0.686145 0.927383
O O4 0.000000 0.722833 0.000000
O O5 0.718084 0.500000 0.755080
O O6 0.776100 0.330317 0.820179
O O7 0.645374 0.349264 0.692289
O O8 0.783243 0.398479 0.035445
O O9 0.142364 0.877311 0.345318
O O10 0.054406 0.000000 0.280598
O O11 0.000000 0.910244 0.000000
O O12 0.838190 0.809031 0.830278
O O13 0.866685 0.782168 0.116099
O O14 0.750000 0.250000 0.500000
O O15 0.722986 0.098102 0.519959
O O16 0.096340 0.684157 0.642603
O O17 0.000000 0.813908 0.500000
O O18 0.685543 0.900224 0.672732
O O19 0.609738 0.000000 0.671234
O O20 0.608815 0.000000 0.380401
#
# Coordination Sequence:
#
# PCOD9203355 Si02
#       8
#     8   8   8   8   8   8   8   8
#     4  11  21  41  59  90 128 165 206 265 313 368
#     4  10  22  42  64  92 129 163 207 257 313 386
#     4  10  20  39  62  85 120 163 209 260 309 359
#     4  11  22  39  68  89 118 172 211 253 323 368
#     4  12  21  38  62  86 124 164 209 264 306 364
#     4  11  22  39  64  95 127 164 202 259 320 383
#     4   9  19  38  63  91 121 155 206 264 309 367
#     4  11  22  35  59  90 120 160 208 257 313 370
#
# _framework density 22.274795000000001
#
# number of rings (size 3 to 8) (size 9 to 14) (size 15 to 20)
#    0.000    1.375    3.750    4.125    0.000    1.250 
#    0.000    6.250    0.000    0.000    0.000    0.000 
#    0.000    0.000    0.000    0.000    0.000    0.000 
#
# Total GULP energy -178758.230082 kJ/mol
# GULP energy per Si atom -5586.194690 kJ/mol
# Density = 2.222410 g / cm^3
# Si number density = 22.274795 Si / 1000 Ang^3
#
#
#
# Elastic Constant Matrix: (Units=GPa)
#
#
# Indices 1 2 3 4 5 6 
#
# 1 79.5355 16.5748 10.0188 0.0000 32.1366 0.0000
# 2 16.5748 117.0240 17.6714 0.0000 18.2425 0.0000
# 3 10.0188 17.6714 60.0918 0.0000 15.1501 0.0000
# 4 0.0000 0.0000 0.0000 6.6973 0.0000 -3.0679
# 5 32.1366 18.2425 15.1501 0.0000 45.5672 0.0000
# 6 0.0000 0.0000 0.0000 -3.0679 0.0000 12.1531
#
#
#
# Elastic Compliance Matrix: (Units=1/GPa)
#
#
# Indices 1 2 3 4 5 6 
#
# 1 0.017629 -0.000633 0.000347 0.000000 -0.012295 0.000000
# 2 -0.000633 0.009345 -0.001978 0.000000 -0.002637 0.000000
# 3 0.000347 -0.001978 0.018585 0.000000 -0.005632 0.000000
# 4 0.000000 0.000000 0.000000 0.168838 0.000000 0.042620
# 5 -0.012295 -0.002637 -0.005632 0.000000 0.033545 0.000000
# 6 0.000000 0.000000 0.000000 0.042620 0.000000 0.093042
#
#
# Mechanical properties :
#
#
# Convention : Reuss Voigt Hill
#
# Bulk Modulus (GPa) = 24.37174 38.35350 31.36262
# Shear Modulus (GPa) = 13.92029 27.04260 20.48144
#
# Velocity S-wave (km/s) = 2.50258 3.48809 3.03560
# Velocity P-wave (km/s) = 4.39496 5.78603 5.13779
#
# Compressibility (1/GPa) = 0.04103112
#
# Stress axis : x y z
#
# Youngs Moduli (GPa) = 56.72478 107.01338 53.80736
#
# Poissons Ratio (x) = 0.06770 -0.01865
# Poissons Ratio (y) = 0.03588 0.10641
# Poissons Ratio (z) = -0.01966 0.21163
#
# Static dielectric constant tensor:
#      x y z
#    x 1.819060 0.000000 -0.034630 
#    y 0.000000 1.846730 0.000000 
#    z -0.034630 0.000000 1.850050 
# 
# From -- ./inp_files/183830.got.cif
#   From: 2010.05.17/outbox.cif.g08.bks.cpg/sg12_92_cif.got.tgz:183830.got - 2010.06.03 13:09:07.
