data_PCOD9203124
_publ_section_title
;
Structure prediction by ZEFSAII (Michael W. Deem and Ramdas Pophale) SiO2 
 PCOD9203124
Probable space group: C 2/M
;
_chemical_formula_sum "Si O2"
_cell_formula_units_Z 40
_cell_length_a 17.419252
_cell_length_b 18.304847
_cell_length_c 9.687058
_cell_angle_alpha 90.000000
_cell_angle_beta 146.349634
_cell_angle_gamma 90.000000
_cell_volume 1711.567720
_symmetry_space_group_name_H-M "C 2/M"
_symmetry_group_IT_number 12
_symmetry_cell_setting 'monoclinic'
loop_
_space_group_symop_operation_xyz
x,y,z
-x,y,-z
-x,-y,-z
x,-y,z
1/2+x,1/2+y,z
1/2-x,1/2+y,-z
1/2-x,1/2-y,-z
1/2+x,1/2-y,z
loop_
_atom_site_type_symbol
_atom_site_label
_atom_site_fract_x
_atom_site_fract_y
_atom_site_fract_z
Si Si1 0.142651 0.915516 0.800173
Si Si2 0.528645 0.586739 0.194357
Si Si3 0.304338 0.169306 0.619863
Si Si4 0.675763 0.789413 0.055324
Si Si5 0.077028 0.684033 0.483641
O O1 0.252590 0.857192 0.914189
O O2 0.000000 0.907661 0.500000
O O3 0.097811 0.902785 0.891042
O O4 0.188243 0.000000 0.852174
O O5 0.549193 0.500000 0.214784
O O6 0.670827 0.621156 0.457180
O O7 0.500000 0.618170 0.000000
O O8 0.250000 0.250000 0.500000
O O9 0.375855 0.181266 0.874437
O O10 0.371574 0.140895 0.576434
O O11 0.794757 0.730458 0.265286
O O12 0.543777 0.765411 0.766980
O O13 0.000000 0.647648 0.500000
#
# Coordination Sequence:
#
# PCOD9203124 Si02
#       5
#     8   8   8   8   8
#     4  10  20  38  67  97 126 167 219 269 319 386
#     4  10  22  40  66  98 132 173 219 271 327 390
#     4  10  23  39  61  92 130 170 215 266 325 384
#     4  11  23  42  65  93 133 170 216 268 326 391
#     4  11  25  40  62  93 131 174 213 266 328 383
#
# _framework density 23.370387000000001
#
# number of rings (size 3 to 8) (size 9 to 14) (size 15 to 20)
#    0.000    1.600    2.000    1.800    5.600    6.400 
#    0.000    1.000    0.000    3.600    0.000    1.400 
#    0.000    0.000    0.000    0.000    0.000    0.000 
#
# Total GULP energy -111760.994702 kJ/mol
# GULP energy per Si atom -5588.049735 kJ/mol
# Density = 2.331719 g / cm^3
# Si number density = 23.370387 Si / 1000 Ang^3
#
#
#
# Elastic Constant Matrix: (Units=GPa)
#
#
# Indices 1 2 3 4 5 6 
#
# 1 168.4295 20.3435 6.2916 0.0000 -15.4666 0.0000
# 2 20.3435 63.5302 13.5242 0.0000 12.6949 0.0000
# 3 6.2916 13.5242 108.4736 0.0000 -2.6742 0.0000
# 4 0.0000 0.0000 0.0000 16.1189 0.0000 -2.5247
# 5 -15.4666 12.6949 -2.6742 0.0000 44.4950 0.0000
# 6 0.0000 0.0000 0.0000 -2.5247 0.0000 24.9299
#
#
#
# Elastic Compliance Matrix: (Units=1/GPa)
#
#
# Indices 1 2 3 4 5 6 
#
# 1 0.006544 -0.002712 0.000034 0.000000 0.003050 0.000000
# 2 -0.002712 0.018358 -0.002287 0.000000 -0.006318 0.000000
# 3 0.000034 -0.002287 0.009533 0.000000 0.001237 0.000000
# 4 0.000000 0.000000 0.000000 0.063039 0.000000 0.006384
# 5 0.003050 -0.006318 0.001237 0.000000 0.025412 0.000000
# 6 0.000000 0.000000 0.000000 0.006384 0.000000 0.040759
#
#
# Mechanical properties :
#
#
# Convention : Reuss Voigt Hill
#
# Bulk Modulus (GPa) = 40.81081 46.75021 43.78051
# Shear Modulus (GPa) = 27.51131 37.12702 32.31917
#
# Velocity S-wave (km/s) = 3.43474 3.99009 3.72279
# Velocity P-wave (km/s) = 5.76458 6.42458 6.10351
#
# Compressibility (1/GPa) = 0.02450331
#
# Stress axis : x y z
#
# Youngs Moduli (GPa) = 152.82018 54.47073 104.90362
#
# Poissons Ratio (x) = 0.14773 -0.00355
# Poissons Ratio (y) = 0.41447 0.23995
# Poissons Ratio (z) = -0.00517 0.12459
#
# Static dielectric constant tensor:
#      x y z
#    x 2.081780 0.000000 -0.190400 
#    y 0.000000 1.822140 0.000000 
#    z -0.190400 0.000000 2.164660 
# 
# From -- ./inp_files/63771.got.cif
#   From: 2010.05.17/outbox.cif.g08.bks.cpg/sg12_32_cif.got.tgz:63771.got - 2010.06.03 13:09:07.
