data_PCOD9203014
_publ_section_title
;
Structure prediction by ZEFSAII (Michael W. Deem and Ramdas Pophale) SiO2 
 PCOD9203014
Probable space group: C 2/M
;
_chemical_formula_sum "Si O2"
_cell_formula_units_Z 40
_cell_length_a 19.065225
_cell_length_b 9.205311
_cell_length_c 11.955036
_cell_angle_alpha 90.000000
_cell_angle_beta 105.163044
_cell_angle_gamma 90.000000
_cell_volume 2025.079307
_symmetry_space_group_name_H-M "C 2/M"
_symmetry_group_IT_number 12
_symmetry_cell_setting 'monoclinic'
loop_
_space_group_symop_operation_xyz
x,y,z
-x,y,-z
-x,-y,-z
x,-y,z
1/2+x,1/2+y,z
1/2-x,1/2+y,-z
1/2-x,1/2-y,-z
1/2+x,1/2-y,z
loop_
_atom_site_type_symbol
_atom_site_label
_atom_site_fract_x
_atom_site_fract_y
_atom_site_fract_z
Si Si1 0.326446 0.171530 0.021710
Si Si2 0.612390 0.827330 0.708192
Si Si3 0.573276 0.332606 0.103425
Si Si4 0.186066 0.172659 0.542523
Si Si5 0.036732 0.828674 0.344157
O O1 0.371271 0.201476 0.154355
O O2 0.316310 0.000000 0.009143
O O3 0.250000 0.250000 0.000000
O O4 0.369020 0.231480 0.932740
O O5 0.671800 0.747170 0.656197
O O6 0.532690 0.764088 0.648747
O O7 0.615192 0.000000 0.690007
O O8 0.599415 0.500000 0.113183
O O9 0.555570 0.293672 0.223296
O O10 0.500000 0.325844 0.000000
O O11 0.250000 0.250000 0.500000
O O12 0.109689 0.192725 0.445285
O O13 0.199718 0.000000 0.558238
O O14 0.016835 0.000000 0.342624
#
# Coordination Sequence:
#
# PCOD9203014 Si02
#       5
#     8   8   8   8   8
#     4  11  25  41  61  91 127 164 204 253 306 364
#     4  11  24  42  64  91 124 161 207 256 303 364
#     4  10  20  38  65  93 123 159 199 247 307 369
#     4  11  25  43  64  91 125 162 205 256 309 363
#     4  10  22  41  65  92 123 161 204 252 305 365
#
# _framework density 19.752312
#
# number of rings (size 3 to 8) (size 9 to 14) (size 15 to 20)
#    0.000    1.400    2.000    2.400    2.800    7.600 
#    0.000    0.000    0.000    0.000    0.000    0.000 
#    0.000    0.000    0.000    0.000    0.000    0.000 
#
# Total GULP energy -111855.104452 kJ/mol
# GULP energy per Si atom -5592.755223 kJ/mol
# Density = 1.970736 g / cm^3
# Si number density = 19.752312 Si / 1000 Ang^3
#
#
#
# Elastic Constant Matrix: (Units=GPa)
#
#
# Indices 1 2 3 4 5 6 
#
# 1 103.2149 72.3246 12.4403 0.0000 -15.2012 0.0000
# 2 72.3246 83.9573 35.7625 0.0000 -14.3649 0.0000
# 3 12.4403 35.7625 57.1403 0.0000 -18.8466 0.0000
# 4 0.0000 0.0000 0.0000 27.2468 0.0000 -6.4185
# 5 -15.2012 -14.3649 -18.8466 0.0000 30.0294 0.0000
# 6 0.0000 0.0000 0.0000 -6.4185 0.0000 43.9151
#
#
#
# Elastic Compliance Matrix: (Units=1/GPa)
#
#
# Indices 1 2 3 4 5 6 
#
# 1 0.033466 -0.034582 0.018271 0.000000 0.011865 0.000000
# 2 -0.034582 0.052049 -0.028510 0.000000 -0.010501 0.000000
# 3 0.018271 -0.028510 0.037729 0.000000 0.019290 0.000000
# 4 0.000000 0.000000 0.000000 0.038010 0.000000 0.005555
# 5 0.011865 -0.010501 0.019290 0.000000 0.046390 0.000000
# 6 0.000000 0.000000 0.000000 0.005555 0.000000 0.023583
#
#
# Mechanical properties :
#
#
# Convention : Reuss Voigt Hill
#
# Bulk Modulus (GPa) = 29.76012 53.92971 41.84491
# Shear Modulus (GPa) = 15.05707 28.49059 21.77383
#
# Velocity S-wave (km/s) = 2.76396 3.80200 3.32376
# Velocity P-wave (km/s) = 5.02845 6.82905 5.99672
#
# Compressibility (1/GPa) = 0.03360202
#
# Stress axis : x y z
#
# Youngs Moduli (GPa) = 29.88114 19.21275 26.50476
#
# Poissons Ratio (x) = 0.66441 -0.48428
# Poissons Ratio (y) = 1.03334 0.75566
# Poissons Ratio (z) = -0.54597 0.54776
#
# Static dielectric constant tensor:
#      x y z
#    x 1.660710 0.000000 0.005620 
#    y 0.000000 1.662340 0.000000 
#    z 0.005620 0.000000 1.706510 
# 
# From -- ./inp_files/151664.got.cif
#   From: 2010.05.17/outbox.cif.g08.bks.cpg/sg12_76_cif.got.tgz:151664.got - 2010.06.03 13:09:07.
