data_PCOD9203607
_publ_section_title
;
Structure prediction by ZEFSAII (Michael W. Deem and Ramdas Pophale) SiO2 
 PCOD9203607
Probable space group: C 2/M
;
_chemical_formula_sum "Si O2"
_cell_formula_units_Z 48
_cell_length_a 24.224680
_cell_length_b 11.473771
_cell_length_c 13.828006
_cell_angle_alpha 90.000000
_cell_angle_beta 33.559430
_cell_angle_gamma 90.000000
_cell_volume 2124.677923
_symmetry_space_group_name_H-M "C 2/M"
_symmetry_group_IT_number 12
_symmetry_cell_setting 'monoclinic'
loop_
_space_group_symop_operation_xyz
x,y,z
-x,y,-z
-x,-y,-z
x,-y,z
1/2+x,1/2+y,z
1/2-x,1/2+y,-z
1/2-x,1/2-y,-z
1/2+x,1/2-y,z
loop_
_atom_site_type_symbol
_atom_site_label
_atom_site_fract_x
_atom_site_fract_y
_atom_site_fract_z
Si Si1 0.344320 0.275381 0.961164
Si Si2 0.798359 0.252928 0.658258
Si Si3 0.007762 0.361680 0.377857
Si Si4 0.389296 0.500000 0.777194
Si Si5 0.511144 0.367572 0.089608
Si Si6 0.628633 0.500000 0.429424
Si Si7 0.785551 0.869047 0.399348
O O1 0.392653 0.176194 0.823512
O O2 0.341740 0.387780 0.896736
O O3 0.428046 0.298629 0.920707
O O4 0.244309 0.260641 0.169879
O O5 0.906926 0.308227 0.481338
O O6 0.814340 0.115310 0.617780
O O7 0.724856 0.329202 0.697914
O O8 0.001003 0.500000 0.388173
O O9 0.000000 0.317912 0.500000
O O10 0.509202 0.500000 0.626821
O O11 0.373262 0.500000 0.685676
O O12 0.552891 0.500000 0.018424
O O13 0.395561 0.380444 0.282609
O O14 0.500000 0.311408 0.000000
O O15 0.750000 0.750000 0.500000
O O16 0.739624 0.000000 0.476215
#
# Coordination Sequence:
#
# PCOD9203607 Si02
#       7
#     8   8   8   4   8   4   8
#     4  12  24  42  72 102 134 181 231 290 347 421
#     4  12  26  44  71 100 141 180 236 290 355 421
#     4  11  26  46  66  95 139 181 225 288 360 423
#     4  11  24  44  73  97 131 183 246 293 351 411
#     4  10  20  39  64  94 130 167 221 278 331 403
#     4  11  26  46  66 100 139 183 237 303 348 416
#     4  11  25  42  70 103 139 182 232 287 350 418
#
# _framework density 22.591660000000001
#
# number of rings (size 3 to 8) (size 9 to 14) (size 15 to 20)
#    0.000    0.833    4.167    2.500    4.667    2.667 
#    0.000    0.000    0.000    2.000    0.000    0.000 
#    0.000    0.000    0.000    0.000    0.000    0.000 
#
# Total GULP energy -134006.403033 kJ/mol
# GULP energy per Si atom -5583.600126 kJ/mol
# Density = 2.254024 g / cm^3
# Si number density = 22.591660 Si / 1000 Ang^3
#
#
#
# Elastic Constant Matrix: (Units=GPa)
#
#
# Indices 1 2 3 4 5 6 
#
# 1 85.3069 23.3381 0.0725 0.0000 3.4849 0.0000
# 2 23.3381 134.3194 41.2567 0.0000 5.4295 0.0000
# 3 0.0725 41.2567 109.4761 0.0000 18.7224 0.0000
# 4 0.0000 0.0000 0.0000 -10.4341 0.0000 5.5032
# 5 3.4849 5.4295 18.7224 0.0000 37.8204 0.0000
# 6 0.0000 0.0000 0.0000 5.5032 0.0000 27.2493
#
#
#
# Elastic Compliance Matrix: (Units=1/GPa)
#
#
# Indices 1 2 3 4 5 6 
#
# 1 0.012451 -0.002462 0.001153 0.000000 -0.001365 0.000000
# 2 -0.002462 0.008912 -0.003471 0.000000 0.000666 0.000000
# 3 0.001153 -0.003471 0.011334 0.000000 -0.005219 0.000000
# 4 0.000000 0.000000 0.000000 -0.086613 0.000000 0.017492
# 5 -0.001365 0.000666 -0.005219 0.000000 0.029054 0.000000
# 6 0.000000 0.000000 0.000000 0.017492 0.000000 0.033165
#
#
# Mechanical properties :
#
#
# Convention : Reuss Voigt Hill
#
# Bulk Modulus (GPa) = 43.22109 50.93744 47.07926
# Shear Modulus (GPa) = 195.49967 28.55613 112.02790
#
# Velocity S-wave (km/s) = 9.31258 3.55915 7.04953
# Velocity P-wave (km/s) = 11.61056 6.28379 9.33518
#
# Compressibility (1/GPa) = 0.02313685
#
# Stress axis : x y z
#
# Youngs Moduli (GPa) = 80.31621 112.20939 88.22918
#
# Poissons Ratio (x) = 0.27630 -0.10174
# Poissons Ratio (y) = 0.19777 0.30622
# Poissons Ratio (z) = -0.09261 0.38945
#
# Static dielectric constant tensor:
#      x y z
#    x 1.902860 0.000000 0.023740 
#    y 0.000000 1.866500 0.000000 
#    z 0.023740 0.000000 1.930330 
# 
# From -- ./inp_files/245854.got.cif
#   From: 2010.05.17/outbox.cif.g08.bks.cpg/sg12_123_cif.got.tgz:245854.got - 2010.06.03 13:09:07.
