data_PCOD9203824
_publ_section_title
;
Structure prediction by ZEFSAII (Michael W. Deem and Ramdas Pophale) SiO2 
 PCOD9203824
Probable space group: C 2/M
;
_chemical_formula_sum "Si O2"
_cell_formula_units_Z 56
_cell_length_a 10.771381
_cell_length_b 21.228647
_cell_length_c 21.612345
_cell_angle_alpha 90.000000
_cell_angle_beta 149.438858
_cell_angle_gamma 90.000000
_cell_volume 2512.755833
_symmetry_space_group_name_H-M "C 2/M"
_symmetry_group_IT_number 12
_symmetry_cell_setting 'monoclinic'
loop_
_space_group_symop_operation_xyz
x,y,z
-x,y,-z
-x,-y,-z
x,-y,z
1/2+x,1/2+y,z
1/2-x,1/2+y,-z
1/2-x,1/2-y,-z
1/2+x,1/2-y,z
loop_
_atom_site_type_symbol
_atom_site_label
_atom_site_fract_x
_atom_site_fract_y
_atom_site_fract_z
Si Si1 0.167860 0.163904 0.998252
Si Si2 0.663020 0.428242 0.208916
Si Si3 0.729053 0.231868 0.829460
Si Si4 0.721830 0.073416 0.470774
Si Si5 0.871909 0.627908 0.885461
Si Si6 0.375334 0.426587 0.669110
Si Si7 0.711986 0.708453 0.545136
O O1 0.989935 0.104678 0.910178
O O2 0.970580 0.216922 0.891374
O O3 0.243006 0.189675 0.097353
O O4 0.411578 0.145261 0.067588
O O5 0.577833 0.500000 0.175106
O O6 0.631930 0.398513 0.264657
O O7 0.953688 0.427342 0.325504
O O8 0.751419 0.305472 0.853791
O O9 0.475217 0.214455 0.690164
O O10 0.849352 0.135313 0.497513
O O11 0.708093 0.089727 0.538550
O O12 0.815353 0.000000 0.506095
O O13 0.652151 0.586257 0.765519
O O14 0.000000 0.597408 0.000000
O O15 0.324583 0.500000 0.657134
O O16 0.500000 0.732397 0.500000
O O17 0.750000 0.750000 0.500000
#
# Coordination Sequence:
#
# PCOD9203824 Si02
#       7
#     8   8   8   8   8   8   8
#     4  11  23  42  64  93 131 176 225 274 336 417
#     4  10  20  39  68  99 136 180 234 292 350 421
#     4  11  26  44  66  92 133 177 225 283 342 421
#     4  10  22  44  71 101 139 189 239 295 363 428
#     4  12  23  37  65  93 130 178 221 276 345 412
#     4  10  22  38  62  99 137 177 230 289 351 419
#     4  12  29  49  76 110 146 185 240 303 362 427
#
# _framework density 22.286289
#
# number of rings (size 3 to 8) (size 9 to 14) (size 15 to 20)
#    0.000    1.143    4.286    1.714    4.000    5.143 
#    0.000    2.143    0.000    0.000    0.000    0.000 
#    0.000    0.000    0.000    0.000    0.000    0.000 
#
# Total GULP energy -156067.688633 kJ/mol
# GULP energy per Si atom -5573.846023 kJ/mol
# Density = 2.223556 g / cm^3
# Si number density = 22.286289 Si / 1000 Ang^3
#
#
#
# Elastic Constant Matrix: (Units=GPa)
#
#
# Indices 1 2 3 4 5 6 
#
# 1 82.5620 13.0209 15.3747 0.0010 -0.9786 0.0013
# 2 13.0209 62.6836 20.2128 0.0019 -14.1035 0.0014
# 3 15.3747 20.2128 109.1127 0.0223 -24.3057 0.0224
# 4 0.0010 0.0019 0.0223 33.1766 0.0049 -5.5557
# 5 -0.9786 -14.1035 -24.3057 0.0049 28.6142 0.0043
# 6 0.0013 0.0014 0.0224 -5.5557 0.0043 4.4384
#
#
#
# Elastic Compliance Matrix: (Units=1/GPa)
#
#
# Indices 1 2 3 4 5 6 
#
# 1 0.012843 -0.002614 -0.001868 0.000004 -0.002436 0.000013
# 2 -0.002614 0.018725 -0.001313 -0.000003 0.008025 -0.000010
# 3 -0.001868 -0.001313 0.011733 -0.000026 0.009255 -0.000099
# 4 0.000004 -0.000003 -0.000026 0.038136 -0.000037 0.047736
# 5 -0.002436 0.008025 0.009255 -0.000037 0.046681 -0.000139
# 6 0.000013 -0.000010 -0.000099 0.047736 -0.000139 0.285061
#
#
# Mechanical properties :
#
#
# Convention : Reuss Voigt Hill
#
# Bulk Modulus (GPa) = 31.53377 39.06390 35.29884
# Shear Modulus (GPa) = 11.48530 26.96250 19.22390
#
# Velocity S-wave (km/s) = 2.27260 3.48203 2.94017
# Velocity P-wave (km/s) = 4.58982 5.80795 5.23444
#
# Compressibility (1/GPa) = 0.03171203
#
# Stress axis : x y z
#
# Youngs Moduli (GPa) = 77.86154 53.40481 85.22965
#
# Poissons Ratio (x) = 0.13957 0.15922
# Poissons Ratio (y) = 0.20349 0.11190
# Poissons Ratio (z) = 0.14546 0.07012
#
# Static dielectric constant tensor:
#      x y z
#    x 1.923580 0.000000 0.019090 
#    y 0.000000 1.867250 0.000000 
#    z 0.019090 0.000000 1.824900 
# 
# From -- ./inp_files/336794.got.cif
#   From: 2010.05.17/outbox.cif.g08.bks.cpg/sg12_169_cif.got.tgz:336794.got - 2010.06.03 13:09:07.
