data_PCOD9203898
_publ_section_title
;
Structure prediction by ZEFSAII (Michael W. Deem and Ramdas Pophale) SiO2 
 PCOD9203898
Probable space group: C 2/M
;
_chemical_formula_sum "Si O2"
_cell_formula_units_Z 32
_cell_length_a 10.120295
_cell_length_b 10.944133
_cell_length_c 31.548155
_cell_angle_alpha 90.000000
_cell_angle_beta 24.399942
_cell_angle_gamma 90.000000
_cell_volume 1443.468740
_symmetry_space_group_name_H-M "C 2/M"
_symmetry_group_IT_number 12
_symmetry_cell_setting 'monoclinic'
loop_
_space_group_symop_operation_xyz
x,y,z
-x,y,-z
-x,-y,-z
x,-y,z
1/2+x,1/2+y,z
1/2-x,1/2+y,-z
1/2-x,1/2-y,-z
1/2+x,1/2-y,z
loop_
_atom_site_type_symbol
_atom_site_label
_atom_site_fract_x
_atom_site_fract_y
_atom_site_fract_z
Si Si1 0.436297 0.000000 0.621042
Si Si2 0.631252 0.500000 0.121558
Si Si3 0.244281 0.000000 0.190136
Si Si4 0.160817 0.741501 0.075644
Si Si5 0.151111 0.000000 0.580137
Si Si6 0.162692 0.743190 0.575088
O O1 0.746003 0.000000 0.499779
O O2 0.459305 0.877287 0.641244
O O3 0.116249 0.000000 0.686685
O O4 0.660534 0.500000 0.164014
O O5 0.512169 0.370228 0.136560
O O6 0.000000 0.500000 0.000000
O O7 0.434474 0.877146 0.146117
O O8 0.500000 0.722118 0.000000
O O9 0.250000 0.750000 0.000000
O O10 0.500000 0.000000 0.500000
O O11 0.992273 0.870650 0.635893
O O12 0.500000 0.734200 0.500000
O O13 0.250000 0.750000 0.500000
#
# Coordination Sequence:
#
# PCOD9203898 Si02
#       6
#     4   4   4   8   4   8
#     4  10  21  35  55  90 117 145 192 250 300 340
#     4  10  20  40  60  87 122 156 206 250 293 367
#     4  12  23  40  59  95 128 153 201 269 302 349
#     4  11  20  40  67  87 117 166 210 242 298 374
#     4   8  16  35  57  78 109 150 192 230 274 361
#     4   9  17  34  58  80 107 149 189 225 280 358
#
# _framework density 22.168821000000001
#
# number of rings (size 3 to 8) (size 9 to 14) (size 15 to 20)
#    0.000    2.000    5.000    0.750    0.000    0.000 
#   13.500    1.250    0.000    0.000    0.000    0.000 
#    0.000    0.000    0.000    0.000    0.000    0.000 
#
# Total GULP energy -89195.981681 kJ/mol
# GULP energy per Si atom -5574.748855 kJ/mol
# Density = 2.211836 g / cm^3
# Si number density = 22.168821 Si / 1000 Ang^3
#
#
#
# Elastic Constant Matrix: (Units=GPa)
#
#
# Indices 1 2 3 4 5 6 
#
# 1 138.9554 45.1585 21.5690 -0.0226 1.3384 0.0058
# 2 45.1585 311.1101 41.8005 -0.0004 -30.2769 0.0090
# 3 21.5690 41.8005 60.8466 0.0722 -2.1383 0.0222
# 4 -0.0226 -0.0004 0.0722 -14.7158 0.0213 -12.0885
# 5 1.3384 -30.2769 -2.1383 0.0213 36.1357 0.0058
# 6 0.0058 0.0090 0.0222 -12.0885 0.0058 34.4036
#
#
#
# Elastic Compliance Matrix: (Units=1/GPa)
#
#
# Indices 1 2 3 4 5 6 
#
# 1 0.007859 -0.000970 -0.002163 -0.000019 -0.001232 -0.000006
# 2 -0.000970 0.003975 -0.002273 -0.000004 0.003232 -0.000001
# 3 -0.002163 -0.002273 0.018738 0.000080 -0.000716 0.000017
# 4 -0.000019 -0.000004 0.000080 -0.052733 0.000036 -0.018529
# 5 -0.001232 0.003232 -0.000716 0.000036 0.030385 0.000007
# 6 -0.000006 -0.000001 0.000017 -0.018529 0.000007 0.022556
#
#
# Mechanical properties :
#
#
# Convention : Reuss Voigt Hill
#
# Bulk Modulus (GPa) = 50.60760 80.88535 65.74648
# Shear Modulus (GPa) = 103.77801 37.99030 70.88415
#
# Velocity S-wave (km/s) = 6.84940 4.14415 5.66075
# Velocity P-wave (km/s) = 9.24284 7.71129 8.51158
#
# Compressibility (1/GPa) = 0.01975988
#
# Stress axis : x y z
#
# Youngs Moduli (GPa) = 127.23607 251.56664 53.36759
#
# Poissons Ratio (x) = 0.24405 0.11543
# Poissons Ratio (y) = 0.12343 0.12132
# Poissons Ratio (z) = 0.27519 0.57190
#
# Static dielectric constant tensor:
#      x y z
#    x 1.822330 -0.000790 0.069700 
#    y -0.000790 2.667560 0.000920 
#    z 0.069700 0.000920 1.858740 
# 
# From -- ./inp_files/193451.got.cif
#   From: 2010.05.17/outbox.cif.g08.bks.cpg/sg12_97_cif.got.tgz:193451.got - 2010.06.03 13:09:07.
