data_PCOD9203529
_publ_section_title
;
Structure prediction by ZEFSAII (Michael W. Deem and Ramdas Pophale) SiO2 
 PCOD9203529
Probable space group: C 2/M
;
_chemical_formula_sum "Si O2"
_cell_formula_units_Z 58
_cell_length_a 16.561445
_cell_length_b 10.178864
_cell_length_c 20.904432
_cell_angle_alpha 90.000000
_cell_angle_beta 128.421684
_cell_angle_gamma 90.000000
_cell_volume 2760.907198
_symmetry_space_group_name_H-M "C 2/M"
_symmetry_group_IT_number 12
_symmetry_cell_setting 'monoclinic'
loop_
_space_group_symop_operation_xyz
x,y,z
-x,y,-z
-x,-y,-z
x,-y,z
1/2+x,1/2+y,z
1/2-x,1/2+y,-z
1/2-x,1/2-y,-z
1/2+x,1/2-y,z
loop_
_atom_site_type_symbol
_atom_site_label
_atom_site_fract_x
_atom_site_fract_y
_atom_site_fract_z
Si Si1 0.636216 0.647677 0.885317
Si Si2 0.121340 0.150857 0.546216
Si Si3 0.374653 0.225011 0.989204
Si Si4 0.000000 0.500000 0.000000
Si Si5 0.168930 0.148796 0.166469
Si Si6 0.709112 0.654833 0.322363
Si Si7 0.067972 0.849797 0.378210
Si Si8 0.090377 0.652796 0.751197
O O1 0.605843 0.500000 0.850350
O O2 0.760604 0.662063 0.942656
O O3 0.593464 0.761482 0.818042
O O4 0.607740 0.674409 0.944703
O O5 0.192035 0.255159 0.616602
O O6 0.132238 0.165328 0.474974
O O7 0.000000 0.168769 0.500000
O O8 0.148007 0.000000 0.576988
O O9 0.457558 0.112222 0.028338
O O10 0.372494 0.285761 0.917594
O O11 0.151706 0.201572 0.229432
O O12 0.293227 0.151740 0.218235
O O13 0.131727 0.000000 0.147798
O O14 0.735837 0.500000 0.326371
O O15 0.637557 0.662478 0.349440
O O16 0.982492 0.736902 0.331135
O O17 0.024851 0.000000 0.358952
O O18 0.059238 0.500000 0.744448
#
# Coordination Sequence:
#
# PCOD9203529 Si02
#       8
#     8   8   8   2   8   8   8   8
#     4  10  20  39  64  87 114 165 209 244 303 377
#     4  10  21  37  57  84 116 152 196 245 295 356
#     4  10  22  37  61  86 123 156 202 251 311 361
#     4  12  24  40  54  96 128 154 192 268 314 360
#     4   9  19  39  59  82 113 155 199 245 296 363
#     4  10  21  37  58  83 114 154 194 241 297 358
#     4  10  21  37  56  83 119 155 194 244 298 366
#     4  10  21  35  59  88 117 149 201 255 297 351
#
# _framework density 21.007586
#
# number of rings (size 3 to 8) (size 9 to 14) (size 15 to 20)
#    0.000    2.069    0.690    2.069    0.966    4.138 
#    1.241    2.759    0.000    0.000    0.000    0.000 
#    0.000    0.000    0.000    0.000    0.000    0.000 
#
# Total GULP energy -161665.299338 kJ/mol
# GULP energy per Si atom -5574.665494 kJ/mol
# Density = 2.095977 g / cm^3
# Si number density = 21.007586 Si / 1000 Ang^3
#
#
#
# Elastic Constant Matrix: (Units=GPa)
#
#
# Indices 1 2 3 4 5 6 
#
# 1 50.7612 19.8834 17.9336 0.0000 -21.9462 0.0000
# 2 19.8834 112.4824 33.7622 0.0000 0.3376 0.0000
# 3 17.9336 33.7622 76.8083 0.0000 -28.0057 0.0000
# 4 0.0000 0.0000 0.0000 -24.3440 0.0000 -46.4033
# 5 -21.9462 0.3376 -28.0057 0.0000 39.3787 0.0000
# 6 0.0000 0.0000 0.0000 -46.4033 0.0000 -21.8659
#
#
#
# Elastic Compliance Matrix: (Units=1/GPa)
#
#
# Indices 1 2 3 4 5 6 
#
# 1 0.028861 -0.005851 0.002317 0.000000 0.017783 0.000000
# 2 -0.005851 0.012037 -0.006955 0.000000 -0.008310 0.000000
# 3 0.002317 -0.006955 0.021640 0.000000 0.016741 0.000000
# 4 0.000000 0.000000 0.000000 0.013489 0.000000 -0.028627
# 5 0.017783 -0.008310 0.016741 0.000000 0.047282 0.000000
# 6 0.000000 0.000000 0.000000 -0.028627 0.000000 0.015018
#
#
# Mechanical properties :
#
#
# Convention : Reuss Voigt Hill
#
# Bulk Modulus (GPa) = 24.06129 42.57892 33.32010
# Shear Modulus (GPa) = 28.87524 9.86528 19.37026
#
# Velocity S-wave (km/s) = 3.71147 2.16939 3.03984
# Velocity P-wave (km/s) = 5.46307 5.15629 5.31190
#
# Compressibility (1/GPa) = 0.04156054
#
# Stress axis : x y z
#
# Youngs Moduli (GPa) = 34.64833 83.07703 46.21155
#
# Poissons Ratio (x) = 0.48605 -0.10707
# Poissons Ratio (y) = 0.20271 0.32140
# Poissons Ratio (z) = -0.08028 0.57780
#
# Static dielectric constant tensor:
#      x y z
#    x 1.799060 0.000000 -0.004640 
#    y 0.000000 1.653380 0.000000 
#    z -0.004640 0.000000 1.753260 
# 
# From -- ./inp_files/314869.got.cif
#   From: 2010.05.17/outbox.cif.g08.bks.cpg/sg12_158_cif.got.tgz:314869.got - 2010.06.03 13:09:07.
