data_PCOD9203133
_publ_section_title
;
Structure prediction by ZEFSAII (Michael W. Deem and Ramdas Pophale) SiO2 
 PCOD9203133
Probable space group: C 2/M
;
_chemical_formula_sum "Si O2"
_cell_formula_units_Z 56
_cell_length_a 10.288653
_cell_length_b 21.729441
_cell_length_c 11.688483
_cell_angle_alpha 90.000000
_cell_angle_beta 70.731765
_cell_angle_gamma 90.000000
_cell_volume 2466.776928
_symmetry_space_group_name_H-M "C 2/M"
_symmetry_group_IT_number 12
_symmetry_cell_setting 'monoclinic'
loop_
_space_group_symop_operation_xyz
x,y,z
-x,y,-z
-x,-y,-z
x,-y,z
1/2+x,1/2+y,z
1/2-x,1/2+y,-z
1/2-x,1/2-y,-z
1/2+x,1/2-y,z
loop_
_atom_site_type_symbol
_atom_site_label
_atom_site_fract_x
_atom_site_fract_y
_atom_site_fract_z
Si Si1 0.491466 0.700867 0.130771
Si Si2 0.124821 0.883623 0.387479
Si Si3 0.326928 0.069835 0.503020
Si Si4 0.092677 0.367732 0.311880
Si Si5 0.700647 0.260166 0.259691
Si Si6 0.577467 0.569736 0.148993
Si Si7 0.878994 0.427418 0.944385
O O1 0.627926 0.719121 0.161806
O O2 0.350623 0.729933 0.216416
O O3 0.486125 0.626548 0.132435
O O4 0.500000 0.724002 0.000000
O O5 0.205029 0.927186 0.449289
O O6 0.207148 0.822448 0.329360
O O7 0.088427 0.918895 0.281903
O O8 0.000000 0.859969 0.500000
O O9 0.297553 0.103844 0.630712
O O10 0.452402 0.102579 0.399851
O O11 0.358185 0.000000 0.521274
O O12 0.099896 0.294845 0.327150
O O13 0.114611 0.387424 0.173741
O O14 0.529424 0.500000 0.138915
O O15 0.730236 0.577176 0.048975
O O16 0.900385 0.500000 0.908154
O O17 0.000000 0.410553 0.000000
#
# Coordination Sequence:
#
# PCOD9203133 Si02
#       7
#     8   8   8   8   8   8   8
#     4  11  24  46  70 102 139 183 225 280 345 410
#     4  11  26  46  70  95 131 182 235 283 339 406
#     4  11  24  42  67  99 140 179 226 283 338 410
#     4  11  23  40  66 105 139 178 222 279 345 399
#     4  11  26  44  70 100 133 182 235 283 334 411
#     4  10  23  43  67 103 139 174 227 283 344 413
#     4  10  20  38  68 101 143 187 228 278 338 412
#
# _framework density 22.701689999999999
#
# number of rings (size 3 to 8) (size 9 to 14) (size 15 to 20)
#    0.000    1.286    0.000    5.143    6.000    6.000 
#    0.000    1.429    0.000    0.000    0.000    0.000 
#    0.000    0.000    0.000    0.000    0.000    0.000 
#
# Total GULP energy -156508.140989 kJ/mol
# GULP energy per Si atom -5589.576464 kJ/mol
# Density = 2.265002 g / cm^3
# Si number density = 22.701690 Si / 1000 Ang^3
#
#
#
# Elastic Constant Matrix: (Units=GPa)
#
#
# Indices 1 2 3 4 5 6 
#
# 1 56.1662 8.7413 19.2813 0.0000 8.0370 0.0000
# 2 8.7413 128.5066 15.3076 0.0000 2.3665 0.0000
# 3 19.2813 15.3076 100.4638 0.0000 17.5072 0.0000
# 4 0.0000 0.0000 0.0000 22.1428 0.0000 7.7743
# 5 8.0370 2.3665 17.5072 0.0000 39.5328 0.0000
# 6 0.0000 0.0000 0.0000 7.7743 0.0000 27.1626
#
#
#
# Elastic Compliance Matrix: (Units=1/GPa)
#
#
# Indices 1 2 3 4 5 6 
#
# 1 0.019381 -0.000897 -0.003149 0.000000 -0.002492 0.000000
# 2 -0.000897 0.007967 -0.001073 0.000000 0.000181 0.000000
# 3 -0.003149 -0.001073 0.011485 0.000000 -0.004382 0.000000
# 4 0.000000 0.000000 0.000000 0.050207 0.000000 -0.014370
# 5 -0.002492 0.000181 -0.004382 0.000000 0.027732 0.000000
# 6 0.000000 0.000000 0.000000 -0.014370 0.000000 0.040928
#
#
# Mechanical properties :
#
#
# Convention : Reuss Voigt Hill
#
# Bulk Modulus (GPa) = 34.97082 41.31079 38.14080
# Shear Modulus (GPa) = 28.17360 33.88806 31.03083
#
# Velocity S-wave (km/s) = 3.52665 3.86781 3.70117
# Velocity P-wave (km/s) = 5.65871 6.17927 5.92471
#
# Compressibility (1/GPa) = 0.02859527
#
# Stress axis : x y z
#
# Youngs Moduli (GPa) = 51.59563 125.51370 87.06791
#
# Poissons Ratio (x) = 0.11264 0.27415
# Poissons Ratio (y) = 0.04630 0.09345
# Poissons Ratio (z) = 0.16246 0.13471
#
# Static dielectric constant tensor:
#      x y z
#    x 2.023660 0.000000 -0.058600 
#    y 0.000000 1.830200 0.000000 
#    z -0.058600 0.000000 1.843340 
# 
# From -- ./inp_files/133879.got.cif
#   From: 2010.05.17/outbox.cif.g08.bks.cpg/sg12_67_cif.got.tgz:133879.got - 2010.06.03 13:09:07.
