data_PCOD9203505
_publ_section_title
;
Structure prediction by ZEFSAII (Michael W. Deem and Ramdas Pophale) SiO2 
 PCOD9203505
Probable space group: C 2/M
;
_chemical_formula_sum "Si O2"
_cell_formula_units_Z 52
_cell_length_a 8.784842
_cell_length_b 27.083867
_cell_length_c 11.499068
_cell_angle_alpha 90.000000
_cell_angle_beta 115.090653
_cell_angle_gamma 90.000000
_cell_volume 2477.775197
_symmetry_space_group_name_H-M "C 2/M"
_symmetry_group_IT_number 12
_symmetry_cell_setting 'monoclinic'
loop_
_space_group_symop_operation_xyz
x,y,z
-x,y,-z
-x,-y,-z
x,-y,z
1/2+x,1/2+y,z
1/2-x,1/2+y,-z
1/2-x,1/2-y,-z
1/2+x,1/2-y,z
loop_
_atom_site_type_symbol
_atom_site_label
_atom_site_fract_x
_atom_site_fract_y
_atom_site_fract_z
Si Si1 0.104867 0.810029 0.252791
Si Si2 0.274163 0.945618 0.030503
Si Si3 0.426030 0.576670 0.804933
Si Si4 0.700352 0.338251 0.532150
Si Si5 0.231979 0.287599 0.214398
Si Si6 0.500000 0.863095 0.000000
Si Si7 0.821531 0.946580 0.508695
O O1 0.083904 0.864087 0.192869
O O2 0.213716 0.817564 0.406089
O O3 0.176182 0.768994 0.190116
O O4 0.922829 0.792245 0.235704
O O5 0.189387 0.943241 0.129566
O O6 0.399269 0.900414 0.051108
O O7 0.349749 0.000000 0.039437
O O8 0.117603 0.939282 0.890597
O O9 0.364014 0.559793 0.658683
O O10 0.500000 0.340266 0.500000
O O11 0.782458 0.304153 0.655521
O O12 0.763422 0.395093 0.557092
O O13 0.125144 0.326818 0.107744
O O14 0.000000 0.947926 0.500000
O O15 0.737316 0.000000 0.461206
#
# Coordination Sequence:
#
# PCOD9203505 Si02
#       7
#     8   8   8   8   8   4   8
#     4  10  21  38  65  88 120 155 203 255 312 356
#     4  11  23  41  63  86 121 168 207 248 304 370
#     4  10  20  39  63  93 119 156 211 259 296 371
#     4   8  17  35  57  85 119 152 200 249 296 362
#     4  11  23  40  58  89 122 165 202 252 303 368
#     4  12  27  40  58  88 132 158 205 254 308 364
#     4   9  16  28  56  94 121 148 191 256 311 347
#
# _framework density 20.986567999999998
#
# number of rings (size 3 to 8) (size 9 to 14) (size 15 to 20)
#    0.000    2.000    1.538    3.462    2.154    1.846 
#    0.000    0.769    0.000    0.000    0.000    3.231 
#    0.000    0.000    0.000    0.000    0.000    0.000 
#
# Total GULP energy -145221.788683 kJ/mol
# GULP energy per Si atom -5585.453411 kJ/mol
# Density = 2.093880 g / cm^3
# Si number density = 20.986568 Si / 1000 Ang^3
#
#
#
# Elastic Constant Matrix: (Units=GPa)
#
#
# Indices 1 2 3 4 5 6 
#
# 1 31.4759 20.9886 -1.6328 0.0000 -4.3100 0.0000
# 2 20.9886 170.4404 3.3625 0.0000 -2.3564 0.0000
# 3 -1.6328 3.3625 24.6856 0.0000 -2.9971 0.0000
# 4 0.0000 0.0000 0.0000 41.3347 0.0000 -3.0101
# 5 -4.3100 -2.3564 -2.9971 0.0000 12.8191 0.0000
# 6 0.0000 0.0000 0.0000 -3.0101 0.0000 29.3181
#
#
#
# Elastic Compliance Matrix: (Units=1/GPa)
#
#
# Indices 1 2 3 4 5 6 
#
# 1 0.036687 -0.004434 0.004559 0.000000 0.012586 0.000000
# 2 -0.004434 0.006429 -0.001242 0.000000 -0.000599 0.000000
# 3 0.004559 -0.001242 0.042340 0.000000 0.011204 0.000000
# 4 0.000000 0.000000 0.000000 0.024375 0.000000 0.002503
# 5 0.012586 -0.000599 0.011204 0.000000 0.084749 0.000000
# 6 0.000000 0.000000 0.000000 0.002503 0.000000 0.034366
#
#
# Mechanical properties :
#
#
# Convention : Reuss Voigt Hill
#
# Bulk Modulus (GPa) = 12.01595 30.22650 21.12123
# Shear Modulus (GPa) = 19.31094 30.28662 24.79878
#
# Velocity S-wave (km/s) = 3.03670 3.80299 3.44124
# Velocity P-wave (km/s) = 4.24657 5.80670 5.08680
#
# Compressibility (1/GPa) = 0.08322269
#
# Stress axis : x y z
#
# Youngs Moduli (GPa) = 27.25791 155.53695 23.61811
#
# Poissons Ratio (x) = 0.68960 -0.10767
# Poissons Ratio (y) = 0.12085 0.02933
# Poissons Ratio (z) = -0.12426 0.19314
#
# Static dielectric constant tensor:
#      x y z
#    x 1.715820 0.000000 -0.005160 
#    y 0.000000 1.766950 0.000000 
#    z -0.005160 0.000000 1.739830 
# 
# From -- ./inp_files/123818.got.cif
#   From: 2010.05.17/outbox.cif.g08.bks.cpg/sg12_62_cif.got.tgz:123818.got - 2010.06.03 13:09:07.
