data_PCOD9203050
_publ_section_title
;
Structure prediction by ZEFSAII (Michael W. Deem and Ramdas Pophale) SiO2 
 PCOD9203050
Probable space group: C 2/M
;
_chemical_formula_sum "Si O2"
_cell_formula_units_Z 44
_cell_length_a 9.981145
_cell_length_b 21.424561
_cell_length_c 9.244014
_cell_angle_alpha 90.000000
_cell_angle_beta 81.865758
_cell_angle_gamma 90.000000
_cell_volume 1956.867612
_symmetry_space_group_name_H-M "C 2/M"
_symmetry_group_IT_number 12
_symmetry_cell_setting 'monoclinic'
loop_
_space_group_symop_operation_xyz
x,y,z
-x,y,-z
-x,-y,-z
x,-y,z
1/2+x,1/2+y,z
1/2-x,1/2+y,-z
1/2-x,1/2-y,-z
1/2+x,1/2-y,z
loop_
_atom_site_type_symbol
_atom_site_label
_atom_site_fract_x
_atom_site_fract_y
_atom_site_fract_z
Si Si1 0.143300 0.614934 0.543455
Si Si2 0.250635 0.287350 0.756071
Si Si3 0.969596 0.810654 0.174192
Si Si4 0.662374 0.106879 0.977429
Si Si5 0.681301 0.426371 0.755848
Si Si6 0.171042 0.500000 0.752863
O O1 0.210053 0.670253 0.626180
O O2 0.243300 0.591395 0.403151
O O3 0.119784 0.555465 0.650431
O O4 0.000000 0.635165 0.500000
O O5 0.169728 0.223352 0.765997
O O6 0.410099 0.280860 0.751902
O O7 0.201509 0.326400 0.905394
O O8 0.952051 0.883784 0.209965
O O9 0.000000 0.802755 0.000000
O O10 0.717110 0.054340 0.861699
O O11 0.500000 0.099833 0.000000
O O12 0.722820 0.093706 0.125166
O O13 0.654828 0.500000 0.764999
#
# Coordination Sequence:
#
# PCOD9203050 Si02
#       6
#     8   8   8   8   8   4
#     4  11  25  44  71 108 151 197 244 301 363 438
#     4  11  27  49  75 104 146 192 248 305 373 429
#     4  12  27  50  77 111 146 191 252 310 364 441
#     4  11  22  38  71 109 144 189 247 305 358 431
#     4  12  26  45  72 108 153 197 242 299 372 437
#     4  10  20  38  66 104 151 189 249 293 360 432
#
# _framework density 22.484915000000001
#
# number of rings (size 3 to 8) (size 9 to 14) (size 15 to 20)
#    0.000    0.727    3.636    3.818    7.636    1.818 
#    6.545    0.909    0.000    0.000    0.000    0.000 
#    0.000    0.000    0.000    0.000    0.000    0.000 
#
# Total GULP energy -122705.912713 kJ/mol
# GULP energy per Si atom -5577.541487 kJ/mol
# Density = 2.243374 g / cm^3
# Si number density = 22.484915 Si / 1000 Ang^3
#
#
#
# Elastic Constant Matrix: (Units=GPa)
#
#
# Indices 1 2 3 4 5 6 
#
# 1 116.4718 31.1631 21.8679 0.0000 16.6678 0.0000
# 2 31.1631 109.1871 25.3192 0.0000 8.7087 0.0000
# 3 21.8679 25.3192 80.5044 0.0000 24.9708 0.0000
# 4 0.0000 0.0000 0.0000 -0.7849 0.0000 6.2364
# 5 16.6678 8.7087 24.9708 0.0000 13.0505 0.0000
# 6 0.0000 0.0000 0.0000 6.2364 0.0000 4.1197
#
#
#
# Elastic Compliance Matrix: (Units=1/GPa)
#
#
# Indices 1 2 3 4 5 6 
#
# 1 0.011492 -0.002580 0.004202 0.000000 -0.020996 0.000000
# 2 -0.002580 0.010472 -0.003560 0.000000 0.003119 0.000000
# 3 0.004202 -0.003560 0.032786 0.000000 -0.065724 0.000000
# 4 0.000000 0.000000 0.000000 -0.097796 0.000000 0.148042
# 5 -0.020996 0.003119 -0.065724 0.000000 0.227117 0.000000
# 6 0.000000 0.000000 0.000000 0.148042 0.000000 0.018632
#
#
# Mechanical properties :
#
#
# Convention : Reuss Voigt Hill
#
# Bulk Modulus (GPa) = 19.65611 51.42931 35.54271
# Shear Modulus (GPa) = 22.36792 18.46462 20.41627
#
# Velocity S-wave (km/s) = 3.15746 2.86877 3.01657
# Velocity P-wave (km/s) = 4.69613 5.82199 5.28910
#
# Compressibility (1/GPa) = 0.05087478
#
# Stress axis : x y z
#
# Youngs Moduli (GPa) = 87.01969 95.49607 30.50071
#
# Poissons Ratio (x) = 0.24635 -0.12817
# Poissons Ratio (y) = 0.22448 0.10858
# Poissons Ratio (z) = -0.36569 0.33997
#
# Static dielectric constant tensor:
#      x y z
#    x 1.842250 0.000000 -0.019250 
#    y 0.000000 1.791840 0.000000 
#    z -0.019250 0.000000 1.837330 
# 
# From -- ./inp_files/49266.got.cif
#   From: 2010.05.17/outbox.cif.g08.bks.cpg/sg12_25_cif.got.tgz:49266.got - 2010.06.03 13:09:07.
