data_PCOD9203948
_publ_section_title
;
Structure prediction by ZEFSAII (Michael W. Deem and Ramdas Pophale) SiO2 
 PCOD9203948
Probable space group: C 2/M
;
_chemical_formula_sum "Si O2"
_cell_formula_units_Z 48
_cell_length_a 9.119705
_cell_length_b 29.164038
_cell_length_c 8.127734
_cell_angle_alpha 90.000000
_cell_angle_beta 70.437973
_cell_angle_gamma 90.000000
_cell_volume 2036.937490
_symmetry_space_group_name_H-M "C 2/M"
_symmetry_group_IT_number 12
_symmetry_cell_setting 'monoclinic'
loop_
_space_group_symop_operation_xyz
x,y,z
-x,y,-z
-x,-y,-z
x,-y,z
1/2+x,1/2+y,z
1/2-x,1/2+y,-z
1/2-x,1/2-y,-z
1/2+x,1/2-y,z
loop_
_atom_site_type_symbol
_atom_site_label
_atom_site_fract_x
_atom_site_fract_y
_atom_site_fract_z
Si Si1 0.701127 0.356136 0.338317
Si Si2 0.402863 0.278564 0.877898
Si Si3 0.764256 0.948727 0.209556
Si Si4 0.325926 0.143814 0.619065
Si Si5 0.622192 0.551856 0.196019
Si Si6 0.518406 0.185920 0.185408
O O1 0.640370 0.318253 0.234070
O O2 0.691423 0.345446 0.537841
O O3 0.648284 0.406795 0.311422
O O4 0.887830 0.352918 0.256832
O O5 0.501712 0.238337 0.747245
O O6 0.500000 0.294758 0.000000
O O7 0.250000 0.250000 0.000000
O O8 0.676246 0.909851 0.342539
O O9 0.942716 0.947546 0.205989
O O10 0.703116 0.000000 0.257194
O O11 0.776815 0.940070 0.008249
O O12 0.500000 0.160378 0.500000
O O13 0.320877 0.167454 0.799272
O O14 0.655343 0.500000 0.244944
O O15 0.500000 0.192709 0.000000
#
# Coordination Sequence:
#
# PCOD9203948 Si02
#       6
#     8   8   8   8   8   8
#     4  11  22  38  60  95 128 163 208 262 327 378
#     4  11  22  38  64  95 117 170 221 263 312 370
#     4   9  19  38  61  90 123 162 215 268 312 378
#     4  10  23  38  60  90 129 173 203 258 328 384
#     4   9  20  38  65  92 119 162 218 268 315 375
#     4  10  20  40  62  84 122 166 217 259 306 374
#
# _framework density 23.564786999999999
#
# number of rings (size 3 to 8) (size 9 to 14) (size 15 to 20)
#    0.000    2.000    3.333    2.000    2.333    2.333 
#    0.000    4.167    0.000    9.000    0.000    0.000 
#    0.000    0.000    0.000    0.000    0.000    0.000 
#
# Total GULP energy -133740.469467 kJ/mol
# GULP energy per Si atom -5572.519561 kJ/mol
# Density = 2.351115 g / cm^3
# Si number density = 23.564787 Si / 1000 Ang^3
#
#
#
# Elastic Constant Matrix: (Units=GPa)
#
#
# Indices 1 2 3 4 5 6 
#
# 1 77.3130 44.2712 55.2004 0.0000 27.3662 0.0000
# 2 44.2712 130.9241 65.3553 0.0000 40.5479 0.0000
# 3 55.2004 65.3553 81.3330 0.0000 53.4718 0.0000
# 4 0.0000 0.0000 0.0000 3.9893 0.0000 -2.9615
# 5 27.3662 40.5479 53.4718 0.0000 60.3719 0.0000
# 6 0.0000 0.0000 0.0000 -2.9615 0.0000 37.4317
#
#
#
# Elastic Compliance Matrix: (Units=1/GPa)
#
#
# Indices 1 2 3 4 5 6 
#
# 1 0.027264 0.000328 -0.025132 0.000000 0.009681 0.000000
# 2 0.000328 0.012796 -0.011388 0.000000 0.001344 0.000000
# 3 -0.025132 -0.011388 0.062210 0.000000 -0.036059 0.000000
# 4 0.000000 0.000000 0.000000 0.266313 0.000000 0.021070
# 5 0.009681 0.001344 -0.036059 0.000000 0.043211 0.000000
# 6 0.000000 0.000000 0.000000 0.021070 0.000000 0.028382
#
#
# Mechanical properties :
#
#
# Convention : Reuss Voigt Hill
#
# Bulk Modulus (GPa) = 33.46176 68.80266 51.13221
# Shear Modulus (GPa) = 9.56899 28.67481 19.12190
#
# Velocity S-wave (km/s) = 2.01731 3.49212 2.85171
# Velocity P-wave (km/s) = 4.43360 6.74689 5.70865
#
# Compressibility (1/GPa) = 0.02988486
#
# Stress axis : x y z
#
# Youngs Moduli (GPa) = 36.67854 78.15147 16.07458
#
# Poissons Ratio (x) = -0.02566 0.40399
# Poissons Ratio (y) = -0.01204 0.18306
# Poissons Ratio (z) = 0.92182 0.89002
#
# Static dielectric constant tensor:
#      x y z
#    x 1.942750 0.000000 -0.136810 
#    y 0.000000 1.890930 0.000000 
#    z -0.136810 0.000000 2.435800 
# 
# From -- ./inp_files/42170.got.cif
#   From: 2010.05.17/outbox.cif.g08.bks.cpg/sg12_22_cif.got.tgz:42170.got - 2010.06.03 13:09:07.
