data_PCOD9203811
_publ_section_title
;
Structure prediction by ZEFSAII (Michael W. Deem and Ramdas Pophale) SiO2 
 PCOD9203811
Probable space group: C 2/M
;
_chemical_formula_sum "Si O2"
_cell_formula_units_Z 36
_cell_length_a 7.683560
_cell_length_b 24.835280
_cell_length_c 11.686378
_cell_angle_alpha 90.000000
_cell_angle_beta 137.887877
_cell_angle_gamma 90.000000
_cell_volume 1495.424194
_symmetry_space_group_name_H-M "C 2/M"
_symmetry_group_IT_number 12
_symmetry_cell_setting 'monoclinic'
loop_
_space_group_symop_operation_xyz
x,y,z
-x,y,-z
-x,-y,-z
x,-y,z
1/2+x,1/2+y,z
1/2-x,1/2+y,-z
1/2-x,1/2-y,-z
1/2+x,1/2-y,z
loop_
_atom_site_type_symbol
_atom_site_label
_atom_site_fract_x
_atom_site_fract_y
_atom_site_fract_z
Si Si1 0.504091 0.061513 0.165119
Si Si2 0.218257 0.806330 0.419924
Si Si3 0.737446 0.056256 0.701209
Si Si4 0.603465 0.651744 0.921002
Si Si5 0.500000 0.388030 0.500000
O O1 0.367850 0.057657 0.222120
O O2 0.802608 0.075205 0.332691
O O3 0.476529 0.000000 0.105580
O O4 0.371057 0.117180 0.052727
O O5 0.500000 0.817257 0.500000
O O6 0.250000 0.750000 0.500000
O O7 0.980119 0.802262 0.210392
O O8 0.153436 0.849998 0.486337
O O9 0.500000 0.057516 0.500000
O O10 0.917868 0.106149 0.778391
O O11 0.882302 0.000000 0.754419
O O12 0.500000 0.663971 0.000000
#
# Coordination Sequence:
#
# PCOD9203811 Si02
#       5
#     8   8   8   8   4
#     4  10  21  38  64 105 152 191 231 286 355 437
#     4  12  26  50  77 101 136 189 248 311 366 425
#     4   9  16  30  58  97 140 190 234 274 341 429
#     4  10  20  39  68 104 147 185 235 296 362 425
#     4  12  25  46  76 104 146 196 245 294 360 430
#
# _framework density 24.073436000000001
#
# number of rings (size 3 to 8) (size 9 to 14) (size 15 to 20)
#    0.000    1.556    1.111    5.667    0.000    3.556 
#    0.000    8.889    0.000    2.000    0.000    0.000 
#    0.000    0.000    0.000    0.000    0.000    0.000 
#
# Total GULP energy -100472.995967 kJ/mol
# GULP energy per Si atom -5581.833109 kJ/mol
# Density = 2.401864 g / cm^3
# Si number density = 24.073436 Si / 1000 Ang^3
#
#
#
# Elastic Constant Matrix: (Units=GPa)
#
#
# Indices 1 2 3 4 5 6 
#
# 1 108.0726 22.6937 32.9662 0.0000 -12.6381 0.0000
# 2 22.6937 80.6232 37.3095 0.0000 -5.3881 0.0000
# 3 32.9662 37.3095 146.9628 0.0000 -2.9338 0.0000
# 4 0.0000 0.0000 0.0000 46.6315 0.0000 -16.7846
# 5 -12.6381 -5.3881 -2.9338 0.0000 51.5714 0.0000
# 6 0.0000 0.0000 0.0000 -16.7846 0.0000 -2.7638
#
#
#
# Elastic Compliance Matrix: (Units=1/GPa)
#
#
# Indices 1 2 3 4 5 6 
#
# 1 0.010481 -0.001963 -0.001808 0.000000 0.002261 0.000000
# 2 -0.001963 0.014505 -0.003225 0.000000 0.000851 0.000000
# 3 -0.001808 -0.003225 0.008022 0.000000 -0.000324 0.000000
# 4 0.000000 0.000000 0.000000 0.006731 0.000000 -0.040878
# 5 0.002261 0.000851 -0.000324 0.000000 0.020015 0.000000
# 6 0.000000 0.000000 0.000000 -0.040878 0.000000 -0.113569
#
#
# Mechanical properties :
#
#
# Convention : Reuss Voigt Hill
#
# Bulk Modulus (GPa) = 52.58324 57.95527 55.26925
# Shear Modulus (GPa) = -149.32180 35.26710 -57.02735
#
# Velocity S-wave (km/s) = -7.88431 3.83166 -4.87241
# Velocity P-wave (km/s) = 7.80979 6.61076 2.94030
#
# Compressibility (1/GPa) = 0.01901747
#
# Stress axis : x y z
#
# Youngs Moduli (GPa) = 95.41156 68.94082 124.65307
#
# Poissons Ratio (x) = 0.13530 0.22533
# Poissons Ratio (y) = 0.18725 0.40203
# Poissons Ratio (z) = 0.17247 0.22235
#
# Static dielectric constant tensor:
#      x y z
#    x 1.889620 0.000000 -0.000090 
#    y 0.000000 2.026410 0.000000 
#    z -0.000090 0.000000 2.022850 
# 
# From -- ./inp_files/124927.got.cif
#   From: 2010.05.17/outbox.cif.g08.bks.cpg/sg12_63_cif.got.tgz:124927.got - 2010.06.03 13:09:07.
