data_PCOD9203158
_publ_section_title
;
Structure prediction by ZEFSAII (Michael W. Deem and Ramdas Pophale) SiO2 
 PCOD9203158
Probable space group: C 2/M
;
_chemical_formula_sum "Si O2"
_cell_formula_units_Z 40
_cell_length_a 14.971512
_cell_length_b 12.315863
_cell_length_c 13.745076
_cell_angle_alpha 90.000000
_cell_angle_beta 58.628964
_cell_angle_gamma 90.000000
_cell_volume 2163.918817
_symmetry_space_group_name_H-M "C 2/M"
_symmetry_group_IT_number 12
_symmetry_cell_setting 'monoclinic'
loop_
_space_group_symop_operation_xyz
x,y,z
-x,y,-z
-x,-y,-z
x,-y,z
1/2+x,1/2+y,z
1/2-x,1/2+y,-z
1/2-x,1/2-y,-z
1/2+x,1/2-y,z
loop_
_atom_site_type_symbol
_atom_site_label
_atom_site_fract_x
_atom_site_fract_y
_atom_site_fract_z
Si Si1 0.592464 0.500000 0.087983
Si Si2 0.147245 0.000000 0.840969
Si Si3 0.741286 0.271771 0.725399
Si Si4 0.346360 0.730783 0.871675
Si Si5 0.393887 0.874333 0.497565
Si Si6 0.947189 0.628826 0.240525
O O1 0.473502 0.500000 0.120003
O O2 0.614646 0.608758 0.133745
O O3 0.659569 0.500000 0.950564
O O4 0.195737 0.890648 0.772712
O O5 0.808943 0.243497 0.782011
O O6 0.812961 0.289241 0.589592
O O7 0.646688 0.187838 0.763592
O O8 0.441812 0.812724 0.840492
O O9 0.250000 0.750000 0.000000
O O10 0.500000 0.867153 0.500000
O O11 0.420557 0.856271 0.369969
O O12 0.356136 0.000000 0.528094
O O13 0.952574 0.500000 0.217179
#
# Coordination Sequence:
#
# PCOD9203158 Si02
#       6
#     4   4   8   8   8   8
#     4  11  24  44  60  92 132 168 221 259 312 377
#     4  11  22  40  69  90 120 174 223 258 304 378
#     4  12  23  42  68  95 129 170 209 265 319 378
#     4  12  26  41  67  93 129 170 213 266 317 375
#     4  10  20  38  69  97 123 166 215 263 315 378
#     4  11  26  44  63  98 133 165 213 264 323 383
#
# _framework density 18.484981000000001
#
# number of rings (size 3 to 8) (size 9 to 14) (size 15 to 20)
#    0.000    0.800    7.000    0.600    4.200    0.800 
#    0.000    1.000    0.000    1.800    0.000    0.000 
#    0.000    0.000    0.000    0.000    0.000    0.000 
#
# Total GULP energy -111740.124451 kJ/mol
# GULP energy per Si atom -5587.006223 kJ/mol
# Density = 1.844291 g / cm^3
# Si number density = 18.484981 Si / 1000 Ang^3
#
#
#
# Elastic Constant Matrix: (Units=GPa)
#
#
# Indices 1 2 3 4 5 6 
#
# 1 96.5999 62.8120 16.9957 0.0000 -9.4615 0.0000
# 2 62.8120 154.7961 38.2692 0.0000 -9.9687 0.0000
# 3 16.9957 38.2692 58.3526 0.0000 -21.5885 0.0000
# 4 0.0000 0.0000 0.0000 27.9357 0.0000 7.5043
# 5 -9.4615 -9.9687 -21.5885 0.0000 24.9900 0.0000
# 6 0.0000 0.0000 0.0000 7.5043 0.0000 32.9706
#
#
#
# Elastic Compliance Matrix: (Units=1/GPa)
#
#
# Indices 1 2 3 4 5 6 
#
# 1 0.014352 -0.005850 0.001181 0.000000 0.004120 0.000000
# 2 -0.005850 0.010157 -0.006287 0.000000 -0.003595 0.000000
# 3 0.001181 -0.006287 0.029621 0.000000 0.023528 0.000000
# 4 0.000000 0.000000 0.000000 0.038128 0.000000 -0.008678
# 5 0.004120 -0.003595 0.023528 0.000000 0.060468 0.000000
# 6 0.000000 0.000000 0.000000 -0.008678 0.000000 0.032305
#
#
# Mechanical properties :
#
#
# Convention : Reuss Voigt Hill
#
# Bulk Modulus (GPa) = 31.03928 60.65584 45.84756
# Shear Modulus (GPa) = 22.96929 29.95738 26.46333
#
# Velocity S-wave (km/s) = 3.52887 4.03008 3.78777
# Velocity P-wave (km/s) = 5.78204 7.38513 6.63220
#
# Compressibility (1/GPa) = 0.03221724
#
# Stress axis : x y z
#
# Youngs Moduli (GPa) = 69.67821 98.45660 33.75960
#
# Poissons Ratio (x) = 0.57599 -0.03987
# Poissons Ratio (y) = 0.40763 0.21225
# Poissons Ratio (z) = -0.08229 0.61900
#
# Static dielectric constant tensor:
#      x y z
#    x 1.601350 0.000000 -0.012540 
#    y 0.000000 1.598930 0.000000 
#    z -0.012540 0.000000 1.647910 
# 
# From -- ./inp_files/140840.got.cif
#   From: 2010.05.17/outbox.cif.g08.bks.cpg/sg12_71_cif.got.tgz:140840.got - 2010.06.03 13:09:07.
