data_PCOD9203987
_publ_section_title
;
Structure prediction by ZEFSAII (Michael W. Deem and Ramdas Pophale) SiO2 
 PCOD9203987
Probable space group: C 2/M
;
_chemical_formula_sum "Si O2"
_cell_formula_units_Z 64
_cell_length_a 19.369008
_cell_length_b 7.899800
_cell_length_c 29.038558
_cell_angle_alpha 90.000000
_cell_angle_beta 34.651700
_cell_angle_gamma 90.000000
_cell_volume 2526.357931
_symmetry_space_group_name_H-M "C 2/M"
_symmetry_group_IT_number 12
_symmetry_cell_setting 'monoclinic'
loop_
_space_group_symop_operation_xyz
x,y,z
-x,y,-z
-x,-y,-z
x,-y,z
1/2+x,1/2+y,z
1/2-x,1/2+y,-z
1/2-x,1/2-y,-z
1/2+x,1/2-y,z
loop_
_atom_site_type_symbol
_atom_site_label
_atom_site_fract_x
_atom_site_fract_y
_atom_site_fract_z
Si Si1 0.713587 0.299660 0.208018
Si Si2 0.171431 0.807874 0.374892
Si Si3 0.384800 0.697525 0.884668
Si Si4 0.923267 0.311135 0.479796
Si Si5 0.840224 0.293536 0.045116
Si Si6 0.938942 0.202164 0.371969
Si Si7 0.942759 0.199314 0.131245
Si Si8 0.592352 0.202859 0.710984
O O1 0.699201 0.500000 0.209249
O O2 0.780461 0.232833 0.125468
O O3 0.578558 0.232558 0.290387
O O4 0.809651 0.272667 0.196250
O O5 0.069715 0.707741 0.403108
O O6 0.306172 0.737293 0.308186
O O7 0.125689 0.809645 0.453389
O O8 0.174370 0.000000 0.355641
O O9 0.368826 0.500000 0.904363
O O10 0.252702 0.766037 0.944288
O O11 0.472286 0.776803 0.875143
O O12 0.465264 0.713642 0.794251
O O13 0.887951 0.500000 0.512890
O O14 0.886717 0.275558 0.447770
O O15 0.843292 0.500000 0.044105
O O16 0.973555 0.231164 0.959570
O O17 0.876175 0.249689 0.358513
O O18 0.939451 0.000000 0.376573
O O19 0.929139 0.000000 0.146390
O O20 0.584358 0.000000 0.718800
#
# Coordination Sequence:
#
# PCOD9203987 Si02
#       8
#     8   8   8   8   8   8   8   8
#     4  10  22  40  61  84 115 159 203 242 297 364
#     4  10  22  42  65  93 128 165 202 244 300 362
#     4  10  22  41  60  84 120 160 201 244 304 363
#     4  11  23  40  65  97 127 160 204 251 297 350
#     4  10  20  40  63  82 112 158 204 245 296 366
#     4  11  23  42  65  88 123 166 203 247 305 363
#     4  11  24  37  57  90 120 152 197 253 306 355
#     4  11  24  40  63  93 122 157 205 253 300 357
#
# _framework density 25.332912
#
# number of rings (size 3 to 8) (size 9 to 14) (size 15 to 20)
#    0.000    1.500    1.250    4.125    1.750    7.000 
#    0.000    0.000    0.000    0.000    0.000    0.000 
#    0.000    0.000    0.000    0.000    0.000    0.000 
#
# Total GULP energy -179137.387829 kJ/mol
# GULP energy per Si atom -5598.043370 kJ/mol
# Density = 2.527525 g / cm^3
# Si number density = 25.332912 Si / 1000 Ang^3
#
#
#
# Elastic Constant Matrix: (Units=GPa)
#
#
# Indices 1 2 3 4 5 6 
#
# 1 108.2796 -8.4848 6.7047 0.0041 0.8436 -0.0049
# 2 -8.4848 64.5668 -4.1469 0.0181 0.7635 0.0066
# 3 6.7047 -4.1469 66.0167 0.0004 -7.1515 0.0007
# 4 0.0041 0.0181 0.0004 20.6002 -0.0010 0.1578
# 5 0.8436 0.7635 -7.1515 -0.0010 49.9651 0.0025
# 6 -0.0049 0.0066 0.0007 0.1578 0.0025 26.5459
#
#
#
# Elastic Compliance Matrix: (Units=1/GPa)
#
#
# Indices 1 2 3 4 5 6 
#
# 1 0.009387 0.001179 -0.000913 -0.000003 -0.000307 0.000001
# 2 0.001179 0.015699 0.000852 -0.000014 -0.000138 -0.000004
# 3 -0.000913 0.000852 0.015535 -0.000001 0.002226 -0.000001
# 4 -0.000003 -0.000014 -0.000001 0.048545 0.000001 -0.000289
# 5 -0.000307 -0.000138 0.002226 0.000001 0.020340 -0.000002
# 6 0.000001 -0.000004 -0.000001 -0.000289 -0.000002 0.037672
#
#
# Mechanical properties :
#
#
# Convention : Reuss Voigt Hill
#
# Bulk Modulus (GPa) = 23.33418 25.22324 24.27871
# Shear Modulus (GPa) = 31.40143 35.74158 33.57150
#
# Velocity S-wave (km/s) = 3.52454 3.76024 3.64430
# Velocity P-wave (km/s) = 5.07880 5.36943 5.22614
#
# Compressibility (1/GPa) = 0.04285560
#
# Stress axis : x y z
#
# Youngs Moduli (GPa) = 106.53487 63.69820 64.37089
#
# Poissons Ratio (x) = -0.07507 0.05874
# Poissons Ratio (y) = -0.12555 -0.05481
# Poissons Ratio (z) = 0.09722 -0.05424
#
# Static dielectric constant tensor:
#      x y z
#    x 2.033830 0.000000 0.029950 
#    y 0.000000 1.880890 0.000000 
#    z 0.029950 0.000000 2.048690 
# 
# From -- ./inp_files/378234.got.cif
#   From: 2010.05.17/outbox.cif.g08.bks.cpg/sg12_190_cif.got.tgz:378234.got - 2010.06.03 13:09:07.
