data_PCOD9203040
_publ_section_title
;
Structure prediction by ZEFSAII (Michael W. Deem and Ramdas Pophale) SiO2 
 PCOD9203040
Probable space group: C 2/M
;
_chemical_formula_sum "Si O2"
_cell_formula_units_Z 40
_cell_length_a 20.073956
_cell_length_b 14.548529
_cell_length_c 10.318913
_cell_angle_alpha 90.000000
_cell_angle_beta 140.870146
_cell_angle_gamma 90.000000
_cell_volume 1901.824665
_symmetry_space_group_name_H-M "C 2/M"
_symmetry_group_IT_number 12
_symmetry_cell_setting 'monoclinic'
loop_
_space_group_symop_operation_xyz
x,y,z
-x,y,-z
-x,-y,-z
x,-y,z
1/2+x,1/2+y,z
1/2-x,1/2+y,-z
1/2-x,1/2-y,-z
1/2+x,1/2-y,z
loop_
_atom_site_type_symbol
_atom_site_label
_atom_site_fract_x
_atom_site_fract_y
_atom_site_fract_z
Si Si1 0.916985 0.104054 0.775761
Si Si2 0.183806 0.760158 0.029942
Si Si3 0.287217 0.179799 0.443991
Si Si4 0.490253 0.610133 0.337851
Si Si5 0.015056 0.608711 0.867338
O O1 0.802974 0.103762 0.666866
O O2 0.918683 0.137192 0.628810
O O3 0.955189 0.000000 0.819009
O O4 0.000000 0.152310 0.000000
O O5 0.109211 0.846895 0.885575
O O6 0.250000 0.750000 0.000000
O O7 0.261544 0.779872 0.265513
O O8 0.108647 0.673948 0.955174
O O9 0.250000 0.250000 0.500000
O O10 0.404306 0.142367 0.639426
O O11 0.500000 0.646174 0.500000
O O12 0.482884 0.500000 0.338782
O O13 0.033819 0.500000 0.869572
O O14 0.000000 0.618966 0.000000
#
# Coordination Sequence:
#
# PCOD9203040 Si02
#       5
#     8   8   8   8   8
#     4  10  20  38  65  97 128 166 223 285 341 405
#     4  12  28  45  70 103 145 189 236 297 363 432
#     4  12  24  41  71 100 136 185 239 291 352 424
#     4  10  23  41  67  99 139 179 224 287 355 421
#     4  11  26  49  74 107 148 193 245 303 366 438
#
# _framework density 21.032433999999999
#
# number of rings (size 3 to 8) (size 9 to 14) (size 15 to 20)
#    0.000    1.000    4.000    1.800    5.600    1.600 
#    0.000    1.000    0.000    0.000    0.000    0.000 
#    0.000    0.000    0.000    0.000    0.000    0.000 
#
# Total GULP energy -111596.866542 kJ/mol
# GULP energy per Si atom -5579.843327 kJ/mol
# Density = 2.098456 g / cm^3
# Si number density = 21.032434 Si / 1000 Ang^3
#
#
#
# Elastic Constant Matrix: (Units=GPa)
#
#
# Indices 1 2 3 4 5 6 
#
# 1 159.5332 48.4832 78.7983 0.0000 -22.1228 0.0000
# 2 48.4832 92.3308 54.2326 0.0000 -5.7091 0.0000
# 3 78.7983 54.2326 185.0685 0.0000 -21.0964 0.0000
# 4 0.0000 0.0000 0.0000 19.9551 0.0000 -5.3040
# 5 -22.1228 -5.7091 -21.0964 0.0000 46.2757 0.0000
# 6 0.0000 0.0000 0.0000 -5.3040 0.0000 16.2257
#
#
#
# Elastic Compliance Matrix: (Units=1/GPa)
#
#
# Indices 1 2 3 4 5 6 
#
# 1 0.008809 -0.002943 -0.002584 0.000000 0.002670 0.000000
# 2 -0.002943 0.014066 -0.002987 0.000000 -0.001033 0.000000
# 3 -0.002584 -0.002987 0.007591 0.000000 0.001857 0.000000
# 4 0.000000 0.000000 0.000000 0.054881 0.000000 0.017940
# 5 0.002670 -0.001033 0.001857 0.000000 0.023605 0.000000
# 6 0.000000 0.000000 0.000000 0.017940 0.000000 0.067495
#
#
# Mechanical properties :
#
#
# Convention : Reuss Voigt Hill
#
# Bulk Modulus (GPa) = 74.41127 88.88452 81.64789
# Shear Modulus (GPa) = 25.25837 33.51920 29.38878
#
# Velocity S-wave (km/s) = 3.46920 3.99644 3.74211
# Velocity P-wave (km/s) = 7.17657 7.97796 7.58785
#
# Compressibility (1/GPa) = 0.01343882
#
# Stress axis : x y z
#
# Youngs Moduli (GPa) = 113.51673 71.09133 131.74339
#
# Poissons Ratio (x) = 0.20921 0.34043
# Poissons Ratio (y) = 0.33407 0.39349
# Poissons Ratio (z) = 0.29333 0.21233
#
# Static dielectric constant tensor:
#      x y z
#    x 1.849710 0.000000 -0.008170 
#    y 0.000000 1.832180 0.000000 
#    z -0.008170 0.000000 1.787670 
# 
# From -- ./inp_files/86077.got.cif
#   From: 2010.05.17/outbox.cif.g08.bks.cpg/sg12_44_cif.got.tgz:86077.got - 2010.06.03 13:09:07.
