data_PCOD9203162
_publ_section_title
;
Structure prediction by ZEFSAII (Michael W. Deem and Ramdas Pophale) SiO2 
 PCOD9203162
Probable space group: C 2/M
;
_chemical_formula_sum "Si O2"
_cell_formula_units_Z 38
_cell_length_a 12.152668
_cell_length_b 19.303647
_cell_length_c 11.596583
_cell_angle_alpha 90.000000
_cell_angle_beta 138.690102
_cell_angle_gamma 90.000000
_cell_volume 1795.855791
_symmetry_space_group_name_H-M "C 2/M"
_symmetry_group_IT_number 12
_symmetry_cell_setting 'monoclinic'
loop_
_space_group_symop_operation_xyz
x,y,z
-x,y,-z
-x,-y,-z
x,-y,z
1/2+x,1/2+y,z
1/2-x,1/2+y,-z
1/2-x,1/2-y,-z
1/2+x,1/2-y,z
loop_
_atom_site_type_symbol
_atom_site_label
_atom_site_fract_x
_atom_site_fract_y
_atom_site_fract_z
Si Si1 0.500000 0.113258 0.500000
Si Si2 0.136822 0.355123 0.855868
Si Si3 0.341946 0.404661 0.681336
Si Si4 0.871373 0.000000 0.501680
Si Si5 0.000000 0.000000 0.000000
Si Si6 0.984304 0.500000 0.127996
Si Si7 0.487726 0.722548 0.126827
O O1 0.406550 0.146090 0.314841
O O2 0.348520 0.075211 0.443794
O O3 0.021520 0.298072 0.825766
O O4 0.105620 0.431329 0.887489
O O5 0.321843 0.323836 0.021370
O O6 0.399560 0.433920 0.605428
O O7 0.361734 0.322746 0.705362
O O8 0.446845 0.440373 0.864531
O O9 0.677935 0.000000 0.316011
O O10 0.000000 0.000000 0.500000
O O11 0.000000 0.500000 0.000000
O O12 0.500000 0.729610 0.000000
#
# Coordination Sequence:
#
# PCOD9203162 Si02
#       7
#     4   8   8   4   2   4   8
#     4  12  22  45  68 106 130 179 232 294 344 411
#     4  11  26  44  73 100 138 183 232 289 346 415
#     4  11  23  43  71 100 142 176 233 290 346 417
#     4  11  27  46  61 102 143 182 233 283 341 415
#     4  10  20  38  70 106 130 176 216 290 344 410
#     4  12  27  49  68  99 134 187 232 285 347 412
#     4  11  23  47  67 103 140 182 229 281 351 427
#
# _framework density 21.159828000000001
#
# number of rings (size 3 to 8) (size 9 to 14) (size 15 to 20)
#    0.000    0.842    5.263    0.632    2.947    7.158 
#    1.895    0.000    0.000    0.000    0.000    0.000 
#    0.000    0.000    0.000    0.000    0.000    0.000 
#
# Total GULP energy -105790.821058 kJ/mol
# GULP energy per Si atom -5567.937950 kJ/mol
# Density = 2.111167 g / cm^3
# Si number density = 21.159828 Si / 1000 Ang^3
#
#
#
# Elastic Constant Matrix: (Units=GPa)
#
#
# Indices 1 2 3 4 5 6 
#
# 1 140.3943 49.9680 25.8782 0.0000 -13.8148 0.0000
# 2 49.9680 154.4114 19.2657 0.0000 1.5559 0.0000
# 3 25.8782 19.2657 68.9915 0.0000 -24.6203 0.0000
# 4 0.0000 0.0000 0.0000 -0.5362 0.0000 -11.7773
# 5 -13.8148 1.5559 -24.6203 0.0000 28.9042 0.0000
# 6 0.0000 0.0000 0.0000 -11.7773 0.0000 48.7770
#
#
#
# Elastic Compliance Matrix: (Units=1/GPa)
#
#
# Indices 1 2 3 4 5 6 
#
# 1 0.008625 -0.002648 -0.001399 0.000000 0.003073 0.000000
# 2 -0.002648 0.007686 -0.002518 0.000000 -0.003824 0.000000
# 3 -0.001399 -0.002518 0.022315 0.000000 0.018475 0.000000
# 4 0.000000 0.000000 0.000000 -0.295867 0.000000 -0.071438
# 5 0.003073 -0.003824 0.018475 0.000000 0.052008 0.000000
# 6 0.000000 0.000000 0.000000 -0.071438 0.000000 0.003253
#
#
# Mechanical properties :
#
#
# Convention : Reuss Voigt Hill
#
# Bulk Modulus (GPa) = 39.21973 61.55788 50.38881
# Shear Modulus (GPa) = -27.72358 33.34136 2.80889
#
# Velocity S-wave (km/s) = -3.62359 3.97380 1.15341
# Velocity P-wave (km/s) = 1.03344 7.08589 5.06349
#
# Compressibility (1/GPa) = 0.02549737
#
# Stress axis : x y z
#
# Youngs Moduli (GPa) = 115.93627 130.11323 44.81230
#
# Poissons Ratio (x) = 0.34449 0.06271
# Poissons Ratio (y) = 0.30695 0.11282
# Poissons Ratio (z) = 0.16223 0.32757
#
# Static dielectric constant tensor:
#      x y z
#    x 1.772110 0.000000 0.042550 
#    y 0.000000 1.808890 0.000000 
#    z 0.042550 0.000000 1.788510 
# 
# From -- ./inp_files/134231.got.cif
#   From: 2010.05.17/outbox.cif.g08.bks.cpg/sg12_68_cif.got.tgz:134231.got - 2010.06.03 13:09:07.
