data_PCOD9203599
_publ_section_title
;
Structure prediction by ZEFSAII (Michael W. Deem and Ramdas Pophale) SiO2 
 PCOD9203599
Probable space group: C 2/M
;
_chemical_formula_sum "Si O2"
_cell_formula_units_Z 56
_cell_length_a 28.620088
_cell_length_b 8.421565
_cell_length_c 12.720635
_cell_angle_alpha 90.000000
_cell_angle_beta 63.162101
_cell_angle_gamma 90.000000
_cell_volume 2735.755708
_symmetry_space_group_name_H-M "C 2/M"
_symmetry_group_IT_number 12
_symmetry_cell_setting 'monoclinic'
loop_
_space_group_symop_operation_xyz
x,y,z
-x,y,-z
-x,-y,-z
x,-y,z
1/2+x,1/2+y,z
1/2-x,1/2+y,-z
1/2-x,1/2-y,-z
1/2+x,1/2-y,z
loop_
_atom_site_type_symbol
_atom_site_label
_atom_site_fract_x
_atom_site_fract_y
_atom_site_fract_z
Si Si1 0.338982 0.307155 0.678219
Si Si2 0.651916 0.189358 0.869867
Si Si3 0.745030 0.689213 0.626313
Si Si4 0.371082 0.309160 0.880720
Si Si5 0.952432 0.824400 0.126383
Si Si6 0.548482 0.315432 0.509669
Si Si7 0.490677 0.179984 0.751391
O O1 0.334323 0.500000 0.675985
O O2 0.294584 0.234428 0.649343
O O3 0.342274 0.266989 0.799587
O O4 0.394785 0.251897 0.574105
O O5 0.696564 0.238647 0.741484
O O6 0.598691 0.266410 0.881406
O O7 0.648064 0.000000 0.876930
O O8 0.657848 0.249623 0.984450
O O9 0.739316 0.500000 0.627291
O O10 0.750000 0.750000 0.500000
O O11 0.375242 0.500000 0.880022
O O12 0.430819 0.241352 0.818923
O O13 0.976888 0.689809 0.174835
O O14 0.941473 0.000000 0.185485
O O15 0.000000 0.848089 0.000000
O O16 0.500000 0.235379 0.500000
O O17 0.551546 0.500000 0.473811
O O18 0.527170 0.296897 0.646959
O O19 0.489974 0.000000 0.712593
#
# Coordination Sequence:
#
# PCOD9203599 Si02
#       7
#     8   8   8   8   8   8   8
#     4  10  23  44  71  99 132 175 227 279 331 392
#     4  12  26  45  70 101 135 172 223 278 333 395
#     4  12  28  51  75  98 132 173 221 276 333 395
#     4  11  22  42  69  99 136 177 221 271 332 397
#     4  11  23  40  65  94 131 177 221 266 328 397
#     4  10  20  39  64  93 131 178 221 264 325 395
#     4  12  24  36  57  94 138 177 219 274 328 389
#
# _framework density 20.469664000000002
#
# number of rings (size 3 to 8) (size 9 to 14) (size 15 to 20)
#    0.000    0.857    2.857    4.714    2.000    3.143 
#    0.000    0.000    0.000    0.000    0.000    0.000 
#    0.000    0.000    0.000    0.000    0.000    0.000 
#
# Total GULP energy -156144.706604 kJ/mol
# GULP energy per Si atom -5576.596664 kJ/mol
# Density = 2.042307 g / cm^3
# Si number density = 20.469664 Si / 1000 Ang^3
#
#
#
# Elastic Constant Matrix: (Units=GPa)
#
#
# Indices 1 2 3 4 5 6 
#
# 1 129.0716 33.3407 64.0701 0.0000 0.8256 0.0000
# 2 33.3407 97.8120 23.2842 0.0000 4.5367 0.0000
# 3 64.0701 23.2842 126.9878 0.0000 0.2103 0.0000
# 4 0.0000 0.0000 0.0000 28.3364 0.0000 0.7735
# 5 0.8256 4.5367 0.2103 0.0000 34.5506 0.0000
# 6 0.0000 0.0000 0.0000 0.7735 0.0000 44.8265
#
#
#
# Elastic Compliance Matrix: (Units=1/GPa)
#
#
# Indices 1 2 3 4 5 6 
#
# 1 0.010898 -0.002521 -0.005037 0.000000 0.000101 0.000000
# 2 -0.002521 0.011341 -0.000805 0.000000 -0.001424 0.000000
# 3 -0.005037 -0.000805 0.010563 0.000000 0.000162 0.000000
# 4 0.000000 0.000000 0.000000 0.035307 0.000000 -0.000609
# 5 0.000101 -0.001424 0.000162 0.000000 0.029127 0.000000
# 6 0.000000 0.000000 0.000000 -0.000609 0.000000 0.022319
#
#
# Mechanical properties :
#
#
# Convention : Reuss Voigt Hill
#
# Bulk Modulus (GPa) = 62.19966 66.14014 64.16990
# Shear Modulus (GPa) = 35.30118 37.08778 36.19448
#
# Velocity S-wave (km/s) = 4.15729 4.26119 4.20956
# Velocity P-wave (km/s) = 7.31412 7.52275 7.41917
#
# Compressibility (1/GPa) = 0.01607726
#
# Stress axis : x y z
#
# Youngs Moduli (GPa) = 91.75840 88.17862 94.66743
#
# Poissons Ratio (x) = 0.22226 0.47680
# Poissons Ratio (y) = 0.23128 0.07624
# Poissons Ratio (z) = 0.46215 0.07101
#
# Static dielectric constant tensor:
#      x y z
#    x 1.693230 0.000000 -0.016220 
#    y 0.000000 1.758380 0.000000 
#    z -0.016220 0.000000 1.622150 
# 
# From -- ./inp_files/180649.got.cif
#   From: 2010.05.17/outbox.cif.g08.bks.cpg/sg12_91_cif.got.tgz:180649.got - 2010.06.03 13:09:07.
