data_PCOD9203018
_publ_section_title
;
Structure prediction by ZEFSAII (Michael W. Deem and Ramdas Pophale) SiO2 
 PCOD9203018
Probable space group: C 2/M
;
_chemical_formula_sum "Si O2"
_cell_formula_units_Z 52
_cell_length_a 17.671306
_cell_length_b 26.292737
_cell_length_c 5.611424
_cell_angle_alpha 90.000000
_cell_angle_beta 50.933924
_cell_angle_gamma 90.000000
_cell_volume 2024.296236
_symmetry_space_group_name_H-M "C 2/M"
_symmetry_group_IT_number 12
_symmetry_cell_setting 'monoclinic'
loop_
_space_group_symop_operation_xyz
x,y,z
-x,y,-z
-x,-y,-z
x,-y,z
1/2+x,1/2+y,z
1/2-x,1/2+y,-z
1/2-x,1/2-y,-z
1/2+x,1/2-y,z
loop_
_atom_site_type_symbol
_atom_site_label
_atom_site_fract_x
_atom_site_fract_y
_atom_site_fract_z
Si Si1 0.594987 0.943958 0.651089
Si Si2 0.381322 0.746826 0.494381
Si Si3 0.189614 0.356418 0.210585
Si Si4 0.407873 0.708101 0.937881
Si Si5 0.608184 0.601099 0.974128
Si Si6 0.645993 0.500000 0.153304
Si Si7 0.237274 0.082233 0.316797
O O1 0.609540 0.898828 0.438079
O O2 0.688709 0.942063 0.640989
O O3 0.592255 0.000000 0.543843
O O4 0.500000 0.937399 0.000000
O O5 0.345002 0.803233 0.619078
O O6 0.354739 0.716352 0.790256
O O7 0.499069 0.745241 0.253397
O O8 0.353681 0.722223 0.292966
O O9 0.288704 0.373590 0.146527
O O10 0.214157 0.366836 0.885172
O O11 0.454067 0.651305 0.855691
O O12 0.587374 0.546721 0.131798
O O13 0.633269 0.590360 0.649879
O O14 0.713065 0.543716 0.153547
#
# Coordination Sequence:
#
# PCOD9203018 Si02
#       7
#     8   8   8   8   8   4   8
#     4  10  22  36  55  86 127 170 219 265 315 386
#     4  10  24  44  67  93 129 178 217 276 330 389
#     4  10  24  37  64  91 129 169 223 265 331 382
#     4  10  24  44  70  95 130 174 227 272 331 390
#     4  10  23  40  65 100 127 169 216 273 326 399
#     4  10  20  38  65  93 130 166 207 264 335 393
#     4  10  21  37  61  90 132 167 212 270 322 397
#
# _framework density 25.687937999999999
#
# number of rings (size 3 to 8) (size 9 to 14) (size 15 to 20)
#    0.000    2.000    0.769    0.462   19.385    3.077 
#    0.000    1.538    0.000    3.692    0.000    0.000 
#    0.000    0.000    0.000    0.000    0.000    0.000 
#
# Total GULP energy -144740.725942 kJ/mol
# GULP energy per Si atom -5566.950998 kJ/mol
# Density = 2.562947 g / cm^3
# Si number density = 25.687938 Si / 1000 Ang^3
#
#
#
# Elastic Constant Matrix: (Units=GPa)
#
#
# Indices 1 2 3 4 5 6 
#
# 1 49.5119 22.9054 17.5898 0.0000 2.3876 0.0000
# 2 22.9054 186.6915 58.5694 0.0000 24.6775 0.0000
# 3 17.5898 58.5694 123.5642 0.0000 33.3047 0.0000
# 4 0.0000 0.0000 0.0000 29.1669 0.0000 -7.5410
# 5 2.3876 24.6775 33.3047 0.0000 30.4390 0.0000
# 6 0.0000 0.0000 0.0000 -7.5410 0.0000 19.3104
#
#
#
# Elastic Compliance Matrix: (Units=1/GPa)
#
#
# Indices 1 2 3 4 5 6 
#
# 1 0.022127 -0.002215 -0.003001 0.000000 0.003344 0.000000
# 2 -0.002215 0.006663 -0.002034 0.000000 -0.003003 0.000000
# 3 -0.003001 -0.002034 0.012731 0.000000 -0.012045 0.000000
# 4 0.000000 0.000000 0.000000 0.038136 0.000000 0.014893
# 5 0.003344 -0.003003 -0.012045 0.000000 0.048204 0.000000
# 6 0.000000 0.000000 0.000000 0.014893 0.000000 0.057601
#
#
# Mechanical properties :
#
#
# Convention : Reuss Voigt Hill
#
# Bulk Modulus (GPa) = 37.00842 61.98856 49.49849
# Shear Modulus (GPa) = 23.92697 33.16346 28.54521
#
# Velocity S-wave (km/s) = 3.05527 3.59696 3.33713
# Velocity P-wave (km/s) = 5.18502 6.43697 5.84462
#
# Compressibility (1/GPa) = 0.02702088
#
# Stress axis : x y z
#
# Youngs Moduli (GPa) = 45.19371 150.07881 78.55066
#
# Poissons Ratio (x) = 0.33247 0.23574
# Poissons Ratio (y) = 0.10012 0.15973
# Poissons Ratio (z) = 0.13563 0.30519
#
# Static dielectric constant tensor:
#      x y z
#    x 2.105990 0.000000 -0.013330 
#    y 0.000000 2.128180 0.000000 
#    z -0.013330 0.000000 2.186960 
# 
# From -- ./inp_files/21821.got.cif
#   From: 2010.05.17/outbox.cif.g08.bks.cpg/sg12_11_cif.got.tgz:21821.got - 2010.06.03 13:09:07.
