data_PCOD9203080
_publ_section_title
;
Structure prediction by ZEFSAII (Michael W. Deem and Ramdas Pophale) SiO2 
 PCOD9203080
Probable space group: C 2/M
;
_chemical_formula_sum "Si O2"
_cell_formula_units_Z 58
_cell_length_a 12.324661
_cell_length_b 15.919944
_cell_length_c 12.907799
_cell_angle_alpha 90.000000
_cell_angle_beta 93.044883
_cell_angle_gamma 90.000000
_cell_volume 2529.036838
_symmetry_space_group_name_H-M "C 2/M"
_symmetry_group_IT_number 12
_symmetry_cell_setting 'monoclinic'
loop_
_space_group_symop_operation_xyz
x,y,z
-x,y,-z
-x,-y,-z
x,-y,z
1/2+x,1/2+y,z
1/2-x,1/2+y,-z
1/2-x,1/2-y,-z
1/2+x,1/2-y,z
loop_
_atom_site_type_symbol
_atom_site_label
_atom_site_fract_x
_atom_site_fract_y
_atom_site_fract_z
Si Si1 0.680376 0.099915 0.479143
Si Si2 0.817857 0.689991 0.308978
Si Si3 0.009993 0.203287 0.117099
Si Si4 0.629858 0.188490 0.279202
Si Si5 0.788593 0.099651 0.125283
Si Si6 0.418023 0.662852 0.419709
Si Si7 0.500000 0.500000 0.500000
Si Si8 0.733193 0.400126 0.111463
O O1 0.344367 0.129958 0.406421
O O2 0.607595 0.136232 0.381915
O O3 0.802252 0.134569 0.460857
O O4 0.683537 0.000000 0.474372
O O5 0.696606 0.728813 0.318318
O O6 0.890353 0.772644 0.329431
O O7 0.811160 0.644837 0.198380
O O8 0.039494 0.277821 0.196901
O O9 0.113733 0.140122 0.121476
O O10 0.902179 0.149186 0.132067
O O11 0.000000 0.237557 0.000000
O O12 0.710778 0.133582 0.211282
O O13 0.806046 0.000000 0.137634
O O14 0.738874 0.114989 0.007856
O O15 0.500000 0.710700 0.500000
O O16 0.480646 0.574841 0.411653
O O17 0.730881 0.500000 0.129327
#
# Coordination Sequence:
#
# PCOD9203080 Si02
#       8
#     8   8   8   8   8   8   2   8
#     4  11  20  38  60  82 119 160 201 238 298 368
#     4  10  21  35  56  84 122 164 193 236 301 374
#     4   9  19  35  59  92 127 160 202 258 316 368
#     4  10  21  37  58  93 126 159 203 259 317 366
#     4  10  20  38  66  95 123 157 207 266 312 360
#     4   9  17  34  54  83 112 145 187 245 294 344
#     4   8  16  32  56  80 114 144 174 252 304 332
#     4   9  18  35  58  87 123 160 203 245 301 363
#
# _framework density 22.933631999999999
#
# number of rings (size 3 to 8) (size 9 to 14) (size 15 to 20)
#    0.414    1.931    0.690    2.897    0.000    6.621 
#   14.897    0.000    0.000    3.310    0.000    2.897 
#    0.000    0.000    0.000    0.000    0.000    0.000 
#
# Total GULP energy -161687.404494 kJ/mol
# GULP energy per Si atom -5575.427741 kJ/mol
# Density = 2.288143 g / cm^3
# Si number density = 22.933632 Si / 1000 Ang^3
#
#
#
# Elastic Constant Matrix: (Units=GPa)
#
#
# Indices 1 2 3 4 5 6 
#
# 1 63.1220 30.9230 52.4217 0.0000 2.4527 0.0000
# 2 30.9230 99.4667 113.5125 0.0000 7.5960 0.0000
# 3 52.4217 113.5125 218.7781 0.0000 6.6441 0.0000
# 4 0.0000 0.0000 0.0000 40.0562 0.0000 -5.9986
# 5 2.4527 7.5960 6.6441 0.0000 24.5667 0.0000
# 6 0.0000 0.0000 0.0000 -5.9986 0.0000 11.0468
#
#
#
# Elastic Compliance Matrix: (Units=1/GPa)
#
#
# Indices 1 2 3 4 5 6 
#
# 1 0.019916 -0.001787 -0.003833 0.000000 -0.000399 0.000000
# 2 -0.001787 0.025245 -0.012542 0.000000 -0.004236 0.000000
# 3 -0.003833 -0.012542 0.011965 0.000000 0.001025 0.000000
# 4 0.000000 0.000000 0.000000 0.027175 0.000000 0.014756
# 5 -0.000399 -0.004236 0.001025 0.000000 0.041778 0.000000
# 6 0.000000 0.000000 0.000000 0.014756 0.000000 0.098537
#
#
# Mechanical properties :
#
#
# Convention : Reuss Voigt Hill
#
# Bulk Modulus (GPa) = 48.06826 86.12014 67.09420
# Shear Modulus (GPa) = 18.66545 27.43458 23.05002
#
# Velocity S-wave (km/s) = 2.85597 3.46245 3.17373
# Velocity P-wave (km/s) = 5.64630 7.32244 6.53830
#
# Compressibility (1/GPa) = 0.02080375
#
# Stress axis : x y z
#
# Youngs Moduli (GPa) = 50.20974 39.61126 83.57520
#
# Poissons Ratio (x) = 0.07080 0.32032
# Poissons Ratio (y) = 0.08974 1.04817
# Poissons Ratio (z) = 0.19244 0.49679
#
# Static dielectric constant tensor:
#      x y z
#    x 2.047670 0.000000 -0.044100 
#    y 0.000000 1.802790 0.000000 
#    z -0.044100 0.000000 1.946510 
# 
# From -- ./inp_files/305498.got.cif
#   From: 2010.05.17/outbox.cif.g08.bks.cpg/sg12_153_cif.got.tgz:305498.got - 2010.06.03 13:09:07.
