data_PCOD9203859
_publ_section_title
;
Structure prediction by ZEFSAII (Michael W. Deem and Ramdas Pophale) SiO2 
 PCOD9203859
Probable space group: C 2/M
;
_chemical_formula_sum "Si O2"
_cell_formula_units_Z 52
_cell_length_a 5.868852
_cell_length_b 25.234250
_cell_length_c 20.461199
_cell_angle_alpha 90.000000
_cell_angle_beta 125.582998
_cell_angle_gamma 90.000000
_cell_volume 2464.400231
_symmetry_space_group_name_H-M "C 2/M"
_symmetry_group_IT_number 12
_symmetry_cell_setting 'monoclinic'
loop_
_space_group_symop_operation_xyz
x,y,z
-x,y,-z
-x,-y,-z
x,-y,z
1/2+x,1/2+y,z
1/2-x,1/2+y,-z
1/2-x,1/2-y,-z
1/2+x,1/2-y,z
loop_
_atom_site_type_symbol
_atom_site_label
_atom_site_fract_x
_atom_site_fract_y
_atom_site_fract_z
Si Si1 0.175652 0.500000 0.461549
Si Si2 0.702278 0.195472 0.417315
Si Si3 0.856513 0.768406 0.266194
Si Si4 0.244190 0.562613 0.778940
Si Si5 0.861601 0.602472 0.376609
Si Si6 0.195777 0.119734 0.689068
Si Si7 0.816917 0.936183 0.033196
O O1 0.500000 0.500000 0.500000
O O2 0.000000 0.500000 0.500000
O O3 0.075900 0.555027 0.413499
O O4 0.539388 0.244259 0.357461
O O5 0.486584 0.158449 0.421319
O O6 0.739638 0.152973 0.365286
O O7 0.000000 0.208101 0.500000
O O8 0.538981 0.749103 0.232774
O O9 0.847023 0.831445 0.268463
O O10 0.248821 0.500000 0.764955
O O11 0.270142 0.597415 0.718146
O O12 0.482739 0.573458 0.871363
O O13 0.938365 0.580831 0.752703
O O14 0.590132 0.589751 0.374239
O O15 0.788831 0.000000 0.019098
O O16 0.500000 0.917227 0.000000
O O17 0.000000 0.917259 0.000000
#
# Coordination Sequence:
#
# PCOD9203859 Si02
#       7
#     4   8   8   8   8   8   8
#     4  12  30  44  60  80 116 165 216 265 298 340
#     4  10  22  38  58  79 115 148 203 259 325 361
#     4  10  20  40  57  82 113 144 187 252 314 367
#     4  10  22  38  60  85 126 165 202 239 294 360
#     4  11  23  40  57  83 115 162 210 251 301 356
#     4  10  23  36  57  84 114 154 202 248 300 365
#     4   9  19  36  58  90 123 156 192 234 288 352
#
# _framework density 21.100469
#
# number of rings (size 3 to 8) (size 9 to 14) (size 15 to 20)
#    0.000    1.846    2.308    0.462    9.692    2.462 
#    0.000    0.000    0.000    0.000    0.000    0.000 
#    0.000   33.231    0.000    0.000    0.000    0.000 
#
# Total GULP energy -144741.831873 kJ/mol
# GULP energy per Si atom -5566.993534 kJ/mol
# Density = 2.105244 g / cm^3
# Si number density = 21.100469 Si / 1000 Ang^3
#
#
#
# Elastic Constant Matrix: (Units=GPa)
#
#
# Indices 1 2 3 4 5 6 
#
# 1 140.4487 14.3097 34.2510 0.0000 16.9221 0.0000
# 2 14.3097 40.5965 0.1770 0.0000 -1.3923 0.0000
# 3 34.2510 0.1770 46.9266 0.0000 5.3939 0.0000
# 4 0.0000 0.0000 0.0000 9.8422 0.0000 9.4390
# 5 16.9221 -1.3923 5.3939 0.0000 30.8715 0.0000
# 6 0.0000 0.0000 0.0000 9.4390 0.0000 36.4876
#
#
#
# Elastic Compliance Matrix: (Units=1/GPa)
#
#
# Indices 1 2 3 4 5 6 
#
# 1 0.009571 -0.003492 -0.006482 0.000000 -0.004271 0.000000
# 2 -0.003492 0.025947 0.002139 0.000000 0.002711 0.000000
# 3 -0.006482 0.002139 0.026138 0.000000 -0.000918 0.000000
# 4 0.000000 0.000000 0.000000 0.135126 0.000000 -0.034956
# 5 -0.004271 0.002711 -0.000918 0.000000 0.035016 0.000000
# 6 0.000000 0.000000 0.000000 -0.034956 0.000000 0.036449
#
#
# Mechanical properties :
#
#
# Convention : Reuss Voigt Hill
#
# Bulk Modulus (GPa) = 21.74491 36.16078 28.95284
# Shear Modulus (GPa) = 16.70865 27.38922 22.04894
#
# Velocity S-wave (km/s) = 2.81706 3.60674 3.23608
# Velocity P-wave (km/s) = 4.57262 5.87532 5.26442
#
# Compressibility (1/GPa) = 0.04598778
#
# Stress axis : x y z
#
# Youngs Moduli (GPa) = 104.48091 38.53991 38.25826
#
# Poissons Ratio (x) = 0.13458 0.24798
# Poissons Ratio (y) = 0.36484 -0.08185
# Poissons Ratio (z) = 0.67721 -0.08245
#
# Static dielectric constant tensor:
#      x y z
#    x 2.089140 0.000000 -0.024350 
#    y 0.000000 1.775380 0.000000 
#    z -0.024350 0.000000 1.745630 
# 
# From -- ./inp_files/298386.got.cif
#   From: 2010.05.17/outbox.cif.g08.bks.cpg/sg12_150_cif.got.tgz:298386.got - 2010.06.03 13:09:07.
