data_PCOD9203127
_publ_section_title
;
Structure prediction by ZEFSAII (Michael W. Deem and Ramdas Pophale) SiO2 
 PCOD9203127
Probable space group: C 2/M
;
_chemical_formula_sum "Si O2"
_cell_formula_units_Z 40
_cell_length_a 10.709132
_cell_length_b 16.904626
_cell_length_c 9.515240
_cell_angle_alpha 90.000000
_cell_angle_beta 82.246622
_cell_angle_gamma 90.000000
_cell_volume 1706.832806
_symmetry_space_group_name_H-M "C 2/M"
_symmetry_group_IT_number 12
_symmetry_cell_setting 'monoclinic'
loop_
_space_group_symop_operation_xyz
x,y,z
-x,y,-z
-x,-y,-z
x,-y,z
1/2+x,1/2+y,z
1/2-x,1/2+y,-z
1/2-x,1/2-y,-z
1/2+x,1/2-y,z
loop_
_atom_site_type_symbol
_atom_site_label
_atom_site_fract_x
_atom_site_fract_y
_atom_site_fract_z
Si Si1 0.658169 0.091031 0.383451
Si Si2 0.339262 0.202612 0.376035
Si Si3 0.550162 0.364699 0.653259
Si Si4 0.200682 0.908856 0.177716
Si Si5 0.888333 0.405020 0.915279
O O1 0.615208 0.132711 0.531657
O O2 0.811585 0.097639 0.357086
O O3 0.612987 0.127204 0.241978
O O4 0.624455 0.000000 0.392891
O O5 0.250000 0.250000 0.500000
O O6 0.433927 0.271297 0.317106
O O7 0.264425 0.158082 0.265448
O O8 0.500000 0.373663 0.500000
O O9 0.447314 0.401539 0.772215
O O10 0.239082 0.000000 0.209611
O O11 0.255680 0.893908 0.014579
O O12 0.906438 0.500000 0.900410
O O13 0.000000 0.375429 0.000000
#
# Coordination Sequence:
#
# PCOD9203127 Si02
#       5
#     8   8   8   8   8
#     4  10  20  38  67  98 127 170 225 271 320 387
#     4  10  21  38  59  94 135 170 207 260 327 384
#     4  11  22  38  63  97 141 167 207 275 334 375
#     4  11  22  41  72  98 125 175 223 266 328 388
#     4   9  21  42  64  94 132 166 215 281 327 377
#
# _framework density 23.435219
#
# number of rings (size 3 to 8) (size 9 to 14) (size 15 to 20)
#    0.000    1.800    4.000    1.200    0.000    3.200 
#    0.000    7.000    4.400    6.000    0.000    0.000 
#    0.000    0.000    0.000    0.000    0.000    0.600 
#
# Total GULP energy -111800.924831 kJ/mol
# GULP energy per Si atom -5590.046242 kJ/mol
# Density = 2.338188 g / cm^3
# Si number density = 23.435219 Si / 1000 Ang^3
#
#
#
# Elastic Constant Matrix: (Units=GPa)
#
#
# Indices 1 2 3 4 5 6 
#
# 1 78.9832 -8.2548 18.9013 0.0000 -10.6777 0.0000
# 2 -8.2548 95.1601 22.5707 0.0000 -8.0263 0.0000
# 3 18.9013 22.5707 73.1569 0.0000 -8.8297 0.0000
# 4 0.0000 0.0000 0.0000 -2.2766 0.0000 -12.9440
# 5 -10.6777 -8.0263 -8.8297 0.0000 41.6388 0.0000
# 6 0.0000 0.0000 0.0000 -12.9440 0.0000 38.0953
#
#
#
# Elastic Compliance Matrix: (Units=1/GPa)
#
#
# Indices 1 2 3 4 5 6 
#
# 1 0.014342 0.002489 -0.004076 0.000000 0.003293 0.000000
# 2 0.002489 0.011860 -0.004053 0.000000 0.002065 0.000000
# 3 -0.004076 -0.004053 0.016166 0.000000 0.001602 0.000000
# 4 0.000000 0.000000 0.000000 -0.149820 0.000000 -0.050906
# 5 0.003293 0.002065 0.001602 0.000000 0.025598 0.000000
# 6 0.000000 0.000000 0.000000 -0.050906 0.000000 0.008953
#
#
# Mechanical properties :
#
#
# Convention : Reuss Voigt Hill
#
# Bulk Modulus (GPa) = 32.16725 34.85938 33.51332
# Shear Modulus (GPa) = -97.54475 29.76370 -33.89052
#
# Velocity S-wave (km/s) = -6.45860 3.56763 -3.80694
# Velocity P-wave (km/s) = 6.47010 5.64604 2.23433
#
# Compressibility (1/GPa) = 0.03108752
#
# Stress axis : x y z
#
# Youngs Moduli (GPa) = 69.72753 84.31771 61.85836
#
# Poissons Ratio (x) = -0.20983 0.25211
# Poissons Ratio (y) = -0.17352 0.25070
# Poissons Ratio (z) = 0.28419 0.34172
#
# Static dielectric constant tensor:
#      x y z
#    x 1.965060 0.000000 -0.017050 
#    y 0.000000 1.963020 0.000000 
#    z -0.017050 0.000000 1.872770 
# 
# From -- ./inp_files/46949.got.cif
#   From: 2010.05.17/outbox.cif.g08.bks.cpg/sg12_24_cif.got.tgz:46949.got - 2010.06.03 13:09:07.
