data_PCOD9203289
_publ_section_title
;
Structure prediction by ZEFSAII (Michael W. Deem and Ramdas Pophale) SiO2 
 PCOD9203289
Probable space group: C 2/M
;
_chemical_formula_sum "Si O2"
_cell_formula_units_Z 40
_cell_length_a 17.962363
_cell_length_b 13.478783
_cell_length_c 8.818978
_cell_angle_alpha 90.000000
_cell_angle_beta 98.536117
_cell_angle_gamma 90.000000
_cell_volume 2111.517401
_symmetry_space_group_name_H-M "C 2/M"
_symmetry_group_IT_number 12
_symmetry_cell_setting 'monoclinic'
loop_
_space_group_symop_operation_xyz
x,y,z
-x,y,-z
-x,-y,-z
x,-y,z
1/2+x,1/2+y,z
1/2-x,1/2+y,-z
1/2-x,1/2-y,-z
1/2+x,1/2-y,z
loop_
_atom_site_type_symbol
_atom_site_label
_atom_site_fract_x
_atom_site_fract_y
_atom_site_fract_z
Si Si1 0.331834 0.778670 0.585128
Si Si2 0.348213 0.885466 0.288358
Si Si3 0.701985 0.288902 0.125021
Si Si4 0.939106 0.234602 0.097127
Si Si5 0.042276 0.888214 0.352284
O O1 0.250000 0.750000 0.500000
O O2 0.361587 0.855592 0.468957
O O3 0.318372 0.797871 0.759629
O O4 0.387129 0.684588 0.607283
O O5 0.259585 0.864697 0.223174
O O6 0.397473 0.813552 0.194477
O O7 0.365661 0.000000 0.268033
O O8 0.750000 0.250000 0.000000
O O9 0.623560 0.320168 0.025434
O O10 0.984704 0.158223 0.214566
O O11 0.000000 0.281364 0.000000
O O12 0.000000 0.890572 0.500000
O O13 0.064933 0.000000 0.318330
#
# Coordination Sequence:
#
# PCOD9203289 Si02
#       5
#     8   8   8   8   8
#     4  10  20  39  61  84 123 158 198 247 296 353
#     4  10  22  40  63  88 121 168 211 242 292 368
#     4   9  20  38  63  86 121 160 195 250 304 352
#     4  11  21  39  64  90 129 157 193 258 314 353
#     4  11  23  40  64  91 120 157 203 250 307 368
#
# _framework density 18.943724
#
# number of rings (size 3 to 8) (size 9 to 14) (size 15 to 20)
#    0.000    1.800    4.000    0.000    0.000    4.800 
#    0.000    6.000    0.000    0.000    0.000    0.000 
#    0.000    0.000    0.000    0.000    0.000    0.000 
#
# Total GULP energy -111342.162163 kJ/mol
# GULP energy per Si atom -5567.108108 kJ/mol
# Density = 1.890061 g / cm^3
# Si number density = 18.943724 Si / 1000 Ang^3
#
#
#
# Elastic Constant Matrix: (Units=GPa)
#
#
# Indices 1 2 3 4 5 6 
#
# 1 106.3540 28.2075 39.1677 0.0000 9.7255 0.0000
# 2 28.2075 84.0200 35.2527 0.0000 9.8517 0.0000
# 3 39.1677 35.2527 127.4924 0.0000 -1.3720 0.0000
# 4 0.0000 0.0000 0.0000 9.0879 0.0000 4.2807
# 5 9.7255 9.8517 -1.3720 0.0000 51.2944 0.0000
# 6 0.0000 0.0000 0.0000 4.2807 0.0000 16.2710
#
#
#
# Elastic Compliance Matrix: (Units=1/GPa)
#
#
# Indices 1 2 3 4 5 6 
#
# 1 0.011230 -0.002387 -0.002809 0.000000 -0.001746 0.000000
# 2 -0.002387 0.014352 -0.003261 0.000000 -0.002391 0.000000
# 3 -0.002809 -0.003261 0.009623 0.000000 0.001416 0.000000
# 4 0.000000 0.000000 0.000000 0.125602 0.000000 -0.033044
# 5 -0.001746 -0.002391 0.001416 0.000000 0.020323 0.000000
# 6 0.000000 0.000000 0.000000 -0.033044 0.000000 0.070153
#
#
# Mechanical properties :
#
#
# Convention : Reuss Voigt Hill
#
# Bulk Modulus (GPa) = 54.66887 58.12471 56.39679
# Shear Modulus (GPa) = 18.22871 29.67989 23.95430
#
# Velocity S-wave (km/s) = 3.10539 3.96250 3.55984
# Velocity P-wave (km/s) = 6.46368 7.18920 6.83607
#
# Compressibility (1/GPa) = 0.01829195
#
# Stress axis : x y z
#
# Youngs Moduli (GPa) = 89.04991 69.67770 103.91354
#
# Poissons Ratio (x) = 0.16631 0.29187
# Poissons Ratio (y) = 0.21255 0.33885
# Poissons Ratio (z) = 0.25012 0.22721
#
# Static dielectric constant tensor:
#      x y z
#    x 1.700800 0.000000 -0.025860 
#    y 0.000000 1.620110 0.000000 
#    z -0.025860 0.000000 1.723430 
# 
# From -- ./inp_files/71409.got.cif
#   From: 2010.05.17/outbox.cif.g08.bks.cpg/sg12_36_cif.got.tgz:71409.got - 2010.06.03 13:09:07.
