data_PCOD9203053
_publ_section_title
;
Structure prediction by ZEFSAII (Michael W. Deem and Ramdas Pophale) SiO2 
 PCOD9203053
Probable space group: C 2/M
;
_chemical_formula_sum "Si O2"
_cell_formula_units_Z 48
_cell_length_a 15.699810
_cell_length_b 26.976714
_cell_length_c 5.419553
_cell_angle_alpha 90.000000
_cell_angle_beta 88.087770
_cell_angle_gamma 90.000000
_cell_volume 2294.061165
_symmetry_space_group_name_H-M "C 2/M"
_symmetry_group_IT_number 12
_symmetry_cell_setting 'monoclinic'
loop_
_space_group_symop_operation_xyz
x,y,z
-x,y,-z
-x,-y,-z
x,-y,z
1/2+x,1/2+y,z
1/2-x,1/2+y,-z
1/2-x,1/2-y,-z
1/2+x,1/2-y,z
loop_
_atom_site_type_symbol
_atom_site_label
_atom_site_fract_x
_atom_site_fract_y
_atom_site_fract_z
Si Si1 0.356779 0.296851 0.590692
Si Si2 0.733662 0.103195 0.087729
Si Si3 0.424672 0.000000 0.229263
Si Si4 0.181384 0.500000 0.268634
Si Si5 0.591513 0.348217 0.932923
Si Si6 0.433186 0.108652 0.204189
Si Si7 0.667852 0.818364 0.477798
O O1 0.395252 0.324980 0.343989
O O2 0.359848 0.238033 0.552767
O O3 0.256937 0.313290 0.621812
O O4 0.399868 0.308106 0.848086
O O5 0.730209 0.051924 0.237925
O O6 0.831006 0.114507 0.021215
O O7 0.699207 0.151309 0.237077
O O8 0.662495 0.097396 0.885213
O O9 0.359027 0.000000 0.459340
O O10 0.468963 0.053712 0.257959
O O11 0.384349 0.000000 0.958066
O O12 0.500000 0.371529 0.000000
O O13 0.409137 0.148757 0.409700
O O14 0.500000 0.129589 0.000000
#
# Coordination Sequence:
#
# PCOD9203053 Si02
#       7
#     8   8   4   4   8   8   8
#     4  10  23  39  64  88 122 158 210 248 309 358
#     4  10  22  40  62  88 125 157 208 248 311 362
#     4  10  21  40  58  88 122 159 209 241 301 368
#     4  10  20  38  66  88 119 163 200 252 305 366
#     4  11  23  42  64  91 121 164 203 256 306 369
#     4  11  22  38  59  90 123 167 201 256 301 364
#     4  10  21  38  61  86 123 162 201 257 301 360
#
# _framework density 20.923593
#
# number of rings (size 3 to 8) (size 9 to 14) (size 15 to 20)
#    0.000    1.667    3.333    0.750    2.333    3.333 
#    3.000    2.083    0.000    0.000    0.000    5.833 
#    0.000    0.000    0.000    0.000    0.000    0.000 
#
# Total GULP energy -133787.498917 kJ/mol
# GULP energy per Si atom -5574.479122 kJ/mol
# Density = 2.087597 g / cm^3
# Si number density = 20.923593 Si / 1000 Ang^3
#
#
#
# Elastic Constant Matrix: (Units=GPa)
#
#
# Indices 1 2 3 4 5 6 
#
# 1 120.1181 23.9744 43.8956 0.0000 -29.0104 0.0000
# 2 23.9744 70.2792 17.7490 0.0000 -9.4988 0.0000
# 3 43.8956 17.7490 79.3885 0.0000 -12.5815 0.0000
# 4 0.0000 0.0000 0.0000 25.6055 0.0000 -11.9572
# 5 -29.0104 -9.4988 -12.5815 0.0000 32.0616 0.0000
# 6 0.0000 0.0000 0.0000 -11.9572 0.0000 45.1683
#
#
#
# Elastic Compliance Matrix: (Units=1/GPa)
#
#
# Indices 1 2 3 4 5 6 
#
# 1 0.012763 -0.001823 -0.005230 0.000000 0.008956 0.000000
# 2 -0.001823 0.015687 -0.002158 0.000000 0.002151 0.000000
# 3 -0.005230 -0.002158 0.016122 0.000000 0.000955 0.000000
# 4 0.000000 0.000000 0.000000 0.044563 0.000000 0.011797
# 5 0.008956 0.002151 0.000955 0.000000 0.040306 0.000000
# 6 0.000000 0.000000 0.000000 0.011797 0.000000 0.025262
#
#
# Mechanical properties :
#
#
# Convention : Reuss Voigt Hill
#
# Bulk Modulus (GPa) = 38.24161 49.00265 43.62213
# Shear Modulus (GPa) = 27.49639 32.84487 30.17063
#
# Velocity S-wave (km/s) = 3.62903 3.96631 3.80141
# Velocity P-wave (km/s) = 5.98968 6.66679 6.33729
#
# Compressibility (1/GPa) = 0.02614953
#
# Stress axis : x y z
#
# Youngs Moduli (GPa) = 78.34962 63.74889 62.02682
#
# Poissons Ratio (x) = 0.11618 0.32442
# Poissons Ratio (y) = 0.14280 0.13388
# Poissons Ratio (z) = 0.40979 0.13760
#
# Static dielectric constant tensor:
#      x y z
#    x 1.842690 0.000000 0.044260 
#    y 0.000000 1.766320 0.000000 
#    z 0.044260 0.000000 1.831680 
# 
# From -- ./inp_files/12411.got.cif
#   From: 2010.05.17/outbox.cif.g08.bks.cpg/sg12_7_cif.got.tgz:12411.got - 2010.06.03 13:09:07.
