data_PCOD9203390
_publ_section_title
;
Structure prediction by ZEFSAII (Michael W. Deem and Ramdas Pophale) SiO2 
 PCOD9203390
Probable space group: C 2/M
;
_chemical_formula_sum "Si O2"
_cell_formula_units_Z 52
_cell_length_a 28.413763
_cell_length_b 19.159055
_cell_length_c 9.010523
_cell_angle_alpha 90.000000
_cell_angle_beta 150.229180
_cell_angle_gamma 90.000000
_cell_volume 2435.566773
_symmetry_space_group_name_H-M "C 2/M"
_symmetry_group_IT_number 12
_symmetry_cell_setting 'monoclinic'
loop_
_space_group_symop_operation_xyz
x,y,z
-x,y,-z
-x,-y,-z
x,-y,z
1/2+x,1/2+y,z
1/2-x,1/2+y,-z
1/2-x,1/2-y,-z
1/2+x,1/2-y,z
loop_
_atom_site_type_symbol
_atom_site_label
_atom_site_fract_x
_atom_site_fract_y
_atom_site_fract_z
Si Si1 0.224115 0.707305 0.151085
Si Si2 0.739979 0.358174 0.067827
Si Si3 0.613305 0.500000 0.290693
Si Si4 0.899991 0.846285 0.814909
Si Si5 0.288709 0.500000 0.119684
Si Si6 0.943543 0.500000 0.499071
Si Si7 0.054075 0.633854 0.301381
Si Si8 0.543151 0.754080 0.777502
O O1 0.204814 0.786265 0.041585
O O2 0.319678 0.697196 0.506626
O O3 0.232616 0.660684 0.027670
O O4 0.131189 0.692911 0.993573
O O5 0.834385 0.373889 0.418038
O O6 0.683662 0.429904 0.894279
O O7 0.635426 0.426241 0.273892
O O8 0.662230 0.500000 0.585900
O O9 0.500000 0.500000 0.000000
O O10 0.920469 0.810957 0.028070
O O11 0.000000 0.844766 0.000000
O O12 0.172992 0.500000 0.827528
O O13 0.972617 0.568529 0.669854
O O14 0.000000 0.500000 0.500000
O O15 0.034001 0.704861 0.336051
O O16 0.000000 0.635781 0.000000
O O17 0.500000 0.736990 0.500000
#
# Coordination Sequence:
#
# PCOD9203390 Si02
#       8
#     8   8   4   8   4   4   8   8
#     4  11  22  38  62  91 124 157 209 261 306 371
#     4  10  21  37  62  91 121 165 207 252 311 373
#     4  10  22  38  61  86 111 158 213 254 301 366
#     4  11  24  42  64  89 120 162 208 261 314 370
#     4  10  20  39  62  88 126 160 205 251 310 375
#     4  10  23  37  64  98 127 168 205 245 310 384
#     4  11  22  40  61  92 133 168 203 251 311 380
#     4  12  24  38  62  94 126 160 206 259 315 374
#
# _framework density 21.350266999999999
#
# number of rings (size 3 to 8) (size 9 to 14) (size 15 to 20)
#    0.000    1.231    3.077    3.462    4.308    0.000 
#    0.000    1.154    0.000    1.846    0.000    0.000 
#    0.000    0.000    0.000    0.000    0.000    0.000 
#
# Total GULP energy -145251.773922 kJ/mol
# GULP energy per Si atom -5586.606689 kJ/mol
# Density = 2.130167 g / cm^3
# Si number density = 21.350267 Si / 1000 Ang^3
#
#
#
# Elastic Constant Matrix: (Units=GPa)
#
#
# Indices 1 2 3 4 5 6 
#
# 1 38.1815 4.4742 26.9683 0.0000 -13.6560 0.0000
# 2 4.4742 145.0535 37.8384 0.0000 -25.5775 0.0000
# 3 26.9683 37.8384 155.6223 0.0000 -34.6760 0.0000
# 4 0.0000 0.0000 0.0000 29.5781 0.0000 -5.4263
# 5 -13.6560 -25.5775 -34.6760 0.0000 39.6700 0.0000
# 6 0.0000 0.0000 0.0000 -5.4263 0.0000 5.4518
#
#
#
# Elastic Compliance Matrix: (Units=1/GPa)
#
#
# Indices 1 2 3 4 5 6 
#
# 1 0.031872 0.001557 -0.004016 0.000000 0.008466 0.000000
# 2 0.001557 0.007972 -0.001172 0.000000 0.004652 0.000000
# 3 -0.004016 -0.001172 0.008607 0.000000 0.005385 0.000000
# 4 0.000000 0.000000 0.000000 0.041361 0.000000 0.041168
# 5 0.008466 0.004652 0.005385 0.000000 0.035829 0.000000
# 6 0.000000 0.000000 0.000000 0.041168 0.000000 0.224402
#
#
# Mechanical properties :
#
#
# Convention : Reuss Voigt Hill
#
# Bulk Modulus (GPa) = 24.27733 53.04657 38.66195
# Shear Modulus (GPa) = 13.47587 32.91173 23.19380
#
# Velocity S-wave (km/s) = 2.51506 3.93047 3.29955
# Velocity P-wave (km/s) = 4.45305 6.74522 5.71523
#
# Compressibility (1/GPa) = 0.04119069
#
# Stress axis : x y z
#
# Youngs Moduli (GPa) = 31.37520 125.44116 116.19100
#
# Poissons Ratio (x) = -0.19533 0.46657
# Poissons Ratio (y) = -0.04886 0.13613
# Poissons Ratio (z) = 0.12599 0.14697
#
# Static dielectric constant tensor:
#      x y z
#    x 1.833190 0.000000 0.056440 
#    y 0.000000 1.814900 0.000000 
#    z 0.056440 0.000000 1.754500 
# 
# From -- ./inp_files/113325.got.cif
#   From: 2010.05.17/outbox.cif.g08.bks.cpg/sg12_57_cif.got.tgz:113325.got - 2010.06.03 13:09:07.
