data_PCOD9203673
_publ_section_title
;
Structure prediction by ZEFSAII (Michael W. Deem and Ramdas Pophale) SiO2 
 PCOD9203673
Probable space group: C 2/M
;
_chemical_formula_sum "Si O2"
_cell_formula_units_Z 58
_cell_length_a 24.228050
_cell_length_b 7.549312
_cell_length_c 12.527765
_cell_angle_alpha 90.000000
_cell_angle_beta 97.786377
_cell_angle_gamma 90.000000
_cell_volume 2270.265767
_symmetry_space_group_name_H-M "C 2/M"
_symmetry_group_IT_number 12
_symmetry_cell_setting 'monoclinic'
loop_
_space_group_symop_operation_xyz
x,y,z
-x,y,-z
-x,-y,-z
x,-y,z
1/2+x,1/2+y,z
1/2-x,1/2+y,-z
1/2-x,1/2-y,-z
1/2+x,1/2-y,z
loop_
_atom_site_type_symbol
_atom_site_label
_atom_site_fract_x
_atom_site_fract_y
_atom_site_fract_z
Si Si1 0.371716 0.790186 0.013752
Si Si2 0.501144 0.795476 0.349443
Si Si3 0.184553 0.211509 0.459143
Si Si4 0.668009 0.287423 0.215695
Si Si5 0.011002 0.797042 0.887192
Si Si6 0.284650 0.216441 0.152780
Si Si7 0.876687 0.295624 0.343683
Si Si8 0.500000 0.500000 0.500000
O O1 0.376039 0.752888 0.888959
O O2 0.374806 0.000000 0.030361
O O3 0.421736 0.707763 0.094281
O O4 0.312812 0.727282 0.048723
O O5 0.512549 0.785835 0.226534
O O6 0.437756 0.717654 0.344832
O O7 0.530547 0.656504 0.433414
O O8 0.506597 0.000000 0.383999
O O9 0.250000 0.250000 0.500000
O O10 0.165569 0.277016 0.336776
O O11 0.147978 0.288452 0.544830
O O12 0.178557 0.000000 0.460414
O O13 0.670731 0.500000 0.223824
O O14 0.725457 0.218158 0.178221
O O15 0.991486 0.000000 0.884316
O O16 0.000000 0.712026 0.000000
O O17 0.329421 0.274473 0.253201
O O18 0.281301 0.000000 0.151912
O O19 0.885221 0.500000 0.314292
#
# Coordination Sequence:
#
# PCOD9203673 Si02
#       8
#     8   8   8   8   8   8   8   2
#     4  11  22  38  62  93 126 163 213 271 327 395
#     4  11  24  46  75 104 137 179 227 284 348 419
#     4  11  22  36  58  85 124 173 221 267 321 390
#     4  10  21  38  55  84 128 172 211 262 321 380
#     4  11  24  45  72 100 132 174 225 283 349 423
#     4   9  17  34  60  86 123 163 203 259 320 378
#     4  10  20  39  65  92 125 166 217 271 322 393
#     4  12  26  48  74 106 144 172 226 294 344 418
#
# _framework density 25.54767
#
# number of rings (size 3 to 8) (size 9 to 14) (size 15 to 20)
#    0.000    1.517    3.448    1.862    0.966    2.207 
#    2.483    0.690    0.000    0.000    0.000    0.000 
#    0.000    0.000    0.000    0.000    0.000    0.000 
#
# Total GULP energy -161983.849008 kJ/mol
# GULP energy per Si atom -5585.649966 kJ/mol
# Density = 2.548952 g / cm^3
# Si number density = 25.547670 Si / 1000 Ang^3
#
#
#
# Elastic Constant Matrix: (Units=GPa)
#
#
# Indices 1 2 3 4 5 6 
#
# 1 43.3425 -8.9299 3.9657 0.0000 -7.3986 0.0000
# 2 -8.9299 118.4005 18.5424 0.0000 2.5462 0.0000
# 3 3.9657 18.5424 214.5752 0.0000 -5.0325 0.0000
# 4 0.0000 0.0000 0.0000 23.8387 0.0000 -5.5076
# 5 -7.3986 2.5462 -5.0325 0.0000 41.4291 0.0000
# 6 0.0000 0.0000 0.0000 -5.5076 0.0000 -6.5826
#
#
#
# Elastic Compliance Matrix: (Units=1/GPa)
#
#
# Indices 1 2 3 4 5 6 
#
# 1 0.024201 0.001815 -0.000507 0.000000 0.004149 0.000000
# 2 0.001815 0.008714 -0.000794 0.000000 -0.000308 0.000000
# 3 -0.000507 -0.000794 0.004751 0.000000 0.000535 0.000000
# 4 0.000000 0.000000 0.000000 0.035153 0.000000 -0.029412
# 5 0.004149 -0.000308 0.000535 0.000000 0.024962 0.000000
# 6 0.000000 0.000000 0.000000 -0.029412 0.000000 -0.127307
#
#
# Mechanical properties :
#
#
# Convention : Reuss Voigt Hill
#
# Bulk Modulus (GPa) = 25.84325 44.83053 35.33689
# Shear Modulus (GPa) = -283.16714 35.91972 -123.62371
#
# Velocity S-wave (km/s) = -10.53942 3.75372 -6.96380
# Velocity P-wave (km/s) = 11.74598 6.03101 7.12724
#
# Compressibility (1/GPa) = 0.03869482
#
# Stress axis : x y z
#
# Youngs Moduli (GPa) = 41.32125 114.76107 210.48705
#
# Poissons Ratio (x) = -0.20834 0.10668
# Poissons Ratio (y) = -0.07501 0.16708
# Poissons Ratio (z) = 0.02094 0.09109
#
# Static dielectric constant tensor:
#      x y z
#    x 2.105320 0.000000 0.041100 
#    y 0.000000 1.961020 0.000000 
#    z 0.041100 0.000000 2.081250 
# 
# From -- ./inp_files/180944.got.cif
#   From: 2010.05.17/outbox.cif.g08.bks.cpg/sg12_91_cif.got.tgz:180944.got - 2010.06.03 13:09:07.
