data_PCOD9203958
_publ_section_title
;
Structure prediction by ZEFSAII (Michael W. Deem and Ramdas Pophale) SiO2 
 PCOD9203958
Probable space group: C 2/M
;
_chemical_formula_sum "Si O2"
_cell_formula_units_Z 56
_cell_length_a 19.508176
_cell_length_b 27.946469
_cell_length_c 9.993443
_cell_angle_alpha 90.000000
_cell_angle_beta 145.938181
_cell_angle_gamma 90.000000
_cell_volume 3051.506434
_symmetry_space_group_name_H-M "C 2/M"
_symmetry_group_IT_number 12
_symmetry_cell_setting 'monoclinic'
loop_
_space_group_symop_operation_xyz
x,y,z
-x,y,-z
-x,-y,-z
x,-y,z
1/2+x,1/2+y,z
1/2-x,1/2+y,-z
1/2-x,1/2-y,-z
1/2+x,1/2-y,z
loop_
_atom_site_type_symbol
_atom_site_label
_atom_site_fract_x
_atom_site_fract_y
_atom_site_fract_z
Si Si1 0.390412 0.500000 0.433097
Si Si2 0.071169 0.812055 0.822917
Si Si3 0.938057 0.284859 0.043699
Si Si4 0.314665 0.315557 0.264526
Si Si5 0.024199 0.369627 0.378785
Si Si6 0.068729 0.000000 0.974580
Si Si7 0.285416 0.079932 0.957218
Si Si8 0.215716 0.907022 0.141937
O O1 0.500000 0.500000 0.500000
O O2 0.467557 0.500000 0.693203
O O3 0.297027 0.544098 0.261269
O O4 0.048309 0.770064 0.890895
O O5 0.155277 0.793814 0.833718
O O6 0.940264 0.821352 0.545601
O O7 0.130133 0.860720 0.975246
O O8 0.995358 0.321841 0.246205
O O9 0.791358 0.292084 0.818569
O O10 0.000000 0.293947 0.000000
O O11 0.266336 0.367829 0.153616
O O12 0.163159 0.386988 0.590490
O O13 0.000000 0.360918 0.500000
O O14 0.931039 0.411614 0.179618
O O15 0.147075 0.951280 0.096272
O O16 0.000000 0.000000 0.000000
O O17 0.259285 0.070801 0.070524
#
# Coordination Sequence:
#
# PCOD9203958 Si02
#       8
#     4   8   8   8   8   4   8   8
#     4  12  20  35  69  87 123 150 200 256 297 350
#     4  10  21  35  64  88 115 160 208 254 307 358
#     4  11  24  39  56  88 124 163 205 250 307 369
#     4   9  20  37  58  86 119 152 208 254 296 369
#     4   9  21  40  64  87 122 156 203 250 303 364
#     4  12  26  41  57  93 125 160 194 241 307 368
#     4   9  18  36  63  95 109 149 202 255 300 349
#     4  10  20  40  62  88 121 153 198 253 304 355
#
# _framework density 18.351592
#
# number of rings (size 3 to 8) (size 9 to 14) (size 15 to 20)
#    0.000    2.000    1.429    2.143    6.000    1.714 
#    7.714    2.143    0.000    0.857    0.000    0.000 
#    0.000    0.000    0.000    0.000    0.000    0.000 
#
# Total GULP energy -155990.303105 kJ/mol
# GULP energy per Si atom -5571.082254 kJ/mol
# Density = 1.830982 g / cm^3
# Si number density = 18.351592 Si / 1000 Ang^3
#
#
#
# Elastic Constant Matrix: (Units=GPa)
#
#
# Indices 1 2 3 4 5 6 
#
# 1 106.2944 42.7992 53.9731 0.0000 2.7633 0.0000
# 2 42.7992 63.3171 53.2757 0.0000 7.5096 0.0000
# 3 53.9731 53.2757 119.4311 0.0000 19.5238 0.0000
# 4 0.0000 0.0000 0.0000 94.9274 0.0000 63.1648
# 5 2.7633 7.5096 19.5238 0.0000 21.6654 0.0000
# 6 0.0000 0.0000 0.0000 63.1648 0.0000 34.9644
#
#
#
# Elastic Compliance Matrix: (Units=1/GPa)
#
#
# Indices 1 2 3 4 5 6 
#
# 1 0.014005 -0.006503 -0.004110 0.000000 0.004172 0.000000
# 2 -0.006503 0.028353 -0.009661 0.000000 -0.000292 0.000000
# 3 -0.004110 -0.009661 0.016310 0.000000 -0.010824 0.000000
# 4 0.000000 0.000000 0.000000 -0.052130 0.000000 0.094175
# 5 0.004172 -0.000292 -0.010824 0.000000 0.055480 0.000000
# 6 0.000000 0.000000 0.000000 0.094175 0.000000 -0.141532
#
#
# Mechanical properties :
#
#
# Convention : Reuss Voigt Hill
#
# Bulk Modulus (GPa) = 55.19118 65.45987 60.32553
# Shear Modulus (GPa) = -151.85212 39.57776 -56.13718
#
# Velocity S-wave (km/s) = -9.10635 4.64900 -5.53681
# Velocity P-wave (km/s) = 8.96816 8.03523 2.81629
#
# Compressibility (1/GPa) = 0.01811884
#
# Stress axis : x y z
#
# Youngs Moduli (GPa) = 71.40409 35.27000 61.31376
#
# Poissons Ratio (x) = 0.22936 0.25201
# Poissons Ratio (y) = 0.46434 0.59235
# Poissons Ratio (z) = 0.29348 0.34074
#
# Static dielectric constant tensor:
#      x y z
#    x 1.649160 0.000000 0.016100 
#    y 0.000000 1.572780 0.000000 
#    z 0.016100 0.000000 1.643250 
# 
# From -- ./inp_files/80159.got.cif
#   From: 2010.05.17/outbox.cif.g08.bks.cpg/sg12_41_cif.got.tgz:80159.got - 2010.06.03 13:09:07.
