data_PCOD9203111
_publ_section_title
;
Structure prediction by ZEFSAII (Michael W. Deem and Ramdas Pophale) SiO2 
 PCOD9203111
Probable space group: C 2/M
;
_chemical_formula_sum "Si O2"
_cell_formula_units_Z 44
_cell_length_a 10.111819
_cell_length_b 28.448345
_cell_length_c 7.440186
_cell_angle_alpha 90.000000
_cell_angle_beta 56.648648
_cell_angle_gamma 90.000000
_cell_volume 1787.805810
_symmetry_space_group_name_H-M "C 2/M"
_symmetry_group_IT_number 12
_symmetry_cell_setting 'monoclinic'
loop_
_space_group_symop_operation_xyz
x,y,z
-x,y,-z
-x,-y,-z
x,-y,z
1/2+x,1/2+y,z
1/2-x,1/2+y,-z
1/2-x,1/2-y,-z
1/2+x,1/2-y,z
loop_
_atom_site_type_symbol
_atom_site_label
_atom_site_fract_x
_atom_site_fract_y
_atom_site_fract_z
Si Si1 0.106650 0.448677 0.602354
Si Si2 0.500000 0.706224 0.000000
Si Si3 0.963613 0.354313 0.739920
Si Si4 0.800415 0.280235 0.291867
Si Si5 0.632527 0.646150 0.182030
Si Si6 0.523458 0.553253 0.767212
O O1 0.087608 0.500000 0.704684
O O2 0.290074 0.442674 0.412821
O O3 0.000000 0.450087 0.500000
O O4 0.046777 0.402291 0.746192
O O5 0.650855 0.740463 0.887820
O O6 0.503569 0.672965 0.825824
O O7 0.000000 0.351191 0.500000
O O8 0.045762 0.309762 0.766910
O O9 0.782111 0.356393 0.934150
O O10 0.750000 0.250000 0.500000
O O11 0.682476 0.319593 0.305160
O O12 0.576003 0.593393 0.257759
O O13 0.472622 0.500000 0.759271
O O14 0.500000 0.559451 0.000000
#
# Coordination Sequence:
#
# PCOD9203111 Si02
#       6
#     8   4   8   8   8   8
#     4   9  19  36  62  98 138 182 233 287 350 429
#     4  12  26  46  69 100 141 184 232 308 354 434
#     4  11  23  42  68  99 136 183 242 295 361 432
#     4  12  28  46  69 100 139 190 239 302 365 433
#     4  12  25  45  69 105 145 184 245 299 359 435
#     4  10  20  38  67 107 147 188 237 295 363 431
#
# _framework density 24.611174999999999
#
# number of rings (size 3 to 8) (size 9 to 14) (size 15 to 20)
#    0.000    1.091    2.727    3.818    5.091    2.182 
#    0.000    0.909    0.000    4.364    0.000    0.000 
#    0.000    0.000    0.000    0.000    0.000    0.000 
#
# Total GULP energy -123201.119532 kJ/mol
# GULP energy per Si atom -5600.050888 kJ/mol
# Density = 2.455516 g / cm^3
# Si number density = 24.611175 Si / 1000 Ang^3
#
#
#
# Elastic Constant Matrix: (Units=GPa)
#
#
# Indices 1 2 3 4 5 6 
#
# 1 75.6804 47.1807 37.5004 0.0000 -3.7883 0.0000
# 2 47.1807 211.0791 64.0410 0.0000 -9.0224 0.0000
# 3 37.5004 64.0410 101.6632 0.0000 3.1775 0.0000
# 4 0.0000 0.0000 0.0000 -10.8684 0.0000 -19.7626
# 5 -3.7883 -9.0224 3.1775 0.0000 36.1663 0.0000
# 6 0.0000 0.0000 0.0000 -19.7626 0.0000 42.2217
#
#
#
# Elastic Compliance Matrix: (Units=1/GPa)
#
#
# Indices 1 2 3 4 5 6 
#
# 1 0.017164 -0.002260 -0.004959 0.000000 0.001670 0.000000
# 2 -0.002260 0.006273 -0.003168 0.000000 0.001606 0.000000
# 3 -0.004959 -0.003168 0.013740 0.000000 -0.002517 0.000000
# 4 0.000000 0.000000 0.000000 -0.049705 0.000000 -0.023265
# 5 0.001670 0.001606 -0.002517 0.000000 0.028447 0.000000
# 6 0.000000 0.000000 0.000000 -0.023265 0.000000 0.012795
#
#
# Mechanical properties :
#
#
# Convention : Reuss Voigt Hill
#
# Bulk Modulus (GPa) = 60.97172 76.20741 68.58957
# Shear Modulus (GPa) = 90.98430 29.48396 60.23413
#
# Velocity S-wave (km/s) = 6.08678 3.46496 4.95252
# Velocity P-wave (km/s) = 8.61547 6.85855 7.78672
#
# Compressibility (1/GPa) = 0.01640105
#
# Stress axis : x y z
#
# Youngs Moduli (GPa) = 58.26257 159.42511 72.78084
#
# Poissons Ratio (x) = 0.36036 0.36095
# Poissons Ratio (y) = 0.13170 0.23055
# Poissons Ratio (z) = 0.28895 0.50501
#
# Static dielectric constant tensor:
#      x y z
#    x 2.111710 0.000000 0.210090 
#    y 0.000000 1.951250 0.000000 
#    z 0.210090 0.000000 2.203840 
# 
# From -- ./inp_files/149403.got.cif
#   From: 2010.05.17/outbox.cif.g08.bks.cpg/sg12_75_cif.got.tgz:149403.got - 2010.06.03 13:09:07.
