data_PCOD9203533
_publ_section_title
;
Structure prediction by ZEFSAII (Michael W. Deem and Ramdas Pophale) SiO2 
 PCOD9203533
Probable space group: C 2/M
;
_chemical_formula_sum "Si O2"
_cell_formula_units_Z 48
_cell_length_a 9.746138
_cell_length_b 30.351576
_cell_length_c 18.777164
_cell_angle_alpha 90.000000
_cell_angle_beta 27.586040
_cell_angle_gamma 90.000000
_cell_volume 2572.171493
_symmetry_space_group_name_H-M "C 2/M"
_symmetry_group_IT_number 12
_symmetry_cell_setting 'monoclinic'
loop_
_space_group_symop_operation_xyz
x,y,z
-x,y,-z
-x,-y,-z
x,-y,z
1/2+x,1/2+y,z
1/2-x,1/2+y,-z
1/2-x,1/2-y,-z
1/2+x,1/2-y,z
loop_
_atom_site_type_symbol
_atom_site_label
_atom_site_fract_x
_atom_site_fract_y
_atom_site_fract_z
Si Si1 0.783013 0.281127 0.818715
Si Si2 0.156390 0.369252 0.639124
Si Si3 0.213152 0.210438 0.680800
Si Si4 0.326229 0.110236 0.647258
Si Si5 0.258727 0.449159 0.931927
Si Si6 0.849303 0.451068 0.854875
O O1 0.730831 0.278403 0.757207
O O2 0.991501 0.323786 0.734033
O O3 0.945516 0.237160 0.769887
O O4 0.500000 0.287385 0.000000
O O5 0.500000 0.364963 0.500000
O O6 0.062782 0.379266 0.600584
O O7 0.026371 0.411063 0.740483
O O8 0.500000 0.222109 0.500000
O O9 0.189899 0.157584 0.688160
O O10 0.500000 0.091218 0.500000
O O11 0.058968 0.078912 0.793560
O O12 0.324582 0.500000 0.881105
O O13 0.126211 0.449813 0.071744
O O14 0.000000 0.431596 0.000000
O O15 0.938427 0.500000 0.787524
O O16 0.500000 0.446024 0.000000
#
# Coordination Sequence:
#
# PCOD9203533 Si02
#       6
#     8   8   8   8   8   8
#     4  11  23  40  63  91 122 158 205 256 302 361
#     4  11  24  39  61  89 121 161 203 249 303 357
#     4  10  22  41  61  87 124 161 200 248 306 365
#     4  10  23  40  59  89 124 159 199 247 300 359
#     4  10  22  40  62  89 121 159 199 245 304 359
#     4  10  20  39  64  87 118 158 202 251 297 353
#
# _framework density 18.661275
#
# number of rings (size 3 to 8) (size 9 to 14) (size 15 to 20)
#    0.000    1.667    1.667    2.000    4.667    4.000 
#    0.000    0.000    0.000    0.000    0.000    0.000 
#    0.000    0.000    0.000    0.000    0.000    0.000 
#
# Total GULP energy -133918.926863 kJ/mol
# GULP energy per Si atom -5579.955286 kJ/mol
# Density = 1.861880 g / cm^3
# Si number density = 18.661275 Si / 1000 Ang^3
#
#
#
# Elastic Constant Matrix: (Units=GPa)
#
#
# Indices 1 2 3 4 5 6 
#
# 1 67.4026 4.6245 22.2449 0.0000 4.7671 0.0000
# 2 4.6245 43.5910 16.2638 0.0001 4.2327 0.0000
# 3 22.2449 16.2638 73.2376 -0.0003 10.3323 0.0000
# 4 0.0000 0.0001 -0.0003 50.6381 0.0001 -8.0087
# 5 4.7671 4.2327 10.3323 0.0001 29.3175 0.0000
# 6 0.0000 0.0000 0.0000 -8.0087 0.0000 31.5595
#
#
#
# Elastic Compliance Matrix: (Units=1/GPa)
#
#
# Indices 1 2 3 4 5 6 
#
# 1 0.016516 0.000178 -0.004918 0.000000 -0.000978 0.000000
# 2 0.000178 0.025100 -0.005380 0.000000 -0.001757 0.000000
# 3 -0.004918 -0.005380 0.016964 0.000000 -0.004402 0.000000
# 4 0.000000 0.000000 0.000000 0.020574 0.000000 0.005221
# 5 -0.000978 -0.001757 -0.004402 0.000000 0.036073 0.000000
# 6 0.000000 0.000000 0.000000 0.005221 0.000000 0.033011
#
#
# Mechanical properties :
#
#
# Convention : Reuss Voigt Hill
#
# Bulk Modulus (GPa) = 26.08318 30.05527 28.06923
# Shear Modulus (GPa) = 27.58498 31.70954 29.64726
#
# Velocity S-wave (km/s) = 3.84890 4.12663 3.99018
# Velocity P-wave (km/s) = 5.81030 6.23266 6.02518
#
# Compressibility (1/GPa) = 0.03833888
#
# Stress axis : x y z
#
# Youngs Moduli (GPa) = 60.54617 39.84142 58.94924
#
# Poissons Ratio (x) = -0.00708 0.28992
# Poissons Ratio (y) = -0.01076 0.31715
# Poissons Ratio (z) = 0.29777 0.21435
#
# Static dielectric constant tensor:
#      x y z
#    x 1.657970 0.000000 0.029010 
#    y 0.000000 1.632230 0.000000 
#    z 0.029010 0.000000 1.613400 
# 
# From -- ./inp_files/80828.got.cif
#   From: 2010.05.17/outbox.cif.g08.bks.cpg/sg12_41_cif.got.tgz:80828.got - 2010.06.03 13:09:07.
