data_PCOD9203688
_publ_section_title
;
Structure prediction by ZEFSAII (Michael W. Deem and Ramdas Pophale) SiO2 
 PCOD9203688
Probable space group: C 2/M
;
_chemical_formula_sum "Si O2"
_cell_formula_units_Z 42
_cell_length_a 17.612080
_cell_length_b 14.868352
_cell_length_c 8.701143
_cell_angle_alpha 90.000000
_cell_angle_beta 116.054042
_cell_angle_gamma 90.000000
_cell_volume 2046.962786
_symmetry_space_group_name_H-M "C 2/M"
_symmetry_group_IT_number 12
_symmetry_cell_setting 'monoclinic'
loop_
_space_group_symop_operation_xyz
x,y,z
-x,y,-z
-x,-y,-z
x,-y,z
1/2+x,1/2+y,z
1/2-x,1/2+y,-z
1/2-x,1/2-y,-z
1/2+x,1/2-y,z
loop_
_atom_site_type_symbol
_atom_site_label
_atom_site_fract_x
_atom_site_fract_y
_atom_site_fract_z
Si Si1 0.500000 0.500000 0.000000
Si Si2 0.297727 0.223264 0.198680
Si Si3 0.362655 0.355217 0.782432
Si Si4 0.797332 0.900037 0.397939
Si Si5 0.607248 0.854179 0.213989
Si Si6 0.568305 0.099667 0.826028
O O1 0.425448 0.420904 0.926994
O O2 0.230510 0.160313 0.228018
O O3 0.316195 0.315139 0.306419
O O4 0.382522 0.171794 0.230371
O O5 0.250000 0.250000 0.000000
O O6 0.351138 0.392425 0.600300
O O7 0.397328 0.253532 0.801545
O O8 0.698642 0.885414 0.350984
O O9 0.808175 0.000000 0.339062
O O10 0.531979 0.887587 0.253781
O O11 0.596485 0.889604 0.029979
O O12 0.590214 0.000000 0.792912
#
# Coordination Sequence:
#
# PCOD9203688 Si02
#       6
#     2   8   8   8   8   8
#     4  12  24  44  72  94 124 184 244 270 324 420
#     4  11  23  40  66 101 136 173 220 287 339 396
#     4  11  24  43  67  94 132 180 232 275 336 410
#     4  11  22  44  67  97 132 183 229 277 339 403
#     4  10  20  39  65  94 134 174 220 275 332 404
#     4  11  21  36  64 102 130 172 221 271 337 399
#
# _framework density 20.518203
#
# number of rings (size 3 to 8) (size 9 to 14) (size 15 to 20)
#    0.000    1.143    4.762    5.714    1.333    0.000 
#    0.000    3.810    0.000    8.000    0.000    0.000 
#    0.000    0.000    0.000    0.000    0.000    0.000 
#
# Total GULP energy -117081.504566 kJ/mol
# GULP energy per Si atom -5575.309741 kJ/mol
# Density = 2.047150 g / cm^3
# Si number density = 20.518203 Si / 1000 Ang^3
#
#
#
# Elastic Constant Matrix: (Units=GPa)
#
#
# Indices 1 2 3 4 5 6 
#
# 1 98.0196 64.9622 19.1055 0.0000 -7.1438 0.0000
# 2 64.9622 163.0319 11.0391 0.0000 -4.1407 0.0000
# 3 19.1055 11.0391 17.3117 0.0000 -9.4139 0.0000
# 4 0.0000 0.0000 0.0000 37.9669 0.0000 13.6920
# 5 -7.1438 -4.1407 -9.4139 0.0000 16.9631 0.0000
# 6 0.0000 0.0000 0.0000 13.6920 0.0000 15.9767
#
#
#
# Elastic Compliance Matrix: (Units=1/GPa)
#
#
# Indices 1 2 3 4 5 6 
#
# 1 0.017095 -0.005739 -0.017263 0.000000 -0.003782 0.000000
# 2 -0.005739 0.008349 0.001151 0.000000 0.000260 0.000000
# 3 -0.017263 0.001151 0.103523 0.000000 0.050462 0.000000
# 4 0.000000 0.000000 0.000000 0.038120 0.000000 -0.032669
# 5 -0.003782 0.000260 0.050462 0.000000 0.085427 0.000000
# 6 0.000000 0.000000 0.000000 -0.032669 0.000000 0.090588
#
#
# Mechanical properties :
#
#
# Convention : Reuss Voigt Hill
#
# Bulk Modulus (GPa) = 11.72817 52.06406 31.89611
# Shear Modulus (GPa) = 12.04163 26.39844 19.22004
#
# Velocity S-wave (km/s) = 2.42518 3.59079 3.06393
# Velocity P-wave (km/s) = 3.68380 6.52851 5.30055
#
# Compressibility (1/GPa) = 0.08526483
#
# Stress axis : x y z
#
# Youngs Moduli (GPa) = 58.49825 119.77322 9.65965
#
# Poissons Ratio (x) = 0.68734 0.16676
# Poissons Ratio (y) = 0.33570 -0.01112
# Poissons Ratio (z) = 1.00986 -0.13782
#
# Static dielectric constant tensor:
#      x y z
#    x 1.723770 0.000000 0.008730 
#    y 0.000000 1.734870 0.000000 
#    z 0.008730 0.000000 1.754650 
# 
# From -- ./inp_files/73747.got.cif
#   From: 2010.05.17/outbox.cif.g08.bks.cpg/sg12_37_cif.got.tgz:73747.got - 2010.06.03 13:09:07.
