data_PCOD9203035
_publ_section_title
;
Structure prediction by ZEFSAII (Michael W. Deem and Ramdas Pophale) SiO2 
 PCOD9203035
Probable space group: C 2/M
;
_chemical_formula_sum "Si O2"
_cell_formula_units_Z 64
_cell_length_a 30.894142
_cell_length_b 8.563333
_cell_length_c 18.151600
_cell_angle_alpha 90.000000
_cell_angle_beta 136.424654
_cell_angle_gamma 90.000000
_cell_volume 3310.145796
_symmetry_space_group_name_H-M "C 2/M"
_symmetry_group_IT_number 12
_symmetry_cell_setting 'monoclinic'
loop_
_space_group_symop_operation_xyz
x,y,z
-x,y,-z
-x,-y,-z
x,-y,z
1/2+x,1/2+y,z
1/2-x,1/2+y,-z
1/2-x,1/2-y,-z
1/2+x,1/2-y,z
loop_
_atom_site_type_symbol
_atom_site_label
_atom_site_fract_x
_atom_site_fract_y
_atom_site_fract_z
Si Si1 0.108836 0.323078 0.694707
Si Si2 0.368695 0.818617 0.994682
Si Si3 0.247532 0.821208 0.077383
Si Si4 0.311701 0.811526 0.617102
Si Si5 0.049377 0.184145 0.770269
Si Si6 0.410693 0.186558 0.618460
Si Si7 0.342736 0.313559 0.391020
Si Si8 0.302031 0.809507 0.774168
O O1 0.087122 0.500000 0.653668
O O2 0.181976 0.326162 0.807286
O O3 0.073313 0.257534 0.722512
O O4 0.112466 0.228885 0.622763
O O5 0.297719 0.795078 0.935532
O O6 0.357734 0.756322 0.898013
O O7 0.386847 0.000000 0.014730
O O8 0.411167 0.739166 0.109396
O O9 0.222703 0.000000 0.048004
O O10 0.250000 0.750000 0.000000
O O11 0.250000 0.750000 0.500000
O O12 0.372123 0.765368 0.643658
O O13 0.312802 0.759859 0.703304
O O14 0.308748 0.000000 0.613548
O O15 0.977770 0.232747 0.694744
O O16 0.056015 0.000000 0.771443
O O17 0.369545 0.233498 0.497012
O O18 0.419353 0.000000 0.630440
O O19 0.342461 0.500000 0.400232
O O20 0.269462 0.262378 0.291930
O O21 0.303083 0.000000 0.778431
#
# Coordination Sequence:
#
# PCOD9203035 Si02
#       8
#     8   8   8   8   8   8   8   8
#     4  11  23  38  58  88 125 161 205 253 301 356
#     4  11  21  37  60  87 122 162 203 251 302 357
#     4  11  21  32  53  83 118 156 200 250 298 351
#     4  10  20  38  65  96 124 155 196 247 305 364
#     4  12  26  43  62  84 118 166 213 252 301 363
#     4  11  24  42  64  90 122 160 204 251 305 367
#     4  11  21  37  62  92 127 161 200 248 302 362
#     4   9  19  35  60  94 127 156 193 244 303 360
#
# _framework density 19.334495
#
# number of rings (size 3 to 8) (size 9 to 14) (size 15 to 20)
#    0.000    1.250    3.750    3.000    0.000    2.000 
#    0.000    4.375    0.000    3.750    0.000    0.000 
#    0.000    0.000    0.000    0.000    0.000    0.000 
#
# Total GULP energy -178581.257674 kJ/mol
# GULP energy per Si atom -5580.664302 kJ/mol
# Density = 1.929049 g / cm^3
# Si number density = 19.334495 Si / 1000 Ang^3
#
#
#
# Elastic Constant Matrix: (Units=GPa)
#
#
# Indices 1 2 3 4 5 6 
#
# 1 103.9440 5.6917 39.8205 0.0000 -15.5840 0.0000
# 2 5.6917 33.0067 -5.3775 0.0000 1.4071 0.0000
# 3 39.8205 -5.3775 50.4323 0.0000 -10.3522 0.0000
# 4 0.0000 0.0000 0.0000 25.7255 0.0000 3.6445
# 5 -15.5840 1.4071 -10.3522 0.0000 36.8962 0.0000
# 6 0.0000 0.0000 0.0000 3.6445 0.0000 20.2971
#
#
#
# Elastic Compliance Matrix: (Units=1/GPa)
#
#
# Indices 1 2 3 4 5 6 
#
# 1 0.014741 -0.004546 -0.011471 0.000000 0.003181 0.000000
# 2 -0.004546 0.032237 0.006771 0.000000 -0.001250 0.000000
# 3 -0.011471 0.006771 0.030306 0.000000 0.003400 0.000000
# 4 0.000000 0.000000 0.000000 0.039887 0.000000 -0.007162
# 5 0.003181 -0.001250 0.003400 0.000000 0.029448 0.000000
# 6 0.000000 0.000000 0.000000 -0.007162 0.000000 0.050554
#
#
# Mechanical properties :
#
#
# Convention : Reuss Voigt Hill
#
# Bulk Modulus (GPa) = 17.00964 29.73917 23.37441
# Shear Modulus (GPa) = 21.25279 26.40031 23.82655
#
# Velocity S-wave (km/s) = 3.31904 3.69921 3.51427
# Velocity P-wave (km/s) = 4.84816 5.80175 5.34626
#
# Compressibility (1/GPa) = 0.05879018
#
# Stress axis : x y z
#
# Youngs Moduli (GPa) = 67.83829 31.02002 32.99712
#
# Poissons Ratio (x) = 0.14103 0.37851
# Poissons Ratio (y) = 0.30842 -0.22341
# Poissons Ratio (z) = 0.77817 -0.21002
#
# Static dielectric constant tensor:
#      x y z
#    x 1.691270 0.000000 -0.038130 
#    y 0.000000 1.677840 0.000000 
#    z -0.038130 0.000000 1.697970 
# 
# From -- ./inp_files/295731.got.cif
#   From: 2010.05.17/outbox.cif.g08.bks.cpg/sg12_148_cif.got.tgz:295731.got - 2010.06.03 13:09:07.
