data_PCOD9203062
_publ_section_title
;
Structure prediction by ZEFSAII (Michael W. Deem and Ramdas Pophale) SiO2 
 PCOD9203062
Probable space group: C 2/M
;
_chemical_formula_sum "Si O2"
_cell_formula_units_Z 52
_cell_length_a 19.494127
_cell_length_b 11.823283
_cell_length_c 12.631509
_cell_angle_alpha 90.000000
_cell_angle_beta 114.776799
_cell_angle_gamma 90.000000
_cell_volume 2643.368629
_symmetry_space_group_name_H-M "C 2/M"
_symmetry_group_IT_number 12
_symmetry_cell_setting 'monoclinic'
loop_
_space_group_symop_operation_xyz
x,y,z
-x,y,-z
-x,-y,-z
x,-y,z
1/2+x,1/2+y,z
1/2-x,1/2+y,-z
1/2-x,1/2-y,-z
1/2+x,1/2-y,z
loop_
_atom_site_type_symbol
_atom_site_label
_atom_site_fract_x
_atom_site_fract_y
_atom_site_fract_z
Si Si1 0.926232 0.364379 0.017990
Si Si2 0.822814 0.224233 0.811023
Si Si3 0.844738 0.242764 0.356215
Si Si4 0.080627 0.000000 0.620227
Si Si5 0.953636 0.000000 0.677228
Si Si6 0.958154 0.634739 0.276864
Si Si7 0.084200 0.000000 0.102577
Si Si8 0.384386 0.742549 0.612124
O O1 0.929046 0.500000 0.021416
O O2 0.929209 0.325817 0.141901
O O3 0.855008 0.322429 0.906154
O O4 0.000000 0.323357 0.000000
O O5 0.732671 0.224758 0.751641
O O6 0.864377 0.111223 0.880866
O O7 0.846476 0.243483 0.703100
O O8 0.869356 0.111497 0.362087
O O9 0.911777 0.310508 0.342368
O O10 0.837330 0.270758 0.476425
O O11 0.000000 0.000000 0.500000
O O12 0.042404 0.000000 0.711252
O O13 0.916641 0.883933 0.613280
O O14 0.934908 0.000000 0.786827
O O15 0.952338 0.500000 0.278304
O O16 0.044428 0.674172 0.338853
O O17 0.000000 0.000000 0.000000
#
# Coordination Sequence:
#
# PCOD9203062 Si02
#       8
#     8   8   8   4   4   8   4   8
#     4  10  21  42  67  89 121 161 216 266 311 383
#     4  11  25  40  66  97 132 165 212 271 329 372
#     4  12  25  39  64  97 139 164 207 269 327 379
#     4  12  20  40  66  92 124 172 216 257 300 383
#     4  10  20  38  66  92 120 161 230 259 294 370
#     4  11  24  41  66  93 124 173 214 260 319 388
#     4  10  24  42  68  94 120 175 221 263 314 388
#     4  11  21  42  64  94 126 175 214 258 313 391
#
# _framework density 19.671868
#
# number of rings (size 3 to 8) (size 9 to 14) (size 15 to 20)
#    0.000    1.077    4.615    1.385    4.308    1.846 
#    0.000    0.000    0.000    0.000    0.000    0.000 
#    0.000    0.000    0.000    0.000    0.000    0.000 
#
# Total GULP energy -145104.105794 kJ/mol
# GULP energy per Si atom -5580.927146 kJ/mol
# Density = 1.962709 g / cm^3
# Si number density = 19.671868 Si / 1000 Ang^3
#
#
#
# Elastic Constant Matrix: (Units=GPa)
#
#
# Indices 1 2 3 4 5 6 
#
# 1 43.1209 16.0204 -11.8985 0.0000 16.7956 0.0000
# 2 16.0204 65.2404 22.9149 0.0000 -0.6271 0.0000
# 3 -11.8985 22.9149 65.6576 0.0000 15.7063 0.0000
# 4 0.0000 0.0000 0.0000 89.0965 0.0000 -10.7852
# 5 16.7956 -0.6271 15.7063 0.0000 34.7747 0.0000
# 6 0.0000 0.0000 0.0000 -10.7852 0.0000 17.9185
#
#
#
# Elastic Compliance Matrix: (Units=1/GPa)
#
#
# Indices 1 2 3 4 5 6 
#
# 1 0.054907 -0.023556 0.027599 0.000000 -0.039409 0.000000
# 2 -0.023556 0.027950 -0.018908 0.000000 0.020421 0.000000
# 3 0.027599 -0.018908 0.033748 0.000000 -0.028913 0.000000
# 4 0.000000 0.000000 0.000000 0.012106 0.000000 0.007287
# 5 -0.039409 0.020421 -0.028913 0.000000 0.061218 0.000000
# 6 0.000000 0.000000 0.000000 0.007287 0.000000 0.060194
#
#
# Mechanical properties :
#
#
# Convention : Reuss Voigt Hill
#
# Bulk Modulus (GPa) = 11.51089 25.34361 18.42725
# Shear Modulus (GPa) = 16.19112 38.15675 27.17394
#
# Velocity S-wave (km/s) = 2.87201 4.40894 3.72070
# Velocity P-wave (km/s) = 4.10635 6.23133 5.27691
#
# Compressibility (1/GPa) = 0.08687425
#
# Stress axis : x y z
#
# Youngs Moduli (GPa) = 18.21248 35.77833 29.63172
#
# Poissons Ratio (x) = 0.84278 -0.81780
# Poissons Ratio (y) = 0.42901 0.56029
# Poissons Ratio (z) = -0.50264 0.67651
#
# Static dielectric constant tensor:
#      x y z
#    x 1.688200 0.000000 -0.027640 
#    y 0.000000 1.704110 0.000000 
#    z -0.027640 0.000000 1.739580 
# 
# From -- ./inp_files/165811.got.cif
#   From: 2010.05.17/outbox.cif.g08.bks.cpg/sg12_83_cif.got.tgz:165811.got - 2010.06.03 13:09:07.
