data_PCOD9203092
_publ_section_title
;
Structure prediction by ZEFSAII (Michael W. Deem and Ramdas Pophale) SiO2 
 PCOD9203092
Probable space group: C 2/M
;
_chemical_formula_sum "Si O2"
_cell_formula_units_Z 56
_cell_length_a 20.151065
_cell_length_b 22.876689
_cell_length_c 9.808263
_cell_angle_alpha 90.000000
_cell_angle_beta 140.285859
_cell_angle_gamma 90.000000
_cell_volume 2889.052120
_symmetry_space_group_name_H-M "C 2/M"
_symmetry_group_IT_number 12
_symmetry_cell_setting 'monoclinic'
loop_
_space_group_symop_operation_xyz
x,y,z
-x,y,-z
-x,-y,-z
x,-y,z
1/2+x,1/2+y,z
1/2-x,1/2+y,-z
1/2-x,1/2-y,-z
1/2+x,1/2-y,z
loop_
_atom_site_type_symbol
_atom_site_label
_atom_site_fract_x
_atom_site_fract_y
_atom_site_fract_z
Si Si1 0.242996 0.631889 0.321515
Si Si2 0.550350 0.067222 0.931004
Si Si3 0.971749 0.672962 0.614937
Si Si4 0.915349 0.065849 0.970169
Si Si5 0.912280 0.264356 0.977503
Si Si6 0.762610 0.842114 0.674409
Si Si7 0.939848 0.066642 0.542373
O O1 0.179965 0.688010 0.169940
O O2 0.250360 0.643025 0.495051
O O3 0.355336 0.615453 0.443605
O O4 0.170478 0.579045 0.154827
O O5 0.508577 0.114051 0.754787
O O6 0.530341 0.000000 0.860412
O O7 0.500000 0.078742 0.000000
O O8 0.848066 0.677255 0.442360
O O9 0.000000 0.671008 0.500000
O O10 0.028634 0.725933 0.785906
O O11 0.807751 0.099045 0.810126
O O12 0.895552 0.000000 0.888689
O O13 0.000000 0.093092 0.000000
O O14 0.974446 0.065325 0.204736
O O15 0.852709 0.204912 0.847758
O O16 0.000000 0.275804 0.000000
O O17 0.000000 0.079279 0.500000
O O18 0.895746 0.000000 0.465952
#
# Coordination Sequence:
#
# PCOD9203092 Si02
#       7
#     8   8   8   8   8   8   8
#     4  11  20  38  65  94 118 168 213 259 307 378
#     4  10  20  38  66  97 126 163 214 259 307 382
#     4  11  25  44  61  92 134 163 208 270 322 378
#     4  10  21  36  58  92 123 154 207 262 310 383
#     4  11  24  42  67  92 121 160 222 272 314 380
#     4  12  23  39  67  91 119 170 213 264 323 383
#     4  10  22  39  60  92 132 166 203 257 318 381
#
# _framework density 19.383520000000001
#
# number of rings (size 3 to 8) (size 9 to 14) (size 15 to 20)
#    0.000    1.286    4.286    2.143    0.000    4.286 
#    0.000    2.857    0.000    0.000    0.000    0.000 
#    0.000    0.000    0.000    0.000    0.000    0.000 
#
# Total GULP energy -156177.850211 kJ/mol
# GULP energy per Si atom -5577.780365 kJ/mol
# Density = 1.933940 g / cm^3
# Si number density = 19.383520 Si / 1000 Ang^3
#
#
#
# Elastic Constant Matrix: (Units=GPa)
#
#
# Indices 1 2 3 4 5 6 
#
# 1 99.4056 25.1489 54.4176 0.0000 -17.2843 0.0000
# 2 25.1489 62.3201 36.0477 0.0000 8.8114 0.0000
# 3 54.4176 36.0477 101.0212 0.0000 6.8427 0.0000
# 4 0.0000 0.0000 0.0000 11.0878 0.0000 16.2635
# 5 -17.2843 8.8114 6.8427 0.0000 33.5352 0.0000
# 6 0.0000 0.0000 0.0000 16.2635 0.0000 9.8712
#
#
#
# Elastic Compliance Matrix: (Units=1/GPa)
#
#
# Indices 1 2 3 4 5 6 
#
# 1 0.018243 -0.003695 -0.009340 0.000000 0.012279 0.000000
# 2 -0.003695 0.021482 -0.005236 0.000000 -0.006481 0.000000
# 3 -0.009340 -0.005236 0.017270 0.000000 -0.006962 0.000000
# 4 0.000000 0.000000 0.000000 -0.063664 0.000000 0.104890
# 5 0.012279 -0.006481 -0.006962 0.000000 0.039272 0.000000
# 6 0.000000 0.000000 0.000000 0.104890 0.000000 -0.071510
#
#
# Mechanical properties :
#
#
# Convention : Reuss Voigt Hill
#
# Bulk Modulus (GPa) = 48.89402 54.88614 51.89008
# Shear Modulus (GPa) = 1122.62645 20.70768 571.66707
#
# Velocity S-wave (km/s) = 24.09196 3.27205 17.19199
# Velocity P-wave (km/s) = 28.26971 6.53089 20.51620
#
# Compressibility (1/GPa) = 0.02045240
#
# Stress axis : x y z
#
# Youngs Moduli (GPa) = 54.81618 46.54966 57.90350
#
# Poissons Ratio (x) = 0.17202 0.54082
# Poissons Ratio (y) = 0.20257 0.30318
# Poissons Ratio (z) = 0.51198 0.24374
#
# Static dielectric constant tensor:
#      x y z
#    x 1.655150 0.000000 0.026800 
#    y 0.000000 1.739240 0.000000 
#    z 0.026800 0.000000 1.700910 
# 
# From -- ./inp_files/80088.got.cif
#   From: 2010.05.17/outbox.cif.g08.bks.cpg/sg12_41_cif.got.tgz:80088.got - 2010.06.03 13:09:07.
