data_PCOD9203821
_publ_section_title
;
Structure prediction by ZEFSAII (Michael W. Deem and Ramdas Pophale) SiO2 
 PCOD9203821
Probable space group: C 2/M
;
_chemical_formula_sum "Si O2"
_cell_formula_units_Z 40
_cell_length_a 14.360874
_cell_length_b 14.431404
_cell_length_c 13.422549
_cell_angle_alpha 90.000000
_cell_angle_beta 135.142678
_cell_angle_gamma 90.000000
_cell_volume 1962.118708
_symmetry_space_group_name_H-M "C 2/M"
_symmetry_group_IT_number 12
_symmetry_cell_setting 'monoclinic'
loop_
_space_group_symop_operation_xyz
x,y,z
-x,y,-z
-x,-y,-z
x,-y,z
1/2+x,1/2+y,z
1/2-x,1/2+y,-z
1/2-x,1/2-y,-z
1/2+x,1/2-y,z
loop_
_atom_site_type_symbol
_atom_site_label
_atom_site_fract_x
_atom_site_fract_y
_atom_site_fract_z
Si Si1 0.525227 0.604041 0.129286
Si Si2 0.629822 0.892096 0.293584
Si Si3 0.107832 0.746543 0.840784
Si Si4 0.313106 0.101563 0.436570
Si Si5 0.865938 0.211993 0.370790
O O1 0.468809 0.500000 0.085259
O O2 0.464370 0.663894 0.170144
O O3 0.678636 0.598706 0.271907
O O4 0.500000 0.644575 0.000000
O O5 0.490670 0.838174 0.204346
O O6 0.702413 0.889222 0.456478
O O7 0.730257 0.840785 0.294819
O O8 0.608990 0.000000 0.251415
O O9 0.130060 0.755936 0.740169
O O10 0.250000 0.750000 0.000000
O O11 0.375128 0.196621 0.446900
O O12 0.378381 0.000000 0.472062
O O13 0.000000 0.156361 0.500000
#
# Coordination Sequence:
#
# PCOD9203821 Si02
#       5
#     8   8   8   8   8
#     4  10  21  40  66  92 126 170 220 274 334 398
#     4  11  25  45  67  99 140 180 225 282 340 403
#     4  12  26  41  67  96 132 177 226 279 339 404
#     4  10  20  39  68  96 130 174 221 276 335 392
#     4  12  23  40  70 100 134 175 227 277 337 404
#
# _framework density 20.386126999999998
#
# number of rings (size 3 to 8) (size 9 to 14) (size 15 to 20)
#    0.000    1.000    4.000    3.000    0.000    3.200 
#    0.000    1.000    0.000    0.000    0.000    0.000 
#    0.000    0.000    0.000    0.000    0.000    0.000 
#
# Total GULP energy -111575.719198 kJ/mol
# GULP energy per Si atom -5578.785960 kJ/mol
# Density = 2.033973 g / cm^3
# Si number density = 20.386127 Si / 1000 Ang^3
#
#
#
# Elastic Constant Matrix: (Units=GPa)
#
#
# Indices 1 2 3 4 5 6 
#
# 1 127.5392 67.5560 28.7496 0.0000 7.3882 0.0000
# 2 67.5560 116.4881 9.7548 0.0000 1.5329 0.0000
# 3 28.7496 9.7548 99.7515 0.0000 10.6016 0.0000
# 4 0.0000 0.0000 0.0000 17.6744 0.0000 -12.8206
# 5 7.3882 1.5329 10.6016 0.0000 29.9459 0.0000
# 6 0.0000 0.0000 0.0000 -12.8206 0.0000 -15.4577
#
#
#
# Elastic Compliance Matrix: (Units=1/GPa)
#
#
# Indices 1 2 3 4 5 6 
#
# 1 0.012136 -0.006794 -0.002652 0.000000 -0.001708 0.000000
# 2 -0.006794 0.012459 0.000654 0.000000 0.000807 0.000000
# 3 -0.002652 0.000654 0.011076 0.000000 -0.003300 0.000000
# 4 0.000000 0.000000 0.000000 0.035326 0.000000 -0.029299
# 5 -0.001708 0.000807 -0.003300 0.000000 0.034942 0.000000
# 6 0.000000 0.000000 0.000000 -0.029299 0.000000 -0.040392
#
#
# Mechanical properties :
#
#
# Convention : Reuss Voigt Hill
#
# Bulk Modulus (GPa) = 55.28584 61.76663 58.52623
# Shear Modulus (GPa) = 56.07922 22.28040 39.17981
#
# Velocity S-wave (km/s) = 5.25055 3.30952 4.38869
# Velocity P-wave (km/s) = 7.99599 6.70582 7.37916
#
# Compressibility (1/GPa) = 0.01808782
#
# Stress axis : x y z
#
# Youngs Moduli (GPa) = 82.40020 80.26301 90.28496
#
# Poissons Ratio (x) = 0.54527 0.23943
# Poissons Ratio (y) = 0.55979 -0.05903
# Poissons Ratio (z) = 0.21852 -0.05248
#
# Static dielectric constant tensor:
#      x y z
#    x 1.728050 0.000000 0.010250 
#    y 0.000000 1.680240 0.000000 
#    z 0.010250 0.000000 1.672840 
# 
# From -- ./inp_files/141833.got.cif
#   From: 2010.05.17/outbox.cif.g08.bks.cpg/sg12_71_cif.got.tgz:141833.got - 2010.06.03 13:09:07.
