data_PCOD9203388
_publ_section_title
;
Structure prediction by ZEFSAII (Michael W. Deem and Ramdas Pophale) SiO2 
 PCOD9203388
Probable space group: C 2/M
;
_chemical_formula_sum "Si O2"
_cell_formula_units_Z 64
_cell_length_a 25.534982
_cell_length_b 18.234232
_cell_length_c 20.186985
_cell_angle_alpha 90.000000
_cell_angle_beta 20.758892
_cell_angle_gamma 90.000000
_cell_volume 3331.444000
_symmetry_space_group_name_H-M "C 2/M"
_symmetry_group_IT_number 12
_symmetry_cell_setting 'monoclinic'
loop_
_space_group_symop_operation_xyz
x,y,z
-x,y,-z
-x,-y,-z
x,-y,z
1/2+x,1/2+y,z
1/2-x,1/2+y,-z
1/2-x,1/2-y,-z
1/2+x,1/2-y,z
loop_
_atom_site_type_symbol
_atom_site_label
_atom_site_fract_x
_atom_site_fract_y
_atom_site_fract_z
Si Si1 0.348264 0.315598 0.855415
Si Si2 0.852314 0.292441 0.211422
Si Si3 0.937818 0.736951 0.501612
Si Si4 0.405744 0.917295 0.475463
Si Si5 0.910555 0.414812 0.877337
Si Si6 0.991667 0.084478 0.800125
Si Si7 0.422695 0.633794 0.163089
Si Si8 0.811986 0.415095 0.360790
O O1 0.471986 0.280110 0.661950
O O2 0.413368 0.362585 0.839817
O O3 0.250000 0.250000 0.000000
O O4 0.235921 0.366912 0.947550
O O5 0.730467 0.263452 0.304730
O O6 0.890087 0.220506 0.210461
O O7 0.791449 0.359055 0.325751
O O8 0.000000 0.315888 0.000000
O O9 0.940763 0.650145 0.482240
O O10 0.000000 0.752030 0.500000
O O11 0.513384 0.909163 0.284942
O O12 0.235796 0.906493 0.652879
O O13 0.422895 0.000000 0.481624
O O14 0.875176 0.500000 0.930562
O O15 0.039505 0.393445 0.775914
O O16 0.978621 0.106163 0.892610
O O17 0.167336 0.088962 0.577619
O O18 0.944130 0.000000 0.846166
O O19 0.500000 0.625076 0.000000
O O20 0.826138 0.500000 0.323041
#
# Coordination Sequence:
#
# PCOD9203388 Si02
#       8
#     8   8   8   8   8   8   8   8
#     4  12  25  40  64  94 125 173 215 259 309 375
#     4  10  23  41  65  91 125 164 210 264 316 375
#     4  11  25  43  61  92 130 169 213 259 314 375
#     4  10  20  39  62  88 124 162 204 257 312 374
#     4  10  21  39  63  92 125 159 205 262 319 376
#     4  11  23  41  66  95 128 165 210 266 317 370
#     4  10  22  38  63  97 128 163 208 257 319 380
#     4  10  21  39  68  95 121 161 210 268 319 369
#
# _framework density 19.210888000000001
#
# number of rings (size 3 to 8) (size 9 to 14) (size 15 to 20)
#    0.000    1.500    3.750    0.750    3.500    4.000 
#    0.000    0.000    0.000    1.875    0.000    0.000 
#    0.000    0.000    0.000    0.000    0.000    0.000 
#
# Total GULP energy -178717.234881 kJ/mol
# GULP energy per Si atom -5584.913590 kJ/mol
# Density = 1.916716 g / cm^3
# Si number density = 19.210888 Si / 1000 Ang^3
#
#
#
# Elastic Constant Matrix: (Units=GPa)
#
#
# Indices 1 2 3 4 5 6 
#
# 1 100.3482 64.4658 15.9404 -0.0001 -8.2108 0.0006
# 2 64.4658 92.0321 32.2092 0.0010 -7.0133 -0.0008
# 3 15.9404 32.2092 60.1780 -0.0013 -3.7109 0.0021
# 4 -0.0001 0.0010 -0.0013 28.5494 -0.0003 -7.3794
# 5 -8.2108 -7.0133 -3.7109 -0.0003 26.7001 -0.0002
# 6 0.0006 -0.0008 0.0021 -7.3794 -0.0002 12.7026
#
#
#
# Elastic Compliance Matrix: (Units=1/GPa)
#
#
# Indices 1 2 3 4 5 6 
#
# 1 0.018575 -0.013726 0.002578 0.000000 0.002465 -0.000002
# 2 -0.013726 0.023686 -0.008995 0.000000 0.000750 0.000003
# 3 0.002578 -0.008995 0.020831 0.000000 0.001325 -0.000004
# 4 0.000000 0.000000 0.000000 0.041216 0.000001 0.023944
# 5 0.002465 0.000750 0.001325 0.000001 0.038592 0.000001
# 6 -0.000002 0.000003 -0.000004 0.023944 0.000001 0.092634
#
#
# Mechanical properties :
#
#
# Convention : Reuss Voigt Hill
#
# Bulk Modulus (GPa) = 43.84855 53.08767 48.46811
# Shear Modulus (GPa) = 17.64156 22.91994 20.28075
#
# Velocity S-wave (km/s) = 3.03365 3.45783 3.25266
# Velocity P-wave (km/s) = 5.92833 6.60578 6.27620
#
# Compressibility (1/GPa) = 0.02280577
#
# Stress axis : x y z
#
# Youngs Moduli (GPa) = 53.83513 42.21966 48.00606
#
# Poissons Ratio (x) = 0.57950 -0.12377
# Poissons Ratio (y) = 0.73893 0.43183
# Poissons Ratio (z) = -0.13880 0.37978
#
# Static dielectric constant tensor:
#      x y z
#    x 1.664750 0.000000 -0.013310 
#    y 0.000000 1.678230 0.000000 
#    z -0.013310 0.000000 1.670160 
# 
# From -- ./inp_files/326109.got.cif
#   From: 2010.05.17/outbox.cif.g08.bks.cpg/sg12_164_cif.got.tgz:326109.got - 2010.06.03 13:09:07.
