data_PCOD9203815
_publ_section_title
;
Structure prediction by ZEFSAII (Michael W. Deem and Ramdas Pophale) SiO2 
 PCOD9203815
Probable space group: C 2/M
;
_chemical_formula_sum "Si O2"
_cell_formula_units_Z 64
_cell_length_a 13.621340
_cell_length_b 18.805827
_cell_length_c 12.753093
_cell_angle_alpha 90.000000
_cell_angle_beta 89.135195
_cell_angle_gamma 90.000000
_cell_volume 3266.467372
_symmetry_space_group_name_H-M "C 2/M"
_symmetry_group_IT_number 12
_symmetry_cell_setting 'monoclinic'
loop_
_space_group_symop_operation_xyz
x,y,z
-x,y,-z
-x,-y,-z
x,-y,z
1/2+x,1/2+y,z
1/2-x,1/2+y,-z
1/2-x,1/2-y,-z
1/2+x,1/2-y,z
loop_
_atom_site_type_symbol
_atom_site_label
_atom_site_fract_x
_atom_site_fract_y
_atom_site_fract_z
Si Si1 0.701345 0.083025 0.572048
Si Si2 0.921151 0.831220 0.264072
Si Si3 0.933899 0.082527 0.606436
Si Si4 0.104134 0.079782 0.941911
Si Si5 0.592031 0.917908 0.158484
Si Si6 0.698919 0.916034 0.938259
Si Si7 0.245439 0.418172 0.343060
Si Si8 0.596628 0.836659 0.756853
O O1 0.818406 0.095221 0.587816
O O2 0.683027 0.095019 0.448906
O O3 0.634953 0.129978 0.648094
O O4 0.682695 0.000000 0.595980
O O5 0.901115 0.864812 0.151044
O O6 0.834516 0.863818 0.336475
O O7 0.914582 0.747174 0.256232
O O8 0.021260 0.863293 0.309919
O O9 0.000000 0.089070 0.500000
O O10 0.943994 0.000000 0.642160
O O11 0.124055 0.000000 0.898435
O O12 0.190904 0.094539 0.021965
O O13 0.000000 0.078991 0.000000
O O14 0.681762 0.912599 0.238909
O O15 0.505843 0.868905 0.201526
O O16 0.558169 0.000000 0.159925
O O17 0.629357 0.902578 0.040452
O O18 0.672365 0.864068 0.844482
O O19 0.688284 0.000000 0.908940
O O20 0.282315 0.500000 0.352041
#
# Coordination Sequence:
#
# PCOD9203815 Si02
#       8
#     8   8   8   8   8   8   8   8
#     4  10  22  41  66  94 123 159 213 268 306 356
#     4  12  24  40  60  92 132 168 195 249 316 396
#     4  10  20  39  68  92 115 157 214 263 303 362
#     4  10  22  40  65  96 123 155 205 265 316 361
#     4  10  21  42  69  89 115 164 223 262 292 357
#     4  10  21  42  69  91 117 162 216 259 300 363
#     4  10  20  41  69  91 116 161 217 263 303 359
#     4  12  27  39  56  94 134 170 201 249 316 369
#
# _framework density 19.593032999999998
#
# number of rings (size 3 to 8) (size 9 to 14) (size 15 to 20)
#    0.000    1.500    2.500    2.625    1.750    4.500 
#    2.250    1.875    0.000    0.000    0.000    0.000 
#    0.000    0.000    0.000    0.000    0.000    0.000 
#
# Total GULP energy -178854.105695 kJ/mol
# GULP energy per Si atom -5589.190803 kJ/mol
# Density = 1.954844 g / cm^3
# Si number density = 19.593033 Si / 1000 Ang^3
#
#
#
# Elastic Constant Matrix: (Units=GPa)
#
#
# Indices 1 2 3 4 5 6 
#
# 1 40.3552 14.0232 -6.9352 0.0000 -13.0566 0.0000
# 2 14.0232 91.6005 38.4516 0.0000 -8.9351 0.0000
# 3 -6.9352 38.4516 71.1575 0.0000 -5.0328 0.0000
# 4 0.0000 0.0000 0.0000 11.9446 0.0000 -25.8459
# 5 -13.0566 -8.9351 -5.0328 0.0000 26.0057 0.0000
# 6 0.0000 0.0000 0.0000 -25.8459 0.0000 35.0982
#
#
#
# Elastic Compliance Matrix: (Units=1/GPa)
#
#
# Indices 1 2 3 4 5 6 
#
# 1 0.033903 -0.007086 0.008278 0.000000 0.016189 0.000000
# 2 -0.007086 0.015908 -0.009279 0.000000 0.000112 0.000000
# 3 0.008278 -0.009279 0.020219 0.000000 0.004881 0.000000
# 4 0.000000 0.000000 0.000000 -0.141083 0.000000 -0.103892
# 5 0.016189 0.000112 0.004881 0.000000 0.047564 0.000000
# 6 0.000000 0.000000 0.000000 -0.103892 0.000000 -0.048013
#
#
# Mechanical properties :
#
#
# Convention : Reuss Voigt Hill
#
# Bulk Modulus (GPa) = 18.56774 32.68807 25.62790
# Shear Modulus (GPa) = -133.77156 25.11461 -54.32848
#
# Velocity S-wave (km/s) = -8.27184 3.58413 -5.27150
# Velocity P-wave (km/s) = 9.04067 5.81788 4.89316
#
# Compressibility (1/GPa) = 0.05385686
#
# Stress axis : x y z
#
# Youngs Moduli (GPa) = 29.49607 62.86230 49.45733
#
# Poissons Ratio (x) = 0.44545 -0.40943
# Poissons Ratio (y) = 0.20901 0.45891
# Poissons Ratio (z) = -0.24418 0.58329
#
# Static dielectric constant tensor:
#      x y z
#    x 1.711830 0.000000 0.006910 
#    y 0.000000 1.646970 0.000000 
#    z 0.006910 0.000000 1.696210 
# 
# From -- ./inp_files/146157.got.cif
#   From: 2010.05.17/outbox.cif.g08.bks.cpg/sg12_74_cif.got.tgz:146157.got - 2010.06.03 13:09:07.
