data_PCOD9203458
_publ_section_title
;
Structure prediction by ZEFSAII (Michael W. Deem and Ramdas Pophale) SiO2 
 PCOD9203458
Probable space group: C 2/M
;
_chemical_formula_sum "Si O2"
_cell_formula_units_Z 48
_cell_length_a 9.074781
_cell_length_b 25.901499
_cell_length_c 9.525668
_cell_angle_alpha 90.000000
_cell_angle_beta 89.474527
_cell_angle_gamma 90.000000
_cell_volume 2238.918206
_symmetry_space_group_name_H-M "C 2/M"
_symmetry_group_IT_number 12
_symmetry_cell_setting 'monoclinic'
loop_
_space_group_symop_operation_xyz
x,y,z
-x,y,-z
-x,-y,-z
x,-y,z
1/2+x,1/2+y,z
1/2-x,1/2+y,-z
1/2-x,1/2-y,-z
1/2+x,1/2-y,z
loop_
_atom_site_type_symbol
_atom_site_label
_atom_site_fract_x
_atom_site_fract_y
_atom_site_fract_z
Si Si1 0.057625 0.500000 0.163161
Si Si2 0.117063 0.241623 0.605779
Si Si3 0.324385 0.500000 0.995692
Si Si4 0.869472 0.889833 0.892747
Si Si5 0.411895 0.817515 0.145624
Si Si6 0.583266 0.618710 0.636372
Si Si7 0.430615 0.100035 0.657349
O O1 0.019259 0.549822 0.254971
O O2 0.234807 0.500000 0.140268
O O3 0.000000 0.500000 0.000000
O O4 0.250000 0.250000 0.500000
O O5 0.125203 0.268610 0.756266
O O6 0.088425 0.181253 0.630781
O O7 0.000000 0.265861 0.500000
O O8 0.291911 0.444547 0.927540
O O9 0.500000 0.500000 0.000000
O O10 0.740801 0.847660 0.883950
O O11 0.968902 0.897028 0.756022
O O12 0.000000 0.875828 0.000000
O O13 0.512526 0.852944 0.246624
O O14 0.500000 0.807174 0.000000
O O15 0.500000 0.599474 0.500000
O O16 0.752485 0.601318 0.648921
O O17 0.500000 0.101138 0.500000
#
# Coordination Sequence:
#
# PCOD9203458 Si02
#       7
#     4   8   4   8   8   8   8
#     4  12  25  43  67  97 133 171 218 270 325 391
#     4  11  23  43  67  92 127 175 222 272 335 402
#     4  10  20  39  63  87 120 165 206 254 318 385
#     4  11  23  41  64  92 128 170 214 265 332 398
#     4  12  24  41  67 100 133 172 221 280 336 396
#     4  11  24  43  66  94 128 169 219 273 327 393
#     4  12  24  43  68  99 133 173 220 272 331 397
#
# _framework density 21.438925999999999
#
# number of rings (size 3 to 8) (size 9 to 14) (size 15 to 20)
#    0.000    0.667    0.000   11.250    0.000    0.667 
#    0.000    8.333    0.000    1.000    0.000    0.000 
#    0.000    0.000    0.000    0.000    0.000    0.000 
#
# Total GULP energy -133986.273600 kJ/mol
# GULP energy per Si atom -5582.761400 kJ/mol
# Density = 2.139013 g / cm^3
# Si number density = 21.438926 Si / 1000 Ang^3
#
#
#
# Elastic Constant Matrix: (Units=GPa)
#
#
# Indices 1 2 3 4 5 6 
#
# 1 138.7109 -1.0848 50.5501 0.0000 2.7335 0.0000
# 2 -1.0848 51.0306 12.7764 0.0000 5.0755 0.0000
# 3 50.5501 12.7764 165.8467 0.0000 -11.4033 0.0000
# 4 0.0000 0.0000 0.0000 8.6815 0.0000 17.1473
# 5 2.7335 5.0755 -11.4033 0.0000 50.7852 0.0000
# 6 0.0000 0.0000 0.0000 17.1473 0.0000 3.0102
#
#
#
# Elastic Compliance Matrix: (Units=1/GPa)
#
#
# Indices 1 2 3 4 5 6 
#
# 1 0.008206 0.000951 -0.002652 0.000000 -0.001132 0.000000
# 2 0.000951 0.020379 -0.002035 0.000000 -0.002545 0.000000
# 3 -0.002652 -0.002035 0.007129 0.000000 0.001947 0.000000
# 4 0.000000 0.000000 0.000000 -0.011237 0.000000 0.064007
# 5 -0.001132 -0.002545 0.001947 0.000000 0.020443 0.000000
# 6 0.000000 0.000000 0.000000 0.064007 0.000000 -0.032406
#
#
# Mechanical properties :
#
#
# Convention : Reuss Voigt Hill
#
# Bulk Modulus (GPa) = 35.40922 53.34131 44.37527
# Shear Modulus (GPa) = 170.07346 32.05182 101.06264
#
# Velocity S-wave (km/s) = 8.91636 3.87076 6.87329
# Velocity P-wave (km/s) = 11.07042 6.70161 9.15057
#
# Compressibility (1/GPa) = 0.02824123
#
# Stress axis : x y z
#
# Youngs Moduli (GPa) = 121.86939 49.07045 140.27896
#
# Poissons Ratio (x) = -0.04667 0.37204
# Poissons Ratio (y) = -0.11590 0.28544
# Poissons Ratio (z) = 0.32322 0.09985
#
# Static dielectric constant tensor:
#      x y z
#    x 1.755260 0.000000 0.061310 
#    y 0.000000 1.828480 0.000000 
#    z 0.061310 0.000000 1.673650 
# 
# From -- ./inp_files/42289.got.cif
#   From: 2010.05.17/outbox.cif.g08.bks.cpg/sg12_22_cif.got.tgz:42289.got - 2010.06.03 13:09:07.
