data_PCOD9203265
_publ_section_title
;
Structure prediction by ZEFSAII (Michael W. Deem and Ramdas Pophale) SiO2 
 PCOD9203265
Probable space group: C 2/M
;
_chemical_formula_sum "Si O2"
_cell_formula_units_Z 64
_cell_length_a 10.563453
_cell_length_b 21.311899
_cell_length_c 17.749911
_cell_angle_alpha 90.000000
_cell_angle_beta 51.960397
_cell_angle_gamma 90.000000
_cell_volume 3147.180704
_symmetry_space_group_name_H-M "C 2/M"
_symmetry_group_IT_number 12
_symmetry_cell_setting 'monoclinic'
loop_
_space_group_symop_operation_xyz
x,y,z
-x,y,-z
-x,-y,-z
x,-y,z
1/2+x,1/2+y,z
1/2-x,1/2+y,-z
1/2-x,1/2-y,-z
1/2+x,1/2-y,z
loop_
_atom_site_type_symbol
_atom_site_label
_atom_site_fract_x
_atom_site_fract_y
_atom_site_fract_z
Si Si1 0.355895 0.848103 0.759652
Si Si2 0.464107 0.345124 0.795393
Si Si3 0.642746 0.785021 0.731132
Si Si4 0.208030 0.069699 0.449441
Si Si5 0.432191 0.631807 0.635495
Si Si6 0.151374 0.728903 0.892074
Si Si7 0.912492 0.073708 0.109140
Si Si8 0.053718 0.569994 0.395113
O O1 0.533263 0.826470 0.716652
O O2 0.242875 0.791107 0.828686
O O3 0.275402 0.907980 0.829242
O O4 0.351760 0.871928 0.674852
O O5 0.584093 0.285871 0.739709
O O6 0.447882 0.377186 0.719133
O O7 0.289985 0.314024 0.877278
O O8 0.517831 0.388784 0.844444
O O9 0.831702 0.803302 0.658878
O O10 0.593589 0.801860 0.834992
O O11 0.174997 0.083208 0.373832
O O12 0.391568 0.068864 0.405807
O O13 0.105808 0.121642 0.533208
O O14 0.147244 0.000000 0.492542
O O15 0.000000 0.741593 0.000000
O O16 0.933282 0.000000 0.112629
O O17 0.000000 0.092538 0.000000
O O18 0.130945 0.500000 0.361931
O O19 0.000000 0.579524 0.500000
#
# Coordination Sequence:
#
# PCOD9203265 Si02
#       8
#     8   8   8   8   8   8   8   8
#     4  11  21  38  64  89 129 160 207 261 315 366
#     4  10  23  39  64  89 129 162 207 260 319 383
#     4  10  21  38  61  90 127 158 207 257 319 376
#     4  10  21  39  64  89 122 165 220 267 309 373
#     4  10  20  39  60  90 120 161 210 261 312 371
#     4  10  22  38  67  98 120 164 215 255 315 382
#     4  11  25  42  62  93 128 166 210 262 324 381
#     4  10  22  39  63  93 125 170 218 258 312 380
#
# _framework density 20.335661000000002
#
# number of rings (size 3 to 8) (size 9 to 14) (size 15 to 20)
#    0.000    1.750    2.500    1.500    3.500    2.000 
#    0.000    2.500   24.750    0.375    0.000    0.000 
#    0.000    0.000    0.000    0.000    0.000    0.000 
#
# Total GULP energy -178259.425390 kJ/mol
# GULP energy per Si atom -5570.607043 kJ/mol
# Density = 2.028938 g / cm^3
# Si number density = 20.335661 Si / 1000 Ang^3
#
#
#
# Elastic Constant Matrix: (Units=GPa)
#
#
# Indices 1 2 3 4 5 6 
#
# 1 77.1351 42.1737 28.9285 0.0000 16.6175 0.0000
# 2 42.1737 93.3120 56.0512 0.0000 11.5706 0.0000
# 3 28.9285 56.0512 89.4903 0.0000 10.4343 0.0000
# 4 0.0000 0.0000 0.0000 26.5526 0.0000 -7.3001
# 5 16.6175 11.5706 10.4343 0.0000 30.3013 0.0000
# 6 0.0000 0.0000 0.0000 -7.3001 0.0000 24.0832
#
#
#
# Elastic Compliance Matrix: (Units=1/GPa)
#
#
# Indices 1 2 3 4 5 6 
#
# 1 0.018694 -0.007096 -0.000749 0.000000 -0.007285 0.000000
# 2 -0.007096 0.020135 -0.010288 0.000000 -0.000255 0.000000
# 3 -0.000749 -0.010288 0.018080 0.000000 -0.001887 0.000000
# 4 0.000000 0.000000 0.000000 0.041085 0.000000 0.012454
# 5 -0.007285 -0.000255 -0.001887 0.000000 0.037744 0.000000
# 6 0.000000 0.000000 0.000000 0.012454 0.000000 0.045298
#
#
# Mechanical properties :
#
#
# Convention : Reuss Voigt Hill
#
# Bulk Modulus (GPa) = 48.44124 57.13825 52.78975
# Shear Modulus (GPa) = 22.30316 25.03968 23.67142
#
# Velocity S-wave (km/s) = 3.31532 3.51282 3.41550
# Velocity P-wave (km/s) = 6.20706 6.67921 6.44746
#
# Compressibility (1/GPa) = 0.02064357
#
# Stress axis : x y z
#
# Youngs Moduli (GPa) = 53.49243 49.66429 55.30856
#
# Poissons Ratio (x) = 0.35240 0.04145
# Poissons Ratio (y) = 0.37957 0.56901
# Poissons Ratio (z) = 0.04009 0.51095
#
# Static dielectric constant tensor:
#      x y z
#    x 1.787250 0.000000 -0.027030 
#    y 0.000000 1.763020 0.000000 
#    z -0.027030 0.000000 1.744920 
# 
# From -- ./inp_files/265043.got.cif
#   From: 2010.05.17/outbox.cif.g08.bks.cpg/sg12_133_cif.got.tgz:265043.got - 2010.06.03 13:09:07.
