data_PCOD9203374
_publ_section_title
;
Structure prediction by ZEFSAII (Michael W. Deem and Ramdas Pophale) SiO2 
 PCOD9203374
Probable space group: C 2/M
;
_chemical_formula_sum "Si O2"
_cell_formula_units_Z 56
_cell_length_a 22.646029
_cell_length_b 15.327232
_cell_length_c 8.958878
_cell_angle_alpha 90.000000
_cell_angle_beta 76.409846
_cell_angle_gamma 90.000000
_cell_volume 3022.569535
_symmetry_space_group_name_H-M "C 2/M"
_symmetry_group_IT_number 12
_symmetry_cell_setting 'monoclinic'
loop_
_space_group_symop_operation_xyz
x,y,z
-x,y,-z
-x,-y,-z
x,-y,z
1/2+x,1/2+y,z
1/2-x,1/2+y,-z
1/2-x,1/2-y,-z
1/2+x,1/2-y,z
loop_
_atom_site_type_symbol
_atom_site_label
_atom_site_fract_x
_atom_site_fract_y
_atom_site_fract_z
Si Si1 0.380513 0.812434 0.440199
Si Si2 0.297088 0.103599 0.251255
Si Si3 0.468047 0.596578 0.674133
Si Si4 0.683957 0.205984 0.052037
Si Si5 0.157553 0.161051 0.309144
Si Si6 0.904032 0.600712 0.727434
Si Si7 0.498980 0.769714 0.178424
O O1 0.326421 0.860815 0.385672
O O2 0.356511 0.728259 0.547037
O O3 0.407302 0.875510 0.551658
O O4 0.433747 0.788872 0.292787
O O5 0.224648 0.121890 0.286931
O O6 0.308215 0.000000 0.225138
O O7 0.326899 0.162895 0.102307
O O8 0.500000 0.621672 0.500000
O O9 0.488298 0.500000 0.708513
O O10 0.397295 0.594909 0.672977
O O11 0.483153 0.672156 0.781369
O O12 0.651528 0.285369 0.156717
O O13 0.663796 0.127787 0.175104
O O14 0.750000 0.250000 0.000000
O O15 0.915508 0.500000 0.749031
O O16 0.952359 0.661532 0.783970
O O17 0.500000 0.777203 0.000000
#
# Coordination Sequence:
#
# PCOD9203374 Si02
#       7
#     8   8   8   8   8   8   8
#     4  11  22  38  61  87 123 167 203 248 309 366
#     4  11  22  36  57  92 124 156 204 253 300 365
#     4  11  21  40  68  92 117 157 205 254 309 367
#     4   9  19  35  58  82 117 159 198 242 304 355
#     4  10  20  39  62  87 118 163 202 244 305 365
#     4  11  22  39  62  89 124 166 213 254 300 367
#     4  12  24  40  63  89 125 163 202 259 315 366
#
# _framework density 18.527284000000002
#
# number of rings (size 3 to 8) (size 9 to 14) (size 15 to 20)
#    0.000    1.286    4.286    3.000    0.000    2.286 
#    0.000    0.000    0.000    0.000    0.000    0.000 
#    0.000    0.000    0.000    0.000    0.000    0.000 
#
# Total GULP energy -155946.824605 kJ/mol
# GULP energy per Si atom -5569.529450 kJ/mol
# Density = 1.848512 g / cm^3
# Si number density = 18.527284 Si / 1000 Ang^3
#
#
#
# Elastic Constant Matrix: (Units=GPa)
#
#
# Indices 1 2 3 4 5 6 
#
# 1 75.7859 16.0973 34.5700 0.0000 2.9269 0.0000
# 2 16.0973 83.9164 33.7946 0.0000 20.2738 0.0000
# 3 34.5700 33.7946 112.5438 0.0000 -1.8016 0.0000
# 4 0.0000 0.0000 0.0000 0.5503 0.0000 3.4459
# 5 2.9269 20.2738 -1.8016 0.0000 30.3187 0.0000
# 6 0.0000 0.0000 0.0000 3.4459 0.0000 15.4837
#
#
#
# Elastic Compliance Matrix: (Units=1/GPa)
#
#
# Indices 1 2 3 4 5 6 
#
# 1 0.015484 -0.000866 -0.004515 0.000000 -0.001184 0.000000
# 2 -0.000866 0.016865 -0.004982 0.000000 -0.011490 0.000000
# 3 -0.004515 -0.004982 0.011840 0.000000 0.004471 0.000000
# 4 0.000000 0.000000 0.000000 -4.617235 0.000000 1.027582
# 5 -0.001184 -0.011490 0.004471 0.000000 0.041046 0.000000
# 6 0.000000 0.000000 0.000000 1.027582 0.000000 -0.164108
#
#
# Mechanical properties :
#
#
# Convention : Reuss Voigt Hill
#
# Bulk Modulus (GPa) = 42.62069 49.01888 45.81979
# Shear Modulus (GPa) = -1.07122 21.78948 10.35913
#
# Velocity S-wave (km/s) = -0.76121 3.43312 2.36715
# Velocity P-wave (km/s) = 4.72034 6.49847 5.67943
#
# Compressibility (1/GPa) = 0.02346278
#
# Stress axis : x y z
#
# Youngs Moduli (GPa) = 64.58126 59.29425 84.45942
#
# Poissons Ratio (x) = 0.05134 0.38136
# Poissons Ratio (y) = 0.05592 0.42079
# Poissons Ratio (z) = 0.29160 0.29542
#
# Static dielectric constant tensor:
#      x y z
#    x 1.654470 0.000000 -0.031060 
#    y 0.000000 1.628910 0.000000 
#    z -0.031060 0.000000 1.651390 
# 
# From -- ./inp_files/96268.got.cif
#   From: 2010.05.17/outbox.cif.g08.bks.cpg/sg12_49_cif.got.tgz:96268.got - 2010.06.03 13:09:07.
