data_PCOD9203425
_publ_section_title
;
Structure prediction by ZEFSAII (Michael W. Deem and Ramdas Pophale) SiO2 
 PCOD9203425
Probable space group: C 2/M
;
_chemical_formula_sum "Si O2"
_cell_formula_units_Z 64
_cell_length_a 23.455832
_cell_length_b 9.210550
_cell_length_c 29.230346
_cell_angle_alpha 90.000000
_cell_angle_beta 148.220421
_cell_angle_gamma 90.000000
_cell_volume 3325.789828
_symmetry_space_group_name_H-M "C 2/M"
_symmetry_group_IT_number 12
_symmetry_cell_setting 'monoclinic'
loop_
_space_group_symop_operation_xyz
x,y,z
-x,y,-z
-x,-y,-z
x,-y,z
1/2+x,1/2+y,z
1/2-x,1/2+y,-z
1/2-x,1/2-y,-z
1/2+x,1/2-y,z
loop_
_atom_site_type_symbol
_atom_site_label
_atom_site_fract_x
_atom_site_fract_y
_atom_site_fract_z
Si Si1 0.634861 0.830299 0.419156
Si Si2 0.134032 0.824507 0.923032
Si Si3 0.546527 0.326673 0.272440
Si Si4 0.037364 0.665911 0.453837
Si Si5 0.255338 0.669634 0.660932
Si Si6 0.672643 0.675109 0.135893
Si Si7 0.818706 0.828589 0.303093
Si Si8 0.952817 0.175563 0.038163
O O1 0.750000 0.750000 0.500000
O O2 0.563838 0.758629 0.330964
O O3 0.578270 0.819293 0.429795
O O4 0.652785 0.000000 0.421659
O O5 0.060355 0.788677 0.829012
O O6 0.144840 0.000000 0.931939
O O7 0.250000 0.750000 0.000000
O O8 0.073279 0.777622 0.928356
O O9 0.547015 0.500000 0.281667
O O10 0.648744 0.296746 0.308892
O O11 0.997506 0.500000 0.433688
O O12 0.141317 0.686087 0.556942
O O13 0.940260 0.775376 0.395945
O O14 0.267833 0.500000 0.683003
O O15 0.252936 0.767667 0.703974
O O16 0.684941 0.500000 0.146374
O O17 0.775688 0.752545 0.227666
O O18 0.639520 0.716618 0.061643
O O19 0.568430 0.717928 0.095856
O O20 0.812072 0.000000 0.295100
O O21 0.955060 0.000000 0.039904
#
# Coordination Sequence:
#
# PCOD9203425 Si02
#       8
#     8   8   8   8   8   8   8   8
#     4  11  22  39  63  89 117 150 194 244 289 342
#     4  10  21  37  57  83 119 153 189 237 288 342
#     4  10  21  39  63  90 117 154 197 241 294 348
#     4  10  22  40  60  81 108 152 198 235 281 340
#     4  10  20  39  63  82 108 149 199 241 281 342
#     4   9  17  35  62  85 105 139 189 238 286 341
#     4  12  25  36  51  84 123 152 184 232 295 348
#     4   8  16  34  62  86 103 138 193 242 278 328
#
# _framework density 19.243549000000002
#
# number of rings (size 3 to 8) (size 9 to 14) (size 15 to 20)
#    0.000    2.000    1.250    3.375    0.000    7.000 
#    0.000    7.500    0.000    0.000    0.000    0.000 
#    0.000    0.000    0.000    0.000    0.000    0.000 
#
# Total GULP energy -178772.335723 kJ/mol
# GULP energy per Si atom -5586.635491 kJ/mol
# Density = 1.919975 g / cm^3
# Si number density = 19.243549 Si / 1000 Ang^3
#
#
#
# Elastic Constant Matrix: (Units=GPa)
#
#
# Indices 1 2 3 4 5 6 
#
# 1 42.4509 21.9513 15.8322 0.0000 -20.1556 0.0000
# 2 21.9513 58.4419 40.4482 0.0000 -13.3695 -0.0002
# 3 15.8322 40.4482 93.4558 0.0000 -19.5753 0.0000
# 4 0.0000 0.0000 0.0000 25.8645 0.0000 2.2465
# 5 -20.1556 -13.3695 -19.5753 0.0000 29.7187 0.0000
# 6 0.0000 -0.0002 0.0000 2.2465 0.0000 22.6714
#
#
#
# Elastic Compliance Matrix: (Units=1/GPa)
#
#
# Indices 1 2 3 4 5 6 
#
# 1 0.039727 -0.011799 0.003374 0.000000 0.023858 0.000000
# 2 -0.011799 0.028505 -0.010821 0.000000 -0.002307 0.000000
# 3 0.003374 -0.010821 0.016556 0.000000 0.008325 0.000000
# 4 0.000000 0.000000 0.000000 0.038999 0.000000 -0.003864
# 5 0.023858 -0.002307 0.008325 0.000000 0.054275 0.000000
# 6 0.000000 0.000000 0.000000 -0.003864 0.000000 0.044491
#
#
# Mechanical properties :
#
#
# Convention : Reuss Voigt Hill
#
# Bulk Modulus (GPa) = 21.60071 38.97910 30.28990
# Shear Modulus (GPa) = 18.08459 23.39205 20.73832
#
# Velocity S-wave (km/s) = 3.06890 3.49030 3.28636
# Velocity P-wave (km/s) = 4.87922 6.04504 5.49315
#
# Compressibility (1/GPa) = 0.04629478
#
# Stress axis : x y z
#
# Youngs Moduli (GPa) = 25.17160 35.08190 60.40092
#
# Poissons Ratio (x) = 0.41394 -0.20379
# Poissons Ratio (y) = 0.29701 0.65362
# Poissons Ratio (z) = -0.08493 0.37963
#
# Static dielectric constant tensor:
#      x y z
#    x 1.667090 0.000000 -0.005820 
#    y 0.000000 1.640740 0.000000 
#    z -0.005820 0.000000 1.678520 
# 
# From -- ./inp_files/382467.got.cif
#   From: 2010.05.17/outbox.cif.g08.bks.cpg/sg12_192_cif.got.tgz:382467.got - 2010.06.03 13:09:07.
