data_PCOD9203431
_publ_section_title
;
Structure prediction by ZEFSAII (Michael W. Deem and Ramdas Pophale) SiO2 
 PCOD9203431
Probable space group: C 2/M
;
_chemical_formula_sum "Si O2"
_cell_formula_units_Z 56
_cell_length_a 16.265283
_cell_length_b 23.012610
_cell_length_c 8.519504
_cell_angle_alpha 90.000000
_cell_angle_beta 70.962675
_cell_angle_gamma 90.000000
_cell_volume 3014.493545
_symmetry_space_group_name_H-M "C 2/M"
_symmetry_group_IT_number 12
_symmetry_cell_setting 'monoclinic'
loop_
_space_group_symop_operation_xyz
x,y,z
-x,y,-z
-x,-y,-z
x,-y,z
1/2+x,1/2+y,z
1/2-x,1/2+y,-z
1/2-x,1/2-y,-z
1/2+x,1/2-y,z
loop_
_atom_site_type_symbol
_atom_site_label
_atom_site_fract_x
_atom_site_fract_y
_atom_site_fract_z
Si Si1 0.523116 0.431005 0.301545
Si Si2 0.841761 0.777928 0.494016
Si Si3 0.901383 0.661300 0.571437
Si Si4 0.225971 0.434015 0.483708
Si Si5 0.204817 0.880753 0.247240
Si Si6 0.737690 0.816894 0.066077
Si Si7 0.875052 0.870891 0.213584
O O1 0.500000 0.414380 0.500000
O O2 0.509655 0.500000 0.299280
O O3 0.623322 0.413684 0.223222
O O4 0.467807 0.400031 0.197920
O O5 0.750000 0.750000 0.500000
O O6 0.902565 0.724058 0.489261
O O7 0.828488 0.821602 0.647168
O O8 0.874609 0.817353 0.334229
O O9 0.844578 0.614145 0.514796
O O10 0.843852 0.674378 0.764899
O O11 0.000000 0.640015 0.500000
O O12 0.197640 0.500000 0.481323
O O13 0.257239 0.421187 0.640457
O O14 0.307285 0.419157 0.320353
O O15 0.272788 0.858624 0.077097
O O16 0.826362 0.841450 0.094833
O O17 0.750000 0.750000 0.000000
#
# Coordination Sequence:
#
# PCOD9203431 Si02
#       7
#     8   8   8   8   8   8   8
#     4  11  21  36  59  92 128 162 208 251 286 367
#     4  11  17  35  58  87 115 153 198 249 287 362
#     4  11  24  39  63  92 116 156 208 255 304 356
#     4  10  20  39  63  84 114 163 214 251 297 363
#     4  11  21  35  60  88 124 162 203 243 315 362
#     4  11  22  40  60  89 131 161 194 252 315 367
#     4  10  21  34  61  91 124 165 204 242 302 365
#
# _framework density 18.576917999999999
#
# number of rings (size 3 to 8) (size 9 to 14) (size 15 to 20)
#    0.000    1.286    8.571    0.857    2.000    0.857 
#    0.000    8.571    0.000    0.857    0.000    0.000 
#    0.000    0.000    0.000    0.000    0.000    0.000 
#
# Total GULP energy -155955.987249 kJ/mol
# GULP energy per Si atom -5569.856687 kJ/mol
# Density = 1.853464 g / cm^3
# Si number density = 18.576918 Si / 1000 Ang^3
#
#
#
# Elastic Constant Matrix: (Units=GPa)
#
#
# Indices 1 2 3 4 5 6 
#
# 1 93.6716 13.9804 15.6688 0.0000 0.5388 0.0000
# 2 13.9804 93.5251 23.4072 0.0000 8.6116 0.0000
# 3 15.6688 23.4072 54.1319 0.0000 6.7716 0.0000
# 4 0.0000 0.0000 0.0000 8.4802 0.0000 -0.6179
# 5 0.5388 8.6116 6.7716 0.0000 20.0231 0.0000
# 6 0.0000 0.0000 0.0000 -0.6179 0.0000 15.3689
#
#
#
# Elastic Compliance Matrix: (Units=1/GPa)
#
#
# Indices 1 2 3 4 5 6 
#
# 1 0.011323 -0.001057 -0.002965 0.000000 0.001152 0.000000
# 2 -0.001057 0.012336 -0.004561 0.000000 -0.003734 0.000000
# 3 -0.002965 -0.004561 0.021978 0.000000 -0.005391 0.000000
# 4 0.000000 0.000000 0.000000 0.118268 0.000000 0.004755
# 5 0.001152 -0.003734 -0.005391 0.000000 0.053341 0.000000
# 6 0.000000 0.000000 0.000000 0.004755 0.000000 0.065257
#
#
# Mechanical properties :
#
#
# Convention : Reuss Voigt Hill
#
# Bulk Modulus (GPa) = 35.12252 38.60459 36.86355
# Shear Modulus (GPa) = 16.17297 21.32594 18.74946
#
# Velocity S-wave (km/s) = 2.95379 3.39186 3.18038
# Velocity P-wave (km/s) = 5.52998 6.01379 5.77695
#
# Compressibility (1/GPa) = 0.02847176
#
# Stress axis : x y z
#
# Youngs Moduli (GPa) = 88.31911 81.06581 45.49961
#
# Poissons Ratio (x) = 0.08566 0.13489
# Poissons Ratio (y) = 0.09332 0.20753
# Poissons Ratio (z) = 0.26183 0.36974
#
# Static dielectric constant tensor:
#      x y z
#    x 1.579160 0.000000 0.069790 
#    y 0.000000 1.617500 0.000000 
#    z 0.069790 0.000000 1.686480 
# 
# From -- ./inp_files/65295.got.cif
#   From: 2010.05.17/outbox.cif.g08.bks.cpg/sg12_33_cif.got.tgz:65295.got - 2010.06.03 13:09:07.
