data_PCOD9203875
_publ_section_title
;
Structure prediction by ZEFSAII (Michael W. Deem and Ramdas Pophale) SiO2 
 PCOD9203875
Probable space group: C 2/M
;
_chemical_formula_sum "Si O2"
_cell_formula_units_Z 50
_cell_length_a 12.327437
_cell_length_b 12.853751
_cell_length_c 14.005878
_cell_angle_alpha 90.000000
_cell_angle_beta 64.050637
_cell_angle_gamma 90.000000
_cell_volume 1995.538876
_symmetry_space_group_name_H-M "C 2/M"
_symmetry_group_IT_number 12
_symmetry_cell_setting 'monoclinic'
loop_
_space_group_symop_operation_xyz
x,y,z
-x,y,-z
-x,-y,-z
x,-y,z
1/2+x,1/2+y,z
1/2-x,1/2+y,-z
1/2-x,1/2-y,-z
1/2+x,1/2-y,z
loop_
_atom_site_type_symbol
_atom_site_label
_atom_site_fract_x
_atom_site_fract_y
_atom_site_fract_z
Si Si1 0.813510 0.112530 0.408016
Si Si2 0.925266 0.840591 0.659611
Si Si3 0.811839 0.839848 0.098060
Si Si4 0.434216 0.887857 0.698876
Si Si5 0.185754 0.339040 0.647937
Si Si6 0.500000 0.500000 0.000000
Si Si7 0.230897 0.118285 0.109199
O O1 0.816222 0.213931 0.341121
O O2 0.712740 0.133047 0.527010
O O3 0.944261 0.113336 0.409758
O O4 0.797126 0.000000 0.369363
O O5 0.939289 0.717292 0.635372
O O6 0.803324 0.878837 0.656804
O O7 0.891041 0.861555 0.783237
O O8 0.688652 0.876246 0.195163
O O9 0.923865 0.908237 0.086294
O O10 0.817267 0.714605 0.104861
O O11 0.797288 0.869298 0.991610
O O12 0.553259 0.880402 0.720000
O O13 0.439012 0.000000 0.648481
O O14 0.272361 0.000000 0.110543
#
# Coordination Sequence:
#
# PCOD9203875 Si02
#       7
#     8   8   8   8   8   2   8
#     4  10  21  39  61  89 118 157 204 255 299 359
#     4  10  22  38  59  92 123 160 203 250 308 366
#     4  10  22  40  64  91 122 164 209 257 309 365
#     4  10  20  40  59  86 121 158 203 253 299 359
#     4  10  22  39  61  86 122 160 201 247 311 372
#     4  12  20  44  70  92 114 174 220 254 312 380
#     4  10  20  41  61  88 132 160 198 262 309 357
#
# _framework density 25.055889000000001
#
# number of rings (size 3 to 8) (size 9 to 14) (size 15 to 20)
#    0.000    1.920    1.600    1.440    0.000    3.840 
#   23.040    0.400    0.000    5.760    0.000    0.000 
#    0.000    0.000    0.000    0.000    0.000    0.000 
#
# Total GULP energy -139481.050445 kJ/mol
# GULP energy per Si atom -5579.242018 kJ/mol
# Density = 2.499886 g / cm^3
# Si number density = 25.055889 Si / 1000 Ang^3
#
#
#
# Elastic Constant Matrix: (Units=GPa)
#
#
# Indices 1 2 3 4 5 6 
#
# 1 135.4800 24.0007 16.8483 0.0000 -23.7466 0.0000
# 2 24.0007 256.6091 9.2371 0.0000 -14.8107 0.0000
# 3 16.8483 9.2371 69.9097 0.0000 -25.1516 0.0000
# 4 0.0000 0.0000 0.0000 5.0221 0.0000 -12.2416
# 5 -23.7466 -14.8107 -25.1516 0.0000 38.9036 0.0000
# 6 0.0000 0.0000 0.0000 -12.2416 0.0000 -8.1118
#
#
#
# Elastic Compliance Matrix: (Units=1/GPa)
#
#
# Indices 1 2 3 4 5 6 
#
# 1 0.008330 -0.000497 -0.000235 0.000000 0.004743 0.000000
# 2 -0.000497 0.004014 0.000039 0.000000 0.001250 0.000000
# 3 -0.000235 0.000039 0.018646 0.000000 0.011926 0.000000
# 4 0.000000 0.000000 0.000000 0.042561 0.000000 -0.064228
# 5 0.004743 0.001250 0.011926 0.000000 0.036786 0.000000
# 6 0.000000 0.000000 0.000000 -0.064228 0.000000 -0.026350
#
#
# Mechanical properties :
#
#
# Convention : Reuss Voigt Hill
#
# Bulk Modulus (GPa) = 33.77884 62.46345 48.12115
# Shear Modulus (GPa) = 52.49786 34.62363 43.56074
#
# Velocity S-wave (km/s) = 4.58233 3.72136 4.17411
# Velocity P-wave (km/s) = 6.44265 6.59155 6.51752
#
# Compressibility (1/GPa) = 0.02960433
#
# Stress axis : x y z
#
# Youngs Moduli (GPa) = 120.05059 249.11562 53.62939
#
# Poissons Ratio (x) = 0.12377 0.01262
# Poissons Ratio (y) = 0.05965 -0.00210
# Poissons Ratio (z) = 0.02826 -0.00975
#
# Static dielectric constant tensor:
#      x y z
#    x 2.041030 0.000000 0.074960 
#    y 0.000000 2.017090 0.000000 
#    z 0.074960 0.000000 1.967810 
# 
# From -- ./inp_files/204933.got.cif
#   From: 2010.05.17/outbox.cif.g08.bks.cpg/sg12_103_cif.got.tgz:204933.got - 2010.06.03 13:09:07.
