data_PCOD9203634
_publ_section_title
;
Structure prediction by ZEFSAII (Michael W. Deem and Ramdas Pophale) SiO2 
 PCOD9203634
Probable space group: C 2/M
;
_chemical_formula_sum "Si O2"
_cell_formula_units_Z 56
_cell_length_a 20.450531
_cell_length_b 7.934910
_cell_length_c 19.414890
_cell_angle_alpha 90.000000
_cell_angle_beta 119.417247
_cell_angle_gamma 90.000000
_cell_volume 2744.306357
_symmetry_space_group_name_H-M "C 2/M"
_symmetry_group_IT_number 12
_symmetry_cell_setting 'monoclinic'
loop_
_space_group_symop_operation_xyz
x,y,z
-x,y,-z
-x,-y,-z
x,-y,z
1/2+x,1/2+y,z
1/2-x,1/2+y,-z
1/2-x,1/2-y,-z
1/2+x,1/2-y,z
loop_
_atom_site_type_symbol
_atom_site_label
_atom_site_fract_x
_atom_site_fract_y
_atom_site_fract_z
Si Si1 0.230812 0.703392 0.567755
Si Si2 0.418220 0.206147 0.433066
Si Si3 0.368353 0.695687 0.728843
Si Si4 0.814521 0.306584 0.844674
Si Si5 0.430918 0.296747 0.012453
Si Si6 0.964610 0.205057 0.184943
Si Si7 0.856289 0.299912 0.252890
O O1 0.229040 0.500000 0.572707
O O2 0.250000 0.750000 0.500000
O O3 0.149540 0.762047 0.552163
O O4 0.297482 0.769663 0.651533
O O5 0.500000 0.264219 0.500000
O O6 0.396047 0.258237 0.344138
O O7 0.419982 0.000000 0.434543
O O8 0.372316 0.500000 0.710274
O O9 0.351110 0.703478 0.801009
O O10 0.450608 0.768018 0.757469
O O11 0.831232 0.500000 0.838363
O O12 0.725647 0.279124 0.798722
O O13 0.854259 0.257626 0.936302
O O14 0.433340 0.500000 0.014205
O O15 0.440582 0.239089 0.095920
O O16 0.500000 0.237735 0.000000
O O17 0.908428 0.262861 0.214816
O O18 0.965648 0.000000 0.184946
O O19 0.844466 0.500000 0.253396
#
# Coordination Sequence:
#
# PCOD9203634 Si02
#       7
#     8   8   8   8   8   8   8
#     4  10  21  37  60  88 122 155 196 245 295 356
#     4   9  19  37  60  85 116 156 198 243 293 355
#     4  10  20  40  63  85 120 166 204 240 298 364
#     4  12  24  38  62  91 122 156 202 256 296 348
#     4  10  20  39  65  89 119 161 199 240 302 366
#     4  10  22  39  62  90 120 153 200 251 295 353
#     4  11  23  41  63  85 120 164 203 241 301 367
#
# _framework density 20.405884
#
# number of rings (size 3 to 8) (size 9 to 14) (size 15 to 20)
#    0.000    1.714    2.857    1.714    2.000    2.571 
#    0.000    0.000    0.000    2.143    0.000    0.000 
#    0.000    0.000    0.000    0.000    0.000    0.000 
#
# Total GULP energy -156435.382973 kJ/mol
# GULP energy per Si atom -5586.977963 kJ/mol
# Density = 2.035944 g / cm^3
# Si number density = 20.405884 Si / 1000 Ang^3
#
#
#
# Elastic Constant Matrix: (Units=GPa)
#
#
# Indices 1 2 3 4 5 6 
#
# 1 114.8083 -10.0376 63.5395 0.0000 2.2735 0.0000
# 2 -10.0376 19.1534 3.8387 0.0000 4.3609 0.0000
# 3 63.5395 3.8387 139.9202 0.0000 11.6847 0.0000
# 4 0.0000 0.0000 0.0000 2.0028 0.0000 -16.0550
# 5 2.2735 4.3609 11.6847 0.0000 39.8814 0.0000
# 6 0.0000 0.0000 0.0000 -16.0550 0.0000 19.3587
#
#
#
# Elastic Compliance Matrix: (Units=1/GPa)
#
#
# Indices 1 2 3 4 5 6 
#
# 1 0.012713 0.007825 -0.006003 0.000000 0.000178 0.000000
# 2 0.007825 0.058497 -0.004702 0.000000 -0.005465 0.000000
# 3 -0.006003 -0.004702 0.010179 0.000000 -0.002126 0.000000
# 4 0.000000 0.000000 0.000000 -0.088399 0.000000 -0.073313
# 5 0.000178 -0.005465 -0.002126 0.000000 0.026285 0.000000
# 6 0.000000 0.000000 0.000000 -0.073313 0.000000 -0.009146
#
#
# Mechanical properties :
#
#
# Convention : Reuss Voigt Hill
#
# Bulk Modulus (GPa) = 13.22221 43.17368 28.19794
# Shear Modulus (GPa) = 121.65828 26.68469 74.17149
#
# Velocity S-wave (km/s) = 7.72972 3.62013 6.03548
# Velocity P-wave (km/s) = 9.28216 6.21910 7.90050
#
# Compressibility (1/GPa) = 0.07563033
#
# Stress axis : x y z
#
# Youngs Moduli (GPa) = 78.66053 17.09477 98.23815
#
# Poissons Ratio (x) = -0.13376 0.58969
# Poissons Ratio (y) = -0.61550 0.46190
# Poissons Ratio (z) = 0.47217 0.08038
#
# Static dielectric constant tensor:
#      x y z
#    x 1.688900 0.000000 0.020770 
#    y 0.000000 1.740880 0.000000 
#    z 0.020770 0.000000 1.715770 
# 
# From -- ./inp_files/281707.got.cif
#   From: 2010.05.17/outbox.cif.g08.bks.cpg/sg12_141_cif.got.tgz:281707.got - 2010.06.03 13:09:07.
