data_PCOD9203531
_publ_section_title
;
Structure prediction by ZEFSAII (Michael W. Deem and Ramdas Pophale) SiO2 
 PCOD9203531
Probable space group: C 2/M
;
_chemical_formula_sum "Si O2"
_cell_formula_units_Z 56
_cell_length_a 29.045944
_cell_length_b 14.688650
_cell_length_c 8.938785
_cell_angle_alpha 90.000000
_cell_angle_beta 126.730642
_cell_angle_gamma 90.000000
_cell_volume 3056.507809
_symmetry_space_group_name_H-M "C 2/M"
_symmetry_group_IT_number 12
_symmetry_cell_setting 'monoclinic'
loop_
_space_group_symop_operation_xyz
x,y,z
-x,y,-z
-x,-y,-z
x,-y,z
1/2+x,1/2+y,z
1/2-x,1/2+y,-z
1/2-x,1/2-y,-z
1/2+x,1/2-y,z
loop_
_atom_site_type_symbol
_atom_site_label
_atom_site_fract_x
_atom_site_fract_y
_atom_site_fract_z
Si Si1 0.950181 0.889950 0.628402
Si Si2 0.832623 0.391234 0.524292
Si Si3 0.763637 0.744711 0.201228
Si Si4 0.349472 0.325582 0.868800
Si Si5 0.935117 0.730082 0.835595
Si Si6 0.075129 0.104323 0.734931
Si Si7 0.726526 0.394922 0.544040
O O1 0.938467 0.822006 0.741505
O O2 0.915162 0.856821 0.412256
O O3 0.015692 0.871097 0.701415
O O4 0.943724 0.000000 0.651061
O O5 0.835997 0.500000 0.510860
O O6 0.804990 0.338588 0.329373
O O7 0.893795 0.345307 0.680194
O O8 0.786127 0.373868 0.569093
O O9 0.702966 0.727588 0.162588
O O10 0.784938 0.833380 0.333401
O O11 0.750000 0.750000 0.000000
O O12 0.400402 0.260422 0.914888
O O13 0.323243 0.377256 0.674987
O O14 0.374445 0.386189 0.049709
O O15 0.000000 0.700855 0.000000
O O16 0.066091 0.000000 0.679335
O O17 0.727963 0.500000 0.589185
#
# Coordination Sequence:
#
# PCOD9203531 Si02
#       7
#     8   8   8   8   8   8   8
#     4   9  20  34  51  81 125 164 193 234 294 358
#     4  10  22  43  63  84 121 158 201 256 298 345
#     4  11  23  40  63  91 119 152 198 245 307 365
#     4  11  20  36  57  87 118 152 197 247 291 358
#     4  12  22  36  60  90 118 161 208 245 299 356
#     4   9  18  34  52  81 120 160 196 233 291 360
#     4  10  20  39  64  87 116 154 193 245 304 358
#
# _framework density 18.321563000000001
#
# number of rings (size 3 to 8) (size 9 to 14) (size 15 to 20)
#    0.000    1.714    4.286    2.143    2.000    2.857 
#    0.000    0.000    0.000    0.000    0.000    3.000 
#    0.000    0.000    0.000    0.000    0.000    0.000 
#
# Total GULP energy -156007.551261 kJ/mol
# GULP energy per Si atom -5571.698259 kJ/mol
# Density = 1.827986 g / cm^3
# Si number density = 18.321563 Si / 1000 Ang^3
#
#
#
# Elastic Constant Matrix: (Units=GPa)
#
#
# Indices 1 2 3 4 5 6 
#
# 1 58.9937 28.0421 32.9760 0.0000 16.0240 0.0000
# 2 28.0421 91.2805 58.8062 0.0000 -3.9247 0.0000
# 3 32.9760 58.8062 143.7298 0.0000 3.0175 0.0000
# 4 0.0000 0.0000 0.0000 22.2523 0.0000 4.5767
# 5 16.0240 -3.9247 3.0175 0.0000 32.7298 0.0000
# 6 0.0000 0.0000 0.0000 4.5767 0.0000 16.7483
#
#
#
# Elastic Compliance Matrix: (Units=1/GPa)
#
#
# Indices 1 2 3 4 5 6 
#
# 1 0.025066 -0.006406 -0.002862 0.000000 -0.012776 0.000000
# 2 -0.006406 0.016696 -0.005480 0.000000 0.005644 0.000000
# 3 -0.002862 -0.005480 0.009860 0.000000 -0.000165 0.000000
# 4 0.000000 0.000000 0.000000 0.047615 0.000000 -0.013012
# 5 -0.012776 0.005644 -0.000165 0.000000 0.037500 0.000000
# 6 0.000000 0.000000 0.000000 -0.013012 0.000000 0.063263
#
#
# Mechanical properties :
#
#
# Convention : Reuss Voigt Hill
#
# Bulk Modulus (GPa) = 45.19491 59.29473 52.24482
# Shear Modulus (GPa) = 21.10847 25.95805 23.53326
#
# Velocity S-wave (km/s) = 3.39796 3.76813 3.58782
# Velocity P-wave (km/s) = 6.33372 7.16696 6.76318
#
# Compressibility (1/GPa) = 0.02212639
#
# Stress axis : x y z
#
# Youngs Moduli (GPa) = 39.89467 59.89353 101.42437
#
# Poissons Ratio (x) = 0.38369 0.29024
# Poissons Ratio (y) = 0.25558 0.55579
# Poissons Ratio (z) = 0.11416 0.32821
#
# Static dielectric constant tensor:
#      x y z
#    x 1.666690 0.000000 0.004410 
#    y 0.000000 1.644150 0.000000 
#    z 0.004410 0.000000 1.702820 
# 
# From -- ./inp_files/111708.got.cif
#   From: 2010.05.17/outbox.cif.g08.bks.cpg/sg12_56_cif.got.tgz:111708.got - 2010.06.03 13:09:07.
