data_PCOD9203970
_publ_section_title
;
Structure prediction by ZEFSAII (Michael W. Deem and Ramdas Pophale) SiO2 
 PCOD9203970
Probable space group: C 2/M
;
_chemical_formula_sum "Si O2"
_cell_formula_units_Z 64
_cell_length_a 13.970481
_cell_length_b 27.292845
_cell_length_c 11.410076
_cell_angle_alpha 90.000000
_cell_angle_beta 42.137523
_cell_angle_gamma 90.000000
_cell_volume 2918.868438
_symmetry_space_group_name_H-M "C 2/M"
_symmetry_group_IT_number 12
_symmetry_cell_setting 'monoclinic'
loop_
_space_group_symop_operation_xyz
x,y,z
-x,y,-z
-x,-y,-z
x,-y,z
1/2+x,1/2+y,z
1/2-x,1/2+y,-z
1/2-x,1/2-y,-z
1/2+x,1/2-y,z
loop_
_atom_site_type_symbol
_atom_site_label
_atom_site_fract_x
_atom_site_fract_y
_atom_site_fract_z
Si Si1 0.145550 0.247927 0.923562
Si Si2 0.215164 0.945385 0.860780
Si Si3 0.995110 0.870789 0.369527
Si Si4 0.517687 0.155871 0.152396
Si Si5 0.714800 0.650831 0.982997
Si Si6 0.707088 0.555193 0.587993
Si Si7 0.274807 0.287113 0.583208
Si Si8 0.522552 0.946753 0.193575
O O1 0.177771 0.206559 0.987803
O O2 0.260120 0.257385 0.717953
O O3 0.101231 0.301307 0.009895
O O4 0.000000 0.228029 0.000000
O O5 0.152399 0.893104 0.959816
O O6 0.225465 0.940687 0.711617
O O7 0.360121 0.947187 0.807694
O O8 0.147770 0.000000 0.944311
O O9 0.898642 0.906363 0.376804
O O10 0.917772 0.817963 0.441697
O O11 0.000000 0.887962 0.500000
O O12 0.148464 0.863721 0.169306
O O13 0.612528 0.152316 0.184106
O O14 0.356755 0.174122 0.302738
O O15 0.537218 0.099944 0.095865
O O16 0.654637 0.500000 0.610715
O O17 0.865712 0.559311 0.390969
O O18 0.250000 0.250000 0.500000
O O19 0.534040 0.000000 0.125617
#
# Coordination Sequence:
#
# PCOD9203970 Si02
#       8
#     8   8   8   8   8   8   8   8
#     4  10  22  38  63  91 126 170 211 265 317 381
#     4   9  20  37  65 101 131 164 210 275 335 386
#     4  12  26  43  63  93 132 174 214 264 318 386
#     4  10  20  40  62  91 125 167 209 261 319 380
#     4  11  24  40  66  94 132 168 216 263 325 395
#     4  10  21  39  65  95 132 171 213 266 326 389
#     4  11  24  42  65  91 126 164 217 270 321 383
#     4   9  17  35  65  99 130 162 209 270 335 390
#
# _framework density 21.926303999999998
#
# number of rings (size 3 to 8) (size 9 to 14) (size 15 to 20)
#    0.000    1.750    1.250    3.000    3.500    3.250 
#    0.000    1.250    0.000    5.625    0.000    0.000 
#    0.000    0.000    0.000    0.000    0.000    0.000 
#
# Total GULP energy -178260.724847 kJ/mol
# GULP energy per Si atom -5570.647651 kJ/mol
# Density = 2.187640 g / cm^3
# Si number density = 21.926304 Si / 1000 Ang^3
#
#
#
# Elastic Constant Matrix: (Units=GPa)
#
#
# Indices 1 2 3 4 5 6 
#
# 1 71.0214 30.9086 9.3724 0.0000 -0.1902 0.0000
# 2 30.9086 151.7704 35.8783 0.0000 18.9838 0.0000
# 3 9.3724 35.8783 51.8625 0.0000 5.7366 0.0000
# 4 0.0000 0.0000 0.0000 -16.3846 0.0000 -32.2419
# 5 -0.1902 18.9838 5.7366 0.0000 32.0791 0.0000
# 6 0.0000 0.0000 0.0000 -32.2419 0.0000 -13.5185
#
#
#
# Elastic Compliance Matrix: (Units=1/GPa)
#
#
# Indices 1 2 3 4 5 6 
#
# 1 0.015611 -0.003260 -0.000806 0.000000 0.002166 0.000000
# 2 -0.003260 0.009029 -0.005166 0.000000 -0.004439 0.000000
# 3 -0.000806 -0.005166 0.023121 0.000000 -0.001082 0.000000
# 4 0.000000 0.000000 0.000000 0.016525 0.000000 -0.039413
# 5 0.002166 -0.004439 -0.001082 0.000000 0.034006 0.000000
# 6 0.000000 0.000000 0.000000 -0.039413 0.000000 0.020029
#
#
# Mechanical properties :
#
#
# Convention : Reuss Voigt Hill
#
# Bulk Modulus (GPa) = 34.13206 47.44144 40.78675
# Shear Modulus (GPa) = 34.11777 13.66820 23.89298
#
# Velocity S-wave (km/s) = 3.94892 2.49945 3.30463
# Velocity P-wave (km/s) = 6.03262 5.47845 5.76220
#
# Compressibility (1/GPa) = 0.02929797
#
# Stress axis : x y z
#
# Youngs Moduli (GPa) = 64.05746 110.75073 43.25045
#
# Poissons Ratio (x) = 0.36101 0.03485
# Poissons Ratio (y) = 0.20881 0.22345
# Poissons Ratio (z) = 0.05161 0.57218
#
# Static dielectric constant tensor:
#      x y z
#    x 1.893590 0.000000 -0.010510 
#    y 0.000000 1.849970 0.000000 
#    z -0.010510 0.000000 1.798450 
# 
# From -- ./inp_files/149742.got.cif
#   From: 2010.05.17/outbox.cif.g08.bks.cpg/sg12_75_cif.got.tgz:149742.got - 2010.06.03 13:09:07.
