data_PCOD9203713
_publ_section_title
;
Structure prediction by ZEFSAII (Michael W. Deem and Ramdas Pophale) SiO2 
 PCOD9203713
Probable space group: C 2/M
;
_chemical_formula_sum "Si O2"
_cell_formula_units_Z 50
_cell_length_a 17.859135
_cell_length_b 15.259910
_cell_length_c 30.269447
_cell_angle_alpha 90.000000
_cell_angle_beta 162.295503
_cell_angle_gamma 90.000000
_cell_volume 2508.675476
_symmetry_space_group_name_H-M "C 2/M"
_symmetry_group_IT_number 12
_symmetry_cell_setting 'monoclinic'
loop_
_space_group_symop_operation_xyz
x,y,z
-x,y,-z
-x,-y,-z
x,-y,z
1/2+x,1/2+y,z
1/2-x,1/2+y,-z
1/2-x,1/2-y,-z
1/2+x,1/2-y,z
loop_
_atom_site_type_symbol
_atom_site_label
_atom_site_fract_x
_atom_site_fract_y
_atom_site_fract_z
Si Si1 0.168865 0.899638 0.199681
Si Si2 0.317889 0.859260 0.470891
Si Si3 0.535208 0.678787 0.568492
Si Si4 0.500000 0.000000 0.500000
Si Si5 0.538051 0.237766 0.970074
Si Si6 0.961094 0.212521 0.151239
Si Si7 0.374733 0.601086 0.288010
O O1 0.454731 0.876684 0.367212
O O2 0.040860 0.830764 0.095391
O O3 0.049448 0.879622 0.180808
O O4 0.137636 0.000000 0.169709
O O5 0.347942 0.759689 0.471077
O O6 0.373529 0.923604 0.461236
O O7 0.073883 0.876545 0.362020
O O8 0.500000 0.638517 0.500000
O O9 0.522943 0.618897 0.604980
O O10 0.804329 0.724755 0.718444
O O11 0.357124 0.164827 0.848357
O O12 0.500000 0.241943 0.000000
O O13 0.818413 0.211822 0.116710
O O14 0.750000 0.250000 0.000000
O O15 0.304274 0.500000 0.244217
#
# Coordination Sequence:
#
# PCOD9203713 Si02
#       7
#     8   8   8   2   8   8   8
#     4  10  20  39  66  90 121 167 209 266 324 376
#     4  11  22  39  63  97 131 160 210 274 326 381
#     4  11  23  39  70  95 122 174 221 268 334 386
#     4  12  20  36  64 104 124 160 220 260 310 408
#     4  11  25  41  63  91 129 172 217 268 327 396
#     4   9  19  42  59  88 126 169 214 255 311 392
#     4  12  25  42  63  92 137 173 213 273 332 388
#
# _framework density 19.930835999999999
#
# number of rings (size 3 to 8) (size 9 to 14) (size 15 to 20)
#    0.000    1.280    7.200    0.480    2.240    1.600 
#    0.000    0.000    0.000    0.000    0.000    0.000 
#    0.000    0.000    0.000    0.000    0.000    0.000 
#
# Total GULP energy -139320.230961 kJ/mol
# GULP energy per Si atom -5572.809238 kJ/mol
# Density = 1.988547 g / cm^3
# Si number density = 19.930836 Si / 1000 Ang^3
#
#
#
# Elastic Constant Matrix: (Units=GPa)
#
#
# Indices 1 2 3 4 5 6 
#
# 1 141.2555 17.1911 20.8898 -0.0010 4.9067 0.0088
# 2 17.1911 73.5866 12.7006 -0.0090 5.9166 0.0080
# 3 20.8898 12.7006 51.0550 0.0565 6.5974 -0.0146
# 4 -0.0010 -0.0090 0.0565 -8.2348 -0.0045 3.6915
# 5 4.9067 5.9166 6.5974 -0.0045 34.8435 -0.0016
# 6 0.0088 0.0080 -0.0146 3.6915 -0.0016 25.3604
#
#
#
# Elastic Compliance Matrix: (Units=1/GPa)
#
#
# Indices 1 2 3 4 5 6 
#
# 1 0.007657 -0.001284 -0.002770 -0.000019 -0.000336 -0.000001
# 2 -0.001284 0.014524 -0.002862 -0.000035 -0.001743 -0.000001
# 3 -0.002770 -0.002862 0.021854 0.000152 -0.003262 -0.000008
# 4 -0.000019 -0.000035 0.000152 -0.113996 -0.000034 0.016594
# 5 -0.000336 -0.001743 -0.003262 -0.000034 0.029661 0.000006
# 6 -0.000001 -0.000001 -0.000008 0.016594 0.000006 0.037016
#
#
# Mechanical properties :
#
#
# Convention : Reuss Voigt Hill
#
# Bulk Modulus (GPa) = 33.11091 40.82891 36.96991
# Shear Modulus (GPa) = 242.55013 24.73486 133.64250
#
# Velocity S-wave (km/s) = 11.04355 3.52665 8.19748
# Velocity P-wave (km/s) = 13.38889 6.09203 10.40133
#
# Compressibility (1/GPa) = 0.03020153
#
# Stress axis : x y z
#
# Youngs Moduli (GPa) = 130.60050 68.85387 45.75915
#
# Poissons Ratio (x) = 0.08839 0.12676
# Poissons Ratio (y) = 0.16765 0.13098
# Poissons Ratio (z) = 0.36179 0.19708
#
# Static dielectric constant tensor:
#      x y z
#    x 1.764610 0.000000 -0.021250 
#    y 0.000000 1.665660 -0.000010 
#    z -0.021250 -0.000010 1.730860 
# 
# From -- ./inp_files/379488.got.cif
#   From: 2010.05.17/outbox.cif.g08.bks.cpg/sg12_190_cif.got.tgz:379488.got - 2010.06.03 13:09:07.
