data_PCOD9203045
_publ_section_title
;
Structure prediction by ZEFSAII (Michael W. Deem and Ramdas Pophale) SiO2 
 PCOD9203045
Probable space group: C 2/M
;
_chemical_formula_sum "Si O2"
_cell_formula_units_Z 56
_cell_length_a 25.809785
_cell_length_b 14.452802
_cell_length_c 15.005235
_cell_angle_alpha 90.000000
_cell_angle_beta 153.061282
_cell_angle_gamma 90.000000
_cell_volume 2535.789200
_symmetry_space_group_name_H-M "C 2/M"
_symmetry_group_IT_number 12
_symmetry_cell_setting 'monoclinic'
loop_
_space_group_symop_operation_xyz
x,y,z
-x,y,-z
-x,-y,-z
x,-y,z
1/2+x,1/2+y,z
1/2-x,1/2+y,-z
1/2-x,1/2-y,-z
1/2+x,1/2-y,z
loop_
_atom_site_type_symbol
_atom_site_label
_atom_site_fract_x
_atom_site_fract_y
_atom_site_fract_z
Si Si1 0.163052 0.764714 0.233700
Si Si2 0.452040 0.603407 0.285847
Si Si3 0.910174 0.602521 0.143325
Si Si4 0.600784 0.783617 0.323882
Si Si5 0.788172 0.165749 0.272770
Si Si6 0.378803 0.215034 0.269993
Si Si7 0.025795 0.893612 0.885114
O O1 0.275168 0.811589 0.450375
O O2 0.098684 0.708660 0.213637
O O3 0.218057 0.691433 0.251909
O O4 0.095017 0.839508 0.068854
O O5 0.429002 0.500000 0.284259
O O6 0.585967 0.627466 0.511457
O O7 0.385607 0.685190 0.232022
O O8 0.422172 0.604627 0.135046
O O9 0.959727 0.500000 0.228011
O O10 0.871657 0.642113 0.179987
O O11 0.001836 0.668451 0.231663
O O12 0.794555 0.600883 0.909422
O O13 0.582648 0.672326 0.300299
O O14 0.798768 0.261311 0.230906
O O15 0.500000 0.194679 0.500000
O O16 0.002744 0.000000 0.874692
#
# Coordination Sequence:
#
# PCOD9203045 Si02
#       7
#     8   8   8   8   8   8   8
#     4  11  23  41  67  92 131 170 214 265 337 392
#     4  10  20  38  65  98 130 164 215 274 329 387
#     4  12  25  42  63  92 130 177 225 269 327 406
#     4  11  23  44  66  91 131 176 212 273 333 392
#     4  11  21  39  64  94 127 170 214 268 332 395
#     4  10  21  40  66  90 128 170 217 277 333 385
#     4  11  22  40  70 100 128 165 219 276 330 387
#
# _framework density 22.083855
#
# number of rings (size 3 to 8) (size 9 to 14) (size 15 to 20)
#    0.000    1.143    4.286    2.143    0.000    5.143 
#    0.000    6.429    0.000    0.000    0.000    0.000 
#    0.000    0.000    0.000    0.000    0.000    0.000 
#
# Total GULP energy -156150.462780 kJ/mol
# GULP energy per Si atom -5576.802242 kJ/mol
# Density = 2.203359 g / cm^3
# Si number density = 22.083855 Si / 1000 Ang^3
#
#
#
# Elastic Constant Matrix: (Units=GPa)
#
#
# Indices 1 2 3 4 5 6 
#
# 1 52.8967 6.2954 26.1342 0.0000 -27.6639 0.0000
# 2 6.2954 102.3022 35.2233 0.0000 -9.8842 0.0000
# 3 26.1342 35.2233 110.5683 0.0000 -20.3443 0.0000
# 4 0.0000 0.0000 0.0000 11.9345 0.0000 2.2903
# 5 -27.6639 -9.8842 -20.3443 0.0000 37.2169 0.0000
# 6 0.0000 0.0000 0.0000 2.2903 0.0000 3.6305
#
#
#
# Elastic Compliance Matrix: (Units=1/GPa)
#
#
# Indices 1 2 3 4 5 6 
#
# 1 0.032357 0.001553 -0.004048 0.000000 0.022251 0.000000
# 2 0.001553 0.011096 -0.003499 0.000000 0.002188 0.000000
# 3 -0.004048 -0.003499 0.011553 0.000000 0.002377 0.000000
# 4 0.000000 0.000000 0.000000 0.095332 0.000000 -0.060139
# 5 0.022251 0.002188 0.002377 0.000000 0.045289 0.000000
# 6 0.000000 0.000000 0.000000 -0.060139 0.000000 0.313381
#
#
# Mechanical properties :
#
#
# Convention : Reuss Voigt Hill
#
# Bulk Modulus (GPa) = 23.24744 44.56368 33.90556
# Shear Modulus (GPa) = 9.33994 23.76401 16.55197
#
# Velocity S-wave (km/s) = 2.05876 3.28393 2.74068
# Velocity P-wave (km/s) = 4.02505 5.88235 5.03999
#
# Compressibility (1/GPa) = 0.04301549
#
# Stress axis : x y z
#
# Youngs Moduli (GPa) = 30.90545 90.12608 86.55693
#
# Poissons Ratio (x) = -0.13992 0.35042
# Poissons Ratio (y) = -0.04798 0.30286
# Poissons Ratio (z) = 0.12512 0.31535
#
# Static dielectric constant tensor:
#      x y z
#    x 1.934360 0.000000 -0.036090 
#    y 0.000000 1.791120 0.000000 
#    z -0.036090 0.000000 1.869380 
# 
# From -- ./inp_files/246590.got.cif
#   From: 2010.05.17/outbox.cif.g08.bks.cpg/sg12_124_cif.got.tgz:246590.got - 2010.06.03 13:09:07.
