data_PCOD9203069
_publ_section_title
;
Structure prediction by ZEFSAII (Michael W. Deem and Ramdas Pophale) SiO2 
 PCOD9203069
Probable space group: C 2/M
;
_chemical_formula_sum "Si O2"
_cell_formula_units_Z 56
_cell_length_a 8.906197
_cell_length_b 30.687896
_cell_length_c 20.986085
_cell_angle_alpha 90.000000
_cell_angle_beta 30.269486
_cell_angle_gamma 90.000000
_cell_volume 2891.210664
_symmetry_space_group_name_H-M "C 2/M"
_symmetry_group_IT_number 12
_symmetry_cell_setting 'monoclinic'
loop_
_space_group_symop_operation_xyz
x,y,z
-x,y,-z
-x,-y,-z
x,-y,z
1/2+x,1/2+y,z
1/2-x,1/2+y,-z
1/2-x,1/2-y,-z
1/2+x,1/2-y,z
loop_
_atom_site_type_symbol
_atom_site_label
_atom_site_fract_x
_atom_site_fract_y
_atom_site_fract_z
Si Si1 0.690802 0.099624 0.495254
Si Si2 0.500000 0.751652 0.000000
Si Si3 0.000000 0.749670 0.500000
Si Si4 0.033154 0.688817 0.105836
Si Si5 0.977062 0.811282 0.391964
Si Si6 0.825387 0.051666 0.244049
Si Si7 0.668066 0.400465 0.005648
Si Si8 0.704516 0.448753 0.234665
O O1 0.500000 0.105868 0.500000
O O2 0.483350 0.073303 0.619924
O O3 0.789419 0.147018 0.483290
O O4 0.982129 0.072896 0.367136
O O5 0.768463 0.720922 0.923798
O O6 0.578788 0.782793 0.912323
O O7 0.081925 0.781052 0.411402
O O8 0.267992 0.719028 0.424782
O O9 0.754959 0.672504 0.248780
O O10 0.233418 0.648253 0.010667
O O11 0.964609 0.076337 0.132909
O O12 0.050118 0.056614 0.221809
O O13 0.790918 0.000000 0.244568
O O14 0.500000 0.397664 0.000000
O O15 0.971858 0.427496 0.885591
O O16 0.727775 0.500000 0.238852
#
# Coordination Sequence:
#
# PCOD9203069 Si02
#       8
#     8   4   4   8   8   8   8   8
#     4  10  20  38  66  93 124 156 202 259 305 362
#     4  10  24  42  62  90 124 164 202 258 306 362
#     4  10  24  38  60  90 122 160 198 252 304 366
#     4  11  23  42  63  92 124 162 209 251 307 362
#     4  11  21  41  61  90 122 159 204 248 306 362
#     4  10  23  42  65  94 123 161 210 255 309 370
#     4  12  25  40  62  92 130 163 205 257 307 369
#     4  10  21  41  67  91 118 160 207 257 313 371
#
# _framework density 19.369047999999999
#
# number of rings (size 3 to 8) (size 9 to 14) (size 15 to 20)
#    0.000    1.429    2.857    2.143    2.000    5.143 
#   10.286    0.000    0.000    1.714    0.000    0.000 
#    0.000    0.000    0.000    0.000    0.000    0.000 
#
# Total GULP energy -156484.343236 kJ/mol
# GULP energy per Si atom -5588.726544 kJ/mol
# Density = 1.932496 g / cm^3
# Si number density = 19.369048 Si / 1000 Ang^3
#
#
#
# Elastic Constant Matrix: (Units=GPa)
#
#
# Indices 1 2 3 4 5 6 
#
# 1 36.7105 30.5293 12.4754 0.0000 4.6012 0.0001
# 2 30.5293 135.0758 45.1454 -0.0002 7.7975 0.0000
# 3 12.4754 45.1454 110.4980 0.0000 11.9356 0.0001
# 4 0.0000 -0.0002 0.0000 38.2243 0.0002 2.2229
# 5 4.6012 7.7975 11.9356 0.0002 7.0622 -0.0001
# 6 0.0001 0.0000 0.0001 2.2229 -0.0001 11.8503
#
#
#
# Elastic Compliance Matrix: (Units=1/GPa)
#
#
# Indices 1 2 3 4 5 6 
#
# 1 0.035020 -0.007234 0.000738 0.000000 -0.016077 0.000000
# 2 -0.007234 0.010178 -0.003226 0.000000 -0.001073 0.000000
# 3 0.000738 -0.003226 0.012174 0.000000 -0.017495 0.000000
# 4 0.000000 0.000000 0.000000 0.026450 -0.000001 -0.004962
# 5 -0.016077 -0.001073 -0.017495 -0.000001 0.182827 0.000001
# 6 0.000000 0.000000 0.000000 -0.004962 0.000001 0.085317
#
#
# Mechanical properties :
#
#
# Convention : Reuss Voigt Hill
#
# Bulk Modulus (GPa) = 26.36444 50.95384 38.65914
# Shear Modulus (GPa) = 13.01906 24.36962 18.69434
#
# Velocity S-wave (km/s) = 2.59541 3.55092 3.11008
# Velocity P-wave (km/s) = 4.75634 6.57085 5.73580
#
# Compressibility (1/GPa) = 0.03792988
#
# Stress axis : x y z
#
# Youngs Moduli (GPa) = 28.55503 98.24826 82.14048
#
# Poissons Ratio (x) = 0.71070 -0.06064
# Poissons Ratio (y) = 0.20656 0.26497
# Poissons Ratio (z) = -0.02108 0.31693
#
# Static dielectric constant tensor:
#      x y z
#    x 1.658650 0.000000 -0.004190 
#    y 0.000000 1.655800 0.000000 
#    z -0.004190 0.000000 1.651780 
# 
# From -- ./inp_files/303037.got.cif
#   From: 2010.05.17/outbox.cif.g08.bks.cpg/sg12_152_cif.got.tgz:303037.got - 2010.06.03 13:09:07.
