data_PCOD9203745
_publ_section_title
;
Structure prediction by ZEFSAII (Michael W. Deem and Ramdas Pophale) SiO2 
 PCOD9203745
Probable space group: C 2/M
;
_chemical_formula_sum "Si O2"
_cell_formula_units_Z 56
_cell_length_a 14.960467
_cell_length_b 19.081539
_cell_length_c 8.933158
_cell_angle_alpha 90.000000
_cell_angle_beta 114.512732
_cell_angle_gamma 90.000000
_cell_volume 2320.291132
_symmetry_space_group_name_H-M "C 2/M"
_symmetry_group_IT_number 12
_symmetry_cell_setting 'monoclinic'
loop_
_space_group_symop_operation_xyz
x,y,z
-x,y,-z
-x,-y,-z
x,-y,z
1/2+x,1/2+y,z
1/2-x,1/2+y,-z
1/2-x,1/2-y,-z
1/2+x,1/2-y,z
loop_
_atom_site_type_symbol
_atom_site_label
_atom_site_fract_x
_atom_site_fract_y
_atom_site_fract_z
Si Si1 0.939727 0.920522 0.305509
Si Si2 0.200101 0.920878 0.199743
Si Si3 0.927320 0.189367 0.072154
Si Si4 0.426323 0.209379 0.332290
Si Si5 0.593427 0.923600 0.833781
Si Si6 0.291033 0.917635 0.781746
Si Si7 0.779260 0.329914 0.489243
O O1 0.982331 0.866773 0.215367
O O2 0.823379 0.904347 0.250905
O O3 0.000000 0.916769 0.500000
O O4 0.943613 0.000000 0.251664
O O5 0.306737 0.928968 0.194950
O O6 0.207372 0.889725 0.372016
O O7 0.157027 0.000000 0.167495
O O8 0.147862 0.860030 0.067768
O O9 0.889004 0.244478 0.167934
O O10 0.000000 0.222082 0.000000
O O11 0.500000 0.247002 0.500000
O O12 0.467696 0.139216 0.281935
O O13 0.347375 0.182583 0.393807
O O14 0.543992 0.000000 0.797697
O O15 0.634684 0.908202 0.027926
O O16 0.315927 0.864350 0.667338
O O17 0.295561 0.000000 0.741516
O O18 0.750000 0.250000 0.500000
#
# Coordination Sequence:
#
# PCOD9203745 Si02
#       7
#     8   8   8   8   8   8   8
#     4  10  21  38  61  92 136 182 218 261 323 390
#     4  10  22  41  63  95 132 172 220 272 317 388
#     4  12  26  39  64  91 134 177 223 269 327 393
#     4  11  27  46  65  93 136 172 220 284 341 401
#     4   9  20  42  71  95 122 167 220 276 337 395
#     4  10  20  39  66  97 133 169 220 275 324 399
#     4  11  25  39  68  96 130 176 223 270 334 396
#
# _framework density 24.134903000000001
#
# number of rings (size 3 to 8) (size 9 to 14) (size 15 to 20)
#    0.000    1.571    1.429    2.143    6.000    3.143 
#    0.000    0.000    0.000    2.143    0.000    0.000 
#    0.000    0.000    0.000    0.000    0.000    0.000 
#
# Total GULP energy -156298.748751 kJ/mol
# GULP energy per Si atom -5582.098170 kJ/mol
# Density = 2.407997 g / cm^3
# Si number density = 24.134903 Si / 1000 Ang^3
#
#
#
# Elastic Constant Matrix: (Units=GPa)
#
#
# Indices 1 2 3 4 5 6 
#
# 1 53.7231 11.8649 13.2238 0.0000 -13.9059 0.0000
# 2 11.8649 136.4416 68.9547 0.0000 -24.9090 0.0000
# 3 13.2238 68.9547 110.7950 0.0000 -29.3770 0.0000
# 4 0.0000 0.0000 0.0000 42.1771 0.0000 -3.4743
# 5 -13.9059 -24.9090 -29.3770 0.0000 28.4554 0.0000
# 6 0.0000 0.0000 0.0000 -3.4743 0.0000 -7.7978
#
#
#
# Elastic Compliance Matrix: (Units=1/GPa)
#
#
# Indices 1 2 3 4 5 6 
#
# 1 0.021317 -0.000070 0.000338 0.000000 0.010705 0.000000
# 2 -0.000070 0.010941 -0.005880 0.000000 0.003473 0.000000
# 3 0.000338 -0.005880 0.015592 0.000000 0.011115 0.000000
# 4 0.000000 0.000000 0.000000 0.022870 0.000000 -0.010190
# 5 0.010705 0.003473 0.011115 0.000000 0.054888 0.000000
# 6 0.000000 0.000000 0.000000 -0.010190 0.000000 -0.123701
#
#
# Mechanical properties :
#
#
# Convention : Reuss Voigt Hill
#
# Bulk Modulus (GPa) = 27.30381 54.33849 40.82115
# Shear Modulus (GPa) = 197.30874 26.36137 111.83506
#
# Velocity S-wave (km/s) = 9.05152 3.30851 6.81455
# Velocity P-wave (km/s) = 10.98078 6.09576 8.88076
#
# Compressibility (1/GPa) = 0.03662493
#
# Stress axis : x y z
#
# Youngs Moduli (GPa) = 46.91052 91.40053 64.13571
#
# Poissons Ratio (x) = 0.00641 -0.02166
# Poissons Ratio (y) = 0.00329 0.37712
# Poissons Ratio (z) = -0.01584 0.53744
#
# Static dielectric constant tensor:
#      x y z
#    x 2.010200 0.000000 0.020310 
#    y 0.000000 2.012080 0.000000 
#    z 0.020310 0.000000 1.939580 
# 
# From -- ./inp_files/76004.got.cif
#   From: 2010.05.17/outbox.cif.g08.bks.cpg/sg12_39_cif.got.tgz:76004.got - 2010.06.03 13:09:07.
