data_PCOD9203403
_publ_section_title
;
Structure prediction by ZEFSAII (Michael W. Deem and Ramdas Pophale) SiO2 
 PCOD9203403
Probable space group: C 2/M
;
_chemical_formula_sum "Si O2"
_cell_formula_units_Z 58
_cell_length_a 29.490151
_cell_length_b 19.272338
_cell_length_c 13.936775
_cell_angle_alpha 90.000000
_cell_angle_beta 20.908884
_cell_angle_gamma 90.000000
_cell_volume 2826.827873
_symmetry_space_group_name_H-M "C 2/M"
_symmetry_group_IT_number 12
_symmetry_cell_setting 'monoclinic'
loop_
_space_group_symop_operation_xyz
x,y,z
-x,y,-z
-x,-y,-z
x,-y,z
1/2+x,1/2+y,z
1/2-x,1/2+y,-z
1/2-x,1/2-y,-z
1/2+x,1/2-y,z
loop_
_atom_site_type_symbol
_atom_site_label
_atom_site_fract_x
_atom_site_fract_y
_atom_site_fract_z
Si Si1 0.000000 0.500000 0.000000
Si Si2 0.934975 0.418341 0.524818
Si Si3 0.105099 0.925156 0.000107
Si Si4 0.733601 0.309791 0.855404
Si Si5 0.914049 0.271154 0.317252
Si Si6 0.870661 0.670558 0.981972
Si Si7 0.339266 0.617548 0.467807
Si Si8 0.804953 0.394310 0.436807
O O1 0.071507 0.440589 0.794644
O O2 0.905024 0.500000 0.561467
O O3 0.818817 0.362287 0.750971
O O4 0.000000 0.417757 0.500000
O O5 0.036897 0.384918 0.249948
O O6 0.123991 0.860504 0.033177
O O7 0.199983 0.911548 0.723881
O O8 0.138324 0.000000 0.977556
O O9 0.961366 0.926852 0.249565
O O10 0.825401 0.288208 0.585122
O O11 0.672059 0.235001 0.002641
O O12 0.899319 0.191659 0.319724
O O13 0.854749 0.316715 0.350231
O O14 0.052772 0.293890 0.080160
O O15 0.749470 0.631926 0.265543
O O16 0.253526 0.589726 0.551086
#
# Coordination Sequence:
#
# PCOD9203403 Si02
#       8
#     2   8   8   8   8   8   8   8
#     4  12  24  40  50  72 112 152 200 266 296 344
#     4  10  22  41  66  95 125 157 195 246 307 373
#     4  11  22  38  57  80 118 163 201 244 307 362
#     4   9  19  37  63  87 117 154 198 248 298 363
#     4   9  19  38  57  81 111 153 202 255 296 343
#     4  10  20  39  62  90 120 153 205 252 301 364
#     4  11  22  36  58  84 116 158 201 255 304 350
#     4  11  23  38  54  78 116 156 208 255 295 346
#
# _framework density 20.517697999999999
#
# number of rings (size 3 to 8) (size 9 to 14) (size 15 to 20)
#    0.000    1.793    2.069    2.069    0.966    1.655 
#   13.655    0.000    0.000    0.000    0.000    2.897 
#    0.000    0.000    0.000    0.000    0.000    0.000 
#
# Total GULP energy -161504.380302 kJ/mol
# GULP energy per Si atom -5569.116562 kJ/mol
# Density = 2.047100 g / cm^3
# Si number density = 20.517698 Si / 1000 Ang^3
#
#
#
# Elastic Constant Matrix: (Units=GPa)
#
#
# Indices 1 2 3 4 5 6 
#
# 1 31.0480 6.1643 -0.7418 -0.0001 -12.8370 0.0001
# 2 6.1643 96.3369 5.9347 0.0000 -8.6596 0.0001
# 3 -0.7418 5.9347 68.0778 -0.0001 -12.0251 0.0001
# 4 -0.0001 0.0000 -0.0001 27.2722 0.0001 0.0871
# 5 -12.8370 -8.6596 -12.0251 0.0001 19.8183 -0.0001
# 6 0.0001 0.0001 0.0001 0.0871 -0.0001 16.0890
#
#
#
# Elastic Compliance Matrix: (Units=1/GPa)
#
#
# Indices 1 2 3 4 5 6 
#
# 1 0.046444 -0.000327 0.006522 0.000000 0.033899 0.000000
# 2 -0.000327 0.010808 -0.000167 0.000000 0.004410 0.000000
# 3 0.006522 -0.000167 0.017370 0.000000 0.014691 0.000000
# 4 0.000000 0.000000 0.000000 0.036668 0.000000 -0.000198
# 5 0.033899 0.004410 0.014691 0.000000 0.083257 0.000000
# 6 0.000000 0.000000 0.000000 -0.000198 0.000000 0.062155
#
#
# Mechanical properties :
#
#
# Convention : Reuss Voigt Hill
#
# Bulk Modulus (GPa) = 11.53671 24.24190 17.88931
# Shear Modulus (GPa) = 18.27905 24.90961 21.59433
#
# Velocity S-wave (km/s) = 2.98802 3.48811 3.24770
# Velocity P-wave (km/s) = 4.18800 5.29748 4.77507
#
# Compressibility (1/GPa) = 0.08667979
#
# Stress axis : x y z
#
# Youngs Moduli (GPa) = 21.53111 92.52580 57.57151
#
# Poissons Ratio (x) = 0.03022 -0.37550
# Poissons Ratio (y) = 0.00703 0.00960
# Poissons Ratio (z) = -0.14043 0.01543
#
# Static dielectric constant tensor:
#      x y z
#    x 1.738470 0.000000 -0.049480 
#    y 0.000000 1.634970 0.000000 
#    z -0.049480 0.000000 1.756590 
# 
# From -- ./inp_files/251860.got.cif
#   From: 2010.05.17/outbox.cif.g08.bks.cpg/sg12_126_cif.got.tgz:251860.got - 2010.06.03 13:09:07.
