data_PCOD9203223
_publ_section_title
;
Structure prediction by ZEFSAII (Michael W. Deem and Ramdas Pophale) SiO2 
 PCOD9203223
Probable space group: C 2/M
;
_chemical_formula_sum "Si O2"
_cell_formula_units_Z 56
_cell_length_a 20.886425
_cell_length_b 22.133319
_cell_length_c 16.949018
_cell_angle_alpha 90.000000
_cell_angle_beta 21.297195
_cell_angle_gamma 90.000000
_cell_volume 2845.822130
_symmetry_space_group_name_H-M "C 2/M"
_symmetry_group_IT_number 12
_symmetry_cell_setting 'monoclinic'
loop_
_space_group_symop_operation_xyz
x,y,z
-x,y,-z
-x,-y,-z
x,-y,z
1/2+x,1/2+y,z
1/2-x,1/2+y,-z
1/2-x,1/2-y,-z
1/2+x,1/2-y,z
loop_
_atom_site_type_symbol
_atom_site_label
_atom_site_fract_x
_atom_site_fract_y
_atom_site_fract_z
Si Si1 0.501224 0.163655 0.089869
Si Si2 0.513191 0.195393 0.390727
Si Si3 0.817664 0.219866 0.340496
Si Si4 0.118229 0.177450 0.286350
Si Si5 0.738916 0.398913 0.514437
Si Si6 0.558463 0.933937 0.259519
Si Si7 0.555089 0.564162 0.259673
O O1 0.464329 0.235507 0.139050
O O2 0.353075 0.131117 0.312328
O O3 0.500000 0.145502 0.000000
O O4 0.690905 0.152964 0.909760
O O5 0.500000 0.190436 0.500000
O O6 0.333391 0.214196 0.552247
O O7 0.633358 0.254538 0.234527
O O8 0.562182 0.129096 0.302923
O O9 0.750000 0.250000 0.500000
O O10 0.857382 0.152203 0.322106
O O11 0.000000 0.183238 0.500000
O O12 0.027730 0.127046 0.336361
O O13 0.584082 0.435748 0.651750
O O14 0.888119 0.429217 0.397712
O O15 0.547175 0.000000 0.313892
O O16 0.743596 0.934416 0.000849
O O17 0.530591 0.500000 0.332323
#
# Coordination Sequence:
#
# PCOD9203223 Si02
#       7
#     8   8   8   8   8   8   8
#     4  11  20  34  57  85 122 159 193 251 304 360
#     4  10  21  38  61  91 124 157 200 254 309 359
#     4   9  19  35  55  87 120 155 203 240 300 362
#     4  11  22  37  58  88 122 154 200 248 302 366
#     4  10  20  39  59  85 115 158 201 250 297 359
#     4  10  22  40  62  89 119 159 206 247 301 363
#     4  11  23  39  61  86 119 159 202 252 297 359
#
# _framework density 19.677969000000001
#
# number of rings (size 3 to 8) (size 9 to 14) (size 15 to 20)
#    0.000    1.714    1.429    4.714    2.000    1.143 
#    0.000    0.000    0.000    2.143    0.000    5.000 
#    0.000    0.000    0.000    0.000    0.000    0.000 
#
# Total GULP energy -156008.307155 kJ/mol
# GULP energy per Si atom -5571.725256 kJ/mol
# Density = 1.963318 g / cm^3
# Si number density = 19.677969 Si / 1000 Ang^3
#
#
#
# Elastic Constant Matrix: (Units=GPa)
#
#
# Indices 1 2 3 4 5 6 
#
# 1 93.6187 42.8208 7.1110 -0.0384 -10.1802 0.0094
# 2 42.8208 140.9299 8.5294 -0.1317 -3.3023 0.0451
# 3 7.1110 8.5294 31.1994 -0.0362 -15.1914 -0.0516
# 4 -0.0384 -0.1317 -0.0362 -92.3888 0.0418 45.3780
# 5 -10.1802 -3.3023 -15.1914 0.0418 26.8029 -0.0017
# 6 0.0094 0.0451 -0.0516 45.3780 -0.0017 -62.9297
#
#
#
# Elastic Compliance Matrix: (Units=1/GPa)
#
#
# Indices 1 2 3 4 5 6 
#
# 1 0.012913 -0.003837 0.000364 0.000002 0.004638 0.000000
# 2 -0.003837 0.008357 -0.002235 -0.000010 -0.001695 0.000000
# 3 0.000364 -0.002235 0.044906 -0.000035 0.025315 -0.000064
# 4 0.000002 -0.000010 -0.000035 -0.016760 0.000005 -0.012085
# 5 0.004638 -0.001695 0.025315 0.000005 0.053211 -0.000019
# 6 0.000000 0.000000 -0.000064 -0.012085 -0.000019 -0.024605
#
#
# Mechanical properties :
#
#
# Convention : Reuss Voigt Hill
#
# Bulk Modulus (GPa) = 18.26135 42.51895 30.39015
# Shear Modulus (GPa) = 46.42870 -11.88401 17.27235
#
# Velocity S-wave (km/s) = 4.86266 -2.46015 2.96590
# Velocity P-wave (km/s) = 6.38964 3.68571 5.21594
#
# Compressibility (1/GPa) = 0.05476045
#
# Stress axis : x y z
#
# Youngs Moduli (GPa) = 77.43902 119.65794 22.26871
#
# Poissons Ratio (x) = 0.45913 -0.00811
# Poissons Ratio (y) = 0.29714 0.04978
# Poissons Ratio (z) = -0.02821 0.26748
#
# Static dielectric constant tensor:
#      x y z
#    x 1.655280 0.000000 0.013880 
#    y 0.000000 1.758670 0.000010 
#    z 0.013880 0.000010 1.650570 
# 
# From -- ./inp_files/285991.got.cif
#   From: 2010.05.17/outbox.cif.g08.bks.cpg/sg12_143_cif.got.tgz:285991.got - 2010.06.03 13:09:07.
