data_PCOD9203762
_publ_section_title
;
Structure prediction by ZEFSAII (Michael W. Deem and Ramdas Pophale) SiO2 
 PCOD9203762
Probable space group: C 2/M
;
_chemical_formula_sum "Si O2"
_cell_formula_units_Z 48
_cell_length_a 14.993374
_cell_length_b 18.233819
_cell_length_c 18.963542
_cell_angle_alpha 90.000000
_cell_angle_beta 30.580490
_cell_angle_gamma 90.000000
_cell_volume 2637.542313
_symmetry_space_group_name_H-M "C 2/M"
_symmetry_group_IT_number 12
_symmetry_cell_setting 'monoclinic'
loop_
_space_group_symop_operation_xyz
x,y,z
-x,y,-z
-x,-y,-z
x,-y,z
1/2+x,1/2+y,z
1/2-x,1/2+y,-z
1/2-x,1/2-y,-z
1/2+x,1/2-y,z
loop_
_atom_site_type_symbol
_atom_site_label
_atom_site_fract_x
_atom_site_fract_y
_atom_site_fract_z
Si Si1 0.969882 0.082744 0.103242
Si Si2 0.186158 0.086639 0.400191
Si Si3 0.001983 0.586334 0.079152
Si Si4 0.929131 0.415401 0.626973
Si Si5 0.869560 0.679508 0.395414
Si Si6 0.300240 0.172802 0.935095
O O1 0.771407 0.112058 0.243799
O O2 0.975357 0.000000 0.131062
O O3 0.000000 0.075948 0.000000
O O4 0.128027 0.132058 0.023341
O O5 0.317059 0.094371 0.244949
O O6 0.251177 0.129683 0.424339
O O7 0.000000 0.113484 0.500000
O O8 0.176533 0.000000 0.423814
O O9 0.045457 0.500000 0.046178
O O10 0.130129 0.625242 0.046637
O O11 0.000000 0.614537 0.000000
O O12 0.921582 0.500000 0.660621
O O13 0.000000 0.418352 0.500000
O O14 0.055108 0.365628 0.589055
O O15 0.750000 0.750000 0.500000
O O16 0.046775 0.687912 0.226887
O O17 0.250000 0.250000 0.000000
#
# Coordination Sequence:
#
# PCOD9203762 Si02
#       6
#     8   8   8   8   8   8
#     4  10  20  39  67  91 114 153 204 253 299 353
#     4   9  19  38  62  84 109 149 199 241 282 338
#     4   9  19  38  61  85 113 148 192 243 290 336
#     4  10  22  41  65  92 120 154 200 252 301 352
#     4  11  24  40  58  86 122 162 195 237 298 358
#     4  11  24  39  58  88 122 157 196 240 298 356
#
# _framework density 18.198761000000001
#
# number of rings (size 3 to 8) (size 9 to 14) (size 15 to 20)
#    0.000    2.000    1.667    1.000    2.333    4.000 
#    3.000    0.000    0.000    0.000    0.000    0.000 
#    0.000    0.000    0.000    0.000    0.000    0.000 
#
# Total GULP energy -133716.157524 kJ/mol
# GULP energy per Si atom -5571.506564 kJ/mol
# Density = 1.815734 g / cm^3
# Si number density = 18.198761 Si / 1000 Ang^3
#
#
#
# Elastic Constant Matrix: (Units=GPa)
#
#
# Indices 1 2 3 4 5 6 
#
# 1 149.1413 80.6985 76.7456 0.0011 -13.9468 -0.0035
# 2 80.6985 87.0384 51.5487 -0.0005 -11.9737 0.0015
# 3 76.7456 51.5487 88.2254 0.0074 -14.9110 -0.0105
# 4 0.0011 -0.0005 0.0074 32.5617 -0.0002 5.5013
# 5 -13.9468 -11.9737 -14.9110 -0.0002 40.2408 0.0015
# 6 -0.0035 0.0015 -0.0105 5.5013 0.0015 -12.6859
#
#
#
# Elastic Compliance Matrix: (Units=1/GPa)
#
#
# Indices 1 2 3 4 5 6 
#
# 1 0.016733 -0.010569 -0.008462 0.000001 -0.000481 0.000001
# 2 -0.010569 0.024332 -0.004714 0.000000 0.001830 0.000010
# 3 -0.008462 -0.004714 0.022101 -0.000002 0.003854 -0.000017
# 4 0.000001 0.000000 -0.000002 0.028614 -0.000001 0.012409
# 5 -0.000481 0.001830 0.003854 -0.000001 0.026656 0.000000
# 6 0.000001 0.000010 -0.000017 0.012409 0.000000 -0.073447
#
#
# Mechanical properties :
#
#
# Convention : Reuss Voigt Hill
#
# Bulk Modulus (GPa) = 63.78782 82.48786 73.13784
# Shear Modulus (GPa) = 51.17488 19.71747 35.44617
#
# Velocity S-wave (km/s) = 5.30858 3.29515 4.41809
# Velocity P-wave (km/s) = 8.52651 7.73963 8.14258
#
# Compressibility (1/GPa) = 0.01567698
#
# Stress axis : x y z
#
# Youngs Moduli (GPa) = 59.76180 41.09877 45.24707
#
# Poissons Ratio (x) = 0.43437 0.38287
# Poissons Ratio (y) = 0.63161 0.21328
# Poissons Ratio (z) = 0.50570 0.19372
#
# Static dielectric constant tensor:
#      x y z
#    x 1.585300 0.000000 0.023030 
#    y 0.000000 1.638850 0.000000 
#    z 0.023030 0.000000 1.611250 
# 
# From -- ./inp_files/271627.got.cif
#   From: 2010.05.17/outbox.cif.g08.bks.cpg/sg12_136_cif.got.tgz:271627.got - 2010.06.03 13:09:07.
