data_PCOD9203936
_publ_section_title
;
Structure prediction by ZEFSAII (Michael W. Deem and Ramdas Pophale) SiO2 
 PCOD9203936
Probable space group: C 2/M
;
_chemical_formula_sum "Si O2"
_cell_formula_units_Z 64
_cell_length_a 12.017127
_cell_length_b 17.986381
_cell_length_c 12.229116
_cell_angle_alpha 90.000000
_cell_angle_beta 96.397710
_cell_angle_gamma 90.000000
_cell_volume 2626.796467
_symmetry_space_group_name_H-M "C 2/M"
_symmetry_group_IT_number 12
_symmetry_cell_setting 'monoclinic'
loop_
_space_group_symop_operation_xyz
x,y,z
-x,y,-z
-x,-y,-z
x,-y,z
1/2+x,1/2+y,z
1/2-x,1/2+y,-z
1/2-x,1/2-y,-z
1/2+x,1/2-y,z
loop_
_atom_site_type_symbol
_atom_site_label
_atom_site_fract_x
_atom_site_fract_y
_atom_site_fract_z
Si Si1 0.668007 0.084343 0.200114
Si Si2 0.657828 0.583448 0.578441
Si Si3 0.877531 0.583667 0.039121
Si Si4 0.440284 0.586867 0.876169
Si Si5 0.816811 0.675296 0.472029
Si Si6 0.089839 0.176628 0.737340
Si Si7 0.743509 0.211194 0.879555
Si Si8 0.501265 0.176685 0.316791
O O1 0.765215 0.087911 0.301828
O O2 0.699759 0.097212 0.077331
O O3 0.561736 0.127024 0.233672
O O4 0.629852 0.000000 0.195017
O O5 0.615599 0.500000 0.564273
O O6 0.730587 0.607965 0.483612
O O7 0.580416 0.650117 0.609730
O O8 0.857358 0.500000 0.078602
O O9 0.854418 0.650055 0.118567
O O10 0.000000 0.587146 0.000000
O O11 0.402756 0.500000 0.852221
O O12 0.538412 0.610354 0.803175
O O13 0.346927 0.653941 0.866325
O O14 0.500000 0.587999 0.000000
O O15 0.750000 0.750000 0.500000
O O16 0.879643 0.668704 0.362919
O O17 0.912762 0.668884 0.573229
O O18 0.201905 0.221765 0.793761
O O19 0.998931 0.241863 0.733287
O O20 0.750000 0.250000 0.000000
#
# Coordination Sequence:
#
# PCOD9203936 Si02
#       8
#     8   8   8   8   8   8   8   8
#     4   9  19  34  55  85 119 153 197 246 302 369
#     4  10  21  38  62  89 118 157 202 251 313 379
#     4  10  21  37  57  81 122 166 201 248 313 375
#     4  11  26  45  62  89 134 180 221 268 327 384
#     4  10  20  40  61  90 122 156 196 252 316 375
#     4  12  24  39  65  95 125 163 217 270 309 377
#     4  12  25  38  61  92 125 165 218 270 311 369
#     4  10  22  35  63  92 122 158 197 257 316 379
#
# _framework density 24.364277999999999
#
# number of rings (size 3 to 8) (size 9 to 14) (size 15 to 20)
#    0.000    1.500    2.500    2.250    7.000    0.500 
#    0.000    3.125    0.000    3.750    0.000    0.000 
#    0.000    0.000    0.000    0.000    0.000    0.000 
#
# Total GULP energy -178383.727992 kJ/mol
# GULP energy per Si atom -5574.491500 kJ/mol
# Density = 2.430882 g / cm^3
# Si number density = 24.364278 Si / 1000 Ang^3
#
#
#
# Elastic Constant Matrix: (Units=GPa)
#
#
# Indices 1 2 3 4 5 6 
#
# 1 91.3272 29.0089 12.3634 0.0000 -13.6711 0.0000
# 2 29.0089 147.4494 16.0906 0.0000 -15.6505 0.0000
# 3 12.3634 16.0906 57.4665 0.0000 -13.3130 0.0000
# 4 0.0000 0.0000 0.0000 26.4323 0.0000 -25.7429
# 5 -13.6711 -15.6505 -13.3130 0.0000 36.0122 0.0000
# 6 0.0000 0.0000 0.0000 -25.7429 0.0000 -3.8598
#
#
#
# Elastic Compliance Matrix: (Units=1/GPa)
#
#
# Indices 1 2 3 4 5 6 
#
# 1 0.012233 -0.001909 -0.001327 0.000000 0.003324 0.000000
# 2 -0.001909 0.007512 -0.001208 0.000000 0.002093 0.000000
# 3 -0.001327 -0.001208 0.019453 0.000000 0.006163 0.000000
# 4 0.000000 0.000000 0.000000 0.005047 0.000000 -0.033663
# 5 0.003324 0.002093 0.006163 0.000000 0.032218 0.000000
# 6 0.000000 0.000000 0.000000 -0.033663 0.000000 -0.034565
#
#
# Mechanical properties :
#
#
# Convention : Reuss Voigt Hill
#
# Bulk Modulus (GPa) = 32.99290 45.68544 39.33917
# Shear Modulus (GPa) = 82.11584 27.63561 54.87573
#
# Velocity S-wave (km/s) = 5.81176 3.37154 4.75099
# Velocity P-wave (km/s) = 7.65547 5.82650 6.80273
#
# Compressibility (1/GPa) = 0.03030955
#
# Stress axis : x y z
#
# Youngs Moduli (GPa) = 81.74434 133.12843 51.40649
#
# Poissons Ratio (x) = 0.25416 0.06823
# Poissons Ratio (y) = 0.15606 0.06208
# Poissons Ratio (z) = 0.10850 0.16076
#
# Static dielectric constant tensor:
#      x y z
#    x 2.253570 0.000000 0.059500 
#    y 0.000000 1.981790 0.000000 
#    z 0.059500 0.000000 1.937220 
# 
# From -- ./inp_files/206664.got.cif
#   From: 2010.05.17/outbox.cif.g08.bks.cpg/sg12_104_cif.got.tgz:206664.got - 2010.06.03 13:09:07.
