data_PCOD9203128
_publ_section_title
;
Structure prediction by ZEFSAII (Michael W. Deem and Ramdas Pophale) SiO2 
 PCOD9203128
Probable space group: C 2/M
;
_chemical_formula_sum "Si O2"
_cell_formula_units_Z 56
_cell_length_a 11.571251
_cell_length_b 24.252233
_cell_length_c 10.295674
_cell_angle_alpha 90.000000
_cell_angle_beta 113.076588
_cell_angle_gamma 90.000000
_cell_volume 2658.067678
_symmetry_space_group_name_H-M "C 2/M"
_symmetry_group_IT_number 12
_symmetry_cell_setting 'monoclinic'
loop_
_space_group_symop_operation_xyz
x,y,z
-x,y,-z
-x,-y,-z
x,-y,z
1/2+x,1/2+y,z
1/2-x,1/2+y,-z
1/2-x,1/2-y,-z
1/2+x,1/2-y,z
loop_
_atom_site_type_symbol
_atom_site_label
_atom_site_fract_x
_atom_site_fract_y
_atom_site_fract_z
Si Si1 0.841972 0.821067 0.650246
Si Si2 0.809728 0.645967 0.161825
Si Si3 0.375494 0.559847 0.033107
Si Si4 0.778998 0.349618 0.655350
Si Si5 0.976470 0.435863 0.644281
Si Si6 0.039386 0.909370 0.654947
Si Si7 0.487264 0.771991 0.849194
O O1 0.756744 0.831066 0.738417
O O2 0.757979 0.812601 0.485351
O O3 0.944186 0.774826 0.730245
O O4 0.918644 0.876359 0.652264
O O5 0.911349 0.599335 0.244236
O O6 0.885688 0.696071 0.131204
O O7 0.709808 0.613017 0.031063
O O8 0.316765 0.500000 0.971911
O O9 0.412391 0.557981 0.200094
O O10 0.500000 0.565387 0.000000
O O11 0.850745 0.403511 0.631203
O O12 0.651498 0.367315 0.668406
O O13 0.875130 0.317030 0.789518
O O14 0.973165 0.500000 0.681815
O O15 0.000000 0.433561 0.500000
O O16 0.000000 0.936174 0.500000
O O17 0.500000 0.749214 0.000000
#
# Coordination Sequence:
#
# PCOD9203128 Si02
#       7
#     8   8   8   8   8   8   8
#     4  11  23  41  64  93 129 179 215 273 331 389
#     4  11  23  42  66  94 136 167 221 274 326 387
#     4  11  23  41  67  97 132 176 216 267 330 392
#     4  10  22  44  63  93 137 168 216 273 334 388
#     4  10  20  38  67  98 128 172 219 267 326 389
#     4  10  23  42  64  93 133 171 217 274 326 391
#     4  11  26  40  64  95 126 177 222 274 330 393
#
# _framework density 21.067934000000001
#
# number of rings (size 3 to 8) (size 9 to 14) (size 15 to 20)
#    0.000    1.429    2.857    1.714    4.000    1.429 
#    2.571    2.143    0.000    4.714    0.000    0.000 
#    0.000    0.000    0.000    0.000    0.000    0.000 
#
# Total GULP energy -156396.531750 kJ/mol
# GULP energy per Si atom -5585.590420 kJ/mol
# Density = 2.101998 g / cm^3
# Si number density = 21.067934 Si / 1000 Ang^3
#
#
#
# Elastic Constant Matrix: (Units=GPa)
#
#
# Indices 1 2 3 4 5 6 
#
# 1 74.0712 9.2722 28.3244 0.0000 1.1764 0.0000
# 2 9.2722 74.4288 18.9440 0.0000 2.5623 0.0000
# 3 28.3244 18.9440 104.3730 0.0000 -6.7954 0.0000
# 4 0.0000 0.0000 0.0000 20.5576 0.0000 11.4814
# 5 1.1764 2.5623 -6.7954 0.0000 23.7571 0.0000
# 6 0.0000 0.0000 0.0000 11.4814 0.0000 24.9461
#
#
#
# Elastic Compliance Matrix: (Units=1/GPa)
#
#
# Indices 1 2 3 4 5 6 
#
# 1 0.015196 -0.000786 -0.004101 0.000000 -0.001841 0.000000
# 2 -0.000786 0.014251 -0.002518 0.000000 -0.002218 0.000000
# 3 -0.004101 -0.002518 0.011394 0.000000 0.003734 0.000000
# 4 0.000000 0.000000 0.000000 0.065474 0.000000 -0.030134
# 5 -0.001841 -0.002218 0.003734 0.000000 0.043491 0.000000
# 6 0.000000 0.000000 0.000000 -0.030134 0.000000 0.053956
#
#
# Mechanical properties :
#
#
# Convention : Reuss Voigt Hill
#
# Bulk Modulus (GPa) = 38.41474 40.66155 39.53815
# Shear Modulus (GPa) = 22.00234 26.94100 24.47167
#
# Velocity S-wave (km/s) = 3.23515 3.57987 3.41186
# Velocity P-wave (km/s) = 5.67699 6.03567 5.85908
#
# Compressibility (1/GPa) = 0.02603168
#
# Stress axis : x y z
#
# Youngs Moduli (GPa) = 65.80505 70.17177 87.76520
#
# Poissons Ratio (x) = 0.05515 0.35994
# Poissons Ratio (y) = 0.05172 0.22097
# Poissons Ratio (z) = 0.26988 0.17667
#
# Static dielectric constant tensor:
#      x y z
#    x 1.722970 0.000000 0.028180 
#    y 0.000000 1.755040 0.000000 
#    z 0.028180 0.000000 1.761150 
# 
# From -- ./inp_files/53291.got.cif
#   From: 2010.05.17/outbox.cif.g08.bks.cpg/sg12_27_cif.got.tgz:53291.got - 2010.06.03 13:09:07.
