data_PCOD9203286
_publ_section_title
;
Structure prediction by ZEFSAII (Michael W. Deem and Ramdas Pophale) SiO2 
 PCOD9203286
Probable space group: C 2/M
;
_chemical_formula_sum "Si O2"
_cell_formula_units_Z 40
_cell_length_a 15.454435
_cell_length_b 27.245205
_cell_length_c 8.012868
_cell_angle_alpha 90.000000
_cell_angle_beta 150.264248
_cell_angle_gamma 90.000000
_cell_volume 1673.452514
_symmetry_space_group_name_H-M "C 2/M"
_symmetry_group_IT_number 12
_symmetry_cell_setting 'monoclinic'
loop_
_space_group_symop_operation_xyz
x,y,z
-x,y,-z
-x,-y,-z
x,-y,z
1/2+x,1/2+y,z
1/2-x,1/2+y,-z
1/2-x,1/2-y,-z
1/2+x,1/2-y,z
loop_
_atom_site_type_symbol
_atom_site_label
_atom_site_fract_x
_atom_site_fract_y
_atom_site_fract_z
Si Si1 0.628511 0.000000 0.553237
Si Si2 0.526669 0.500000 0.347965
Si Si3 0.537812 0.204123 0.259315
Si Si4 0.356105 0.893563 0.402332
Si Si5 0.534809 0.396802 0.255596
Si Si6 0.157170 0.800699 0.633422
O O1 0.500000 0.000000 0.500000
O O2 0.606174 0.945479 0.440912
O O3 0.833460 0.000000 0.943816
O O4 0.500000 0.500000 0.500000
O O5 0.614328 0.449390 0.437535
O O6 0.635142 0.154362 0.469659
O O7 0.634344 0.252606 0.481636
O O8 0.500000 0.206138 0.000000
O O9 0.348661 0.202100 0.032344
O O10 0.500000 0.889354 0.500000
O O11 0.162079 0.895269 0.998521
O O12 0.639395 0.350588 0.498051
O O13 0.500000 0.394935 0.000000
O O14 0.000000 0.800707 0.500000
#
# Coordination Sequence:
#
# PCOD9203286 Si02
#       6
#     4   4   8   8   8   8
#     4   8  18  35  59  83 113 152 190 234 284 333
#     4  10  21  37  60  89 119 154 197 238 282 345
#     4  12  24  40  60  87 118 153 194 245 297 347
#     4  10  20  39  61  84 115 156 196 235 288 353
#     4  11  22  39  60  88 121 155 192 242 295 342
#     4  12  24  40  61  87 116 155 198 242 290 351
#
# _framework density 23.902681999999999
#
# number of rings (size 3 to 8) (size 9 to 14) (size 15 to 20)
#    0.000    1.200    0.000    6.900    0.000    3.200 
#    0.000    0.500    0.000    0.000    0.000    0.000 
#    0.000    0.000    0.000    0.000    0.000    0.000 
#
# Total GULP energy -111950.804972 kJ/mol
# GULP energy per Si atom -5597.540249 kJ/mol
# Density = 2.384828 g / cm^3
# Si number density = 23.902682 Si / 1000 Ang^3
#
#
#
# Elastic Constant Matrix: (Units=GPa)
#
#
# Indices 1 2 3 4 5 6 
#
# 1 65.6612 10.9721 -10.4648 0.0000 6.2575 0.0000
# 2 10.9721 284.5235 49.8830 0.0000 -24.8210 0.0000
# 3 -10.4648 49.8830 37.4314 0.0000 10.4741 0.0000
# 4 0.0000 0.0000 0.0000 31.6845 0.0000 -10.6240
# 5 6.2575 -24.8210 10.4741 0.0000 44.6153 0.0000
# 6 0.0000 0.0000 0.0000 -10.6240 0.0000 -2.9911
#
#
#
# Elastic Compliance Matrix: (Units=1/GPa)
#
#
# Indices 1 2 3 4 5 6 
#
# 1 0.018329 -0.003371 0.011624 0.000000 -0.007175 0.000000
# 2 -0.003371 0.006115 -0.010892 0.000000 0.006432 0.000000
# 3 0.011624 -0.010892 0.049911 0.000000 -0.019407 0.000000
# 4 0.000000 0.000000 0.000000 0.014405 0.000000 -0.051165
# 5 -0.007175 0.006432 -0.019407 0.000000 0.031555 0.000000
# 6 0.000000 0.000000 0.000000 -0.051165 0.000000 -0.152593
#
#
# Mechanical properties :
#
#
# Convention : Reuss Voigt Hill
#
# Bulk Modulus (GPa) = 14.47623 54.26629 34.37126
# Shear Modulus (GPa) = -1257.90329 37.14346 -610.37991
#
# Velocity S-wave (km/s) = -22.96525 3.94629 -15.99734
# Velocity P-wave (km/s) = 26.40330 6.59671 18.07785
#
# Compressibility (1/GPa) = 0.06907875
#
# Stress axis : x y z
#
# Youngs Moduli (GPa) = 54.55732 163.52495 20.03579
#
# Poissons Ratio (x) = 0.55120 -0.23290
# Poissons Ratio (y) = 0.18390 0.21822
# Poissons Ratio (z) = -0.63418 1.78106
#
# Static dielectric constant tensor:
#      x y z
#    x 1.936180 0.000000 0.035720 
#    y 0.000000 1.940680 0.000000 
#    z 0.035720 0.000000 1.861220 
# 
# From -- ./inp_files/79980.got.cif
#   From: 2010.05.17/outbox.cif.g08.bks.cpg/sg12_40_cif.got.tgz:79980.got - 2010.06.03 13:09:07.
