data_PCOD9203254
_publ_section_title
;
Structure prediction by ZEFSAII (Michael W. Deem and Ramdas Pophale) SiO2 
 PCOD9203254
Probable space group: C 2/M
;
_chemical_formula_sum "Si O2"
_cell_formula_units_Z 40
_cell_length_a 16.605028
_cell_length_b 13.587179
_cell_length_c 15.122959
_cell_angle_alpha 90.000000
_cell_angle_beta 151.731155
_cell_angle_gamma 90.000000
_cell_volume 1615.942758
_symmetry_space_group_name_H-M "C 2/M"
_symmetry_group_IT_number 12
_symmetry_cell_setting 'monoclinic'
loop_
_space_group_symop_operation_xyz
x,y,z
-x,y,-z
-x,-y,-z
x,-y,z
1/2+x,1/2+y,z
1/2-x,1/2+y,-z
1/2-x,1/2-y,-z
1/2+x,1/2-y,z
loop_
_atom_site_type_symbol
_atom_site_label
_atom_site_fract_x
_atom_site_fract_y
_atom_site_fract_z
Si Si1 0.764184 0.395163 0.166008
Si Si2 0.211381 0.823098 0.564627
Si Si3 0.346722 0.108363 0.524504
Si Si4 0.308324 0.827017 0.844353
Si Si5 0.342580 0.348753 0.122325
O O1 0.739846 0.500000 0.191603
O O2 0.719380 0.291018 0.166789
O O3 0.964399 0.389225 0.333569
O O4 0.663751 0.403247 0.976432
O O5 0.346358 0.874595 0.630481
O O6 0.247360 0.705624 0.601669
O O7 0.202181 0.858416 0.655669
O O8 0.031915 0.835450 0.341892
O O9 0.274355 0.000000 0.437931
O O10 0.259776 0.879273 0.888851
O O11 0.500000 0.843274 0.000000
O O12 0.250000 0.250000 0.000000
#
# Coordination Sequence:
#
# PCOD9203254 Si02
#       5
#     8   8   8   8   8
#     4  10  22  41  62  90 128 164 202 257 314 374
#     4  11  22  39  65  91 124 168 206 261 310 365
#     4  10  22  39  63  91 122 163 209 252 311 373
#     4  11  23  37  60  92 122 163 208 251 311 367
#     4  10  20  39  60  87 119 163 208 244 306 369
#
# _framework density 24.753352
#
# number of rings (size 3 to 8) (size 9 to 14) (size 15 to 20)
#    0.000    1.600    4.000    1.800    8.400    2.000 
#    0.000    3.000    0.000    6.000    0.000    0.000 
#    0.000    0.000    0.000    0.000    0.000    0.000 
#
# Total GULP energy -111696.864213 kJ/mol
# GULP energy per Si atom -5584.843211 kJ/mol
# Density = 2.469701 g / cm^3
# Si number density = 24.753352 Si / 1000 Ang^3
#
#
#
# Elastic Constant Matrix: (Units=GPa)
#
#
# Indices 1 2 3 4 5 6 
#
# 1 111.6538 -22.2703 46.7229 0.0005 -20.6498 0.0006
# 2 -22.2703 76.6580 -1.2657 0.0010 2.2209 0.0012
# 3 46.7229 -1.2657 77.7581 0.0015 -11.1171 0.0010
# 4 0.0005 0.0010 0.0015 -1.2984 0.0010 -3.0712
# 5 -20.6498 2.2209 -11.1171 0.0010 50.7573 0.0007
# 6 0.0006 0.0012 0.0010 -3.0712 0.0007 -23.6360
#
#
#
# Elastic Compliance Matrix: (Units=1/GPa)
#
#
# Indices 1 2 3 4 5 6 
#
# 1 0.013534 0.003700 -0.007544 0.000003 0.003692 0.000000
# 2 0.003700 0.014075 -0.001928 0.000013 0.000467 -0.000001
# 3 -0.007544 -0.001928 0.017483 0.000022 0.000844 -0.000002
# 4 0.000003 0.000013 0.000022 -1.111908 0.000026 0.144477
# 5 0.003692 0.000467 0.000844 0.000026 0.021368 -0.000003
# 6 0.000000 -0.000001 -0.000002 0.144477 -0.000003 -0.061081
#
#
# Mechanical properties :
#
#
# Convention : Reuss Voigt Hill
#
# Bulk Modulus (GPa) = 29.80741 34.71597 32.26169
# Shear Modulus (GPa) = -4.61338 21.35678 8.37170
#
# Velocity S-wave (km/s) = -1.36667 2.94050 1.84103
# Velocity P-wave (km/s) = 3.09476 5.05806 4.19294
#
# Compressibility (1/GPa) = 0.03354870
#
# Stress axis : x y z
#
# Youngs Moduli (GPa) = 73.88748 71.05004 57.19880
#
# Poissons Ratio (x) = -0.26291 0.43152
# Poissons Ratio (y) = -0.27341 0.11025
# Poissons Ratio (z) = 0.55743 0.13695
#
# Static dielectric constant tensor:
#      x y z
#    x 1.982290 0.000000 -0.023140 
#    y 0.000000 2.005800 0.000000 
#    z -0.023140 0.000000 1.977690 
# 
# From -- ./inp_files/226398.got.cif
#   From: 2010.05.17/outbox.cif.g08.bks.cpg/sg12_114_cif.got.tgz:226398.got - 2010.06.03 13:09:07.
