data_PCOD9203968
_publ_section_title
;
Structure prediction by ZEFSAII (Michael W. Deem and Ramdas Pophale) SiO2 
 PCOD9203968
Probable space group: C 2/M
;
_chemical_formula_sum "Si O2"
_cell_formula_units_Z 38
_cell_length_a 20.884742
_cell_length_b 14.992270
_cell_length_c 17.077169
_cell_angle_alpha 90.000000
_cell_angle_beta 160.071062
_cell_angle_gamma 90.000000
_cell_volume 1822.557780
_symmetry_space_group_name_H-M "C 2/M"
_symmetry_group_IT_number 12
_symmetry_cell_setting 'monoclinic'
loop_
_space_group_symop_operation_xyz
x,y,z
-x,y,-z
-x,-y,-z
x,-y,z
1/2+x,1/2+y,z
1/2-x,1/2+y,-z
1/2-x,1/2-y,-z
1/2+x,1/2-y,z
loop_
_atom_site_type_symbol
_atom_site_label
_atom_site_fract_x
_atom_site_fract_y
_atom_site_fract_z
Si Si1 0.000000 0.726146 0.000000
Si Si2 0.000000 0.500000 0.500000
Si Si3 0.663921 0.685881 0.835245
Si Si4 0.072633 0.893743 0.305703
Si Si5 0.970441 0.604057 0.813870
Si Si6 0.245996 0.828309 0.176921
O O1 0.964239 0.663918 0.884158
O O2 0.827454 0.789289 0.825842
O O3 0.149566 0.421023 0.696321
O O4 0.498618 0.634167 0.689269
O O5 0.629926 0.753204 0.724382
O O6 0.750000 0.750000 0.000000
O O7 0.831002 0.620920 0.999705
O O8 0.293418 0.871575 0.555303
O O9 0.050418 0.000000 0.270253
O O10 0.941546 0.844558 0.091880
O O11 0.950333 0.500000 0.810629
#
# Coordination Sequence:
#
# PCOD9203968 Si02
#       6
#     4   2   8   8   8   8
#     4  10  23  41  62  90 126 160 206 249 307 372
#     4  12  24  42  60  84 130 160 202 262 302 360
#     4   9  20  37  61  90 118 158 206 249 298 362
#     4  10  20  40  62  91 122 158 206 251 299 370
#     4  10  21  39  65  93 125 161 198 254 307 359
#     4  10  23  41  58  87 120 163 206 249 308 364
#
# _framework density 20.849820000000001
#
# number of rings (size 3 to 8) (size 9 to 14) (size 15 to 20)
#    0.000    2.105    1.053    0.947    2.947    8.000 
#    3.789    0.000    0.000    6.316    0.000    0.000 
#    0.000    0.000    0.000    0.000    0.000    0.000 
#
# Total GULP energy -105806.459811 kJ/mol
# GULP energy per Si atom -5568.761043 kJ/mol
# Density = 2.080236 g / cm^3
# Si number density = 20.849820 Si / 1000 Ang^3
#
#
#
# Elastic Constant Matrix: (Units=GPa)
#
#
# Indices 1 2 3 4 5 6 
#
# 1 58.8396 9.3204 4.3472 -0.0031 9.8834 -0.0009
# 2 9.3204 82.5993 31.8771 -0.0019 -1.7398 -0.0014
# 3 4.3472 31.8771 83.6026 -0.0023 2.2027 -0.0009
# 4 -0.0031 -0.0019 -0.0023 -156.8665 -0.0015 -18.8038
# 5 9.8834 -1.7398 2.2027 -0.0015 20.5285 -0.0009
# 6 -0.0009 -0.0014 -0.0009 -18.8038 -0.0009 12.4877
#
#
#
# Elastic Compliance Matrix: (Units=1/GPa)
#
#
# Indices 1 2 3 4 5 6 
#
# 1 0.018931 -0.002401 0.000177 0.000000 -0.009337 0.000000
# 2 -0.002401 0.014566 -0.005508 0.000000 0.002981 0.000001
# 3 0.000177 -0.005508 0.014107 0.000000 -0.002066 0.000000
# 4 0.000000 0.000000 0.000000 -0.005400 -0.000001 -0.008131
# 5 -0.009337 0.002981 -0.002066 -0.000001 0.053682 0.000002
# 6 0.000000 0.000001 0.000000 -0.008131 0.000002 0.067835
#
#
# Mechanical properties :
#
#
# Convention : Reuss Voigt Hill
#
# Bulk Modulus (GPa) = 31.11365 35.12566 33.11965
# Shear Modulus (GPa) = 26.33011 -12.80360 6.76326
#
# Velocity S-wave (km/s) = 3.55751 -2.48077 1.80301
# Velocity P-wave (km/s) = 5.64178 2.94584 4.50042
#
# Compressibility (1/GPa) = 0.03214024
#
# Stress axis : x y z
#
# Youngs Moduli (GPa) = 52.82358 68.65356 70.88900
#
# Poissons Ratio (x) = 0.16485 -0.01256
# Poissons Ratio (y) = 0.12684 0.39043
# Poissons Ratio (z) = -0.00936 0.37811
#
# Static dielectric constant tensor:
#      x y z
#    x 1.776150 -0.000010 -0.020780 
#    y -0.000010 1.729310 0.000010 
#    z -0.020780 0.000010 1.818180 
# 
# From -- ./inp_files/284447.got.cif
#   From: 2010.05.17/outbox.cif.g08.bks.cpg/sg12_143_cif.got.tgz:284447.got - 2010.06.03 13:09:07.
