data_PCOD9203939
_publ_section_title
;
Structure prediction by ZEFSAII (Michael W. Deem and Ramdas Pophale) SiO2 
 PCOD9203939
Probable space group: C 2/M
;
_chemical_formula_sum "Si O2"
_cell_formula_units_Z 44
_cell_length_a 25.309279
_cell_length_b 16.086263
_cell_length_c 6.184112
_cell_angle_alpha 90.000000
_cell_angle_beta 124.754671
_cell_angle_gamma 90.000000
_cell_volume 2068.583051
_symmetry_space_group_name_H-M "C 2/M"
_symmetry_group_IT_number 12
_symmetry_cell_setting 'monoclinic'
loop_
_space_group_symop_operation_xyz
x,y,z
-x,y,-z
-x,-y,-z
x,-y,z
1/2+x,1/2+y,z
1/2-x,1/2+y,-z
1/2-x,1/2-y,-z
1/2+x,1/2-y,z
loop_
_atom_site_type_symbol
_atom_site_label
_atom_site_fract_x
_atom_site_fract_y
_atom_site_fract_z
Si Si1 0.636553 0.219322 0.313977
Si Si2 0.218008 0.591643 0.776438
Si Si3 0.142781 0.140109 0.011236
Si Si4 0.381772 0.905580 0.110618
Si Si5 0.564371 0.759825 0.534712
Si Si6 0.535954 0.500000 0.834289
O O1 0.686945 0.169786 0.580139
O O2 0.574711 0.247944 0.306489
O O3 0.662341 0.301098 0.257231
O O4 0.615156 0.151475 0.090282
O O5 0.195767 0.500000 0.641060
O O6 0.189943 0.596310 0.953623
O O7 0.294085 0.595266 0.929239
O O8 0.119045 0.204245 0.773221
O O9 0.084217 0.079182 0.936696
O O10 0.424655 0.856790 0.385033
O O11 0.400677 0.000000 0.119572
O O12 0.500000 0.732418 0.500000
O O13 0.500000 0.500000 0.500000
O O14 0.500000 0.500000 0.000000
#
# Coordination Sequence:
#
# PCOD9203939 Si02
#       6
#     8   8   8   8   8   4
#     4  10  22  38  64  93 128 169 220 282 345 412
#     4  10  20  40  61  95 134 169 221 274 353 413
#     4  11  24  41  66  96 129 178 228 280 345 410
#     4   9  20  38  61  90 126 164 210 277 339 417
#     4  10  23  40  60  86 125 172 217 276 339 412
#     4  12  30  52  74 106 148 190 243 294 341 412
#
# _framework density 21.270600000000002
#
# number of rings (size 3 to 8) (size 9 to 14) (size 15 to 20)
#    0.000    1.818    0.909    1.636    5.091   11.273 
#    0.000    0.909    0.000    0.000    0.000    0.000 
#    0.000    0.000    0.000    0.000    0.000    0.000 
#
# Total GULP energy -122560.569828 kJ/mol
# GULP energy per Si atom -5570.934992 kJ/mol
# Density = 2.122219 g / cm^3
# Si number density = 21.270600 Si / 1000 Ang^3
#
#
#
# Elastic Constant Matrix: (Units=GPa)
#
#
# Indices 1 2 3 4 5 6 
#
# 1 61.9725 15.2277 23.5723 0.0000 -13.0617 0.0000
# 2 15.2277 116.3486 16.3646 0.0000 -7.0329 0.0000
# 3 23.5723 16.3646 37.4991 0.0000 -10.1019 0.0000
# 4 0.0000 0.0000 0.0000 19.0490 0.0000 4.2016
# 5 -13.0617 -7.0329 -10.1019 0.0000 28.2904 0.0000
# 6 0.0000 0.0000 0.0000 4.2016 0.0000 23.2186
#
#
#
# Elastic Compliance Matrix: (Units=1/GPa)
#
#
# Indices 1 2 3 4 5 6 
#
# 1 0.022111 -0.000863 -0.011983 0.000000 0.005715 0.000000
# 2 -0.000863 0.009213 -0.003284 0.000000 0.000719 0.000000
# 3 -0.011983 -0.003284 0.037533 0.000000 0.007053 0.000000
# 4 0.000000 0.000000 0.000000 0.054679 0.000000 -0.009895
# 5 0.005715 0.000719 0.007053 0.000000 0.040684 0.000000
# 6 0.000000 0.000000 0.000000 -0.009895 0.000000 0.044860
#
#
# Mechanical properties :
#
#
# Convention : Reuss Voigt Hill
#
# Bulk Modulus (GPa) = 27.32484 36.23884 31.78184
# Shear Modulus (GPa) = 19.72088 24.82197 22.27142
#
# Velocity S-wave (km/s) = 3.04820 3.41979 3.23933
# Velocity P-wave (km/s) = 5.02622 5.71553 5.38192
#
# Compressibility (1/GPa) = 0.03659674
#
# Stress axis : x y z
#
# Youngs Moduli (GPa) = 45.22702 108.53944 26.64307
#
# Poissons Ratio (x) = 0.09367 0.31926
# Poissons Ratio (y) = 0.03903 0.08751
# Poissons Ratio (z) = 0.54194 0.35649
#
# Static dielectric constant tensor:
#      x y z
#    x 1.819240 0.000000 -0.020950 
#    y 0.000000 1.761940 0.000000 
#    z -0.020950 0.000000 1.824000 
# 
# From -- ./inp_files/24938.got.cif
#   From: 2010.05.17/outbox.cif.g08.bks.cpg/sg12_13_cif.got.tgz:24938.got - 2010.06.03 13:09:07.
