data_PCOD9203142
_publ_section_title
;
Structure prediction by ZEFSAII (Michael W. Deem and Ramdas Pophale) SiO2 
 PCOD9203142
Probable space group: C 2/M
;
_chemical_formula_sum "Si O2"
_cell_formula_units_Z 64
_cell_length_a 27.575482
_cell_length_b 18.338237
_cell_length_c 19.629285
_cell_angle_alpha 90.000000
_cell_angle_beta 19.001402
_cell_angle_gamma 90.000000
_cell_volume 3231.900290
_symmetry_space_group_name_H-M "C 2/M"
_symmetry_group_IT_number 12
_symmetry_cell_setting 'monoclinic'
loop_
_space_group_symop_operation_xyz
x,y,z
-x,y,-z
-x,-y,-z
x,-y,z
1/2+x,1/2+y,z
1/2-x,1/2+y,-z
1/2-x,1/2-y,-z
1/2+x,1/2-y,z
loop_
_atom_site_type_symbol
_atom_site_label
_atom_site_fract_x
_atom_site_fract_y
_atom_site_fract_z
Si Si1 0.836064 0.085694 0.682071
Si Si2 0.881563 0.173684 0.487943
Si Si3 0.927089 0.725907 0.669632
Si Si4 0.455289 0.582418 0.842376
Si Si5 0.347068 0.822777 0.968904
Si Si6 0.802447 0.288726 0.499301
Si Si7 0.573743 0.413442 0.829678
Si Si8 0.356226 0.916710 0.821263
O O1 0.835192 0.115060 0.606044
O O2 0.000000 0.094917 0.500000
O O3 0.802830 0.000000 0.729033
O O4 0.717486 0.132938 0.881436
O O5 0.948971 0.134238 0.332738
O O6 0.769857 0.233170 0.605034
O O7 0.001852 0.221968 0.368502
O O8 0.959029 0.642476 0.647307
O O9 0.000000 0.740619 0.500000
O O10 0.753868 0.749667 0.900414
O O11 0.515545 0.500000 0.755644
O O12 0.466024 0.601114 0.907842
O O13 0.290504 0.581002 0.030518
O O14 0.520629 0.803734 0.740450
O O15 0.320102 0.876663 0.940469
O O16 0.750000 0.250000 0.500000
O O17 0.717022 0.363866 0.625807
O O18 0.608046 0.500000 0.785190
O O19 0.500000 0.395257 0.000000
O O20 0.409253 0.000000 0.760039
#
# Coordination Sequence:
#
# PCOD9203142 Si02
#       8
#     8   8   8   8   8   8   8   8
#     4  11  22  39  68 106 142 171 207 263 337 412
#     4  12  20  41  64  96 131 171 218 263 324 390
#     4  12  23  40  65  97 133 172 211 267 331 395
#     4  10  20  38  68  94 125 166 215 271 326 397
#     4  12  22  41  67  95 137 174 213 270 332 391
#     4  12  27  42  66  95 126 175 229 275 320 383
#     4  10  24  47  69  89 121 171 225 277 325 379
#     4  11  23  38  62  97 129 168 212 267 341 397
#
# _framework density 19.802592000000001
#
# number of rings (size 3 to 8) (size 9 to 14) (size 15 to 20)
#    0.000    0.750    6.250    1.875    0.000    5.250 
#    0.000    0.000    0.000    0.750    0.000    0.000 
#    0.000    0.000    0.000    0.000    0.000    0.000 
#
# Total GULP energy -178692.169115 kJ/mol
# GULP energy per Si atom -5584.130285 kJ/mol
# Density = 1.975752 g / cm^3
# Si number density = 19.802592 Si / 1000 Ang^3
#
#
#
# Elastic Constant Matrix: (Units=GPa)
#
#
# Indices 1 2 3 4 5 6 
#
# 1 140.6816 38.9642 36.4311 0.0004 21.7405 -0.0002
# 2 38.9642 116.7387 22.6411 0.0002 18.0489 -0.0002
# 3 36.4311 22.6411 49.8125 0.0007 12.9996 -0.0008
# 4 0.0004 0.0002 0.0007 22.1474 -0.0002 2.5033
# 5 21.7405 18.0489 12.9996 -0.0002 23.6168 0.0003
# 6 -0.0002 -0.0002 -0.0008 2.5033 0.0003 35.3053
#
#
#
# Elastic Compliance Matrix: (Units=1/GPa)
#
#
# Indices 1 2 3 4 5 6 
#
# 1 0.009583 -0.001456 -0.005062 0.000000 -0.004923 0.000000
# 2 -0.001456 0.010306 -0.002235 0.000000 -0.005306 0.000000
# 3 -0.005062 -0.002235 0.027012 -0.000001 -0.008500 0.000001
# 4 0.000000 0.000000 -0.000001 0.045517 0.000001 -0.003227
# 5 -0.004923 -0.005306 -0.008500 0.000001 0.055608 -0.000001
# 6 0.000000 0.000000 0.000001 -0.003227 -0.000001 0.028553
#
#
# Mechanical properties :
#
#
# Convention : Reuss Voigt Hill
#
# Bulk Modulus (GPa) = 34.01967 55.92283 44.97125
# Shear Modulus (GPa) = 24.52382 30.16033 27.34207
#
# Velocity S-wave (km/s) = 3.52293 3.90686 3.71985
# Velocity P-wave (km/s) = 5.81074 6.97516 6.41941
#
# Compressibility (1/GPa) = 0.02939476
#
# Stress axis : x y z
#
# Youngs Moduli (GPa) = 104.34987 97.03280 37.02065
#
# Poissons Ratio (x) = 0.14124 0.18742
# Poissons Ratio (y) = 0.15190 0.08274
# Poissons Ratio (z) = 0.52827 0.21687
#
# Static dielectric constant tensor:
#      x y z
#    x 1.712060 0.000000 -0.003090 
#    y 0.000000 1.724490 0.000000 
#    z -0.003090 0.000000 1.682430 
# 
# From -- ./inp_files/290898.got.cif
#   From: 2010.05.17/outbox.cif.g08.bks.cpg/sg12_146_cif.got.tgz:290898.got - 2010.06.03 13:09:07.
