data_PCOD9203791
_publ_section_title
;
Structure prediction by ZEFSAII (Michael W. Deem and Ramdas Pophale) SiO2 
 PCOD9203791
Probable space group: C 2/M
;
_chemical_formula_sum "Si O2"
_cell_formula_units_Z 42
_cell_length_a 14.566478
_cell_length_b 17.412374
_cell_length_c 7.808317
_cell_angle_alpha 90.000000
_cell_angle_beta 53.729807
_cell_angle_gamma 90.000000
_cell_volume 1596.732816
_symmetry_space_group_name_H-M "C 2/M"
_symmetry_group_IT_number 12
_symmetry_cell_setting 'monoclinic'
loop_
_space_group_symop_operation_xyz
x,y,z
-x,y,-z
-x,-y,-z
x,-y,z
1/2+x,1/2+y,z
1/2-x,1/2+y,-z
1/2-x,1/2-y,-z
1/2+x,1/2-y,z
loop_
_atom_site_type_symbol
_atom_site_label
_atom_site_fract_x
_atom_site_fract_y
_atom_site_fract_z
Si Si1 0.000000 0.000000 0.500000
Si Si2 0.477318 0.910098 0.304122
Si Si3 0.666006 0.680484 0.121247
Si Si4 0.259787 0.907861 0.704382
Si Si5 0.313505 0.089743 0.155881
Si Si6 0.456199 0.376730 0.240964
O O1 0.017293 0.065008 0.634844
O O2 0.391996 0.881660 0.547604
O O3 0.593205 0.883204 0.088216
O O4 0.502217 0.000000 0.310631
O O5 0.385056 0.908333 0.250345
O O6 0.705982 0.614368 0.944298
O O7 0.704115 0.643673 0.258146
O O8 0.750000 0.750000 0.000000
O O9 0.535229 0.694880 0.214063
O O10 0.176554 0.868936 0.657270
O O11 0.256265 0.000000 0.683414
O O12 0.278329 0.000000 0.170075
O O13 0.500000 0.401042 0.000000
#
# Coordination Sequence:
#
# PCOD9203791 Si02
#       6
#     2   8   8   8   8   8
#     4  12  22  36  76 106 126 168 220 296 332 400
#     4   8  17  34  59  94 121 144 203 265 328 367
#     4  11  25  41  57  85 133 176 213 256 328 408
#     4  10  20  39  67  96 125 162 207 284 335 373
#     4   9  18  35  62  90 116 158 210 268 301 379
#     4  10  24  40  64 102 139 162 217 283 345 385
#
# _framework density 26.303712000000001
#
# number of rings (size 3 to 8) (size 9 to 14) (size 15 to 20)
#    0.000    2.286    0.952    2.000    8.000    0.762 
#   10.286    5.714    0.000    0.000    0.000    0.000 
#    0.000    0.000    0.000    0.000    0.000    0.000 
#
# Total GULP energy -116934.762413 kJ/mol
# GULP energy per Si atom -5568.322020 kJ/mol
# Density = 2.624384 g / cm^3
# Si number density = 26.303712 Si / 1000 Ang^3
#
#
#
# Elastic Constant Matrix: (Units=GPa)
#
#
# Indices 1 2 3 4 5 6 
#
# 1 148.9868 17.8818 -9.3034 0.0000 -18.2429 0.0000
# 2 17.8818 43.3535 -16.6699 0.0000 -11.3776 0.0000
# 3 -9.3034 -16.6699 94.9287 0.0000 10.3888 0.0000
# 4 0.0000 0.0000 0.0000 -14.1791 0.0000 -3.2193
# 5 -18.2429 -11.3776 10.3888 0.0000 64.0993 0.0000
# 6 0.0000 0.0000 0.0000 -3.2193 0.0000 24.4266
#
#
#
# Elastic Compliance Matrix: (Units=1/GPa)
#
#
# Indices 1 2 3 4 5 6 
#
# 1 0.007215 -0.002524 0.000090 0.000000 0.001591 0.000000
# 2 -0.002524 0.026539 0.004048 0.000000 0.003336 0.000000
# 3 0.000090 0.004048 0.011374 0.000000 -0.001099 0.000000
# 4 0.000000 0.000000 0.000000 -0.068477 0.000000 -0.009025
# 5 0.001591 0.003336 -0.001099 0.000000 0.016824 0.000000
# 6 0.000000 0.000000 0.000000 -0.009025 0.000000 0.039749
#
#
# Mechanical properties :
#
#
# Convention : Reuss Voigt Hill
#
# Bulk Modulus (GPa) = 20.67982 30.12064 25.40023
# Shear Modulus (GPa) = 108.42166 34.56007 71.49087
#
# Velocity S-wave (km/s) = 6.42718 3.62869 5.21900
# Velocity P-wave (km/s) = 7.93456 5.38818 6.78195
#
# Compressibility (1/GPa) = 0.04835632
#
# Stress axis : x y z
#
# Youngs Moduli (GPa) = 138.59322 37.67989 87.91840
#
# Poissons Ratio (x) = 0.09511 -0.00789
# Poissons Ratio (y) = 0.34981 -0.35589
# Poissons Ratio (z) = -0.01244 -0.15253
#
# Static dielectric constant tensor:
#      x y z
#    x 2.160920 0.000000 -0.000980 
#    y 0.000000 1.966690 0.000000 
#    z -0.000980 0.000000 2.216050 
# 
# From -- ./inp_files/61592.got.cif
#   From: 2010.05.17/outbox.cif.g08.bks.cpg/sg12_31_cif.got.tgz:61592.got - 2010.06.03 13:09:07.
