data_PCOD9203066
_publ_section_title
;
Structure prediction by ZEFSAII (Michael W. Deem and Ramdas Pophale) SiO2 
 PCOD9203066
Probable space group: C 2/M
;
_chemical_formula_sum "Si O2"
_cell_formula_units_Z 40
_cell_length_a 19.723844
_cell_length_b 8.467418
_cell_length_c 25.702791
_cell_angle_alpha 90.000000
_cell_angle_beta 27.533155
_cell_angle_gamma 90.000000
_cell_volume 1984.316142
_symmetry_space_group_name_H-M "C 2/M"
_symmetry_group_IT_number 12
_symmetry_cell_setting 'monoclinic'
loop_
_space_group_symop_operation_xyz
x,y,z
-x,y,-z
-x,-y,-z
x,-y,z
1/2+x,1/2+y,z
1/2-x,1/2+y,-z
1/2-x,1/2-y,-z
1/2+x,1/2-y,z
loop_
_atom_site_type_symbol
_atom_site_label
_atom_site_fract_x
_atom_site_fract_y
_atom_site_fract_z
Si Si1 0.357685 0.309541 0.970625
Si Si2 0.608902 0.808345 0.344703
Si Si3 0.325713 0.690668 0.286474
Si Si4 0.211116 0.187232 0.469050
Si Si5 0.833503 0.192349 0.102131
O O1 0.358884 0.500000 0.970404
O O2 0.524624 0.260136 0.844350
O O3 0.250000 0.250000 0.000000
O O4 0.302062 0.255783 0.064902
O O5 0.685796 0.760036 0.346617
O O6 0.449529 0.743562 0.440068
O O7 0.719372 0.757483 0.223477
O O8 0.599751 0.000000 0.351458
O O9 0.323659 0.500000 0.289566
O O10 0.317452 0.753117 0.350644
O O11 0.250000 0.250000 0.500000
O O12 0.216435 0.000000 0.467334
O O13 0.832045 0.000000 0.104625
O O14 0.000000 0.241313 0.000000
#
# Coordination Sequence:
#
# PCOD9203066 Si02
#       5
#     8   8   8   8   8
#     4  10  21  36  58  90 126 160 198 244 292 348
#     4  10  20  38  66  93 121 158 200 245 296 356
#     4  10  21  40  64  90 123 161 203 247 296 358
#     4  12  27  44  62  86 119 156 202 255 307 362
#     4   9  16  33  61  91 119 153 197 238 284 349
#
# _framework density 20.158076999999999
#
# number of rings (size 3 to 8) (size 9 to 14) (size 15 to 20)
#    0.000    1.800    2.000    2.400    2.800    4.000 
#    0.000    0.000    0.000    1.200    0.000    0.000 
#    0.000    0.000    0.000    0.000    0.000    0.000 
#
# Total GULP energy -111719.514352 kJ/mol
# GULP energy per Si atom -5585.975718 kJ/mol
# Density = 2.011220 g / cm^3
# Si number density = 20.158077 Si / 1000 Ang^3
#
#
#
# Elastic Constant Matrix: (Units=GPa)
#
#
# Indices 1 2 3 4 5 6 
#
# 1 139.6490 22.4952 20.3854 0.0004 20.2505 -0.0001
# 2 22.4952 27.7045 15.7702 -0.0005 4.3118 0.0001
# 3 20.3854 15.7702 63.1583 -0.0009 17.1566 0.0002
# 4 0.0004 -0.0005 -0.0009 13.0631 -0.0001 4.1536
# 5 20.2505 4.3118 17.1566 -0.0001 41.8981 0.0000
# 6 -0.0001 0.0001 0.0002 4.1536 0.0000 27.7506
#
#
#
# Elastic Compliance Matrix: (Units=1/GPa)
#
#
# Indices 1 2 3 4 5 6 
#
# 1 0.008732 -0.006390 -0.000287 -0.000001 -0.003445 0.000000
# 2 -0.006390 0.046753 -0.010288 0.000001 0.002490 0.000000
# 3 -0.000287 -0.010288 0.020443 0.000001 -0.007174 0.000000
# 4 -0.000001 0.000001 0.000001 0.080376 0.000000 -0.012030
# 5 -0.003445 0.002490 -0.007174 0.000000 0.028214 0.000000
# 6 0.000000 0.000000 0.000000 -0.012030 0.000000 0.037836
#
#
# Mechanical properties :
#
#
# Convention : Reuss Voigt Hill
#
# Bulk Modulus (GPa) = 23.81065 38.64591 31.22828
# Shear Modulus (GPa) = 18.49916 27.99976 23.24946
#
# Velocity S-wave (km/s) = 3.03265 3.73099 3.39980
# Velocity P-wave (km/s) = 4.90920 6.14601 5.56209
#
# Compressibility (1/GPa) = 0.04199802
#
# Stress axis : x y z
#
# Youngs Moduli (GPa) = 114.52600 21.38922 48.91583
#
# Poissons Ratio (x) = 0.13669 0.01403
# Poissons Ratio (y) = 0.73186 0.50322
# Poissons Ratio (z) = 0.03284 0.22004
#
# Static dielectric constant tensor:
#      x y z
#    x 1.707500 0.000000 0.019090 
#    y 0.000000 1.699340 0.000000 
#    z 0.019090 0.000000 1.717600 
# 
# From -- ./inp_files/151653.got.cif
#   From: 2010.05.17/outbox.cif.g08.bks.cpg/sg12_76_cif.got.tgz:151653.got - 2010.06.03 13:09:07.
