data_PCOD9203377
_publ_section_title
;
Structure prediction by ZEFSAII (Michael W. Deem and Ramdas Pophale) SiO2 
 PCOD9203377
Probable space group: C 2/M
;
_chemical_formula_sum "Si O2"
_cell_formula_units_Z 50
_cell_length_a 10.471324
_cell_length_b 16.205583
_cell_length_c 16.485159
_cell_angle_alpha 90.000000
_cell_angle_beta 105.640710
_cell_angle_gamma 90.000000
_cell_volume 2693.845714
_symmetry_space_group_name_H-M "C 2/M"
_symmetry_group_IT_number 12
_symmetry_cell_setting 'monoclinic'
loop_
_space_group_symop_operation_xyz
x,y,z
-x,y,-z
-x,-y,-z
x,-y,z
1/2+x,1/2+y,z
1/2-x,1/2+y,-z
1/2-x,1/2-y,-z
1/2+x,1/2-y,z
loop_
_atom_site_type_symbol
_atom_site_label
_atom_site_fract_x
_atom_site_fract_y
_atom_site_fract_z
Si Si1 0.897790 0.368416 0.354909
Si Si2 0.647354 0.258186 0.056208
Si Si3 0.152036 0.218807 0.553142
Si Si4 0.674416 0.905866 0.341713
Si Si5 0.000000 0.500000 0.500000
Si Si6 0.706037 0.908025 0.836851
Si Si7 0.906601 0.592729 0.854322
O O1 0.833463 0.283753 0.371530
O O2 0.916258 0.428009 0.435023
O O3 0.823514 0.404840 0.264398
O O4 0.048197 0.354101 0.349719
O O5 0.363721 0.169443 0.901265
O O6 0.500000 0.278260 0.000000
O O7 0.750000 0.250000 0.000000
O O8 0.702049 0.332276 0.121438
O O9 0.250000 0.250000 0.500000
O O10 0.197858 0.130544 0.593961
O O11 0.000000 0.219641 0.500000
O O12 0.673123 0.904888 0.244539
O O13 0.646777 0.000000 0.364962
O O14 0.561937 0.899047 0.855995
O O15 0.756893 0.000000 0.866138
O O16 0.889031 0.500000 0.886576
#
# Coordination Sequence:
#
# PCOD9203377 Si02
#       7
#     8   8   8   8   2   8   8
#     4  11  20  36  63  91 124 159 214 256 305 369
#     4  12  24  41  65  97 130 163 207 261 317 379
#     4  12  23  37  56  88 124 162 204 261 314 368
#     4  10  20  39  62  87 120 162 208 256 310 368
#     4  12  16  32  60  96 114 158 216 260 286 360
#     4  10  21  40  64  93 129 167 208 260 319 372
#     4   9  20  40  66  90 120 166 211 251 307 384
#
# _framework density 18.560825000000001
#
# number of rings (size 3 to 8) (size 9 to 14) (size 15 to 20)
#    0.000    1.280    5.600    1.920    0.000    1.600 
#    0.000    0.000    0.000    1.920    0.000    0.000 
#    0.000    0.000    0.000    0.000    0.000    0.000 
#
# Total GULP energy -139250.911217 kJ/mol
# GULP energy per Si atom -5570.036449 kJ/mol
# Density = 1.851858 g / cm^3
# Si number density = 18.560825 Si / 1000 Ang^3
#
#
#
# Elastic Constant Matrix: (Units=GPa)
#
#
# Indices 1 2 3 4 5 6 
#
# 1 79.5546 41.5513 36.5763 0.0000 4.3142 0.0000
# 2 41.5513 126.5808 54.7540 0.0000 0.2143 0.0000
# 3 36.5763 54.7540 73.3779 0.0000 13.1242 0.0000
# 4 0.0000 0.0000 0.0000 34.1853 0.0000 -1.5459
# 5 4.3142 0.2143 13.1242 0.0000 25.5259 0.0000
# 6 0.0000 0.0000 0.0000 -1.5459 0.0000 28.8231
#
#
#
# Elastic Compliance Matrix: (Units=1/GPa)
#
#
# Indices 1 2 3 4 5 6 
#
# 1 0.016968 -0.002768 -0.006480 0.000000 0.000487 0.000000
# 2 -0.002768 0.012682 -0.008973 0.000000 0.004975 0.000000
# 3 -0.006480 -0.008973 0.025709 0.000000 -0.012048 0.000000
# 4 0.000000 0.000000 0.000000 0.029323 0.000000 0.001573
# 5 0.000487 0.004975 -0.012048 0.000000 0.045246 0.000000
# 6 0.000000 0.000000 0.000000 0.001573 0.000000 0.034779
#
#
# Mechanical properties :
#
#
# Convention : Reuss Voigt Hill
#
# Bulk Modulus (GPa) = 52.86266 60.58629 56.72447
# Shear Modulus (GPa) = 24.10168 27.48230 25.79199
#
# Velocity S-wave (km/s) = 3.60741 3.85211 3.73177
# Velocity P-wave (km/s) = 6.77450 7.24554 7.01398
#
# Compressibility (1/GPa) = 0.01891695
#
# Stress axis : x y z
#
# Youngs Moduli (GPa) = 58.93279 78.85395 38.89763
#
# Poissons Ratio (x) = 0.21826 0.25205
# Poissons Ratio (y) = 0.16312 0.34903
# Poissons Ratio (z) = 0.38188 0.70756
#
# Static dielectric constant tensor:
#      x y z
#    x 1.637670 0.000000 -0.027410 
#    y 0.000000 1.682550 0.000000 
#    z -0.027410 0.000000 1.670400 
# 
# From -- ./inp_files/263014.got.cif
#   From: 2010.05.17/outbox.cif.g08.bks.cpg/sg12_132_cif.got.tgz:263014.got - 2010.06.03 13:09:07.
