data_PCOD9203526
_publ_section_title
;
Structure prediction by ZEFSAII (Michael W. Deem and Ramdas Pophale) SiO2 
 PCOD9203526
Probable space group: C 2/M
;
_chemical_formula_sum "Si O2"
_cell_formula_units_Z 64
_cell_length_a 27.426130
_cell_length_b 15.522781
_cell_length_c 7.562499
_cell_angle_alpha 90.000000
_cell_angle_beta 87.282297
_cell_angle_gamma 90.000000
_cell_volume 3215.960108
_symmetry_space_group_name_H-M "C 2/M"
_symmetry_group_IT_number 12
_symmetry_cell_setting 'monoclinic'
loop_
_space_group_symop_operation_xyz
x,y,z
-x,y,-z
-x,-y,-z
x,-y,z
1/2+x,1/2+y,z
1/2-x,1/2+y,-z
1/2-x,1/2-y,-z
1/2+x,1/2-y,z
loop_
_atom_site_type_symbol
_atom_site_label
_atom_site_fract_x
_atom_site_fract_y
_atom_site_fract_z
Si Si1 0.285145 0.160237 0.316724
Si Si2 0.118690 0.262423 0.543682
Si Si3 0.082265 0.727476 0.156516
Si Si4 0.434976 0.597955 0.045861
Si Si5 0.655011 0.590442 0.672040
Si Si6 0.016001 0.778892 0.700440
Si Si7 0.664159 0.900533 0.035160
Si Si8 0.255359 0.148172 0.699576
O O1 0.339107 0.180285 0.383162
O O2 0.259477 0.120485 0.492858
O O3 0.255318 0.249105 0.287197
O O4 0.298042 0.112857 0.134046
O O5 0.104549 0.281500 0.347299
O O6 0.142775 0.168089 0.545356
O O7 0.069389 0.262295 0.667749
O O8 0.080939 0.826157 0.086494
O O9 0.117299 0.664278 0.037585
O O10 0.023916 0.716247 0.202548
O O11 0.445150 0.500000 0.979872
O O12 0.523904 0.638763 0.827949
O O13 0.388449 0.590243 0.181478
O O14 0.656466 0.500000 0.575496
O O15 0.704983 0.605837 0.768567
O O16 0.000000 0.801051 0.500000
O O17 0.697534 0.878266 0.199491
O O18 0.648171 0.000000 0.043856
#
# Coordination Sequence:
#
# PCOD9203526 Si02
#       8
#     8   8   8   8   8   8   8   8
#     4  10  21  39  63  88 116 155 204 252 310 360
#     4   9  18  37  58  82 110 154 197 247 304 359
#     4  11  21  37  58  84 121 156 198 250 304 360
#     4  10  21  36  58  89 122 155 195 251 312 372
#     4   9  18  34  54  81 118 153 191 239 298 365
#     4   9  19  34  59  84 114 156 200 243 303 367
#     4  12  25  39  61  91 125 165 210 253 302 357
#     4  10  20  39  64  86 118 159 201 253 304 357
#
# _framework density 19.900745000000001
#
# number of rings (size 3 to 8) (size 9 to 14) (size 15 to 20)
#    0.000    2.000    1.250    3.375    0.000    2.750 
#    0.000    2.500    0.000    9.375    0.000    0.000 
#    0.000    0.000    0.000    0.000    0.000    0.000 
#
# Total GULP energy -178165.751471 kJ/mol
# GULP energy per Si atom -5567.679733 kJ/mol
# Density = 1.985545 g / cm^3
# Si number density = 19.900745 Si / 1000 Ang^3
#
#
#
# Elastic Constant Matrix: (Units=GPa)
#
#
# Indices 1 2 3 4 5 6 
#
# 1 88.8516 34.2275 13.5141 0.0000 -17.7083 0.0000
# 2 34.2275 59.5741 22.3659 0.0000 -8.1642 0.0000
# 3 13.5141 22.3659 72.2807 0.0000 -1.0923 0.0000
# 4 0.0000 0.0000 0.0000 -14.2974 0.0000 -1.1042
# 5 -17.7083 -8.1642 -1.0923 0.0000 20.2740 0.0000
# 6 0.0000 0.0000 0.0000 -1.1042 0.0000 2.7328
#
#
#
# Elastic Compliance Matrix: (Units=1/GPa)
#
#
# Indices 1 2 3 4 5 6 
#
# 1 0.016590 -0.007783 -0.000522 0.000000 0.011328 0.000000
# 2 -0.007783 0.023801 -0.005872 0.000000 0.002470 0.000000
# 3 -0.000522 -0.005872 0.015720 0.000000 -0.001974 0.000000
# 4 0.000000 0.000000 0.000000 -0.067826 0.000000 -0.027406
# 5 0.011328 0.002470 -0.001974 0.000000 0.060107 0.000000
# 6 0.000000 0.000000 0.000000 -0.027406 0.000000 0.354846
#
#
# Mechanical properties :
#
#
# Convention : Reuss Voigt Hill
#
# Bulk Modulus (GPa) = 36.02898 40.10238 38.06568
# Shear Modulus (GPa) = 11.34186 11.78182 11.56184
#
# Velocity S-wave (km/s) = 2.38989 2.43580 2.41296
# Velocity P-wave (km/s) = 5.07534 5.30149 5.18965
#
# Compressibility (1/GPa) = 0.02775544
#
# Stress axis : x y z
#
# Youngs Moduli (GPa) = 60.27673 42.01589 63.61401
#
# Poissons Ratio (x) = 0.32701 0.03322
# Poissons Ratio (y) = 0.46914 0.37355
# Poissons Ratio (z) = 0.03148 0.24672
#
# Static dielectric constant tensor:
#      x y z
#    x 1.741180 0.000000 -0.028790 
#    y 0.000000 1.725050 0.000000 
#    z -0.028790 0.000000 1.752250 
# 
# From -- ./inp_files/112326.got.cif
#   From: 2010.05.17/outbox.cif.g08.bks.cpg/sg12_57_cif.got.tgz:112326.got - 2010.06.03 13:09:07.
