data_PCOD9203178
_publ_section_title
;
Structure prediction by ZEFSAII (Michael W. Deem and Ramdas Pophale) SiO2 
 PCOD9203178
Probable space group: C 2/M
;
_chemical_formula_sum "Si O2"
_cell_formula_units_Z 52
_cell_length_a 8.529258
_cell_length_b 20.911103
_cell_length_c 26.033317
_cell_angle_alpha 90.000000
_cell_angle_beta 147.428935
_cell_angle_gamma 90.000000
_cell_volume 2499.646527
_symmetry_space_group_name_H-M "C 2/M"
_symmetry_group_IT_number 12
_symmetry_cell_setting 'monoclinic'
loop_
_space_group_symop_operation_xyz
x,y,z
-x,y,-z
-x,-y,-z
x,-y,z
1/2+x,1/2+y,z
1/2-x,1/2+y,-z
1/2-x,1/2-y,-z
1/2+x,1/2-y,z
loop_
_atom_site_type_symbol
_atom_site_label
_atom_site_fract_x
_atom_site_fract_y
_atom_site_fract_z
Si Si1 0.645459 0.381291 0.636329
Si Si2 0.000000 0.208302 0.500000
Si Si3 0.807672 0.709544 0.067618
Si Si4 0.314154 0.927689 0.269136
Si Si5 0.455030 0.930754 0.554981
Si Si6 0.870413 0.187507 0.644179
Si Si7 0.398446 0.312156 0.184413
O O1 0.549083 0.333342 0.563867
O O2 0.372840 0.429206 0.556071
O O3 0.631803 0.347535 0.687493
O O4 0.961814 0.409128 0.713462
O O5 0.269094 0.257048 0.577767
O O6 0.881776 0.759430 0.134573
O O7 0.086018 0.670200 0.123918
O O8 0.500000 0.678312 0.000000
O O9 0.750000 0.750000 0.000000
O O10 0.520690 0.926734 0.376802
O O11 0.069574 0.874084 0.210734
O O12 0.201137 0.000000 0.232309
O O13 0.629702 0.868283 0.584997
O O14 0.590140 0.000000 0.579269
O O15 0.935630 0.213265 0.718853
#
# Coordination Sequence:
#
# PCOD9203178 Si02
#       7
#     8   4   8   8   8   8   8
#     4  12  22  35  54  77 114 174 221 266 300 351
#     4  12  24  36  50  78 128 166 218 258 310 342
#     4   9  20  41  69  96 123 150 181 235 304 388
#     4  10  22  39  58  84 121 165 212 263 308 352
#     4  10  20  39  55  74 110 168 229 270 307 341
#     4  11  25  35  54  87 123 166 207 269 308 357
#     4  10  23  39  63  96 125 159 197 250 307 371
#
# _framework density 20.802941000000001
#
# number of rings (size 3 to 8) (size 9 to 14) (size 15 to 20)
#    0.000    1.538    3.077    0.923    4.308    4.308 
#    0.000    0.000    0.000    4.615    0.000    0.000 
#    0.000    0.000    0.000    0.000    0.000    0.000 
#
# Total GULP energy -144959.740297 kJ/mol
# GULP energy per Si atom -5575.374627 kJ/mol
# Density = 2.075559 g / cm^3
# Si number density = 20.802941 Si / 1000 Ang^3
#
#
#
# Elastic Constant Matrix: (Units=GPa)
#
#
# Indices 1 2 3 4 5 6 
#
# 1 116.7002 33.3924 33.0267 0.0019 13.4536 0.0002
# 2 33.3924 78.0066 23.4073 0.0008 5.3100 0.0011
# 3 33.0267 23.4073 62.7402 -0.0021 6.0823 0.0030
# 4 0.0019 0.0008 -0.0021 10.5686 0.0012 4.6253
# 5 13.4536 5.3100 6.0823 0.0012 49.6611 0.0007
# 6 0.0002 0.0011 0.0030 4.6253 0.0007 13.5864
#
#
#
# Elastic Compliance Matrix: (Units=1/GPa)
#
#
# Indices 1 2 3 4 5 6 
#
# 1 0.010974 -0.003246 -0.004363 -0.000003 -0.002091 0.000002
# 2 -0.003246 0.015435 -0.004023 -0.000001 -0.000278 0.000000
# 3 -0.004363 -0.004023 0.019815 0.000008 -0.000815 -0.000007
# 4 -0.000003 -0.000001 0.000008 0.111186 -0.000002 -0.037851
# 5 -0.002091 -0.000278 -0.000815 -0.000002 0.020833 0.000000
# 6 0.000002 0.000000 -0.000007 -0.037851 0.000000 0.086489
#
#
# Mechanical properties :
#
#
# Convention : Reuss Voigt Hill
#
# Bulk Modulus (GPa) = 43.55296 48.56665 46.05981
# Shear Modulus (GPa) = 16.91202 25.93792 21.42497
#
# Velocity S-wave (km/s) = 2.85434 3.53489 3.21269
# Velocity P-wave (km/s) = 5.64309 6.32909 5.99591
#
# Compressibility (1/GPa) = 0.02296055
#
# Stress axis : x y z
#
# Youngs Moduli (GPa) = 91.12818 64.78781 50.46636
#
# Poissons Ratio (x) = 0.21030 0.22017
# Poissons Ratio (y) = 0.29580 0.20302
# Poissons Ratio (z) = 0.39757 0.26063
#
# Static dielectric constant tensor:
#      x y z
#    x 1.816000 0.000000 0.037450 
#    y 0.000000 1.770980 0.000000 
#    z 0.037450 0.000000 1.805560 
# 
# From -- ./inp_files/357060.got.cif
#   From: 2010.05.17/outbox.cif.g08.bks.cpg/sg12_179_cif.got.tgz:357060.got - 2010.06.03 13:09:07.
