data_PCOD9203407
_publ_section_title
;
Structure prediction by ZEFSAII (Michael W. Deem and Ramdas Pophale) SiO2 
 PCOD9203407
Probable space group: C 2/M
;
_chemical_formula_sum "Si O2"
_cell_formula_units_Z 40
_cell_length_a 7.714441
_cell_length_b 19.899618
_cell_length_c 17.841798
_cell_angle_alpha 90.000000
_cell_angle_beta 41.229513
_cell_angle_gamma 90.000000
_cell_volume 1805.194231
_symmetry_space_group_name_H-M "C 2/M"
_symmetry_group_IT_number 12
_symmetry_cell_setting 'monoclinic'
loop_
_space_group_symop_operation_xyz
x,y,z
-x,y,-z
-x,-y,-z
x,-y,z
1/2+x,1/2+y,z
1/2-x,1/2+y,-z
1/2-x,1/2-y,-z
1/2+x,1/2-y,z
loop_
_atom_site_type_symbol
_atom_site_label
_atom_site_fract_x
_atom_site_fract_y
_atom_site_fract_z
Si Si1 0.565138 0.568003 0.891775
Si Si2 0.654511 0.815143 0.374585
Si Si3 0.158374 0.325020 0.022662
Si Si4 0.630755 0.078266 0.640738
Si Si5 0.186479 0.168727 0.288673
O O1 0.454209 0.500000 0.890672
O O2 0.867319 0.570342 0.775496
O O3 0.500000 0.563734 0.000000
O O4 0.422238 0.635040 0.919169
O O5 0.500000 0.795270 0.500000
O O6 0.479036 0.872354 0.389505
O O7 0.681662 0.746943 0.317014
O O8 0.939855 0.840277 0.312037
O O9 0.962165 0.342586 0.154786
O O10 0.250000 0.250000 0.000000
O O11 0.000000 0.334953 0.000000
O O12 0.823704 0.119301 0.634851
O O13 0.704482 0.000000 0.596379
#
# Coordination Sequence:
#
# PCOD9203407 Si02
#       5
#     8   8   8   8   8
#     4  10  20  39  62  90 133 176 206 250 322 399
#     4  12  27  47  73  98 133 178 236 294 352 402
#     4  12  24  36  61  99 136 170 217 270 321 394
#     4  11  25  45  71 104 141 180 226 281 341 411
#     4  12  24  43  71 102 133 182 231 279 338 412
#
# _framework density 22.158280999999999
#
# number of rings (size 3 to 8) (size 9 to 14) (size 15 to 20)
#    0.000    0.600    4.000    4.800    0.000    1.600 
#    0.000    1.000    0.000    0.000    0.000    0.000 
#    0.000    0.000    0.000    0.000    0.000    0.000 
#
# Total GULP energy -111533.089468 kJ/mol
# GULP energy per Si atom -5576.654473 kJ/mol
# Density = 2.210785 g / cm^3
# Si number density = 22.158281 Si / 1000 Ang^3
#
#
#
# Elastic Constant Matrix: (Units=GPa)
#
#
# Indices 1 2 3 4 5 6 
#
# 1 108.9370 59.5908 0.5139 0.0000 -0.8582 0.0000
# 2 59.5908 159.8222 -9.3898 0.0000 -2.4511 0.0000
# 3 0.5139 -9.3898 68.3308 0.0002 0.5979 0.0000
# 4 0.0000 0.0000 0.0002 -2.4923 0.0000 7.3327
# 5 -0.8582 -2.4511 0.5979 0.0000 40.8701 0.0000
# 6 0.0000 0.0000 0.0000 7.3327 0.0000 36.6083
#
#
#
# Elastic Compliance Matrix: (Units=1/GPa)
#
#
# Indices 1 2 3 4 5 6 
#
# 1 0.011563 -0.004352 -0.000685 0.000000 -0.000008 0.000000
# 2 -0.004352 0.007951 0.001122 0.000000 0.000369 0.000000
# 3 -0.000685 0.001122 0.014795 0.000001 -0.000164 0.000000
# 4 0.000000 0.000000 0.000001 -0.252457 0.000000 0.050567
# 5 -0.000008 0.000369 -0.000164 0.000000 0.024492 0.000000
# 6 0.000000 0.000000 0.000000 0.050567 0.000000 0.017187
#
#
# Mechanical properties :
#
#
# Convention : Reuss Voigt Hill
#
# Bulk Modulus (GPa) = 37.76333 48.72442 43.24388
# Shear Modulus (GPa) = -31.28689 34.08889 1.40100
#
# Velocity S-wave (km/s) = -3.76170 3.92653 0.79602
# Velocity P-wave (km/s) = 1.33703 6.52640 4.51698
#
# Compressibility (1/GPa) = 0.02648071
#
# Stress axis : x y z
#
# Youngs Moduli (GPa) = 86.48030 125.76803 67.58823
#
# Poissons Ratio (x) = 0.54732 0.04629
# Poissons Ratio (y) = 0.37635 -0.07584
# Poissons Ratio (z) = 0.05923 -0.14113
#
# Static dielectric constant tensor:
#      x y z
#    x 1.803160 0.000000 0.004950 
#    y 0.000000 2.391640 0.000000 
#    z 0.004950 0.000000 1.842410 
# 
# From -- ./inp_files/300575.got.cif
#   From: 2010.05.17/outbox.cif.g08.bks.cpg/sg12_151_cif.got.tgz:300575.got - 2010.06.03 13:09:07.
