data_PCOD9203626
_publ_section_title
;
Structure prediction by ZEFSAII (Michael W. Deem and Ramdas Pophale) SiO2 
 PCOD9203626
Probable space group: C 2/M
;
_chemical_formula_sum "Si O2"
_cell_formula_units_Z 56
_cell_length_a 15.822821
_cell_length_b 23.287543
_cell_length_c 9.094277
_cell_angle_alpha 90.000000
_cell_angle_beta 63.911344
_cell_angle_gamma 90.000000
_cell_volume 3009.591484
_symmetry_space_group_name_H-M "C 2/M"
_symmetry_group_IT_number 12
_symmetry_cell_setting 'monoclinic'
loop_
_space_group_symop_operation_xyz
x,y,z
-x,y,-z
-x,-y,-z
x,-y,z
1/2+x,1/2+y,z
1/2-x,1/2+y,-z
1/2-x,1/2-y,-z
1/2+x,1/2-y,z
loop_
_atom_site_type_symbol
_atom_site_label
_atom_site_fract_x
_atom_site_fract_y
_atom_site_fract_z
Si Si1 0.205852 0.110804 0.609877
Si Si2 0.320008 0.067074 0.249303
Si Si3 0.826047 0.000000 0.155925
Si Si4 0.993185 0.839003 0.335550
Si Si5 0.000000 0.635973 0.000000
Si Si6 0.757003 0.804325 0.157023
Si Si7 0.911516 0.736310 0.889838
Si Si8 0.175701 0.905115 0.101606
O O1 0.277670 0.098826 0.423268
O O2 0.189666 0.051408 0.709558
O O3 0.241658 0.159746 0.695028
O O4 0.106719 0.133057 0.622939
O O5 0.415503 0.097010 0.123590
O O6 0.243518 0.072288 0.177116
O O7 0.335727 0.000000 0.269551
O O8 0.838425 0.049496 0.017070
O O9 0.015622 0.785481 0.211998
O O10 0.075881 0.884885 0.241227
O O11 0.000000 0.821221 0.500000
O O12 0.039323 0.678444 0.095693
O O13 0.659006 0.774255 0.192918
O O14 0.843069 0.759768 0.072234
O O15 0.775945 0.849731 0.010780
#
# Coordination Sequence:
#
# PCOD9203626 Si02
#       8
#     8   8   4   8   4   8   8   8
#     4  11  23  40  64  96 131 163 211 268 322 372
#     4  12  24  44  64  94 123 167 216 272 318 377
#     4  10  22  39  64  91 124 170 213 258 312 385
#     4  11  23  38  61  98 135 167 206 262 315 386
#     4  12  25  42  70  92 120 171 226 264 314 384
#     4   9  20  39  66  93 130 169 210 259 313 381
#     4  10  21  40  64  95 129 174 215 253 316 382
#     4  10  20  39  65  87 128 173 210 255 316 378
#
# _framework density 18.607177
#
# number of rings (size 3 to 8) (size 9 to 14) (size 15 to 20)
#    0.000    1.429    4.286    1.071    0.000    6.857 
#    0.000    3.571    0.000    1.714    0.000    0.000 
#    0.000    0.000    0.000    0.000    0.000    0.000 
#
# Total GULP energy -155871.820195 kJ/mol
# GULP energy per Si atom -5566.850721 kJ/mol
# Density = 1.856483 g / cm^3
# Si number density = 18.607177 Si / 1000 Ang^3
#
#
#
# Elastic Constant Matrix: (Units=GPa)
#
#
# Indices 1 2 3 4 5 6 
#
# 1 85.5573 48.6748 64.4091 0.0000 -13.5941 0.0000
# 2 48.6748 92.0468 43.5495 0.0000 -22.6273 0.0000
# 3 64.4091 43.5495 121.7544 0.0000 -10.6933 0.0000
# 4 0.0000 0.0000 0.0000 21.9462 0.0000 -5.2931
# 5 -13.5941 -22.6273 -10.6933 0.0000 22.9413 0.0000
# 6 0.0000 0.0000 0.0000 -5.2931 0.0000 1.0250
#
#
#
# Elastic Compliance Matrix: (Units=1/GPa)
#
#
# Indices 1 2 3 4 5 6 
#
# 1 0.023399 -0.007304 -0.009573 0.000000 0.002200 0.000000
# 2 -0.007304 0.018836 -0.001691 0.000000 0.013462 0.000000
# 3 -0.009573 -0.001691 0.013803 0.000000 -0.000907 0.000000
# 4 0.000000 0.000000 0.000000 -0.185599 0.000000 -0.958454
# 5 0.002200 0.013462 -0.000907 0.000000 0.057747 0.000000
# 6 0.000000 0.000000 0.000000 -0.958454 0.000000 -3.973926
#
#
# Mechanical properties :
#
#
# Convention : Reuss Voigt Hill
#
# Bulk Modulus (GPa) = 52.90432 68.06951 60.48691
# Shear Modulus (GPa) = -1.24928 18.69752 8.72412
#
# Velocity S-wave (km/s) = -0.82028 3.17338 2.16766
# Velocity P-wave (km/s) = 5.25327 7.07736 6.23241
#
# Compressibility (1/GPa) = 0.01890205
#
# Stress axis : x y z
#
# Youngs Moduli (GPa) = 42.73603 53.09085 72.45014
#
# Poissons Ratio (x) = 0.38777 0.69355
# Poissons Ratio (y) = 0.31214 0.12252
# Poissons Ratio (z) = 0.40911 0.08978
#
# Static dielectric constant tensor:
#      x y z
#    x 1.645080 0.000000 0.005610 
#    y 0.000000 1.636190 0.000000 
#    z 0.005610 0.000000 1.625880 
# 
# From -- ./inp_files/65812.got.cif
#   From: 2010.05.17/outbox.cif.g08.bks.cpg/sg12_33_cif.got.tgz:65812.got - 2010.06.03 13:09:07.
