data_PCOD9203725
_publ_section_title
;
Structure prediction by ZEFSAII (Michael W. Deem and Ramdas Pophale) SiO2 
 PCOD9203725
Probable space group: C 2/M
;
_chemical_formula_sum "Si O2"
_cell_formula_units_Z 40
_cell_length_a 29.138921
_cell_length_b 13.119334
_cell_length_c 5.094381
_cell_angle_alpha 90.000000
_cell_angle_beta 102.750049
_cell_angle_gamma 90.000000
_cell_volume 1899.475348
_symmetry_space_group_name_H-M "C 2/M"
_symmetry_group_IT_number 12
_symmetry_cell_setting 'monoclinic'
loop_
_space_group_symop_operation_xyz
x,y,z
-x,y,-z
-x,-y,-z
x,-y,z
1/2+x,1/2+y,z
1/2-x,1/2+y,-z
1/2-x,1/2-y,-z
1/2+x,1/2-y,z
loop_
_atom_site_type_symbol
_atom_site_label
_atom_site_fract_x
_atom_site_fract_y
_atom_site_fract_z
Si Si1 0.781033 0.377564 0.794457
Si Si2 0.946814 0.173387 0.822559
Si Si3 0.106001 0.112700 0.724752
Si Si4 0.466393 0.890012 0.707044
Si Si5 0.688785 0.758776 0.653779
O O1 0.780890 0.500000 0.775939
O O2 0.729707 0.327119 0.680213
O O3 0.813483 0.322840 0.616928
O O4 0.796714 0.337563 0.099222
O O5 0.936502 0.116120 0.539131
O O6 0.936784 0.291289 0.736503
O O7 0.913215 0.135419 0.010573
O O8 0.000000 0.165373 0.000000
O O9 0.142860 0.197378 0.681045
O O10 0.127569 0.000000 0.746433
O O11 0.500000 0.869377 0.500000
O O12 0.442610 0.000000 0.633661
O O13 0.500000 0.899499 0.000000
#
# Coordination Sequence:
#
# PCOD9203725 Si02
#       5
#     8   8   8   8   8
#     4  10  20  39  66  93 125 159 194 238 293 357
#     4  11  23  40  61  86 117 155 204 255 297 349
#     4  12  25  41  60  84 119 158 202 251 301 355
#     4   9  17  33  57  80 104 138 182 233 290 348
#     4  10  22  39  62  92 124 160 199 239 291 360
#
# _framework density 21.058446
#
# number of rings (size 3 to 8) (size 9 to 14) (size 15 to 20)
#    0.000    1.600    0.000    6.000    0.000    2.400 
#    0.000   12.000    0.000    0.000    0.000    0.000 
#    0.000    0.000    0.000    0.000    0.000    0.000 
#
# Total GULP energy -111693.060040 kJ/mol
# GULP energy per Si atom -5584.653002 kJ/mol
# Density = 2.101052 g / cm^3
# Si number density = 21.058446 Si / 1000 Ang^3
#
#
#
# Elastic Constant Matrix: (Units=GPa)
#
#
# Indices 1 2 3 4 5 6 
#
# 1 37.8352 18.0491 -1.1844 0.0000 -0.3660 0.0000
# 2 18.0491 164.2838 18.7254 0.0000 -6.0869 0.0000
# 3 -1.1844 18.7254 84.5126 0.0000 -27.4994 0.0000
# 4 0.0000 0.0000 0.0000 61.1665 0.0000 -18.4367
# 5 -0.3660 -6.0869 -27.4994 0.0000 24.5220 0.0000
# 6 0.0000 0.0000 0.0000 -18.4367 0.0000 26.7177
#
#
#
# Elastic Compliance Matrix: (Units=1/GPa)
#
#
# Indices 1 2 3 4 5 6 
#
# 1 0.028020 -0.003204 0.001543 0.000000 0.001353 0.000000
# 2 -0.003204 0.006611 -0.001561 0.000000 -0.000157 0.000000
# 3 0.001543 -0.001561 0.019023 0.000000 0.020968 0.000000
# 4 0.000000 0.000000 0.000000 0.020642 0.000000 0.014244
# 5 0.001353 -0.000157 0.020968 0.000000 0.064275 0.000000
# 6 0.000000 0.000000 0.000000 0.014244 0.000000 0.047258
#
#
# Mechanical properties :
#
#
# Convention : Reuss Voigt Hill
#
# Bulk Modulus (GPa) = 21.18198 39.75688 30.46943
# Shear Modulus (GPa) = 24.03729 39.21734 31.62732
#
# Velocity S-wave (km/s) = 3.38221 4.32013 3.87962
# Velocity P-wave (km/s) = 5.03319 6.61853 5.87954
#
# Compressibility (1/GPa) = 0.04720993
#
# Stress axis : x y z
#
# Youngs Moduli (GPa) = 35.68839 151.25969 52.56853
#
# Poissons Ratio (x) = 0.48467 -0.08111
# Poissons Ratio (y) = 0.11435 0.08205
# Poissons Ratio (z) = -0.05506 0.23610
#
# Static dielectric constant tensor:
#      x y z
#    x 1.737420 0.000000 0.018490 
#    y 0.000000 1.817420 0.000000 
#    z 0.018490 0.000000 1.725720 
# 
# From -- ./inp_files/27502.got.cif
#   From: 2010.05.17/outbox.cif.g08.bks.cpg/sg12_14_cif.got.tgz:27502.got - 2010.06.03 13:09:07.
