data_PCOD9203119
_publ_section_title
;
Structure prediction by ZEFSAII (Michael W. Deem and Ramdas Pophale) SiO2 
 PCOD9203119
Probable space group: C 2/M
;
_chemical_formula_sum "Si O2"
_cell_formula_units_Z 64
_cell_length_a 19.573747
_cell_length_b 9.183566
_cell_length_c 31.411719
_cell_angle_alpha 90.000000
_cell_angle_beta 35.856044
_cell_angle_gamma 90.000000
_cell_volume 3307.423981
_symmetry_space_group_name_H-M "C 2/M"
_symmetry_group_IT_number 12
_symmetry_cell_setting 'monoclinic'
loop_
_space_group_symop_operation_xyz
x,y,z
-x,y,-z
-x,-y,-z
x,-y,z
1/2+x,1/2+y,z
1/2-x,1/2+y,-z
1/2-x,1/2-y,-z
1/2+x,1/2-y,z
loop_
_atom_site_type_symbol
_atom_site_label
_atom_site_fract_x
_atom_site_fract_y
_atom_site_fract_z
Si Si1 0.014693 0.828990 0.286481
Si Si2 0.333002 0.172777 0.319786
Si Si3 0.004167 0.672217 0.379558
Si Si4 0.775782 0.169822 0.263397
Si Si5 0.886634 0.327624 0.527561
Si Si6 0.428189 0.329541 0.101717
Si Si7 0.699204 0.674122 0.983633
Si Si8 0.234740 0.671206 0.879249
O O1 0.943650 0.743631 0.286689
O O2 0.981691 0.765272 0.349043
O O3 0.151978 0.809631 0.207849
O O4 0.987974 0.000000 0.297731
O O5 0.322830 0.228599 0.276733
O O6 0.219465 0.233647 0.401652
O O7 0.337607 0.000000 0.319450
O O8 0.992098 0.500000 0.375939
O O9 0.138528 0.695868 0.325564
O O10 0.922884 0.706457 0.460872
O O11 0.846017 0.190752 0.184342
O O12 0.789165 0.000000 0.269538
O O13 0.857422 0.500000 0.545007
O O14 0.000000 0.305164 0.500000
O O15 0.422250 0.500000 0.092067
O O16 0.375898 0.234723 0.090062
O O17 0.560511 0.297470 0.048297
O O18 0.716511 0.500000 0.976874
O O19 0.753838 0.742381 0.913388
O O20 0.750000 0.750000 0.000000
O O21 0.220538 0.500000 0.895260
#
# Coordination Sequence:
#
# PCOD9203119 Si02
#       8
#     8   8   8   8   8   8   8   8
#     4  11  25  43  63  89 126 165 206 256 314 371
#     4  12  26  40  60  92 126 163 210 259 312 369
#     4  10  20  38  67  94 120 158 206 255 308 370
#     4  10  20  39  65  92 124 162 205 256 312 371
#     4  10  20  39  64  90 122 164 207 251 312 376
#     4  10  22  41  67  94 124 165 208 252 307 370
#     4  11  25  43  64  95 131 168 209 253 307 367
#     4  11  24  42  66  94 125 165 209 256 309 367
#
# _framework density 19.350408000000002
#
# number of rings (size 3 to 8) (size 9 to 14) (size 15 to 20)
#    0.000    1.375    2.500    2.625    1.750    6.250 
#    0.000    0.000    0.000    0.000    0.000    0.000 
#    0.000    0.000    0.000    0.000    0.000    0.000 
#
# Total GULP energy -178959.289738 kJ/mol
# GULP energy per Si atom -5592.477804 kJ/mol
# Density = 1.930637 g / cm^3
# Si number density = 19.350408 Si / 1000 Ang^3
#
#
#
# Elastic Constant Matrix: (Units=GPa)
#
#
# Indices 1 2 3 4 5 6 
#
# 1 88.8750 68.4254 17.4937 0.0000 7.2385 -0.0004
# 2 68.4254 90.0854 28.4414 0.0000 4.7972 -0.0004
# 3 17.4937 28.4414 41.2641 0.0000 10.1311 0.0000
# 4 0.0000 0.0000 0.0000 26.2553 0.0000 5.4767
# 5 7.2385 4.7972 10.1311 0.0000 27.7092 0.0001
# 6 -0.0004 -0.0004 0.0000 5.4767 0.0001 40.2931
#
#
#
# Elastic Compliance Matrix: (Units=1/GPa)
#
#
# Indices 1 2 3 4 5 6 
#
# 1 0.028166 -0.022689 0.004987 0.000000 -0.005253 0.000000
# 2 -0.022689 0.032503 -0.014125 0.000000 0.005464 0.000000
# 3 0.004987 -0.014125 0.034689 0.000000 -0.011540 0.000000
# 4 0.000000 0.000000 0.000000 0.039199 0.000000 -0.005328
# 5 -0.005253 0.005464 -0.011540 0.000000 0.040735 0.000000
# 6 0.000000 0.000000 0.000000 -0.005328 0.000000 0.025542
#
#
# Mechanical properties :
#
#
# Convention : Reuss Voigt Hill
#
# Bulk Modulus (GPa) = 31.54165 49.88281 40.71223
# Shear Modulus (GPa) = 18.17809 25.90912 22.04360
#
# Velocity S-wave (km/s) = 3.06832 3.66313 3.37884
# Velocity P-wave (km/s) = 5.37479 6.61256 6.02554
#
# Compressibility (1/GPa) = 0.03170412
#
# Stress axis : x y z
#
# Youngs Moduli (GPa) = 35.50358 30.76665 28.82733
#
# Poissons Ratio (x) = 0.69806 -0.14377
# Poissons Ratio (y) = 0.80553 0.40720
# Poissons Ratio (z) = -0.17706 0.43459
#
# Static dielectric constant tensor:
#      x y z
#    x 1.647570 0.000000 -0.005400 
#    y 0.000000 1.644610 0.000000 
#    z -0.005400 0.000000 1.675140 
# 
# From -- ./inp_files/378046.got.cif
#   From: 2010.05.17/outbox.cif.g08.bks.cpg/sg12_190_cif.got.tgz:378046.got - 2010.06.03 13:09:07.
