data_PCOD9203778
_publ_section_title
;
Structure prediction by ZEFSAII (Michael W. Deem and Ramdas Pophale) SiO2 
 PCOD9203778
Probable space group: C 2/M
;
_chemical_formula_sum "Si O2"
_cell_formula_units_Z 48
_cell_length_a 29.156506
_cell_length_b 8.531426
_cell_length_c 8.096502
_cell_angle_alpha 90.000000
_cell_angle_beta 92.061059
_cell_angle_gamma 90.000000
_cell_volume 2012.674222
_symmetry_space_group_name_H-M "C 2/M"
_symmetry_group_IT_number 12
_symmetry_cell_setting 'monoclinic'
loop_
_space_group_symop_operation_xyz
x,y,z
-x,y,-z
-x,-y,-z
x,-y,z
1/2+x,1/2+y,z
1/2-x,1/2+y,-z
1/2-x,1/2-y,-z
1/2+x,1/2-y,z
loop_
_atom_site_type_symbol
_atom_site_label
_atom_site_fract_x
_atom_site_fract_y
_atom_site_fract_z
Si Si1 0.892452 0.677549 0.670500
Si Si2 0.636587 0.312543 0.817952
Si Si3 0.725705 0.688488 0.661929
Si Si4 0.448789 0.794026 0.021386
Si Si5 0.983167 0.000000 0.225383
Si Si6 0.930201 0.000000 0.560566
Si Si7 0.190794 0.819637 0.169435
O O1 0.899066 0.500000 0.605921
O O2 0.905161 0.831822 0.565625
O O3 0.840784 0.706489 0.724250
O O4 0.924067 0.692274 0.841041
O O5 0.623483 0.500000 0.790990
O O6 0.672714 0.264183 0.681749
O O7 0.595619 0.190687 0.857745
O O8 0.667803 0.317727 0.987306
O O9 0.726890 0.500000 0.667811
O O10 0.750000 0.750000 0.500000
O O11 0.757574 0.761594 0.808540
O O12 0.466474 0.640962 0.115257
O O13 0.500000 0.862509 0.000000
O O14 0.960200 0.000000 0.400856
O O15 0.036962 0.000000 0.273379
O O16 0.187293 0.000000 0.230055
#
# Coordination Sequence:
#
# PCOD9203778 Si02
#       7
#     8   8   8   8   4   4   8
#     4  11  23  41  68 101 134 176 232 284 342 407
#     4   9  20  35  61  95 123 163 214 271 332 391
#     4  11  23  40  59  90 131 172 217 268 332 400
#     4  11  20  38  68  97 132 172 228 289 336 401
#     4  11  22  37  66  97 136 183 232 279 342 414
#     4  11  23  42  61 100 137 188 227 276 344 413
#     4  10  20  39  67  94 120 165 220 274 336 396
#
# _framework density 23.848865
#
# number of rings (size 3 to 8) (size 9 to 14) (size 15 to 20)
#    0.000    1.500    3.333    2.250    0.000    1.667 
#    0.000   10.000    0.000    0.000    0.000    0.000 
#    0.000    0.000    0.000    0.000    0.000    0.000 
#
# Total GULP energy -133638.717959 kJ/mol
# GULP energy per Si atom -5568.279915 kJ/mol
# Density = 2.379458 g / cm^3
# Si number density = 23.848865 Si / 1000 Ang^3
#
#
#
# Elastic Constant Matrix: (Units=GPa)
#
#
# Indices 1 2 3 4 5 6 
#
# 1 178.1920 44.8730 26.9449 0.0000 -14.8039 0.0000
# 2 44.8730 161.4497 31.4546 0.0000 -14.7461 0.0000
# 3 26.9449 31.4546 60.8817 0.0000 -14.0189 0.0000
# 4 0.0000 0.0000 0.0000 14.1326 0.0000 -18.4247
# 5 -14.8039 -14.7461 -14.0189 0.0000 54.1628 0.0000
# 6 0.0000 0.0000 0.0000 -18.4247 0.0000 -25.8532
#
#
#
# Elastic Compliance Matrix: (Units=1/GPa)
#
#
# Indices 1 2 3 4 5 6 
#
# 1 0.006301 -0.001298 -0.001917 0.000000 0.000873 0.000000
# 2 -0.001298 0.007207 -0.002955 0.000000 0.000843 0.000000
# 3 -0.001917 -0.002955 0.019667 0.000000 0.003762 0.000000
# 4 0.000000 0.000000 0.000000 0.036679 0.000000 -0.026140
# 5 0.000873 0.000843 0.003762 0.000000 0.019904 0.000000
# 6 0.000000 0.000000 0.000000 -0.026140 0.000000 -0.020051
#
#
# Mechanical properties :
#
#
# Convention : Reuss Voigt Hill
#
# Bulk Modulus (GPa) = 47.99742 67.45206 57.72474
# Shear Modulus (GPa) = 56.18344 28.30517 42.24430
#
# Velocity S-wave (km/s) = 4.85894 3.44881 4.21329
# Velocity P-wave (km/s) = 7.18668 6.64858 6.92286
#
# Compressibility (1/GPa) = 0.02083445
#
# Stress axis : x y z
#
# Youngs Moduli (GPa) = 158.69936 138.74668 50.84717
#
# Poissons Ratio (x) = 0.18011 0.09748
# Poissons Ratio (y) = 0.20601 0.15026
# Poissons Ratio (z) = 0.30425 0.41002
#
# Static dielectric constant tensor:
#      x y z
#    x 1.962180 0.000000 -0.024270 
#    y 0.000000 1.909220 0.000000 
#    z -0.024270 0.000000 1.966980 
# 
# From -- ./inp_files/108800.got.cif
#   From: 2010.05.17/outbox.cif.g08.bks.cpg/sg12_55_cif.got.tgz:108800.got - 2010.06.03 13:09:07.
