data_PCOD9203154
_publ_section_title
;
Structure prediction by ZEFSAII (Michael W. Deem and Ramdas Pophale) SiO2 
 PCOD9203154
Probable space group: C 2/M
;
_chemical_formula_sum "Si O2"
_cell_formula_units_Z 48
_cell_length_a 28.742535
_cell_length_b 11.104163
_cell_length_c 16.809866
_cell_angle_alpha 90.000000
_cell_angle_beta 24.262670
_cell_angle_gamma 90.000000
_cell_volume 2204.615811
_symmetry_space_group_name_H-M "C 2/M"
_symmetry_group_IT_number 12
_symmetry_cell_setting 'monoclinic'
loop_
_space_group_symop_operation_xyz
x,y,z
-x,y,-z
-x,-y,-z
x,-y,z
1/2+x,1/2+y,z
1/2-x,1/2+y,-z
1/2-x,1/2-y,-z
1/2+x,1/2-y,z
loop_
_atom_site_type_symbol
_atom_site_label
_atom_site_fract_x
_atom_site_fract_y
_atom_site_fract_z
Si Si1 0.071844 0.500000 0.305611
Si Si2 0.906635 0.265473 0.258118
Si Si3 0.648992 0.859785 0.928184
Si Si4 0.827208 0.000000 0.963497
Si Si5 0.555124 0.500000 0.826174
Si Si6 0.363086 0.236683 0.877009
Si Si7 0.182748 0.000000 0.842271
Si Si8 0.243871 0.239267 0.649257
O O1 0.055865 0.630351 0.285414
O O2 0.000000 0.500000 0.500000
O O3 0.209027 0.500000 0.099157
O O4 0.883300 0.122971 0.283970
O O5 0.843382 0.305274 0.276561
O O6 0.848710 0.297569 0.431151
O O7 0.037491 0.297996 0.062156
O O8 0.753547 0.830620 0.707262
O O9 0.626590 0.000000 0.968763
O O10 0.666284 0.806704 0.988309
O O11 0.896751 0.877625 0.836573
O O12 0.772550 0.000000 0.138314
O O13 0.500000 0.500000 0.000000
O O14 0.450107 0.500000 0.931218
O O15 0.250000 0.250000 0.000000
O O16 0.207344 0.883320 0.751015
#
# Coordination Sequence:
#
# PCOD9203154 Si02
#       8
#     4   8   8   4   4   8   4   8
#     4  10  22  40  65  97 133 162 204 264 329 388
#     4  11  24  39  60  92 127 171 218 266 312 381
#     4  12  24  42  64  93 130 168 208 268 327 385
#     4  10  20  38  69  91 117 168 221 254 310 394
#     4  12  18  38  63  78 112 170 215 260 305 368
#     4  10  21  42  67  94 125 168 209 260 325 397
#     4  12  20  38  64  86 117 168 221 260 315 369
#     4  11  24  39  60  92 130 169 217 264 319 374
#
# _framework density 21.772501999999999
#
# number of rings (size 3 to 8) (size 9 to 14) (size 15 to 20)
#    0.000    1.000    5.833    0.500    2.333    2.667 
#    0.000    0.417    0.000    0.000    0.000    0.000 
#    0.000    0.000    0.000    0.000    0.000    0.000 
#
# Total GULP energy -133664.576065 kJ/mol
# GULP energy per Si atom -5569.357336 kJ/mol
# Density = 2.172295 g / cm^3
# Si number density = 21.772502 Si / 1000 Ang^3
#
#
#
# Elastic Constant Matrix: (Units=GPa)
#
#
# Indices 1 2 3 4 5 6 
#
# 1 57.6220 21.6189 18.2308 0.0000 27.8100 0.0000
# 2 21.6189 163.2565 29.8391 0.0000 26.1012 0.0000
# 3 18.2308 29.8391 73.2496 0.0000 29.4905 0.0000
# 4 0.0000 0.0000 0.0000 20.8717 0.0000 7.6130
# 5 27.8100 26.1012 29.4905 0.0000 30.8691 0.0000
# 6 0.0000 0.0000 0.0000 7.6130 0.0000 20.8071
#
#
#
# Elastic Compliance Matrix: (Units=1/GPa)
#
#
# Indices 1 2 3 4 5 6 
#
# 1 0.032238 0.000227 0.005938 0.000000 -0.034908 0.000000
# 2 0.000227 0.007111 -0.000732 0.000000 -0.005518 0.000000
# 3 0.005938 -0.000732 0.023363 0.000000 -0.027050 0.000000
# 4 0.000000 0.000000 0.000000 0.055291 0.000000 -0.020230
# 5 -0.034908 -0.005518 -0.027050 0.000000 0.094352 0.000000
# 6 0.000000 0.000000 0.000000 -0.020230 0.000000 0.055462
#
#
# Mechanical properties :
#
#
# Convention : Reuss Voigt Hill
#
# Bulk Modulus (GPa) = 13.59095 48.16730 30.87913
# Shear Modulus (GPa) = 17.76343 29.47219 23.61781
#
# Velocity S-wave (km/s) = 2.85943 3.68318 3.29713
# Velocity P-wave (km/s) = 4.14218 6.34498 5.35800
#
# Compressibility (1/GPa) = 0.07357836
#
# Stress axis : x y z
#
# Youngs Moduli (GPa) = 31.01889 140.62176 42.80355
#
# Poissons Ratio (x) = -0.03187 -0.25417
# Poissons Ratio (y) = -0.00703 0.03132
# Poissons Ratio (z) = -0.18419 0.10289
#
# Static dielectric constant tensor:
#      x y z
#    x 1.946890 0.000000 -0.014790 
#    y 0.000000 1.905910 0.000000 
#    z -0.014790 0.000000 1.783830 
# 
# From -- ./inp_files/245903.got.cif
#   From: 2010.05.17/outbox.cif.g08.bks.cpg/sg12_123_cif.got.tgz:245903.got - 2010.06.03 13:09:07.
