data_PCOD9203183
_publ_section_title
;
Structure prediction by ZEFSAII (Michael W. Deem and Ramdas Pophale) SiO2 
 PCOD9203183
Probable space group: C 2/M
;
_chemical_formula_sum "Si O2"
_cell_formula_units_Z 64
_cell_length_a 13.549412
_cell_length_b 27.938333
_cell_length_c 9.164444
_cell_angle_alpha 90.000000
_cell_angle_beta 103.103392
_cell_angle_gamma 90.000000
_cell_volume 3378.853148
_symmetry_space_group_name_H-M "C 2/M"
_symmetry_group_IT_number 12
_symmetry_cell_setting 'monoclinic'
loop_
_space_group_symop_operation_xyz
x,y,z
-x,y,-z
-x,-y,-z
x,-y,z
1/2+x,1/2+y,z
1/2-x,1/2+y,-z
1/2-x,1/2-y,-z
1/2+x,1/2-y,z
loop_
_atom_site_type_symbol
_atom_site_label
_atom_site_fract_x
_atom_site_fract_y
_atom_site_fract_z
Si Si1 0.113097 0.862078 0.481541
Si Si2 0.393366 0.117714 0.393645
Si Si3 0.689470 0.643411 0.826735
Si Si4 0.736859 0.205546 0.599285
Si Si5 0.615404 0.445518 0.985106
Si Si6 0.406134 0.154074 0.064763
Si Si7 0.699818 0.555574 0.334104
Si Si8 0.846300 0.751695 0.134835
O O1 0.184544 0.860264 0.649589
O O2 0.158733 0.824276 0.380235
O O3 0.123172 0.912846 0.404587
O O4 0.000000 0.852297 0.500000
O O5 0.500000 0.106035 0.500000
O O6 0.349317 0.165721 0.455747
O O7 0.398588 0.128782 0.221088
O O8 0.311015 0.076946 0.396050
O O9 0.627388 0.692444 0.841962
O O10 0.640366 0.596089 0.879818
O O11 0.801335 0.648286 0.937488
O O12 0.750000 0.250000 0.500000
O O13 0.700595 0.230269 0.734006
O O14 0.633710 0.500000 0.936700
O O15 0.678300 0.438099 0.154827
O O16 0.500000 0.442795 0.000000
O O17 0.422181 0.210871 0.104574
O O18 0.500000 0.136338 0.000000
O O19 0.691161 0.500000 0.366135
O O20 0.750000 0.750000 0.000000
#
# Coordination Sequence:
#
# PCOD9203183 Si02
#       8
#     8   8   8   8   8   8   8   8
#     4  11  24  38  58  91 122 158 199 243 299 357
#     4  10  22  38  64  90 118 159 204 245 298 358
#     4  11  21  40  58  86 125 154 196 252 296 353
#     4  10  20  39  56  84 124 162 198 239 289 355
#     4  10  21  39  65  89 113 154 201 251 314 368
#     4  10  22  38  59  87 120 158 199 242 294 353
#     4  10  22  42  64  87 119 156 198 255 309 364
#     4   9  20  37  56  84 118 158 198 244 288 345
#
# _framework density 18.941337999999998
#
# number of rings (size 3 to 8) (size 9 to 14) (size 15 to 20)
#    0.000    1.875    2.500    0.750    5.250    2.000 
#    4.500    0.000    0.000    0.750    0.000    0.000 
#    0.000    0.000    0.000    0.000    0.000    0.000 
#
# Total GULP energy -178335.800363 kJ/mol
# GULP energy per Si atom -5572.993761 kJ/mol
# Density = 1.889823 g / cm^3
# Si number density = 18.941338 Si / 1000 Ang^3
#
#
#
# Elastic Constant Matrix: (Units=GPa)
#
#
# Indices 1 2 3 4 5 6 
#
# 1 82.9739 10.3840 6.9022 0.0000 -0.1976 0.0000
# 2 10.3840 106.8091 11.3789 0.0000 -8.5490 0.0000
# 3 6.9022 11.3789 51.5598 0.0000 3.1029 0.0000
# 4 0.0000 0.0000 0.0000 27.5930 0.0000 -10.0049
# 5 -0.1976 -8.5490 3.1029 0.0000 28.8701 0.0000
# 6 0.0000 0.0000 0.0000 -10.0049 0.0000 14.0186
#
#
#
# Elastic Compliance Matrix: (Units=1/GPa)
#
#
# Indices 1 2 3 4 5 6 
#
# 1 0.012301 -0.001052 -0.001410 0.000000 -0.000076 0.000000
# 2 -0.001052 0.009959 -0.002249 0.000000 0.003184 0.000000
# 3 -0.001410 -0.002249 0.020252 0.000000 -0.002852 0.000000
# 4 0.000000 0.000000 0.000000 0.048894 0.000000 0.034895
# 5 -0.000076 0.003184 -0.002852 0.000000 0.035887 0.000000
# 6 0.000000 0.000000 0.000000 0.034895 0.000000 0.096238
#
#
# Mechanical properties :
#
#
# Convention : Reuss Voigt Hill
#
# Bulk Modulus (GPa) = 30.22005 33.18586 31.70295
# Shear Modulus (GPa) = 20.49344 28.27487 24.38415
#
# Velocity S-wave (km/s) = 3.29286 3.86782 3.59186
# Velocity P-wave (km/s) = 5.51783 6.12414 5.82887
#
# Compressibility (1/GPa) = 0.03309062
#
# Stress axis : x y z
#
# Youngs Moduli (GPa) = 81.29610 100.41037 49.37874
#
# Poissons Ratio (x) = 0.10560 0.06962
# Poissons Ratio (y) = 0.08550 0.11104
# Poissons Ratio (z) = 0.11463 0.22579
#
# Static dielectric constant tensor:
#      x y z
#    x 1.690740 0.000000 -0.007150 
#    y 0.000000 1.682130 0.000000 
#    z -0.007150 0.000000 1.663740 
# 
# From -- ./inp_files/67044.got.cif
#   From: 2010.05.17/outbox.cif.g08.bks.cpg/sg12_34_cif.got.tgz:67044.got - 2010.06.03 13:09:07.
