data_PCOD9203721
_publ_section_title
;
Structure prediction by ZEFSAII (Michael W. Deem and Ramdas Pophale) SiO2 
 PCOD9203721
Probable space group: C 2/M
;
_chemical_formula_sum "Si O2"
_cell_formula_units_Z 42
_cell_length_a 20.048905
_cell_length_b 7.631791
_cell_length_c 12.925821
_cell_angle_alpha 90.000000
_cell_angle_beta 124.007102
_cell_angle_gamma 90.000000
_cell_volume 1639.506573
_symmetry_space_group_name_H-M "C 2/M"
_symmetry_group_IT_number 12
_symmetry_cell_setting 'monoclinic'
loop_
_space_group_symop_operation_xyz
x,y,z
-x,y,-z
-x,-y,-z
x,-y,z
1/2+x,1/2+y,z
1/2-x,1/2+y,-z
1/2-x,1/2-y,-z
1/2+x,1/2-y,z
loop_
_atom_site_type_symbol
_atom_site_label
_atom_site_fract_x
_atom_site_fract_y
_atom_site_fract_z
Si Si1 0.318961 0.286892 0.363264
Si Si2 0.000000 0.000000 0.000000
Si Si3 0.350887 0.298272 0.742769
Si Si4 0.952954 0.787457 0.633695
Si Si5 0.361433 0.711305 0.177686
Si Si6 0.404752 0.187322 0.005953
O O1 0.314388 0.500000 0.363384
O O2 0.243858 0.208648 0.359710
O O3 0.402817 0.234352 0.489128
O O4 0.315734 0.230074 0.240865
O O5 0.033350 0.845582 0.948744
O O6 0.377573 0.500000 0.793992
O O7 0.400440 0.235595 0.687807
O O8 0.362631 0.193210 0.858194
O O9 0.045178 0.734551 0.721888
O O10 0.953514 0.000000 0.633225
O O11 0.356686 0.500000 0.169519
O O12 0.344222 0.784260 0.048898
O O13 0.445041 0.000000 0.054803
#
# Coordination Sequence:
#
# PCOD9203721 Si02
#       6
#     8   2   8   8   8   8
#     4  10  21  38  62  95 128 173 226 268 330 403
#     4  12  22  44  64  98 138 164 216 266 324 390
#     4  11  22  39  63  91 134 178 216 276 331 393
#     4   9  19  36  63  92 124 171 224 273 331 390
#     4  10  20  39  66  92 132 173 217 280 331 389
#     4  12  25  41  67  99 134 175 217 272 330 390
#
# _framework density 25.617463000000001
#
# number of rings (size 3 to 8) (size 9 to 14) (size 15 to 20)
#    0.000    1.524    1.905    3.143    2.667    3.810 
#    0.000    2.857    0.000    2.286    0.000    0.000 
#    0.000    0.000    0.000    0.000    0.000    0.000 
#
# Total GULP energy -117420.630890 kJ/mol
# GULP energy per Si atom -5591.458614 kJ/mol
# Density = 2.555916 g / cm^3
# Si number density = 25.617463 Si / 1000 Ang^3
#
#
#
# Elastic Constant Matrix: (Units=GPa)
#
#
# Indices 1 2 3 4 5 6 
#
# 1 94.7800 9.0285 -1.7008 0.0000 -22.6744 0.0000
# 2 9.0285 126.8289 9.3175 0.0000 -7.2154 0.0000
# 3 -1.7008 9.3175 97.7505 0.0000 -21.3610 0.0000
# 4 0.0000 0.0000 0.0000 2.0134 0.0000 7.8311
# 5 -22.6744 -7.2154 -21.3610 0.0000 45.8920 0.0000
# 6 0.0000 0.0000 0.0000 7.8311 0.0000 1.9791
#
#
#
# Elastic Compliance Matrix: (Units=1/GPa)
#
#
# Indices 1 2 3 4 5 6 
#
# 1 0.012262 -0.000616 0.001753 0.000000 0.006778 0.000000
# 2 -0.000616 0.008012 -0.000630 0.000000 0.000662 0.000000
# 3 0.001753 -0.000630 0.011676 0.000000 0.006202 0.000000
# 4 0.000000 0.000000 0.000000 -0.034514 0.000000 0.136570
# 5 0.006778 0.000662 0.006202 0.000000 0.028130 0.000000
# 6 0.000000 0.000000 0.000000 0.136570 0.000000 -0.035113
#
#
# Mechanical properties :
#
#
# Convention : Reuss Voigt Hill
#
# Bulk Modulus (GPa) = 30.33483 39.18332 34.75907
# Shear Modulus (GPa) = 11690.12565 30.15784 5860.14175
#
# Velocity S-wave (km/s) = 67.62580 3.43481 47.88030
# Velocity P-wave (km/s) = 78.16350 5.57309 55.41025
#
# Compressibility (1/GPa) = 0.03296541
#
# Stress axis : x y z
#
# Youngs Moduli (GPa) = 81.55033 124.80599 85.64622
#
# Poissons Ratio (x) = 0.07690 -0.15016
# Poissons Ratio (y) = 0.05025 0.05394
# Poissons Ratio (z) = -0.14297 0.07860
#
# Static dielectric constant tensor:
#      x y z
#    x 1.928470 0.000000 -0.072050 
#    y 0.000000 1.969930 0.000000 
#    z -0.072050 0.000000 1.905460 
# 
# From -- ./inp_files/163320.got.cif
#   From: 2010.05.17/outbox.cif.g08.bks.cpg/sg12_82_cif.got.tgz:163320.got - 2010.06.03 13:09:07.
