data_PCOD9203438
_publ_section_title
;
Structure prediction by ZEFSAII (Michael W. Deem and Ramdas Pophale) SiO2 
 PCOD9203438
Probable space group: C 2/M
;
_chemical_formula_sum "Si O2"
_cell_formula_units_Z 48
_cell_length_a 28.609806
_cell_length_b 8.834002
_cell_length_c 17.652345
_cell_angle_alpha 90.000000
_cell_angle_beta 144.092316
_cell_angle_gamma 90.000000
_cell_volume 2616.548266
_symmetry_space_group_name_H-M "C 2/M"
_symmetry_group_IT_number 12
_symmetry_cell_setting 'monoclinic'
loop_
_space_group_symop_operation_xyz
x,y,z
-x,y,-z
-x,-y,-z
x,-y,z
1/2+x,1/2+y,z
1/2-x,1/2+y,-z
1/2-x,1/2-y,-z
1/2+x,1/2-y,z
loop_
_atom_site_type_symbol
_atom_site_label
_atom_site_fract_x
_atom_site_fract_y
_atom_site_fract_z
Si Si1 0.091155 0.318026 0.638051
Si Si2 0.118329 0.321106 0.982432
Si Si3 0.475052 0.676070 0.879585
Si Si4 0.710819 0.682041 0.373771
Si Si5 0.240002 0.682723 0.729476
Si Si6 0.161834 0.819692 0.882763
O O1 0.095169 0.500000 0.654537
O O2 0.154686 0.280841 0.655127
O O3 0.119106 0.237028 0.750987
O O4 0.000000 0.278506 0.500000
O O5 0.128906 0.500000 0.988031
O O6 0.190127 0.255166 0.128111
O O7 0.120254 0.241942 0.903523
O O8 0.035273 0.280121 0.912877
O O9 0.484012 0.500000 0.866846
O O10 0.382940 0.720299 0.751526
O O11 0.500000 0.682175 0.000000
O O12 0.717020 0.500000 0.385174
O O13 0.750000 0.750000 0.500000
O O14 0.750053 0.730107 0.345121
O O15 0.250272 0.500000 0.745895
O O16 0.166483 0.000000 0.890345
O O17 0.250000 0.750000 0.000000
#
# Coordination Sequence:
#
# PCOD9203438 Si02
#       6
#     8   8   8   8   8   8
#     4  10  22  40  64  94 128 166 207 254 311 373
#     4  12  24  37  61  95 125 158 207 263 312 362
#     4  10  20  39  63  87 120 161 205 248 303 369
#     4  10  22  39  61  89 122 166 206 250 308 367
#     4  10  20  39  63  85 120 168 207 248 308 373
#     4  12  24  40  63  92 125 163 208 257 309 366
#
# _framework density 18.34478
#
# number of rings (size 3 to 8) (size 9 to 14) (size 15 to 20)
#    0.000    1.333    3.333    3.000    0.000    3.333 
#    0.000    1.667    0.000    0.000    0.000    0.000 
#    0.000    0.000    0.000    0.000    0.000    0.000 
#
# Total GULP energy -134122.336187 kJ/mol
# GULP energy per Si atom -5588.430674 kJ/mol
# Density = 1.830303 g / cm^3
# Si number density = 18.344780 Si / 1000 Ang^3
#
#
#
# Elastic Constant Matrix: (Units=GPa)
#
#
# Indices 1 2 3 4 5 6 
#
# 1 159.7731 63.7724 93.6245 0.0000 -4.4420 0.0000
# 2 63.7724 63.8802 66.3292 0.0000 -0.2725 0.0000
# 3 93.6245 66.3292 162.4487 0.0000 0.7756 0.0000
# 4 0.0000 0.0000 0.0000 28.5778 0.0000 -9.1593
# 5 -4.4420 -0.2725 0.7756 0.0000 28.3848 0.0000
# 6 0.0000 0.0000 0.0000 -9.1593 0.0000 23.1816
#
#
#
# Elastic Compliance Matrix: (Units=1/GPa)
#
#
# Indices 1 2 3 4 5 6 
#
# 1 0.011445 -0.007916 -0.003373 0.000000 0.001807 0.000000
# 2 -0.007916 0.032660 -0.008770 0.000000 -0.000686 0.000000
# 3 -0.003373 -0.008770 0.011685 0.000000 -0.000931 0.000000
# 4 0.000000 0.000000 0.000000 0.040066 0.000000 0.015831
# 5 0.001807 -0.000686 -0.000931 0.000000 0.035532 0.000000
# 6 0.000000 0.000000 0.000000 0.015831 0.000000 0.049392
#
#
# Mechanical properties :
#
#
# Convention : Reuss Voigt Hill
#
# Bulk Modulus (GPa) = 63.80426 92.61712 78.21069
# Shear Modulus (GPa) = 22.11197 26.85391 24.48294
#
# Velocity S-wave (km/s) = 3.47559 3.83017 3.65718
# Velocity P-wave (km/s) = 7.13880 8.37597 7.78201
#
# Compressibility (1/GPa) = 0.01567293
#
# Stress axis : x y z
#
# Youngs Moduli (GPa) = 87.37372 30.61818 85.58169
#
# Poissons Ratio (x) = 0.24238 0.28863
# Poissons Ratio (y) = 0.69167 0.75054
# Poissons Ratio (z) = 0.29467 0.26852
#
# Static dielectric constant tensor:
#      x y z
#    x 1.623400 0.000000 0.004820 
#    y 0.000000 1.619390 0.000000 
#    z 0.004820 0.000000 1.587580 
# 
# From -- ./inp_files/244845.got.cif
#   From: 2010.05.17/outbox.cif.g08.bks.cpg/sg12_123_cif.got.tgz:244845.got - 2010.06.03 13:09:07.
