data_PCOD9203199
_publ_section_title
;
Structure prediction by ZEFSAII (Michael W. Deem and Ramdas Pophale) SiO2 
 PCOD9203199
Probable space group: C 2/M
;
_chemical_formula_sum "Si O2"
_cell_formula_units_Z 32
_cell_length_a 13.965063
_cell_length_b 14.644889
_cell_length_c 8.919049
_cell_angle_alpha 90.000000
_cell_angle_beta 117.048885
_cell_angle_gamma 90.000000
_cell_volume 1624.573699
_symmetry_space_group_name_H-M "C 2/M"
_symmetry_group_IT_number 12
_symmetry_cell_setting 'monoclinic'
loop_
_space_group_symop_operation_xyz
x,y,z
-x,y,-z
-x,-y,-z
x,-y,z
1/2+x,1/2+y,z
1/2-x,1/2+y,-z
1/2-x,1/2-y,-z
1/2+x,1/2-y,z
loop_
_atom_site_type_symbol
_atom_site_label
_atom_site_fract_x
_atom_site_fract_y
_atom_site_fract_z
Si Si1 0.135016 0.000000 0.229057
Si Si2 0.252444 0.144220 0.832287
Si Si3 0.275872 0.146772 0.196873
Si Si4 0.861635 0.500000 0.459044
Si Si5 0.092173 0.500000 0.189600
Si Si6 0.935496 0.000000 0.299438
O O1 0.166643 0.910939 0.154220
O O2 0.234261 0.000000 0.420786
O O3 0.978794 0.000000 0.774587
O O4 0.235417 0.247901 0.769542
O O5 0.335210 0.088883 0.789856
O O6 0.141883 0.087824 0.759317
O O7 0.296964 0.143172 0.034723
O O8 0.362108 0.089710 0.355054
O O9 0.936056 0.500000 0.655380
O O10 0.000000 0.500000 0.000000
O O11 0.000000 0.000000 0.500000
#
# Coordination Sequence:
#
# PCOD9203199 Si02
#       6
#     4   8   8   4   4   4
#     4   8  17  36  62  88 109 151 201 226 305 345
#     4  10  20  39  58  83 123 143 195 246 294 338
#     4   8  19  39  62  82 112 156 187 243 300 337
#     4   8  18  38  60  80 112 147 198 237 287 341
#     4  11  22  37  54  82 117 160 192 236 282 350
#     4  11  21  35  56  91 120 150 187 246 292 341
#
# _framework density 19.697476000000002
#
# number of rings (size 3 to 8) (size 9 to 14) (size 15 to 20)
#    1.500    1.000    0.000    4.500    0.000    3.000 
#    9.000    2.500    0.000    0.000    0.000    0.000 
#    0.000    0.000    0.000    0.000    0.000    0.000 
#
# Total GULP energy -89115.826147 kJ/mol
# GULP energy per Si atom -5569.739134 kJ/mol
# Density = 1.965264 g / cm^3
# Si number density = 19.697476 Si / 1000 Ang^3
#
#
#
# Elastic Constant Matrix: (Units=GPa)
#
#
# Indices 1 2 3 4 5 6 
#
# 1 80.3873 46.0404 5.9481 0.0000 0.3337 0.0000
# 2 46.0404 199.8129 49.5330 0.0000 -10.6156 0.0000
# 3 5.9481 49.5330 115.7610 0.0000 0.2619 0.0000
# 4 0.0000 0.0000 0.0000 24.6441 0.0000 -6.0748
# 5 0.3337 -10.6156 0.2619 0.0000 19.7682 0.0000
# 6 0.0000 0.0000 0.0000 -6.0748 0.0000 3.7988
#
#
#
# Elastic Compliance Matrix: (Units=1/GPa)
#
#
# Indices 1 2 3 4 5 6 
#
# 1 0.014484 -0.003660 0.000827 0.000000 -0.002221 0.000000
# 2 -0.003660 0.006712 -0.002692 0.000000 0.003702 0.000000
# 3 0.000827 -0.002692 0.009752 0.000000 -0.001589 0.000000
# 4 0.000000 0.000000 0.000000 0.066980 0.000000 0.107110
# 5 -0.002221 0.003702 -0.001589 0.000000 0.052633 0.000000
# 6 0.000000 0.000000 0.000000 0.107110 0.000000 0.434523
#
#
# Mechanical properties :
#
#
# Convention : Reuss Voigt Hill
#
# Bulk Modulus (GPa) = 50.25994 66.55602 58.40798
# Shear Modulus (GPa) = 8.29507 29.27153 18.78330
#
# Velocity S-wave (km/s) = 2.05436 3.85912 3.09137
# Velocity P-wave (km/s) = 5.58556 7.32936 6.51606
#
# Compressibility (1/GPa) = 0.01989656
#
# Stress axis : x y z
#
# Youngs Moduli (GPa) = 69.04041 148.98167 102.54687
#
# Poissons Ratio (x) = 0.54534 -0.08481
# Poissons Ratio (y) = 0.25272 0.27610
# Poissons Ratio (z) = -0.05710 0.40112
#
# Static dielectric constant tensor:
#      x y z
#    x 1.704760 0.000000 0.012330 
#    y 0.000000 1.655300 0.000000 
#    z 0.012330 0.000000 1.735480 
# 
# From -- ./inp_files/72062.got.cif
#   From: 2010.05.17/outbox.cif.g08.bks.cpg/sg12_37_cif.got.tgz:72062.got - 2010.06.03 13:09:07.
