data_PCOD9203914
_publ_section_title
;
Structure prediction by ZEFSAII (Michael W. Deem and Ramdas Pophale) SiO2 
 PCOD9203914
Probable space group: C 2/M
;
_chemical_formula_sum "Si O2"
_cell_formula_units_Z 56
_cell_length_a 19.490706
_cell_length_b 8.980712
_cell_length_c 19.273068
_cell_angle_alpha 90.000000
_cell_angle_beta 55.300466
_cell_angle_gamma 90.000000
_cell_volume 2773.572692
_symmetry_space_group_name_H-M "C 2/M"
_symmetry_group_IT_number 12
_symmetry_cell_setting 'monoclinic'
loop_
_space_group_symop_operation_xyz
x,y,z
-x,y,-z
-x,-y,-z
x,-y,z
1/2+x,1/2+y,z
1/2-x,1/2+y,-z
1/2-x,1/2-y,-z
1/2+x,1/2-y,z
loop_
_atom_site_type_symbol
_atom_site_label
_atom_site_fract_x
_atom_site_fract_y
_atom_site_fract_z
Si Si1 0.890004 0.822331 0.247832
Si Si2 0.591089 0.178236 0.913121
Si Si3 0.604777 0.324019 0.299592
Si Si4 0.324750 0.823460 0.998220
Si Si5 0.047547 0.669161 0.546713
Si Si6 0.944262 0.324285 0.805308
Si Si7 0.200296 0.320701 0.373023
O O1 0.897094 0.765923 0.164554
O O2 0.963446 0.742996 0.247541
O O3 0.797004 0.784783 0.327263
O O4 0.901045 0.000000 0.244569
O O5 0.599948 0.000000 0.894975
O O6 0.500000 0.199201 0.000000
O O7 0.656888 0.226992 0.934262
O O8 0.614894 0.500000 0.292170
O O9 0.510466 0.276967 0.375697
O O10 0.613782 0.253905 0.218414
O O11 0.664908 0.254320 0.323369
O O12 0.406248 0.799297 0.903559
O O13 0.310563 0.000000 0.009546
O O14 0.250000 0.750000 0.000000
O O15 0.048859 0.500000 0.574620
O O16 0.139931 0.720492 0.472009
O O17 0.000000 0.660587 0.500000
O O18 0.945742 0.500000 0.791364
O O19 0.191908 0.500000 0.369718
#
# Coordination Sequence:
#
# PCOD9203914 Si02
#       7
#     8   8   8   8   8   8   8
#     4  11  23  38  59  88 116 146 190 240 282 331
#     4  10  20  40  61  80 110 152 193 227 277 340
#     4  11  22  35  57  89 118 146 188 240 282 329
#     4  10  23  40  60  83 112 147 188 236 281 333
#     4   8  15  33  58  81 111 152 188 224 279 340
#     4  11  23  42  60  79 114 157 191 228 286 345
#     4   9  20  38  59  85 117 151 188 230 280 340
#
# _framework density 20.190564999999999
#
# number of rings (size 3 to 8) (size 9 to 14) (size 15 to 20)
#    0.000    2.000    1.429    3.000    2.000    5.714 
#    0.000    0.714    0.000    0.000    0.000    0.000 
#    0.000    0.000    0.000    0.000    0.000    0.000 
#
# Total GULP energy -156383.066025 kJ/mol
# GULP energy per Si atom -5585.109501 kJ/mol
# Density = 2.014461 g / cm^3
# Si number density = 20.190565 Si / 1000 Ang^3
#
#
#
# Elastic Constant Matrix: (Units=GPa)
#
#
# Indices 1 2 3 4 5 6 
#
# 1 78.1389 16.3204 -5.4237 0.0000 -10.0985 0.0000
# 2 16.3204 43.4993 3.5576 0.0000 -6.8746 0.0000
# 3 -5.4237 3.5576 16.3920 0.0000 -5.1300 0.0000
# 4 0.0000 0.0000 0.0000 21.2697 0.0000 3.7013
# 5 -10.0985 -6.8746 -5.1300 0.0000 35.3799 0.0000
# 6 0.0000 0.0000 0.0000 3.7013 0.0000 28.5501
#
#
#
# Elastic Compliance Matrix: (Units=1/GPa)
#
#
# Indices 1 2 3 4 5 6 
#
# 1 0.015042 -0.005580 0.007534 0.000000 0.004302 0.000000
# 2 -0.005580 0.026025 -0.006715 0.000000 0.002491 0.000000
# 3 0.007534 -0.006715 0.068321 0.000000 0.010752 0.000000
# 4 0.000000 0.000000 0.000000 0.048100 0.000000 -0.006236
# 5 0.004302 0.002491 0.010752 0.000000 0.031535 0.000000
# 6 0.000000 0.000000 0.000000 -0.006236 0.000000 0.035835
#
#
# Mechanical properties :
#
#
# Convention : Reuss Voigt Hill
#
# Bulk Modulus (GPa) = 10.01340 18.54875 14.28107
# Shear Modulus (GPa) = 18.67983 25.27834 21.97908
#
# Velocity S-wave (km/s) = 3.04497 3.54218 3.30295
# Velocity P-wave (km/s) = 4.16325 5.09276 4.65128
#
# Compressibility (1/GPa) = 0.09986618
#
# Stress axis : x y z
#
# Youngs Moduli (GPa) = 66.48010 38.42432 14.63689
#
# Poissons Ratio (x) = 0.21441 -0.11028
# Poissons Ratio (y) = 0.37096 0.09829
# Poissons Ratio (z) = -0.50088 0.25803
#
# Static dielectric constant tensor:
#      x y z
#    x 1.724490 0.000000 -0.025680 
#    y 0.000000 1.671950 0.000000 
#    z -0.025680 0.000000 1.752980 
# 
# From -- ./inp_files/313664.got.cif
#   From: 2010.05.17/outbox.cif.g08.bks.cpg/sg12_157_cif.got.tgz:313664.got - 2010.06.03 13:09:07.
