data_PCOD9203206
_publ_section_title
;
Structure prediction by ZEFSAII (Michael W. Deem and Ramdas Pophale) SiO2 
 PCOD9203206
Probable space group: C 2/M
;
_chemical_formula_sum "Si O2"
_cell_formula_units_Z 60
_cell_length_a 20.693420
_cell_length_b 18.371847
_cell_length_c 9.877375
_cell_angle_alpha 90.000000
_cell_angle_beta 131.574269
_cell_angle_gamma 90.000000
_cell_volume 2809.209127
_symmetry_space_group_name_H-M "C 2/M"
_symmetry_group_IT_number 12
_symmetry_cell_setting 'monoclinic'
loop_
_space_group_symop_operation_xyz
x,y,z
-x,y,-z
-x,-y,-z
x,-y,z
1/2+x,1/2+y,z
1/2-x,1/2+y,-z
1/2-x,1/2-y,-z
1/2+x,1/2-y,z
loop_
_atom_site_type_symbol
_atom_site_label
_atom_site_fract_x
_atom_site_fract_y
_atom_site_fract_z
Si Si1 0.500000 0.821940 0.500000
Si Si2 0.430927 0.307269 0.054938
Si Si3 0.096548 0.749146 0.384792
Si Si4 0.780990 0.136166 0.375722
Si Si5 0.907493 0.652616 0.872486
Si Si6 0.187121 0.915497 0.281197
Si Si7 0.670532 0.914541 0.738119
Si Si8 0.701253 0.328302 0.902547
O O1 0.458093 0.774461 0.561000
O O2 0.582095 0.872531 0.647558
O O3 0.533356 0.307499 0.222705
O O4 0.385880 0.318884 0.135552
O O5 0.414317 0.225351 0.975289
O O6 0.383278 0.364496 0.891010
O O7 0.190869 0.781639 0.542494
O O8 0.104645 0.682352 0.295189
O O9 0.681365 0.115799 0.213133
O O10 0.808618 0.093597 0.549977
O O11 0.817940 0.142130 0.274663
O O12 0.000000 0.613746 0.000000
O O13 0.279251 0.897710 0.334401
O O14 0.168971 0.000000 0.224904
O O15 0.654497 0.000000 0.718963
O O16 0.738904 0.888010 0.943572
O O17 0.750000 0.250000 0.000000
#
# Coordination Sequence:
#
# PCOD9203206 Si02
#       8
#     4   8   8   8   8   8   8   8
#     4  12  23  36  62  96 131 158 212 268 321 378
#     4  10  20  39  58  85 128 158 204 260 321 386
#     4  11  22  34  58  96 122 157 201 267 326 380
#     4  12  22  36  62  90 125 160 205 270 322 374
#     4  10  21  34  57  85 123 155 198 248 331 373
#     4  10  23  42  63  87 121 173 224 260 307 387
#     4  10  23  42  62  86 126 179 220 255 319 396
#     4  11  21  36  62  91 123 163 208 269 326 377
#
# _framework density 21.358324
#
# number of rings (size 3 to 8) (size 9 to 14) (size 15 to 20)
#    0.000    1.333    2.667    3.800    3.733    0.533 
#    0.000    1.333    0.000    0.400    0.000    5.600 
#    0.000    0.000    0.000    0.000    0.000    0.000 
#
# Total GULP energy -167130.617533 kJ/mol
# GULP energy per Si atom -5571.020584 kJ/mol
# Density = 2.130971 g / cm^3
# Si number density = 21.358324 Si / 1000 Ang^3
#
#
#
# Elastic Constant Matrix: (Units=GPa)
#
#
# Indices 1 2 3 4 5 6 
#
# 1 94.3207 6.0855 5.6802 0.0000 -19.4870 0.0000
# 2 6.0855 34.9905 1.9802 0.0000 5.6288 0.0000
# 3 5.6802 1.9802 55.3913 0.0000 -12.0410 0.0000
# 4 0.0000 0.0000 0.0000 8.3586 0.0000 -11.6344
# 5 -19.4870 5.6288 -12.0410 0.0000 41.4932 0.0000
# 6 0.0000 0.0000 0.0000 -11.6344 0.0000 2.8891
#
#
#
# Elastic Compliance Matrix: (Units=1/GPa)
#
#
# Indices 1 2 3 4 5 6 
#
# 1 0.012059 -0.003098 0.000210 0.000000 0.006144 0.000000
# 2 -0.003098 0.030229 -0.002103 0.000000 -0.006166 0.000000
# 3 0.000210 -0.002103 0.019415 0.000000 0.006018 0.000000
# 4 0.000000 0.000000 0.000000 -0.025978 0.000000 -0.104615
# 5 0.006144 -0.006166 0.006018 0.000000 0.029569 0.000000
# 6 0.000000 0.000000 0.000000 -0.104615 0.000000 -0.075159
#
#
# Mechanical properties :
#
#
# Convention : Reuss Voigt Hill
#
# Bulk Modulus (GPa) = 19.33459 23.57714 21.45586
# Shear Modulus (GPa) = 288.06790 21.94526 155.00658
#
# Velocity S-wave (km/s) = 11.62612 3.20891 8.52830
# Velocity P-wave (km/s) = 13.75843 4.97919 10.34617
#
# Compressibility (1/GPa) = 0.05172078
#
# Stress axis : x y z
#
# Youngs Moduli (GPa) = 82.92704 33.08100 51.50585
#
# Poissons Ratio (x) = 0.10247 -0.01081
# Poissons Ratio (y) = 0.25687 0.10833
# Poissons Ratio (z) = -0.01740 0.06958
#
# Static dielectric constant tensor:
#      x y z
#    x 1.790670 0.000000 0.006260 
#    y 0.000000 1.763200 0.000000 
#    z 0.006260 0.000000 1.833790 
# 
# From -- ./inp_files/89867.got.cif
#   From: 2010.05.17/outbox.cif.g08.bks.cpg/sg12_45_cif.got.tgz:89867.got - 2010.06.03 13:09:07.
