data_PCOD9203297
_publ_section_title
;
Structure prediction by ZEFSAII (Michael W. Deem and Ramdas Pophale) SiO2 
 PCOD9203297
Probable space group: C 2/M
;
_chemical_formula_sum "Si O2"
_cell_formula_units_Z 56
_cell_length_a 19.716959
_cell_length_b 18.677309
_cell_length_c 10.203253
_cell_angle_alpha 90.000000
_cell_angle_beta 130.474549
_cell_angle_gamma 90.000000
_cell_volume 2858.269001
_symmetry_space_group_name_H-M "C 2/M"
_symmetry_group_IT_number 12
_symmetry_cell_setting 'monoclinic'
loop_
_space_group_symop_operation_xyz
x,y,z
-x,y,-z
-x,-y,-z
x,-y,z
1/2+x,1/2+y,z
1/2-x,1/2+y,-z
1/2-x,1/2-y,-z
1/2+x,1/2-y,z
loop_
_atom_site_type_symbol
_atom_site_label
_atom_site_fract_x
_atom_site_fract_y
_atom_site_fract_z
Si Si1 0.863297 0.921214 0.935829
Si Si2 0.406737 0.738748 0.949518
Si Si3 0.752130 0.417655 0.941670
Si Si4 0.274629 0.920540 0.476885
Si Si5 0.730304 0.323936 0.659449
Si Si6 0.610306 0.801589 0.513279
Si Si7 0.097817 0.678242 0.789813
O O1 0.913025 0.846840 0.972539
O O2 0.807147 0.912725 0.000647
O O3 0.798392 0.924849 0.729177
O O4 0.909233 0.000000 0.002007
O O5 0.318386 0.771660 0.767109
O O6 0.500000 0.764256 0.000000
O O7 0.391502 0.767753 0.077131
O O8 0.748499 0.500000 0.892144
O O9 0.853317 0.394475 0.105113
O O10 0.722574 0.362001 0.791801
O O11 0.239429 0.887130 0.566578
O O12 0.344301 0.864127 0.509706
O O13 0.311449 0.000000 0.543859
O O14 0.645657 0.275595 0.514071
O O15 0.506773 0.817917 0.369015
O O16 0.640445 0.803011 0.703331
#
# Coordination Sequence:
#
# PCOD9203297 Si02
#       7
#     8   8   8   8   8   8   8
#     4  10  21  37  59  83 112 149 190 233 283 336
#     4  11  22  37  58  83 115 147 193 237 283 331
#     4  10  20  39  61  86 116 151 191 234 283 341
#     4  11  22  36  56  86 113 145 187 232 280 335
#     4  11  22  37  61  84 113 154 191 232 282 338
#     4  11  21  37  60  84 118 151 190 232 286 338
#     4  10  22  35  57  90 114 149 190 234 282 343
#
# _framework density 19.592279000000001
#
# number of rings (size 3 to 8) (size 9 to 14) (size 15 to 20)
#    0.000    1.429    2.857    2.571    2.000    3.143 
#    0.000    1.429    0.000    4.714    0.000    5.000 
#    0.000    0.000    0.000    0.000    0.000    0.000 
#
# Total GULP energy -156056.394631 kJ/mol
# GULP energy per Si atom -5573.442665 kJ/mol
# Density = 1.954769 g / cm^3
# Si number density = 19.592279 Si / 1000 Ang^3
#
#
#
# Elastic Constant Matrix: (Units=GPa)
#
#
# Indices 1 2 3 4 5 6 
#
# 1 44.5454 19.2609 8.8177 0.0000 -19.4730 0.0000
# 2 19.2609 116.1347 22.2685 0.0000 -11.5186 0.0000
# 3 8.8177 22.2685 98.1889 0.0000 9.8344 0.0000
# 4 0.0000 0.0000 0.0000 7.1910 0.0000 -12.8207
# 5 -19.4730 -11.5186 9.8344 0.0000 50.7193 0.0000
# 6 0.0000 0.0000 0.0000 -12.8207 0.0000 25.8863
#
#
#
# Elastic Compliance Matrix: (Units=1/GPa)
#
#
# Indices 1 2 3 4 5 6 
#
# 1 0.029274 -0.003174 -0.003021 0.000000 0.011104 0.000000
# 2 -0.003174 0.009665 -0.002044 0.000000 0.001373 0.000000
# 3 -0.003021 -0.002044 0.011302 0.000000 -0.003816 0.000000
# 4 0.000000 0.000000 0.000000 1.188601 0.000000 0.588678
# 5 0.011104 0.001373 -0.003816 0.000000 0.025031 0.000000
# 6 0.000000 0.000000 0.000000 0.588678 0.000000 0.330185
#
#
# Mechanical properties :
#
#
# Convention : Reuss Voigt Hill
#
# Bulk Modulus (GPa) = 29.62016 39.95145 34.78580
# Shear Modulus (GPa) = 3.08301 30.66078 16.87189
#
# Velocity S-wave (km/s) = 1.25579 3.96023 2.93772
# Velocity P-wave (km/s) = 4.15377 6.43015 5.41298
#
# Compressibility (1/GPa) = 0.03376079
#
# Stress axis : x y z
#
# Youngs Moduli (GPa) = 34.16022 103.46258 88.48316
#
# Poissons Ratio (x) = 0.32843 0.26732
# Poissons Ratio (y) = 0.10844 0.18090
# Poissons Ratio (z) = 0.10320 0.21152
#
# Static dielectric constant tensor:
#      x y z
#    x 1.730260 0.000000 -0.005640 
#    y 0.000000 1.671490 0.000000 
#    z -0.005640 0.000000 1.718510 
# 
# From -- ./inp_files/88101.got.cif
#   From: 2010.05.17/outbox.cif.g08.bks.cpg/sg12_45_cif.got.tgz:88101.got - 2010.06.03 13:09:07.
