data_PCOD9203125
_publ_section_title
;
Structure prediction by ZEFSAII (Michael W. Deem and Ramdas Pophale) SiO2 
 PCOD9203125
Probable space group: C 2/M
;
_chemical_formula_sum "Si O2"
_cell_formula_units_Z 64
_cell_length_a 25.091979
_cell_length_b 20.979031
_cell_length_c 18.505618
_cell_angle_alpha 90.000000
_cell_angle_beta 161.884266
_cell_angle_gamma 90.000000
_cell_volume 3028.983800
_symmetry_space_group_name_H-M "C 2/M"
_symmetry_group_IT_number 12
_symmetry_cell_setting 'monoclinic'
loop_
_space_group_symop_operation_xyz
x,y,z
-x,y,-z
-x,-y,-z
x,-y,z
1/2+x,1/2+y,z
1/2-x,1/2+y,-z
1/2-x,1/2-y,-z
1/2+x,1/2-y,z
loop_
_atom_site_type_symbol
_atom_site_label
_atom_site_fract_x
_atom_site_fract_y
_atom_site_fract_z
Si Si1 0.642288 0.073130 0.565582
Si Si2 0.313883 0.071858 0.737191
Si Si3 0.321646 0.134215 0.087760
Si Si4 0.386446 0.574514 0.752590
Si Si5 0.023081 0.926521 0.607124
Si Si6 0.548522 0.764688 0.860325
Si Si7 0.272662 0.355954 0.863669
Si Si8 0.741528 0.833677 0.455301
O O1 0.490094 0.089913 0.313478
O O2 0.820485 0.076741 0.750494
O O3 0.642498 0.122609 0.632673
O O4 0.621866 0.000000 0.565059
O O5 0.233181 0.114459 0.572233
O O6 0.169524 0.071081 0.611550
O O7 0.340733 0.000000 0.744697
O O8 0.500000 0.095819 0.000000
O O9 0.375402 0.197638 0.110778
O O10 0.267373 0.137605 0.102528
O O11 0.161563 0.105833 0.837435
O O12 0.363166 0.500000 0.701576
O O13 0.270734 0.629117 0.567141
O O14 0.569383 0.598151 0.957269
O O15 0.000000 0.893975 0.500000
O O16 0.082358 0.000000 0.674266
O O17 0.454346 0.811495 0.794632
O O18 0.383845 0.720728 0.626122
O O19 0.672804 0.718196 0.065351
#
# Coordination Sequence:
#
# PCOD9203125 Si02
#       8
#     8   8   8   8   8   8   8   8
#     4  11  24  42  68 103 137 175 226 283 344 410
#     4  10  22  40  66  98 126 161 215 275 338 402
#     4  12  24  44  68  96 136 179 227 275 342 407
#     4  10  20  38  67  97 130 172 222 282 345 405
#     4  10  23  42  66  98 135 169 212 278 347 410
#     4  10  23  42  63  91 128 176 229 271 322 392
#     4  11  24  41  64  94 136 181 222 279 331 406
#     4  10  20  41  65  94 126 170 226 279 329 390
#
# _framework density 21.129199
#
# number of rings (size 3 to 8) (size 9 to 14) (size 15 to 20)
#    0.000    1.500    1.250    3.750    1.750    4.500 
#    2.250    2.500    0.000    0.000    0.000    0.000 
#    0.000    0.000    0.000    0.000    0.000    0.000 
#
# Total GULP energy -178187.259886 kJ/mol
# GULP energy per Si atom -5568.351871 kJ/mol
# Density = 2.108111 g / cm^3
# Si number density = 21.129199 Si / 1000 Ang^3
#
#
#
# Elastic Constant Matrix: (Units=GPa)
#
#
# Indices 1 2 3 4 5 6 
#
# 1 109.0565 45.7239 32.4481 0.0000 0.7074 0.0000
# 2 45.7239 84.8134 25.8355 0.0000 -3.8824 0.0000
# 3 32.4481 25.8355 107.6725 -0.0001 -3.6666 0.0000
# 4 0.0000 0.0000 -0.0001 15.4845 -0.0001 -5.1083
# 5 0.7074 -3.8824 -3.6666 -0.0001 29.4507 0.0000
# 6 0.0000 0.0000 0.0000 -5.1083 0.0000 30.0452
#
#
#
# Elastic Compliance Matrix: (Units=1/GPa)
#
#
# Indices 1 2 3 4 5 6 
#
# 1 0.012406 -0.006040 -0.002337 0.000000 -0.001385 0.000000
# 2 -0.006040 0.015711 -0.001882 0.000000 0.001982 0.000000
# 3 -0.002337 -0.001882 0.010481 0.000000 0.001113 0.000000
# 4 0.000000 0.000000 0.000000 0.068418 0.000000 0.011633
# 5 -0.001385 0.001982 0.001113 0.000000 0.034388 0.000000
# 6 0.000000 0.000000 0.000000 0.011633 0.000000 0.035261
#
#
# Mechanical properties :
#
#
# Convention : Reuss Voigt Hill
#
# Bulk Modulus (GPa) = 55.30724 56.61747 55.96236
# Shear Modulus (GPa) = 24.60513 28.16507 26.38510
#
# Velocity S-wave (km/s) = 3.41619 3.65498 3.53760
# Velocity P-wave (km/s) = 6.46475 6.68325 6.57491
#
# Compressibility (1/GPa) = 0.01808082
#
# Stress axis : x y z
#
# Youngs Moduli (GPa) = 80.60542 63.65045 95.41015
#
# Poissons Ratio (x) = 0.38444 0.22294
# Poissons Ratio (y) = 0.48685 0.17957
# Poissons Ratio (z) = 0.18834 0.11979
#
# Static dielectric constant tensor:
#      x y z
#    x 1.790420 0.000000 0.023500 
#    y 0.000000 1.818610 0.000000 
#    z 0.023500 0.000000 1.865810 
# 
# From -- ./inp_files/290945.got.cif
#   From: 2010.05.17/outbox.cif.g08.bks.cpg/sg12_146_cif.got.tgz:290945.got - 2010.06.03 13:09:07.
