data_PCOD9203351
_publ_section_title
;
Structure prediction by ZEFSAII (Michael W. Deem and Ramdas Pophale) SiO2 
 PCOD9203351
Probable space group: C 2/M
;
_chemical_formula_sum "Si O2"
_cell_formula_units_Z 48
_cell_length_a 30.342369
_cell_length_b 8.562042
_cell_length_c 15.546370
_cell_angle_alpha 90.000000
_cell_angle_beta 39.977634
_cell_angle_gamma 90.000000
_cell_volume 2594.903526
_symmetry_space_group_name_H-M "C 2/M"
_symmetry_group_IT_number 12
_symmetry_cell_setting 'monoclinic'
loop_
_space_group_symop_operation_xyz
x,y,z
-x,y,-z
-x,-y,-z
x,-y,z
1/2+x,1/2+y,z
1/2-x,1/2+y,-z
1/2-x,1/2-y,-z
1/2+x,1/2-y,z
loop_
_atom_site_type_symbol
_atom_site_label
_atom_site_fract_x
_atom_site_fract_y
_atom_site_fract_z
Si Si1 0.419053 0.812828 0.371059
Si Si2 0.176446 0.311202 0.327200
Si Si3 0.324618 0.312330 0.361268
Si Si4 0.824291 0.186991 0.860765
Si Si5 0.328752 0.690057 0.158992
Si Si6 0.072815 0.189170 0.141589
O O1 0.376503 0.762847 0.519467
O O2 0.380310 0.746758 0.345685
O O3 0.496842 0.755978 0.258765
O O4 0.416601 0.000000 0.371216
O O5 0.176467 0.500000 0.322576
O O6 0.159605 0.245566 0.258844
O O7 0.253299 0.261290 0.239518
O O8 0.322839 0.500000 0.365034
O O9 0.250000 0.250000 0.500000
O O10 0.339700 0.260350 0.240879
O O11 0.881179 0.236458 0.845305
O O12 0.821406 0.000000 0.866118
O O13 0.750000 0.250000 0.000000
O O14 0.328564 0.500000 0.158740
O O15 0.386418 0.740151 0.005182
O O16 0.069090 0.000000 0.146350
#
# Coordination Sequence:
#
# PCOD9203351 Si02
#       6
#     8   8   8   8   8   8
#     4  11  24  41  60  87 124 159 195 247 304 353
#     4  10  20  39  62  85 118 158 200 242 293 356
#     4  11  21  37  63  91 119 156 202 246 295 355
#     4  11  22  37  62  92 120 155 200 248 296 352
#     4   9  18  37  62  85 115 157 198 238 291 356
#     4  10  22  41  61  84 119 158 196 242 297 358
#
# _framework density 18.497796999999998
#
# number of rings (size 3 to 8) (size 9 to 14) (size 15 to 20)
#    0.000    1.667    3.333    1.500    0.000    4.000 
#    0.000    8.333    0.000    0.000    0.000    0.000 
#    0.000    0.000    0.000    0.000    0.000    0.000 
#
# Total GULP energy -134083.859377 kJ/mol
# GULP energy per Si atom -5586.827474 kJ/mol
# Density = 1.845570 g / cm^3
# Si number density = 18.497797 Si / 1000 Ang^3
#
#
#
# Elastic Constant Matrix: (Units=GPa)
#
#
# Indices 1 2 3 4 5 6 
#
# 1 184.9959 39.3201 105.2850 0.0000 10.4364 0.0000
# 2 39.3201 28.7889 33.7369 -0.0007 1.4460 0.0001
# 3 105.2850 33.7369 167.5480 -0.0001 5.8346 0.0000
# 4 0.0000 -0.0007 -0.0001 33.0258 0.0000 -1.2065
# 5 10.4364 1.4460 5.8346 0.0000 42.7887 0.0000
# 6 0.0000 0.0001 0.0000 -1.2065 0.0000 32.6215
#
#
#
# Elastic Compliance Matrix: (Units=1/GPa)
#
#
# Indices 1 2 3 4 5 6 
#
# 1 0.009718 -0.007987 -0.004446 0.000000 -0.001494 0.000000
# 2 -0.007987 0.052032 -0.005490 0.000001 0.000939 0.000000
# 3 -0.004446 -0.005490 0.009871 0.000000 -0.000076 0.000000
# 4 0.000000 0.000001 0.000000 0.030320 0.000000 0.001121
# 5 -0.001494 0.000939 -0.000076 0.000000 0.023714 0.000000
# 6 0.000000 0.000000 0.000000 0.001121 0.000000 0.030696
#
#
# Mechanical properties :
#
#
# Convention : Reuss Voigt Hill
#
# Bulk Modulus (GPa) = 27.95478 82.00186 54.97832
# Shear Modulus (GPa) = 24.49507 35.21991 29.85749
#
# Velocity S-wave (km/s) = 3.64292 4.36823 4.02196
# Velocity P-wave (km/s) = 5.73061 8.35875 7.16619
#
# Compressibility (1/GPa) = 0.03577206
#
# Stress axis : x y z
#
# Youngs Moduli (GPa) = 102.90215 19.21906 101.31061
#
# Poissons Ratio (x) = 0.15351 0.45046
# Poissons Ratio (y) = 0.82191 0.55624
# Poissons Ratio (z) = 0.45754 0.10552
#
# Static dielectric constant tensor:
#      x y z
#    x 1.613130 0.000000 0.017350 
#    y 0.000000 1.634670 0.000000 
#    z 0.017350 0.000000 1.615870 
# 
# From -- ./inp_files/230344.got.cif
#   From: 2010.05.17/outbox.cif.g08.bks.cpg/sg12_116_cif.got.tgz:230344.got - 2010.06.03 13:09:07.
