data_PCOD9203399
_publ_section_title
;
Structure prediction by ZEFSAII (Michael W. Deem and Ramdas Pophale) SiO2 
 PCOD9203399
Probable space group: C 2/M
;
_chemical_formula_sum "Si O2"
_cell_formula_units_Z 58
_cell_length_a 24.666571
_cell_length_b 7.609218
_cell_length_c 18.770975
_cell_angle_alpha 90.000000
_cell_angle_beta 46.917068
_cell_angle_gamma 90.000000
_cell_volume 2573.214911
_symmetry_space_group_name_H-M "C 2/M"
_symmetry_group_IT_number 12
_symmetry_cell_setting 'monoclinic'
loop_
_space_group_symop_operation_xyz
x,y,z
-x,y,-z
-x,-y,-z
x,-y,z
1/2+x,1/2+y,z
1/2-x,1/2+y,-z
1/2-x,1/2-y,-z
1/2+x,1/2-y,z
loop_
_atom_site_type_symbol
_atom_site_label
_atom_site_fract_x
_atom_site_fract_y
_atom_site_fract_z
Si Si1 0.186030 0.207090 0.256182
Si Si2 0.000000 0.500000 0.000000
Si Si3 0.758446 0.705788 0.640334
Si Si4 0.900090 0.795194 0.244281
Si Si5 0.554607 0.294849 0.040826
Si Si6 0.384317 0.213996 0.423168
Si Si7 0.208149 0.290415 0.964202
Si Si8 0.481940 0.211797 0.595982
O O1 0.200101 0.283936 0.321695
O O2 0.242465 0.277250 0.146306
O O3 0.101339 0.237593 0.309516
O O4 0.198120 0.000000 0.252118
O O5 0.940944 0.657518 0.027688
O O6 0.748479 0.500000 0.632095
O O7 0.675878 0.783526 0.718836
O O8 0.810921 0.777471 0.530719
O O9 0.891155 0.777830 0.336879
O O10 0.979440 0.725327 0.147349
O O11 0.903633 0.000000 0.221071
O O12 0.549347 0.500000 0.024310
O O13 0.625111 0.280605 0.029432
O O14 0.455520 0.271267 0.405189
O O15 0.383253 0.000000 0.423044
O O16 0.203315 0.500000 0.963273
O O17 0.250000 0.250000 0.000000
O O18 0.500000 0.276130 0.500000
O O19 0.485362 0.000000 0.591101
#
# Coordination Sequence:
#
# PCOD9203399 Si02
#       8
#     8   2   8   8   8   8   8   8
#     4  11  25  40  63  96 128 165 215 279 339 396
#     4  12  26  48  76 102 148 176 234 302 348 426
#     4  10  21  41  63  91 128 172 219 262 320 397
#     4  10  24  41  64  95 133 172 216 271 333 399
#     4  11  26  47  73 107 139 184 236 292 359 423
#     4  10  21  37  63  91 127 173 218 263 319 395
#     4  11  26  48  70  99 138 180 233 295 359 427
#     4  10  20  39  62  89 125 168 215 263 318 390
#
# _framework density 22.539895999999999
#
# number of rings (size 3 to 8) (size 9 to 14) (size 15 to 20)
#    0.000    1.517    2.069    1.448    4.828    4.138 
#    0.000    0.000    0.000    0.000    0.000    0.000 
#    0.000    0.000    0.000    0.000    0.000    0.000 
#
# Total GULP energy -161879.416621 kJ/mol
# GULP energy per Si atom -5582.048849 kJ/mol
# Density = 2.248859 g / cm^3
# Si number density = 22.539896 Si / 1000 Ang^3
#
#
#
# Elastic Constant Matrix: (Units=GPa)
#
#
# Indices 1 2 3 4 5 6 
#
# 1 97.1885 9.6120 27.3702 0.0009 -29.3501 -0.0002
# 2 9.6120 87.6207 -1.2244 0.0075 -4.7633 -0.0296
# 3 27.3702 -1.2244 130.8427 0.0073 -27.1462 -0.0234
# 4 0.0009 0.0075 0.0073 18.2476 -0.0039 5.8499
# 5 -29.3501 -4.7633 -27.1462 -0.0039 41.4573 0.0101
# 6 -0.0002 -0.0296 -0.0234 5.8499 0.0101 58.6705
#
#
#
# Elastic Compliance Matrix: (Units=1/GPa)
#
#
# Indices 1 2 3 4 5 6 
#
# 1 0.013275 -0.001001 -0.000996 0.000003 0.008631 -0.000003
# 2 -0.001001 0.011582 0.000517 -0.000007 0.000961 0.000007
# 3 -0.000996 0.000517 0.008936 -0.000004 0.005206 0.000003
# 4 0.000003 -0.000007 -0.000004 0.056611 0.000005 -0.005645
# 5 0.008631 0.000961 0.005206 0.000005 0.033751 -0.000004
# 6 -0.000003 0.000007 0.000003 -0.005645 -0.000004 0.017607
#
#
# Mechanical properties :
#
#
# Convention : Reuss Voigt Hill
#
# Bulk Modulus (GPa) = 32.43129 43.01858 37.72493
# Shear Modulus (GPa) = 32.25806 42.33469 37.29637
#
# Velocity S-wave (km/s) = 3.78716 4.33854 4.07219
# Velocity P-wave (km/s) = 5.79164 6.65012 6.23567
#
# Compressibility (1/GPa) = 0.03083442
#
# Stress axis : x y z
#
# Youngs Moduli (GPa) = 75.32795 86.34020 111.90779
#
# Poissons Ratio (x) = 0.08643 0.11141
# Poissons Ratio (y) = 0.07540 -0.05787
# Poissons Ratio (z) = 0.07499 -0.04465
#
# Static dielectric constant tensor:
#      x y z
#    x 1.815420 -0.000010 -0.002770 
#    y -0.000010 1.858200 0.000010 
#    z -0.002770 0.000010 1.875550 
# 
# From -- ./inp_files/324592.got.cif
#   From: 2010.05.17/outbox.cif.g08.bks.cpg/sg12_163_cif.got.tgz:324592.got - 2010.06.03 13:09:07.
