data_PCOD9203536
_publ_section_title
;
Structure prediction by ZEFSAII (Michael W. Deem and Ramdas Pophale) SiO2 
 PCOD9203536
Probable space group: C 2/M
;
_chemical_formula_sum "Si O2"
_cell_formula_units_Z 48
_cell_length_a 30.757960
_cell_length_b 8.935587
_cell_length_c 15.044188
_cell_angle_alpha 90.000000
_cell_angle_beta 40.024206
_cell_angle_gamma 90.000000
_cell_volume 2659.104661
_symmetry_space_group_name_H-M "C 2/M"
_symmetry_group_IT_number 12
_symmetry_cell_setting 'monoclinic'
loop_
_space_group_symop_operation_xyz
x,y,z
-x,y,-z
-x,-y,-z
x,-y,z
1/2+x,1/2+y,z
1/2-x,1/2+y,-z
1/2-x,1/2-y,-z
1/2+x,1/2-y,z
loop_
_atom_site_type_symbol
_atom_site_label
_atom_site_fract_x
_atom_site_fract_y
_atom_site_fract_z
Si Si1 0.427115 0.178993 0.656674
Si Si2 0.319011 0.820781 0.354647
Si Si3 0.586241 0.320427 0.650332
Si Si4 0.333281 0.679691 0.656471
Si Si5 0.321323 0.820095 0.143576
Si Si6 0.432580 0.679123 0.842133
O O1 0.500000 0.219047 0.500000
O O2 0.369716 0.240120 0.680906
O O3 0.421978 0.250466 0.761761
O O4 0.423182 0.000000 0.669348
O O5 0.250000 0.750000 0.500000
O O6 0.379868 0.761104 0.319751
O O7 0.327573 0.780466 0.237777
O O8 0.314058 0.000000 0.368106
O O9 0.591927 0.500000 0.653568
O O10 0.627957 0.281643 0.495736
O O11 0.508062 0.281782 0.757421
O O12 0.338958 0.500000 0.658740
O O13 0.254543 0.717901 0.769353
O O14 0.328962 0.000000 0.123970
O O15 0.376993 0.740237 0.996894
O O16 0.428758 0.500000 0.841516
#
# Coordination Sequence:
#
# PCOD9203536 Si02
#       6
#     8   8   8   8   8   8
#     4  11  23  38  61  93 123 154 200 251 300 358
#     4  11  22  38  63  92 122 160 203 249 300 354
#     4  10  21  39  62  90 121 156 204 250 296 355
#     4  10  20  39  64  87 119 160 202 248 297 354
#     4  10  23  42  61  87 124 160 197 248 302 355
#     4  11  24  41  63  89 122 162 199 247 304 358
#
# _framework density 18.051188
#
# number of rings (size 3 to 8) (size 9 to 14) (size 15 to 20)
#    0.000    1.500    3.333    1.500    0.000    6.000 
#    0.000    3.333    0.000    0.000    0.000    0.000 
#    0.000    0.000    0.000    0.000    0.000    0.000 
#
# Total GULP energy -134148.412726 kJ/mol
# GULP energy per Si atom -5589.517197 kJ/mol
# Density = 1.801010 g / cm^3
# Si number density = 18.051188 Si / 1000 Ang^3
#
#
#
# Elastic Constant Matrix: (Units=GPa)
#
#
# Indices 1 2 3 4 5 6 
#
# 1 199.1890 74.1033 103.2488 0.0000 5.4848 0.0000
# 2 74.1033 47.2070 65.9374 -0.0003 3.4081 0.0001
# 3 103.2488 65.9374 172.3966 -0.0001 2.8700 0.0000
# 4 0.0000 -0.0003 -0.0001 32.5223 0.0001 1.1071
# 5 5.4848 3.4081 2.8700 0.0001 30.0043 0.0000
# 6 0.0000 0.0001 0.0000 1.1071 0.0000 38.7442
#
#
#
# Elastic Compliance Matrix: (Units=1/GPa)
#
#
# Indices 1 2 3 4 5 6 
#
# 1 0.012068 -0.018992 0.000037 0.000000 -0.000052 0.000000
# 2 -0.018992 0.075741 -0.017537 0.000001 -0.003454 0.000000
# 3 0.000037 -0.017537 0.012473 0.000000 0.000792 0.000000
# 4 0.000000 0.000001 0.000000 0.030778 0.000000 -0.000879
# 5 -0.000052 -0.003454 0.000792 0.000000 0.033655 0.000000
# 6 0.000000 0.000000 0.000000 -0.000879 0.000000 0.025835
#
#
# Mechanical properties :
#
#
# Convention : Reuss Voigt Hill
#
# Bulk Modulus (GPa) = 36.63311 100.59685 68.61498
# Shear Modulus (GPa) = 18.33969 31.95437 25.14703
#
# Velocity S-wave (km/s) = 3.19091 4.21195 3.73647
# Velocity P-wave (km/s) = 5.82357 8.91648 7.53052
#
# Compressibility (1/GPa) = 0.02729771
#
# Stress axis : x y z
#
# Youngs Moduli (GPa) = 82.86374 13.20289 80.17623
#
# Poissons Ratio (x) = 0.25075 -0.00299
# Poissons Ratio (y) = 1.57376 1.40606
# Poissons Ratio (z) = -0.00309 0.23154
#
# Static dielectric constant tensor:
#      x y z
#    x 1.590450 0.000000 -0.007500 
#    y 0.000000 1.603040 0.000000 
#    z -0.007500 0.000000 1.590060 
# 
# From -- ./inp_files/244625.got.cif
#   From: 2010.05.17/outbox.cif.g08.bks.cpg/sg12_123_cif.got.tgz:244625.got - 2010.06.03 13:09:07.
