data_PCOD9203645
_publ_section_title
;
Structure prediction by ZEFSAII (Michael W. Deem and Ramdas Pophale) SiO2 
 PCOD9203645
Probable space group: C 2/M
;
_chemical_formula_sum "Si O2"
_cell_formula_units_Z 56
_cell_length_a 31.362638
_cell_length_b 9.755123
_cell_length_c 22.155979
_cell_angle_alpha 90.000000
_cell_angle_beta 154.913924
_cell_angle_gamma 90.000000
_cell_volume 2873.961682
_symmetry_space_group_name_H-M "C 2/M"
_symmetry_group_IT_number 12
_symmetry_cell_setting 'monoclinic'
loop_
_space_group_symop_operation_xyz
x,y,z
-x,y,-z
-x,-y,-z
x,-y,z
1/2+x,1/2+y,z
1/2-x,1/2+y,-z
1/2-x,1/2-y,-z
1/2+x,1/2-y,z
loop_
_atom_site_type_symbol
_atom_site_label
_atom_site_fract_x
_atom_site_fract_y
_atom_site_fract_z
Si Si1 0.827743 0.332896 0.556595
Si Si2 0.224048 0.850620 0.736222
Si Si3 0.620401 0.164221 0.509962
Si Si4 0.393388 0.153389 0.204934
Si Si5 0.289369 0.230686 0.952365
Si Si6 0.954107 0.347553 0.006639
Si Si7 0.009785 0.842657 0.837803
O O1 0.826455 0.500000 0.564465
O O2 0.750000 0.250000 0.500000
O O3 0.815048 0.307351 0.468235
O O4 0.935210 0.262376 0.708621
O O5 0.160784 0.734902 0.621980
O O6 0.248596 0.835360 0.838607
O O7 0.334209 0.846081 0.847976
O O8 0.177621 0.000000 0.665881
O O9 0.505394 0.213268 0.351528
O O10 0.620980 0.000000 0.517059
O O11 0.308994 0.221715 0.137945
O O12 0.402458 0.000000 0.239700
O O13 0.351525 0.149615 0.083054
O O14 0.376238 0.335975 0.041887
O O15 0.981382 0.500000 0.067166
O O16 0.985640 0.223595 0.089885
O O17 0.000000 0.335678 0.000000
O O18 0.974271 0.000000 0.790858
#
# Coordination Sequence:
#
# PCOD9203645 Si02
#       7
#     8   8   8   8   8   8   8
#     4  11  24  42  63  88 121 165 209 255 309 368
#     4  10  22  39  61  88 124 165 203 254 310 368
#     4  10  23  42  63  89 123 163 205 255 308 367
#     4  10  20  39  65  90 119 162 210 253 307 369
#     4  10  21  39  63  92 124 161 206 256 307 368
#     4   9  20  38  59  84 115 159 207 251 305 364
#     4  11  22  37  60  93 124 156 200 256 311 366
#
# _framework density 19.485298
#
# number of rings (size 3 to 8) (size 9 to 14) (size 15 to 20)
#    0.000    1.857    1.429    1.714    2.000    6.000 
#    0.000    3.571    0.000    0.000    0.000    0.000 
#    0.000    0.000    0.000    0.000    0.000    0.000 
#
# Total GULP energy -155931.158261 kJ/mol
# GULP energy per Si atom -5568.969938 kJ/mol
# Density = 1.944095 g / cm^3
# Si number density = 19.485298 Si / 1000 Ang^3
#
#
#
# Elastic Constant Matrix: (Units=GPa)
#
#
# Indices 1 2 3 4 5 6 
#
# 1 119.0219 40.8030 51.3422 0.0000 9.0959 0.0000
# 2 40.8030 87.2638 25.9513 0.0000 -3.6691 0.0000
# 3 51.3422 25.9513 74.3303 0.0000 -13.3000 0.0000
# 4 0.0000 0.0000 0.0000 21.8030 0.0000 4.3984
# 5 9.0959 -3.6691 -13.3000 0.0000 18.4173 0.0000
# 6 0.0000 0.0000 0.0000 4.3984 0.0000 -25.3565
#
#
#
# Elastic Compliance Matrix: (Units=1/GPa)
#
#
# Indices 1 2 3 4 5 6 
#
# 1 0.017651 -0.004917 -0.014023 0.000000 -0.019823 0.000000
# 2 -0.004917 0.014166 -0.000701 0.000000 0.004744 0.000000
# 3 -0.014023 -0.000701 0.028248 0.000000 0.027185 0.000000
# 4 0.000000 0.000000 0.000000 0.044315 0.000000 0.007687
# 5 -0.019823 0.004744 0.027185 0.000000 0.084664 0.000000
# 6 0.000000 0.000000 0.000000 0.007687 0.000000 -0.038104
#
#
# Mechanical properties :
#
#
# Convention : Reuss Voigt Hill
#
# Bulk Modulus (GPa) = 48.11095 57.42323 52.76709
# Shear Modulus (GPa) = 25.36153 13.80740 19.58446
#
# Velocity S-wave (km/s) = 3.61164 2.66485 3.17375
# Velocity P-wave (km/s) = 6.49126 6.24521 6.36942
#
# Compressibility (1/GPa) = 0.02078529
#
# Stress axis : x y z
#
# Youngs Moduli (GPa) = 56.65331 70.58953 35.40030
#
# Poissons Ratio (x) = 0.34707 0.49641
# Poissons Ratio (y) = 0.27855 0.02481
# Poissons Ratio (z) = 0.79443 0.04948
#
# Static dielectric constant tensor:
#      x y z
#    x 1.700200 0.000000 0.014270 
#    y 0.000000 1.696840 0.000000 
#    z 0.014270 0.000000 1.689750 
# 
# From -- ./inp_files/329652.got.cif
#   From: 2010.05.17/outbox.cif.g08.bks.cpg/sg12_165_cif.got.tgz:329652.got - 2010.06.03 13:09:07.
