data_PCOD9203488
_publ_section_title
;
Structure prediction by ZEFSAII (Michael W. Deem and Ramdas Pophale) SiO2 
 PCOD9203488
Probable space group: C 2/M
;
_chemical_formula_sum "Si O2"
_cell_formula_units_Z 56
_cell_length_a 15.481247
_cell_length_b 8.819515
_cell_length_c 25.021397
_cell_angle_alpha 90.000000
_cell_angle_beta 59.493219
_cell_angle_gamma 90.000000
_cell_volume 2943.420462
_symmetry_space_group_name_H-M "C 2/M"
_symmetry_group_IT_number 12
_symmetry_cell_setting 'monoclinic'
loop_
_space_group_symop_operation_xyz
x,y,z
-x,y,-z
-x,-y,-z
x,-y,z
1/2+x,1/2+y,z
1/2-x,1/2+y,-z
1/2-x,1/2-y,-z
1/2+x,1/2-y,z
loop_
_atom_site_type_symbol
_atom_site_label
_atom_site_fract_x
_atom_site_fract_y
_atom_site_fract_z
Si Si1 0.504950 0.317373 0.342050
Si Si2 0.192755 0.181319 0.885244
Si Si3 0.477972 0.319407 0.139931
Si Si4 0.646495 0.819123 0.010331
Si Si5 0.725661 0.318365 0.565636
Si Si6 0.089959 0.182721 0.431023
Si Si7 0.922268 0.681327 0.790826
O O1 0.511043 0.500000 0.335112
O O2 0.387554 0.276055 0.382846
O O3 0.557975 0.274872 0.381150
O O4 0.554214 0.241521 0.275305
O O5 0.309035 0.224773 0.843588
O O6 0.131525 0.210852 0.850258
O O7 0.187416 0.000000 0.897651
O O8 0.141740 0.268272 0.950288
O O9 0.492410 0.500000 0.137680
O O10 0.557268 0.249142 0.073467
O O11 0.501162 0.249709 0.190158
O O12 0.647444 0.000000 0.014949
O O13 0.750000 0.750000 0.000000
O O14 0.730456 0.500000 0.560759
O O15 0.750000 0.250000 0.500000
O O16 0.808078 0.257812 0.580973
O O17 0.000000 0.224048 0.500000
O O18 0.100365 0.000000 0.430208
O O19 0.927865 0.500000 0.790267
#
# Coordination Sequence:
#
# PCOD9203488 Si02
#       7
#     8   8   8   8   8   8   8
#     4  10  23  42  62  86 124 165 200 248 309 367
#     4  10  23  42  63  89 124 162 203 255 311 362
#     4  11  23  41  65  91 124 165 204 253 312 365
#     4  12  23  37  62  94 125 161 205 256 310 364
#     4  11  22  38  62  92 123 158 200 248 303 364
#     4  10  20  39  63  90 124 159 196 246 305 362
#     4  11  24  42  63  88 122 163 209 257 299 363
#
# _framework density 19.025483999999999
#
# number of rings (size 3 to 8) (size 9 to 14) (size 15 to 20)
#    0.000    1.286    2.857    3.000    0.000    6.571 
#    0.000    4.286    0.000    0.000    0.000    0.000 
#    0.000    0.000    0.000    0.000    0.000    0.000 
#
# Total GULP energy -156567.843630 kJ/mol
# GULP energy per Si atom -5591.708701 kJ/mol
# Density = 1.898218 g / cm^3
# Si number density = 19.025484 Si / 1000 Ang^3
#
#
#
# Elastic Constant Matrix: (Units=GPa)
#
#
# Indices 1 2 3 4 5 6 
#
# 1 118.3931 34.4237 25.9703 0.0000 26.7429 0.0000
# 2 34.4237 42.9842 29.0593 0.0000 12.0723 0.0000
# 3 25.9703 29.0593 93.7735 0.0000 29.4995 0.0000
# 4 0.0000 0.0000 0.0000 35.1414 0.0000 2.3141
# 5 26.7429 12.0723 29.4995 0.0000 30.1744 0.0000
# 6 0.0000 0.0000 0.0000 2.3141 0.0000 30.8027
#
#
#
# Elastic Compliance Matrix: (Units=1/GPa)
#
#
# Indices 1 2 3 4 5 6 
#
# 1 0.012844 -0.009095 0.002452 0.000000 -0.010141 0.000000
# 2 -0.009095 0.036231 -0.009653 0.000000 0.003003 0.000000
# 3 0.002452 -0.009653 0.017972 0.000000 -0.015881 0.000000
# 4 0.000000 0.000000 0.000000 0.028598 0.000000 -0.002148
# 5 -0.010141 0.003003 -0.015881 0.000000 0.056453 0.000000
# 6 0.000000 0.000000 0.000000 -0.002148 0.000000 0.032626
#
#
# Mechanical properties :
#
#
# Convention : Reuss Voigt Hill
#
# Bulk Modulus (GPa) = 29.02452 48.22859 38.62656
# Shear Modulus (GPa) = 21.85290 30.27020 26.06155
#
# Velocity S-wave (km/s) = 3.39279 3.99310 3.70513
# Velocity P-wave (km/s) = 5.53505 6.83113 6.21696
#
# Compressibility (1/GPa) = 0.03445362
#
# Stress axis : x y z
#
# Youngs Moduli (GPa) = 77.85801 27.60071 55.64098
#
# Poissons Ratio (x) = 0.25103 -0.13641
# Poissons Ratio (y) = 0.70814 0.53712
# Poissons Ratio (z) = -0.19088 0.26644
#
# Static dielectric constant tensor:
#      x y z
#    x 1.667550 0.000000 0.007930 
#    y 0.000000 1.635820 0.000000 
#    z 0.007930 0.000000 1.628570 
# 
# From -- ./inp_files/338454.got.cif
#   From: 2010.05.17/outbox.cif.g08.bks.cpg/sg12_170_cif.got.tgz:338454.got - 2010.06.03 13:09:07.
