data_PCOD9203527
_publ_section_title
;
Structure prediction by ZEFSAII (Michael W. Deem and Ramdas Pophale) SiO2 
 PCOD9203527
Probable space group: C 2/M
;
_chemical_formula_sum "Si O2"
_cell_formula_units_Z 56
_cell_length_a 20.504892
_cell_length_b 8.661743
_cell_length_c 19.124161
_cell_angle_alpha 90.000000
_cell_angle_beta 60.016842
_cell_angle_gamma 90.000000
_cell_volume 2942.046160
_symmetry_space_group_name_H-M "C 2/M"
_symmetry_group_IT_number 12
_symmetry_cell_setting 'monoclinic'
loop_
_space_group_symop_operation_xyz
x,y,z
-x,y,-z
-x,-y,-z
x,-y,z
1/2+x,1/2+y,z
1/2-x,1/2+y,-z
1/2-x,1/2-y,-z
1/2+x,1/2-y,z
loop_
_atom_site_type_symbol
_atom_site_label
_atom_site_fract_x
_atom_site_fract_y
_atom_site_fract_z
Si Si1 0.116244 0.685039 0.241825
Si Si2 0.813612 0.815539 0.518131
Si Si3 0.831041 0.816534 0.935916
Si Si4 0.470975 0.813916 0.938085
Si Si5 0.393138 0.812473 0.233948
Si Si6 0.225356 0.186947 0.301837
Si Si7 0.556618 0.813646 0.639555
O O1 0.116837 0.500000 0.235062
O O2 0.141194 0.753969 0.154132
O O3 0.172638 0.739451 0.271889
O O4 0.030810 0.731264 0.307843
O O5 0.750000 0.750000 0.500000
O O6 0.798556 0.769816 0.606437
O O7 0.894714 0.758733 0.448233
O O8 0.809183 0.000000 0.517316
O O9 0.892874 0.762969 0.959161
O O10 0.826816 0.000000 0.935349
O O11 0.750000 0.750000 0.000000
O O12 0.535616 0.762381 0.849402
O O13 0.462321 0.000000 0.936675
O O14 0.500000 0.779655 0.000000
O O15 0.312578 0.764618 0.247298
O O16 0.404052 0.766556 0.308473
O O17 0.393540 0.000000 0.233013
O O18 0.221340 0.000000 0.298216
O O19 0.560411 0.000000 0.632155
#
# Coordination Sequence:
#
# PCOD9203527 Si02
#       7
#     8   8   8   8   8   8   8
#     4  11  24  43  65  91 124 163 205 256 313 375
#     4  11  22  37  60  90 124 161 208 259 309 366
#     4  12  26  44  66  92 127 168 210 258 312 370
#     4  10  21  39  66  97 127 163 205 251 311 376
#     4   9  17  36  61  86 121 162 202 246 304 368
#     4  10  22  39  60  89 124 165 206 252 308 370
#     4  10  20  39  64  86 120 163 205 252 309 370
#
# _framework density 19.034372000000001
#
# number of rings (size 3 to 8) (size 9 to 14) (size 15 to 20)
#    0.000    1.571    2.857    2.143    2.000    3.143 
#    0.000    3.571    0.000    0.000    0.000    0.000 
#    0.000    0.000    0.000    0.000    0.000    0.000 
#
# Total GULP energy -156471.230233 kJ/mol
# GULP energy per Si atom -5588.258223 kJ/mol
# Density = 1.899105 g / cm^3
# Si number density = 19.034372 Si / 1000 Ang^3
#
#
#
# Elastic Constant Matrix: (Units=GPa)
#
#
# Indices 1 2 3 4 5 6 
#
# 1 164.8129 49.8713 54.7276 0.0000 -14.9436 0.0000
# 2 49.8713 50.6282 39.1694 -0.0001 -2.3215 0.0002
# 3 54.7276 39.1694 89.7368 0.0000 -19.1203 0.0000
# 4 0.0000 -0.0001 0.0000 28.6794 0.0000 0.0877
# 5 -14.9436 -2.3215 -19.1203 0.0000 37.2380 0.0000
# 6 0.0000 0.0002 0.0000 0.0877 0.0000 34.0885
#
#
#
# Elastic Compliance Matrix: (Units=1/GPa)
#
#
# Indices 1 2 3 4 5 6 
#
# 1 0.009147 -0.007495 -0.001824 0.000000 0.002267 0.000000
# 2 -0.007495 0.036971 -0.013156 0.000000 -0.007458 0.000000
# 3 -0.001824 -0.013156 0.019838 0.000000 0.008634 0.000000
# 4 0.000000 0.000000 0.000000 0.034868 0.000000 -0.000090
# 5 0.002267 -0.007458 0.008634 0.000000 0.031732 0.000000
# 6 0.000000 0.000000 0.000000 -0.000090 0.000000 0.029336
#
#
# Mechanical properties :
#
#
# Convention : Reuss Voigt Hill
#
# Bulk Modulus (GPa) = 47.60359 65.85714 56.73036
# Shear Modulus (GPa) = 23.38175 30.76184 27.07179
#
# Velocity S-wave (km/s) = 3.50865 4.02446 3.77538
# Velocity P-wave (km/s) = 6.44032 7.50128 6.99096
#
# Compressibility (1/GPa) = 0.02100682
#
# Stress axis : x y z
#
# Youngs Moduli (GPa) = 109.33143 27.04840 50.40862
#
# Poissons Ratio (x) = 0.20272 0.09193
# Poissons Ratio (y) = 0.81943 0.66315
# Poissons Ratio (z) = 0.19939 0.35584
#
# Static dielectric constant tensor:
#      x y z
#    x 1.639510 0.000000 -0.009670 
#    y 0.000000 1.648530 0.000000 
#    z -0.009670 0.000000 1.651500 
# 
# From -- ./inp_files/280955.got.cif
#   From: 2010.05.17/outbox.cif.g08.bks.cpg/sg12_141_cif.got.tgz:280955.got - 2010.06.03 13:09:07.
