data_PCOD9203255
_publ_section_title
;
Structure prediction by ZEFSAII (Michael W. Deem and Ramdas Pophale) SiO2 
 PCOD9203255
Probable space group: C 2/M
;
_chemical_formula_sum "Si O2"
_cell_formula_units_Z 42
_cell_length_a 7.662773
_cell_length_b 34.256800
_cell_length_c 9.178032
_cell_angle_alpha 90.000000
_cell_angle_beta 128.638966
_cell_angle_gamma 90.000000
_cell_volume 1881.857500
_symmetry_space_group_name_H-M "C 2/M"
_symmetry_group_IT_number 12
_symmetry_cell_setting 'monoclinic'
loop_
_space_group_symop_operation_xyz
x,y,z
-x,y,-z
-x,-y,-z
x,-y,z
1/2+x,1/2+y,z
1/2-x,1/2+y,-z
1/2-x,1/2-y,-z
1/2+x,1/2-y,z
loop_
_atom_site_type_symbol
_atom_site_label
_atom_site_fract_x
_atom_site_fract_y
_atom_site_fract_z
Si Si1 0.983795 0.288110 0.818858
Si Si2 0.500000 0.500000 0.500000
Si Si3 0.249618 0.792064 0.304827
Si Si4 0.802845 0.566369 0.500116
Si Si5 0.254881 0.130137 0.693241
Si Si6 0.496793 0.372275 0.825196
O O1 0.866622 0.248002 0.710510
O O2 0.851018 0.327376 0.711766
O O3 0.214872 0.290802 0.851973
O O4 0.000000 0.287443 0.000000
O O5 0.652269 0.534001 0.498108
O O6 0.500000 0.794290 0.500000
O O7 0.111525 0.830401 0.270877
O O8 0.880901 0.596385 0.669277
O O9 0.655456 0.593167 0.315947
O O10 0.000000 0.550979 0.500000
O O11 0.000000 0.128093 0.500000
O O12 0.226687 0.124986 0.852886
O O13 0.500000 0.374891 0.000000
#
# Coordination Sequence:
#
# PCOD9203255 Si02
#       6
#     8   2   8   8   8   8
#     4  12  23  36  54  85 122 169 220 272 322 368
#     4  12  22  48  74 104 128 164 216 260 320 392
#     4  12  23  37  56  84 124 174 223 266 318 374
#     4  11  23  43  72 100 128 169 214 259 322 393
#     4  10  20  39  60  87 125 166 215 263 318 379
#     4  11  21  39  63  94 131 169 213 271 326 376
#
# _framework density 22.318372
#
# number of rings (size 3 to 8) (size 9 to 14) (size 15 to 20)
#    0.000    0.762    2.857    8.857    0.000    0.000 
#    0.000    0.476    0.000    1.143    0.000    0.000 
#    0.000    0.000    0.000    0.000    0.000    0.000 
#
# Total GULP energy -117303.295913 kJ/mol
# GULP energy per Si atom -5585.871234 kJ/mol
# Density = 2.226757 g / cm^3
# Si number density = 22.318372 Si / 1000 Ang^3
#
#
#
# Elastic Constant Matrix: (Units=GPa)
#
#
# Indices 1 2 3 4 5 6 
#
# 1 177.9448 67.0656 26.5891 0.0000 -36.7125 0.0000
# 2 67.0656 178.1919 44.3417 0.0000 -13.3787 0.0000
# 3 26.5891 44.3417 84.4998 0.0000 -27.0228 0.0000
# 4 0.0000 0.0000 0.0000 -4.8895 0.0000 -14.5963
# 5 -36.7125 -13.3787 -27.0228 0.0000 30.2531 0.0000
# 6 0.0000 0.0000 0.0000 -14.5963 0.0000 13.9803
#
#
#
# Elastic Compliance Matrix: (Units=1/GPa)
#
#
# Indices 1 2 3 4 5 6 
#
# 1 0.008786 -0.003072 0.002551 0.000000 0.011582 0.000000
# 2 -0.003072 0.007530 -0.004357 0.000000 -0.004289 0.000000
# 3 0.002551 -0.004357 0.019167 0.000000 0.018290 0.000000
# 4 0.000000 0.000000 0.000000 -0.049680 0.000000 -0.051869
# 5 0.011582 -0.004289 0.018290 0.000000 0.061549 0.000000
# 6 0.000000 0.000000 0.000000 -0.051869 0.000000 0.017375
#
#
# Mechanical properties :
#
#
# Convention : Reuss Voigt Hill
#
# Bulk Modulus (GPa) = 38.86760 79.62547 59.24653
# Shear Modulus (GPa) = 60.19899 28.04480 44.12190
#
# Velocity S-wave (km/s) = 5.19917 3.54867 4.45109
# Velocity P-wave (km/s) = 7.31401 7.24881 7.28148
#
# Compressibility (1/GPa) = 0.02572837
#
# Stress axis : x y z
#
# Youngs Moduli (GPa) = 113.81920 132.79889 52.17409
#
# Poissons Ratio (x) = 0.40796 -0.13312
# Poissons Ratio (y) = 0.34965 0.22730
# Poissons Ratio (z) = -0.29040 0.57854
#
# Static dielectric constant tensor:
#      x y z
#    x 1.877880 0.000000 -0.028450 
#    y 0.000000 1.770860 0.000000 
#    z -0.028450 0.000000 1.954910 
# 
# From -- ./inp_files/42349.got.cif
#   From: 2010.05.17/outbox.cif.g08.bks.cpg/sg12_22_cif.got.tgz:42349.got - 2010.06.03 13:09:07.
