data_PCOD9203217
_publ_section_title
;
Structure prediction by ZEFSAII (Michael W. Deem and Ramdas Pophale) SiO2 
 PCOD9203217
Probable space group: C 2/M
;
_chemical_formula_sum "Si O2"
_cell_formula_units_Z 56
_cell_length_a 31.156329
_cell_length_b 9.032834
_cell_length_c 19.918591
_cell_angle_alpha 90.000000
_cell_angle_beta 143.890402
_cell_angle_gamma 90.000000
_cell_volume 3303.609660
_symmetry_space_group_name_H-M "C 2/M"
_symmetry_group_IT_number 12
_symmetry_cell_setting 'monoclinic'
loop_
_space_group_symop_operation_xyz
x,y,z
-x,y,-z
-x,-y,-z
x,-y,z
1/2+x,1/2+y,z
1/2-x,1/2+y,-z
1/2-x,1/2-y,-z
1/2+x,1/2-y,z
loop_
_atom_site_type_symbol
_atom_site_label
_atom_site_fract_x
_atom_site_fract_y
_atom_site_fract_z
Si Si1 0.818744 0.322954 0.622765
Si Si2 0.444051 0.822470 0.989685
Si Si3 0.854091 0.321683 0.403530
Si Si4 0.573921 0.830459 0.638141
Si Si5 0.507167 0.675683 0.349713
Si Si6 0.978288 0.676325 0.771335
Si Si7 0.690877 0.677100 0.244711
O O1 0.810291 0.500000 0.615962
O O2 0.750000 0.250000 0.500000
O O3 0.892972 0.292087 0.676332
O O4 0.824933 0.255643 0.704620
O O5 0.369122 0.737514 0.882501
O O6 0.432183 0.000000 0.971020
O O7 0.500000 0.784577 0.000000
O O8 0.479867 0.788476 0.106752
O O9 0.865281 0.500000 0.422356
O O10 0.866102 0.281318 0.340328
O O11 0.773349 0.287479 0.326666
O O12 0.916834 0.244442 0.526518
O O13 0.500000 0.831253 0.500000
O O14 0.555519 0.731428 0.678654
O O15 0.587995 0.000000 0.676825
O O16 0.511965 0.500000 0.356863
O O17 0.495209 0.736182 0.259951
O O18 0.985350 0.500000 0.768274
O O19 0.685277 0.500000 0.244608
#
# Coordination Sequence:
#
# PCOD9203217 Si02
#       7
#     8   8   8   8   8   8   8
#     4  11  22  36  52  75 106 140 175 213 258 312
#     4  10  20  39  59  75  97 136 184 222 259 309
#     4   9  19  35  53  76 108 144 176 204 253 322
#     4   8  15  31  53  73 101 142 177 204 248 317
#     4  11  21  31  50  82 112 134 169 220 265 304
#     4  10  21  37  55  71 100 142 178 211 255 315
#     4  11  22  35  54  80 107 136 172 219 265 307
#
# _framework density 16.951156000000001
#
# number of rings (size 3 to 8) (size 9 to 14) (size 15 to 20)
#    0.000    2.000    1.429    3.857    0.000    9.143 
#    0.000    0.000    0.000    0.857    0.000    0.000 
#    0.000    0.000    0.000    0.000    0.000    0.000 
#
# Total GULP energy -156280.738820 kJ/mol
# GULP energy per Si atom -5581.454958 kJ/mol
# Density = 1.691257 g / cm^3
# Si number density = 16.951156 Si / 1000 Ang^3
#
#
#
# Elastic Constant Matrix: (Units=GPa)
#
#
# Indices 1 2 3 4 5 6 
#
# 1 82.4843 35.1790 9.1419 0.0000 -29.0194 0.0000
# 2 35.1790 43.3788 23.3567 0.0000 -17.9827 0.0000
# 3 9.1419 23.3567 56.7935 0.0000 -20.1064 0.0000
# 4 0.0000 0.0000 0.0000 27.4434 0.0000 0.7287
# 5 -29.0194 -17.9827 -20.1064 0.0000 21.7293 0.0000
# 6 0.0000 0.0000 0.0000 0.7287 0.0000 20.0790
#
#
#
# Elastic Compliance Matrix: (Units=1/GPa)
#
#
# Indices 1 2 3 4 5 6 
#
# 1 0.035648 -0.018634 0.019809 0.000000 0.050516 0.000000
# 2 -0.018634 0.046350 -0.016794 0.000000 -0.002067 0.000000
# 3 0.019809 -0.016794 0.038326 0.000000 0.048020 0.000000
# 4 0.000000 0.000000 0.000000 0.036474 0.000000 -0.001324
# 5 0.050516 -0.002067 0.048020 0.000000 0.156208 0.000000
# 6 0.000000 0.000000 0.000000 -0.001324 0.000000 0.049851
#
#
# Mechanical properties :
#
#
# Convention : Reuss Voigt Hill
#
# Bulk Modulus (GPa) = 11.22506 35.33464 23.27985
# Shear Modulus (GPa) = 11.79831 21.51561 16.65696
#
# Velocity S-wave (km/s) = 2.64108 3.56655 3.13812
# Velocity P-wave (km/s) = 3.99209 6.15228 5.18591
#
# Compressibility (1/GPa) = 0.08908641
#
# Stress axis : x y z
#
# Youngs Moduli (GPa) = 28.05228 21.57502 26.09191
#
# Poissons Ratio (x) = 0.40203 -0.51686
# Poissons Ratio (y) = 0.52272 0.43819
# Poissons Ratio (z) = -0.55569 0.36233
#
# Static dielectric constant tensor:
#      x y z
#    x 1.585110 0.000000 -0.009230 
#    y 0.000000 1.561700 0.000000 
#    z -0.009230 0.000000 1.556850 
# 
# From -- ./inp_files/281684.got.cif
#   From: 2010.05.17/outbox.cif.g08.bks.cpg/sg12_141_cif.got.tgz:281684.got - 2010.06.03 13:09:07.
