data_PCOD9203253
_publ_section_title
;
Structure prediction by ZEFSAII (Michael W. Deem and Ramdas Pophale) SiO2 
 PCOD9203253
Probable space group: C 2/M
;
_chemical_formula_sum "Si O2"
_cell_formula_units_Z 48
_cell_length_a 10.482186
_cell_length_b 19.014383
_cell_length_c 15.279536
_cell_angle_alpha 90.000000
_cell_angle_beta 118.555179
_cell_angle_gamma 90.000000
_cell_volume 2674.948459
_symmetry_space_group_name_H-M "C 2/M"
_symmetry_group_IT_number 12
_symmetry_cell_setting 'monoclinic'
loop_
_space_group_symop_operation_xyz
x,y,z
-x,y,-z
-x,-y,-z
x,-y,z
1/2+x,1/2+y,z
1/2-x,1/2+y,-z
1/2-x,1/2-y,-z
1/2+x,1/2-y,z
loop_
_atom_site_type_symbol
_atom_site_label
_atom_site_fract_x
_atom_site_fract_y
_atom_site_fract_z
Si Si1 0.876129 0.349121 0.779027
Si Si2 0.921948 0.759092 0.066328
Si Si3 0.837829 0.500000 0.699960
Si Si4 0.889840 0.269799 0.603597
Si Si5 0.500000 0.124607 0.500000
Si Si6 0.018863 0.000000 0.675275
Si Si7 0.935709 0.151505 0.239509
Si Si8 0.302032 0.000000 0.484481
O O1 0.901059 0.430040 0.763717
O O2 0.844775 0.309929 0.677125
O O3 0.733920 0.342051 0.792031
O O4 0.009342 0.311530 0.869842
O O5 0.957485 0.818781 0.149666
O O6 0.750000 0.750000 0.000000
O O7 0.000000 0.772978 0.000000
O O8 0.664787 0.500000 0.664604
O O9 0.858598 0.500000 0.602668
O O10 0.750000 0.250000 0.500000
O O11 0.987773 0.323522 0.578860
O O12 0.975999 0.200833 0.663588
O O13 0.364700 0.070363 0.459199
O O14 0.021603 0.929121 0.732892
O O15 0.870800 0.000000 0.572346
#
# Coordination Sequence:
#
# PCOD9203253 Si02
#       8
#     8   8   4   8   4   4   8   4
#     4  10  21  38  61  89 118 158 205 255 298 376
#     4  11  22  43  69  92 121 153 202 262 329 373
#     4  10  20  39  60  86 124 165 208 250 296 361
#     4  11  21  35  56  86 126 161 209 251 301 359
#     4  11  22  34  54  83 122 168 208 255 294 358
#     4  10  22  39  60  85 125 166 208 245 303 369
#     4  10  22  38  62  91 119 159 206 255 308 367
#     4  11  21  38  54  84 130 175 205 246 302 364
#
# _framework density 17.944271000000001
#
# number of rings (size 3 to 8) (size 9 to 14) (size 15 to 20)
#    0.000    1.500    3.333    2.250    0.000    1.333 
#    0.000    1.667    0.000    0.000    0.000    0.000 
#    0.000    0.000    0.000    0.000    0.000    0.000 
#
# Total GULP energy -134010.792632 kJ/mol
# GULP energy per Si atom -5583.783026 kJ/mol
# Density = 1.790343 g / cm^3
# Si number density = 17.944271 Si / 1000 Ang^3
#
#
#
# Elastic Constant Matrix: (Units=GPa)
#
#
# Indices 1 2 3 4 5 6 
#
# 1 75.6242 50.8236 54.9077 0.0000 -10.8328 0.0000
# 2 50.8236 160.8746 62.8554 0.0000 -1.2781 0.0000
# 3 54.9077 62.8554 113.7934 0.0000 -4.5175 0.0000
# 4 0.0000 0.0000 0.0000 10.5666 0.0000 -0.8352
# 5 -10.8328 -1.2781 -4.5175 0.0000 35.8808 0.0000
# 6 0.0000 0.0000 0.0000 -0.8352 0.0000 25.7373
#
#
#
# Elastic Compliance Matrix: (Units=1/GPa)
#
#
# Indices 1 2 3 4 5 6 
#
# 1 0.022933 -0.003780 -0.008752 0.000000 0.005687 0.000000
# 2 -0.003780 0.008553 -0.002948 0.000000 -0.001208 0.000000
# 3 -0.008752 -0.002948 0.014603 0.000000 -0.000909 0.000000
# 4 0.000000 0.000000 0.000000 0.094881 0.000000 0.003079
# 5 0.005687 -0.001208 -0.000909 0.000000 0.029430 0.000000
# 6 0.000000 0.000000 0.000000 0.003079 0.000000 0.038954
#
#
# Mechanical properties :
#
#
# Convention : Reuss Voigt Hill
#
# Bulk Modulus (GPa) = 66.10105 76.38505 71.24305
# Shear Modulus (GPa) = 20.37857 26.55064 23.46461
#
# Velocity S-wave (km/s) = 3.37361 3.85075 3.62005
# Velocity P-wave (km/s) = 7.21747 7.90135 7.56714
#
# Compressibility (1/GPa) = 0.01512835
#
# Stress axis : x y z
#
# Youngs Moduli (GPa) = 43.60573 116.92453 68.47933
#
# Poissons Ratio (x) = 0.44202 0.59930
# Poissons Ratio (y) = 0.16485 0.20187
# Poissons Ratio (z) = 0.38162 0.34469
#
# Static dielectric constant tensor:
#      x y z
#    x 1.622840 0.000000 -0.003970 
#    y 0.000000 1.608300 0.000000 
#    z -0.003970 0.000000 1.587390 
# 
# From -- ./inp_files/197241.got.cif
#   From: 2010.05.17/outbox.cif.g08.bks.cpg/sg12_99_cif.got.tgz:197241.got - 2010.06.03 13:09:07.
