data_PCOD9203150
_publ_section_title
;
Structure prediction by ZEFSAII (Michael W. Deem and Ramdas Pophale) SiO2 
 PCOD9203150
Probable space group: C 2/M
;
_chemical_formula_sum "Si O2"
_cell_formula_units_Z 56
_cell_length_a 7.992770
_cell_length_b 26.231501
_cell_length_c 16.090868
_cell_angle_alpha 90.000000
_cell_angle_beta 49.410957
_cell_angle_gamma 90.000000
_cell_volume 2561.934897
_symmetry_space_group_name_H-M "C 2/M"
_symmetry_group_IT_number 12
_symmetry_cell_setting 'monoclinic'
loop_
_space_group_symop_operation_xyz
x,y,z
-x,y,-z
-x,-y,-z
x,-y,z
1/2+x,1/2+y,z
1/2-x,1/2+y,-z
1/2-x,1/2-y,-z
1/2+x,1/2-y,z
loop_
_atom_site_type_symbol
_atom_site_label
_atom_site_fract_x
_atom_site_fract_y
_atom_site_fract_z
Si Si1 0.991548 0.175372 0.727882
Si Si2 0.746948 0.156951 0.080645
Si Si3 0.131089 0.285726 0.273630
Si Si4 0.681393 0.442630 0.837405
Si Si5 0.232723 0.395702 0.923108
Si Si6 0.714475 0.660257 0.483466
Si Si7 0.447035 0.942373 0.419574
O O1 0.864027 0.225396 0.738306
O O2 0.827039 0.130872 0.809861
O O3 0.153201 0.190717 0.751940
O O4 0.148942 0.160796 0.600912
O O5 0.612327 0.191190 0.187305
O O6 0.744515 0.100453 0.122135
O O7 0.688322 0.149885 0.004054
O O8 0.000000 0.175294 0.000000
O O9 0.917504 0.302985 0.395137
O O10 0.702022 0.500000 0.862915
O O11 0.831863 0.438254 0.706648
O O12 0.432615 0.429477 0.892416
O O13 0.000000 0.423929 0.000000
O O14 0.500000 0.674763 0.500000
O O15 0.790328 0.602658 0.439549
O O16 0.500000 0.935492 0.500000
O O17 0.359697 0.000000 0.436829
#
# Coordination Sequence:
#
# PCOD9203150 Si02
#       7
#     8   8   8   8   8   8   8
#     4  12  26  43  66  94 126 174 220 266 329 387
#     4  10  21  42  64  92 126 167 215 264 318 380
#     4  12  24  44  66  93 125 170 219 271 320 390
#     4  10  20  41  69  95 125 173 220 262 322 392
#     4  11  25  40  62  94 135 168 209 270 321 382
#     4  12  25  42  66  95 135 167 213 275 327 386
#     4  10  20  38  68  98 129 172 216 263 330 396
#
# _framework density 21.85848
#
# number of rings (size 3 to 8) (size 9 to 14) (size 15 to 20)
#    0.000    1.000    4.286    3.429    4.000    4.286 
#    0.000    0.000    0.000    0.000    0.000    0.000 
#    0.000    0.000    0.000    0.000    0.000    0.000 
#
# Total GULP energy -156571.968348 kJ/mol
# GULP energy per Si atom -5591.856012 kJ/mol
# Density = 2.180873 g / cm^3
# Si number density = 21.858480 Si / 1000 Ang^3
#
#
#
# Elastic Constant Matrix: (Units=GPa)
#
#
# Indices 1 2 3 4 5 6 
#
# 1 44.6677 -6.8390 8.8795 0.0000 -6.4717 0.0000
# 2 -6.8390 70.8860 14.0039 0.0000 -7.0810 0.0000
# 3 8.8795 14.0039 132.8397 0.0000 14.5925 0.0000
# 4 0.0000 0.0000 0.0000 -8.9901 0.0000 -3.3502
# 5 -6.4717 -7.0810 14.5925 0.0000 31.7666 0.0000
# 6 0.0000 0.0000 0.0000 -3.3502 0.0000 21.4716
#
#
#
# Elastic Compliance Matrix: (Units=1/GPa)
#
#
# Indices 1 2 3 4 5 6 
#
# 1 0.024527 0.003628 -0.002801 0.000000 0.007092 0.000000
# 2 0.003628 0.015474 -0.002458 0.000000 0.005317 0.000000
# 3 -0.002801 -0.002458 0.008527 0.000000 -0.005036 0.000000
# 4 0.000000 0.000000 0.000000 -0.105121 0.000000 -0.016402
# 5 0.007092 0.005317 -0.005036 0.000000 0.036423 0.000000
# 6 0.000000 0.000000 0.000000 -0.016402 0.000000 0.044014
#
#
# Mechanical properties :
#
#
# Convention : Reuss Voigt Hill
#
# Bulk Modulus (GPa) = 22.09099 31.16468 26.62783
# Shear Modulus (GPa) = 118.49586 24.33956 71.41771
#
# Velocity S-wave (km/s) = 7.37076 3.34054 5.72221
# Velocity P-wave (km/s) = 9.08658 5.40069 7.47440
#
# Compressibility (1/GPa) = 0.04526732
#
# Stress axis : x y z
#
# Youngs Moduli (GPa) = 40.77059 64.62467 117.26915
#
# Poissons Ratio (x) = -0.23447 0.32848
# Poissons Ratio (y) = -0.14793 0.28824
# Poissons Ratio (z) = 0.11420 0.15884
#
# Static dielectric constant tensor:
#      x y z
#    x 1.837360 0.000000 0.000760 
#    y 0.000000 1.791570 0.000000 
#    z 0.000760 0.000000 1.805680 
# 
# From -- ./inp_files/259800.got.cif
#   From: 2010.05.17/outbox.cif.g08.bks.cpg/sg12_130_cif.got.tgz:259800.got - 2010.06.03 13:09:07.
