data_PCOD9203146
_publ_section_title
;
Structure prediction by ZEFSAII (Michael W. Deem and Ramdas Pophale) SiO2 
 PCOD9203146
Probable space group: C 2/M
;
_chemical_formula_sum "Si O2"
_cell_formula_units_Z 48
_cell_length_a 11.172042
_cell_length_b 21.766203
_cell_length_c 11.270316
_cell_angle_alpha 90.000000
_cell_angle_beta 51.398702
_cell_angle_gamma 90.000000
_cell_volume 2141.824257
_symmetry_space_group_name_H-M "C 2/M"
_symmetry_group_IT_number 12
_symmetry_cell_setting 'monoclinic'
loop_
_space_group_symop_operation_xyz
x,y,z
-x,y,-z
-x,-y,-z
x,-y,z
1/2+x,1/2+y,z
1/2-x,1/2+y,-z
1/2-x,1/2-y,-z
1/2+x,1/2-y,z
loop_
_atom_site_type_symbol
_atom_site_label
_atom_site_fract_x
_atom_site_fract_y
_atom_site_fract_z
Si Si1 0.125656 0.351479 0.633901
Si Si2 0.162888 0.766863 0.351647
Si Si3 0.597128 0.368340 0.188878
Si Si4 0.231304 0.342048 0.154788
Si Si5 0.267795 0.426207 0.341872
Si Si6 0.143656 0.430124 0.846666
O O1 0.238083 0.296461 0.603633
O O2 0.151783 0.385465 0.493180
O O3 0.172891 0.401403 0.702366
O O4 0.948491 0.335170 0.764802
O O5 0.116533 0.817497 0.280599
O O6 0.260152 0.714085 0.227218
O O7 0.000000 0.742402 0.500000
O O8 0.432153 0.399072 0.280203
O O9 0.714225 0.421466 0.155479
O O10 0.659283 0.341632 0.026284
O O11 0.248811 0.405255 0.217197
O O12 0.254071 0.500000 0.365299
O O13 0.105075 0.500000 0.849390
O O14 0.000000 0.398341 0.000000
#
# Coordination Sequence:
#
# PCOD9203146 Si02
#       6
#     8   8   8   8   8   8
#     4  11  24  45  69 102 135 177 235 285 339 406
#     4  11  24  45  75  99 134 180 232 291 343 397
#     4  11  24  46  66 103 137 180 230 281 340 410
#     4  12  27  44  69 101 140 184 226 280 345 416
#     4  12  27  46  70 102 143 186 226 278 345 419
#     4  10  20  38  68  97 129 175 226 285 335 390
#
# _framework density 22.410803000000001
#
# number of rings (size 3 to 8) (size 9 to 14) (size 15 to 20)
#    0.000    0.833    3.333    3.500    2.333    5.333 
#    3.000    2.500    0.000    0.000    0.000    0.000 
#    0.000    0.000    0.000    0.000    0.000    0.000 
#
# Total GULP energy -134180.441058 kJ/mol
# GULP energy per Si atom -5590.851711 kJ/mol
# Density = 2.235979 g / cm^3
# Si number density = 22.410803 Si / 1000 Ang^3
#
#
#
# Elastic Constant Matrix: (Units=GPa)
#
#
# Indices 1 2 3 4 5 6 
#
# 1 71.9286 23.2579 7.6560 0.0000 -4.6688 0.0000
# 2 23.2579 104.7848 27.2486 0.0000 15.5068 0.0000
# 3 7.6560 27.2486 86.3291 0.0000 13.9434 0.0000
# 4 0.0000 0.0000 0.0000 22.8503 0.0000 0.1808
# 5 -4.6688 15.5068 13.9434 0.0000 39.5072 0.0000
# 6 0.0000 0.0000 0.0000 0.1808 0.0000 15.7898
#
#
#
# Elastic Compliance Matrix: (Units=1/GPa)
#
#
# Indices 1 2 3 4 5 6 
#
# 1 0.015429 -0.003755 -0.000759 0.000000 0.003565 0.000000
# 2 -0.003755 0.011681 -0.002695 0.000000 -0.004077 0.000000
# 3 -0.000759 -0.002695 0.013092 0.000000 -0.003652 0.000000
# 4 0.000000 0.000000 0.000000 0.043767 0.000000 -0.000501
# 5 0.003565 -0.004077 -0.003652 0.000000 0.028622 0.000000
# 6 0.000000 0.000000 0.000000 -0.000501 0.000000 0.063338
#
#
# Mechanical properties :
#
#
# Convention : Reuss Voigt Hill
#
# Bulk Modulus (GPa) = 38.78490 42.15193 40.46841
# Shear Modulus (GPa) = 25.13298 29.28812 27.21055
#
# Velocity S-wave (km/s) = 3.35246 3.61899 3.48828
# Velocity P-wave (km/s) = 5.68588 6.02598 5.85840
#
# Compressibility (1/GPa) = 0.02578323
#
# Stress axis : x y z
#
# Youngs Moduli (GPa) = 64.81319 85.60840 76.38522
#
# Poissons Ratio (x) = 0.32144 0.05797
# Poissons Ratio (y) = 0.24336 0.20589
# Poissons Ratio (z) = 0.04919 0.23075
#
# Static dielectric constant tensor:
#      x y z
#    x 1.825600 0.000000 -0.004510 
#    y 0.000000 1.818380 0.000000 
#    z -0.004510 0.000000 1.878870 
# 
# From -- ./inp_files/133731.got.cif
#   From: 2010.05.17/outbox.cif.g08.bks.cpg/sg12_67_cif.got.tgz:133731.got - 2010.06.03 13:09:07.
