data_PCOD9203952
_publ_section_title
;
Structure prediction by ZEFSAII (Michael W. Deem and Ramdas Pophale) SiO2 
 PCOD9203952
Probable space group: C 2/M
;
_chemical_formula_sum "Si O2"
_cell_formula_units_Z 48
_cell_length_a 19.414026
_cell_length_b 8.657322
_cell_length_c 14.796522
_cell_angle_alpha 90.000000
_cell_angle_beta 81.782944
_cell_angle_gamma 90.000000
_cell_volume 2461.371642
_symmetry_space_group_name_H-M "C 2/M"
_symmetry_group_IT_number 12
_symmetry_cell_setting 'monoclinic'
loop_
_space_group_symop_operation_xyz
x,y,z
-x,y,-z
-x,-y,-z
x,-y,z
1/2+x,1/2+y,z
1/2-x,1/2+y,-z
1/2-x,1/2-y,-z
1/2+x,1/2-y,z
loop_
_atom_site_type_symbol
_atom_site_label
_atom_site_fract_x
_atom_site_fract_y
_atom_site_fract_z
Si Si1 0.821312 0.814840 0.250646
Si Si2 0.440006 0.185983 0.583409
Si Si3 0.785510 0.184250 0.584325
Si Si4 0.684355 0.687036 0.959310
Si Si5 0.045717 0.824007 0.081023
Si Si6 0.529502 0.182234 0.738341
O O1 0.759730 0.743504 0.321983
O O2 0.818939 0.764655 0.145400
O O3 0.896047 0.765995 0.277185
O O4 0.815509 0.000000 0.254098
O O5 0.500000 0.224279 0.500000
O O6 0.365472 0.260906 0.577951
O O7 0.474622 0.231284 0.672078
O O8 0.430116 0.000000 0.583988
O O9 0.750000 0.250000 0.500000
O O10 0.783075 0.000000 0.581561
O O11 0.683401 0.500000 0.958776
O O12 0.750000 0.750000 0.000000
O O13 0.618617 0.737786 0.031250
O O14 0.007004 0.720200 0.160422
O O15 0.053245 0.000000 0.116026
O O16 0.000000 0.834970 0.000000
O O17 0.542243 0.000000 0.724618
#
# Coordination Sequence:
#
# PCOD9203952 Si02
#       6
#     8   8   8   8   8   8
#     4  11  23  43  66  91 127 169 211 260 316 373
#     4  10  23  44  67  93 128 164 203 256 312 370
#     4  12  26  44  68  97 128 165 207 254 311 375
#     4  10  23  40  61  88 124 168 211 261 315 370
#     4  10  20  40  62  85 121 169 214 256 313 371
#     4  11  23  38  63  97 127 163 211 263 315 370
#
# _framework density 19.501321000000001
#
# number of rings (size 3 to 8) (size 9 to 14) (size 15 to 20)
#    0.000    1.333    1.667    3.500    2.333    5.333 
#    0.000    0.000    0.000    0.000    0.000    0.000 
#    0.000    0.000    0.000    0.000    0.000    0.000 
#
# Total GULP energy -134112.185230 kJ/mol
# GULP energy per Si atom -5588.007718 kJ/mol
# Density = 1.945693 g / cm^3
# Si number density = 19.501321 Si / 1000 Ang^3
#
#
#
# Elastic Constant Matrix: (Units=GPa)
#
#
# Indices 1 2 3 4 5 6 
#
# 1 184.7033 48.9463 53.9019 0.0000 -4.5213 0.0000
# 2 48.9463 64.2606 34.0206 0.0000 0.5212 0.0000
# 3 53.9019 34.0206 84.3733 0.0000 1.8153 0.0000
# 4 0.0000 0.0000 0.0000 12.2638 0.0000 11.1454
# 5 -4.5213 0.5212 1.8153 0.0000 36.5460 0.0000
# 6 0.0000 0.0000 0.0000 11.1454 0.0000 26.9457
#
#
#
# Elastic Compliance Matrix: (Units=1/GPa)
#
#
# Indices 1 2 3 4 5 6 
#
# 1 0.007420 -0.003990 -0.003156 0.000000 0.001132 0.000000
# 2 -0.003990 0.021931 -0.006283 0.000000 -0.000494 0.000000
# 3 -0.003156 -0.006283 0.016426 0.000000 -0.001117 0.000000
# 4 0.000000 0.000000 0.000000 0.130655 0.000000 -0.054042
# 5 0.001132 -0.000494 -0.001117 0.000000 0.027565 0.000000
# 6 0.000000 0.000000 0.000000 -0.054042 0.000000 0.059465
#
#
# Mechanical properties :
#
#
# Convention : Reuss Voigt Hill
#
# Bulk Modulus (GPa) = 52.85790 67.45276 60.15533
# Shear Modulus (GPa) = 16.85620 28.24899 22.55259
#
# Velocity S-wave (km/s) = 2.94319 3.81013 3.40437
# Velocity P-wave (km/s) = 6.22201 7.34984 6.80931
#
# Compressibility (1/GPa) = 0.01891865
#
# Stress axis : x y z
#
# Youngs Moduli (GPa) = 134.76794 45.59664 60.88028
#
# Poissons Ratio (x) = 0.18194 0.19212
# Poissons Ratio (y) = 0.53776 0.38253
# Poissons Ratio (z) = 0.42530 0.28650
#
# Static dielectric constant tensor:
#      x y z
#    x 1.565790 0.000000 -0.029820 
#    y 0.000000 1.681240 0.000000 
#    z -0.029820 0.000000 1.656890 
# 
# From -- ./inp_files/221704.got.cif
#   From: 2010.05.17/outbox.cif.g08.bks.cpg/sg12_111_cif.got.tgz:221704.got - 2010.06.03 13:09:07.
