data_PCOD9203878
_publ_section_title
;
Structure prediction by ZEFSAII (Michael W. Deem and Ramdas Pophale) SiO2 
 PCOD9203878
Probable space group: C 2/M
;
_chemical_formula_sum "Si O2"
_cell_formula_units_Z 56
_cell_length_a 11.256854
_cell_length_b 18.317580
_cell_length_c 16.095916
_cell_angle_alpha 90.000000
_cell_angle_beta 121.363451
_cell_angle_gamma 90.000000
_cell_volume 2833.995669
_symmetry_space_group_name_H-M "C 2/M"
_symmetry_group_IT_number 12
_symmetry_cell_setting 'monoclinic'
loop_
_space_group_symop_operation_xyz
x,y,z
-x,y,-z
-x,-y,-z
x,-y,z
1/2+x,1/2+y,z
1/2-x,1/2+y,-z
1/2-x,1/2-y,-z
1/2+x,1/2-y,z
loop_
_atom_site_type_symbol
_atom_site_label
_atom_site_fract_x
_atom_site_fract_y
_atom_site_fract_z
Si Si1 0.567229 0.413153 0.935200
Si Si2 0.671549 0.349621 0.256767
Si Si3 0.738780 0.693738 0.756310
Si Si4 0.801245 0.346395 0.601265
Si Si5 0.814608 0.500000 0.343382
Si Si6 0.422757 0.705166 0.600528
Si Si7 0.332937 0.914705 0.933766
Si Si8 0.146100 0.500000 0.454089
O O1 0.541034 0.500000 0.915009
O O2 0.480339 0.368911 0.834716
O O3 0.732652 0.402993 0.978199
O O4 0.500000 0.393275 0.000000
O O5 0.732100 0.280573 0.228239
O O6 0.756242 0.425326 0.282923
O O7 0.662984 0.324238 0.350127
O O8 0.820713 0.665823 0.705338
O O9 0.578558 0.682003 0.673995
O O10 0.781487 0.644938 0.849212
O O11 0.653053 0.320497 0.510222
O O12 0.910932 0.292885 0.596662
O O13 0.814768 0.428667 0.581122
O O14 0.780410 0.500000 0.429302
O O15 0.980171 0.500000 0.401381
O O16 0.307732 0.000000 0.899481
O O17 0.500000 0.906814 0.000000
#
# Coordination Sequence:
#
# PCOD9203878 Si02
#       8
#     8   8   8   8   4   8   8   4
#     4  10  21  42  69  96 124 160 212 267 321 383
#     4  11  21  39  63  92 122 161 211 258 319 383
#     4  11  23  39  64  91 126 170 208 262 321 386
#     4  10  22  37  59  91 128 163 215 257 311 379
#     4  11  22  38  62  88 123 168 210 263 325 368
#     4  10  20  40  59  86 128 171 204 257 313 379
#     4  10  23  46  69  94 131 173 213 267 333 388
#     4  11  22  38  56  87 126 166 213 266 309 378
#
# _framework density 19.760085
#
# number of rings (size 3 to 8) (size 9 to 14) (size 15 to 20)
#    0.000    1.571    3.571    1.286    1.000    0.571 
#    9.000    2.143    0.000    0.000    0.000    0.000 
#    0.000    0.000    0.000    0.000    0.000    0.000 
#
# Total GULP energy -156149.504726 kJ/mol
# GULP energy per Si atom -5576.768026 kJ/mol
# Density = 1.971511 g / cm^3
# Si number density = 19.760085 Si / 1000 Ang^3
#
#
#
# Elastic Constant Matrix: (Units=GPa)
#
#
# Indices 1 2 3 4 5 6 
#
# 1 72.2036 27.0893 29.8631 0.0000 -0.3757 0.0000
# 2 27.0893 129.5238 34.1986 0.0000 -12.6954 0.0000
# 3 29.8631 34.1986 63.1914 0.0000 -1.7663 0.0000
# 4 0.0000 0.0000 0.0000 33.4676 0.0000 -0.1927
# 5 -0.3757 -12.6954 -1.7663 0.0000 27.9891 0.0000
# 6 0.0000 0.0000 0.0000 -0.1927 0.0000 11.3830
#
#
#
# Elastic Compliance Matrix: (Units=1/GPa)
#
#
# Indices 1 2 3 4 5 6 
#
# 1 0.017569 -0.001842 -0.007336 0.000000 -0.001062 0.000000
# 2 -0.001842 0.009620 -0.004222 0.000000 0.004072 0.000000
# 3 -0.007336 -0.004222 0.021558 0.000000 -0.000653 0.000000
# 4 0.000000 0.000000 0.000000 0.029883 0.000000 0.000506
# 5 -0.001062 0.004072 -0.000653 0.000000 0.037520 0.000000
# 6 0.000000 0.000000 0.000000 0.000506 0.000000 0.087859
#
#
# Mechanical properties :
#
#
# Convention : Reuss Voigt Hill
#
# Bulk Modulus (GPa) = 45.56170 49.69120 47.62645
# Shear Modulus (GPa) = 20.99750 26.15246 23.57498
#
# Velocity S-wave (km/s) = 3.26332 3.64194 3.45782
# Velocity P-wave (km/s) = 6.10791 6.54880 6.33219
#
# Compressibility (1/GPa) = 0.02194826
#
# Stress axis : x y z
#
# Youngs Moduli (GPa) = 56.91761 103.95408 46.38581
#
# Poissons Ratio (x) = 0.19146 0.34028
# Poissons Ratio (y) = 0.10483 0.19583
# Poissons Ratio (z) = 0.41754 0.43888
#
# Static dielectric constant tensor:
#      x y z
#    x 1.745140 0.000000 -0.013230 
#    y 0.000000 1.676480 0.000000 
#    z -0.013230 0.000000 1.673200 
# 
# From -- ./inp_files/206802.got.cif
#   From: 2010.05.17/outbox.cif.g08.bks.cpg/sg12_104_cif.got.tgz:206802.got - 2010.06.03 13:09:07.
