data_PCOD9203130
_publ_section_title
;
Structure prediction by ZEFSAII (Michael W. Deem and Ramdas Pophale) SiO2 
 PCOD9203130
Probable space group: C 2/M
;
_chemical_formula_sum "Si O2"
_cell_formula_units_Z 48
_cell_length_a 10.948129
_cell_length_b 27.062635
_cell_length_c 14.232810
_cell_angle_alpha 90.000000
_cell_angle_beta 146.116350
_cell_angle_gamma 90.000000
_cell_volume 2350.996178
_symmetry_space_group_name_H-M "C 2/M"
_symmetry_group_IT_number 12
_symmetry_cell_setting 'monoclinic'
loop_
_space_group_symop_operation_xyz
x,y,z
-x,y,-z
-x,-y,-z
x,-y,z
1/2+x,1/2+y,z
1/2-x,1/2+y,-z
1/2-x,1/2-y,-z
1/2+x,1/2-y,z
loop_
_atom_site_type_symbol
_atom_site_label
_atom_site_fract_x
_atom_site_fract_y
_atom_site_fract_z
Si Si1 0.774665 0.222099 0.414505
Si Si2 0.805068 0.556480 0.805894
Si Si3 0.454777 0.275532 0.078732
Si Si4 0.596487 0.888015 0.310838
Si Si5 0.853096 0.943358 0.631816
Si Si6 0.587655 0.606684 0.955562
O O1 0.750000 0.250000 0.500000
O O2 0.659598 0.259193 0.269735
O O3 0.643504 0.170470 0.342494
O O4 0.000000 0.210686 0.500000
O O5 0.863099 0.500000 0.815982
O O6 0.775318 0.588874 0.694942
O O7 0.576564 0.555850 0.713886
O O8 0.000000 0.574343 0.000000
O O9 0.431475 0.334227 0.065914
O O10 0.500000 0.259792 0.000000
O O11 0.250000 0.250000 0.000000
O O12 0.676987 0.912283 0.459554
O O13 0.347757 0.902166 0.124646
O O14 0.938088 0.918547 0.781537
O O15 0.780081 0.000000 0.598892
O O16 0.500000 0.590722 0.000000
#
# Coordination Sequence:
#
# PCOD9203130 Si02
#       6
#     8   8   8   8   8   8
#     4  12  26  43  68 101 136 175 224 278 332 398
#     4  10  20  38  67  99 132 168 211 271 337 394
#     4  11  23  44  68  95 133 178 221 274 333 394
#     4  12  24  43  69  98 134 174 218 276 334 398
#     4  11  24  43  68  99 133 172 221 276 335 400
#     4  11  26  46  67  95 133 178 226 272 332 397
#
# _framework density 20.416878000000001
#
# number of rings (size 3 to 8) (size 9 to 14) (size 15 to 20)
#    0.000    0.833    3.333    4.000    2.333    5.000 
#    0.000    0.833    0.000    0.000    0.000    0.000 
#    0.000    0.000    0.000    0.000    0.000    0.000 
#
# Total GULP energy -133980.325833 kJ/mol
# GULP energy per Si atom -5582.513576 kJ/mol
# Density = 2.037041 g / cm^3
# Si number density = 20.416878 Si / 1000 Ang^3
#
#
#
# Elastic Constant Matrix: (Units=GPa)
#
#
# Indices 1 2 3 4 5 6 
#
# 1 93.7392 32.0981 16.1013 0.0000 -39.6052 0.0000
# 2 32.0981 55.2561 25.1098 0.0000 -32.8118 0.0000
# 3 16.1013 25.1098 107.5157 0.0000 -39.7510 0.0000
# 4 0.0000 0.0000 0.0000 36.1835 0.0000 -7.9949
# 5 -39.6052 -32.8118 -39.7510 0.0000 45.8660 0.0000
# 6 0.0000 0.0000 0.0000 -7.9949 0.0000 21.9049
#
#
#
# Elastic Compliance Matrix: (Units=1/GPa)
#
#
# Indices 1 2 3 4 5 6 
#
# 1 0.018274 -0.001696 0.004481 0.000000 0.018450 0.000000
# 2 -0.001696 0.031771 0.001024 0.000000 0.022152 0.000000
# 3 0.004481 0.001024 0.014851 0.000000 0.017472 0.000000
# 4 0.000000 0.000000 0.000000 0.030061 0.000000 0.010972
# 5 0.018450 0.022152 0.017472 0.000000 0.068724 0.000000
# 6 0.000000 0.000000 0.000000 0.010972 0.000000 0.049656
#
#
# Mechanical properties :
#
#
# Convention : Reuss Voigt Hill
#
# Bulk Modulus (GPa) = 13.79042 44.79213 29.29128
# Shear Modulus (GPa) = 21.74940 33.00433 27.37686
#
# Velocity S-wave (km/s) = 3.26738 4.02496 3.66579
# Velocity P-wave (km/s) = 4.58295 6.60203 5.68288
#
# Compressibility (1/GPa) = 0.07251408
#
# Stress axis : x y z
#
# Youngs Moduli (GPa) = 54.72248 31.47477 67.33666
#
# Poissons Ratio (x) = 0.05337 -0.30171
# Poissons Ratio (y) = 0.09279 -0.06895
# Poissons Ratio (z) = -0.24519 -0.03223
#
# Static dielectric constant tensor:
#      x y z
#    x 2.160510 0.000000 0.075220 
#    y 0.000000 1.707390 0.000000 
#    z 0.075220 0.000000 1.764540 
# 
# From -- ./inp_files/209313.got.cif
#   From: 2010.05.17/outbox.cif.g08.bks.cpg/sg12_105_cif.got.tgz:209313.got - 2010.06.03 13:09:07.
