data_PCOD9203423
_publ_section_title
;
Structure prediction by ZEFSAII (Michael W. Deem and Ramdas Pophale) SiO2 
 PCOD9203423
Probable space group: C 2/M
;
_chemical_formula_sum "Si O2"
_cell_formula_units_Z 64
_cell_length_a 19.385699
_cell_length_b 8.132890
_cell_length_c 29.116244
_cell_angle_alpha 90.000000
_cell_angle_beta 34.764535
_cell_angle_gamma 90.000000
_cell_volume 2617.537270
_symmetry_space_group_name_H-M "C 2/M"
_symmetry_group_IT_number 12
_symmetry_cell_setting 'monoclinic'
loop_
_space_group_symop_operation_xyz
x,y,z
-x,y,-z
-x,-y,-z
x,-y,z
1/2+x,1/2+y,z
1/2-x,1/2+y,-z
1/2-x,1/2-y,-z
1/2+x,1/2-y,z
loop_
_atom_site_type_symbol
_atom_site_label
_atom_site_fract_x
_atom_site_fract_y
_atom_site_fract_z
Si Si1 0.054924 0.194654 0.372022
Si Si2 0.559228 0.186890 0.124926
Si Si3 0.288506 0.305976 0.288920
Si Si4 0.169357 0.312374 0.878535
Si Si5 0.340404 0.800260 0.545193
Si Si6 0.600485 0.302806 0.200447
Si Si7 0.430229 0.681843 0.976289
Si Si8 0.111398 0.801109 0.619760
O O1 0.970829 0.228242 0.462379
O O2 0.970105 0.261796 0.377394
O O3 0.186193 0.273107 0.306675
O O4 0.072125 0.000000 0.355911
O O5 0.415672 0.218314 0.210690
O O6 0.620451 0.225443 0.140036
O O7 0.603475 0.293097 0.057818
O O8 0.579054 0.000000 0.100867
O O9 0.315276 0.500000 0.277676
O O10 0.222092 0.254133 0.372596
O O11 0.168044 0.500000 0.862389
O O12 0.305098 0.251817 0.811843
O O13 0.075217 0.206952 0.901193
O O14 0.122076 0.306000 0.957463
O O15 0.246328 0.743141 0.556762
O O16 0.349817 0.000000 0.539612
O O17 0.611645 0.500000 0.190045
O O18 0.467220 0.266733 0.291686
O O19 0.397271 0.500000 0.010173
O O20 0.117796 0.000000 0.611457
#
# Coordination Sequence:
#
# PCOD9203423 Si02
#       8
#     8   8   8   8   8   8   8   8
#     4  11  23  36  58  90 122 154 200 254 303 357
#     4  12  25  41  63  91 123 158 204 258 307 359
#     4  11  23  41  62  85 117 160 204 248 306 370
#     4  10  21  39  67  98 128 162 203 252 303 354
#     4  10  20  39  63  81 113 160 204 245 299 366
#     4  10  21  41  65  89 122 164 203 246 306 367
#     4  11  23  41  65  92 129 168 204 246 298 362
#     4   9  19  38  60  85 118 159 199 243 300 362
#
# _framework density 24.450465000000001
#
# number of rings (size 3 to 8) (size 9 to 14) (size 15 to 20)
#    0.000    1.500    1.250    4.875    1.750    4.000 
#    0.000    1.875    0.000    0.000    0.000    0.000 
#    0.000    0.000    0.000    0.000    0.000    0.000 
#
# Total GULP energy -179091.042622 kJ/mol
# GULP energy per Si atom -5596.595082 kJ/mol
# Density = 2.439481 g / cm^3
# Si number density = 24.450465 Si / 1000 Ang^3
#
#
#
# Elastic Constant Matrix: (Units=GPa)
#
#
# Indices 1 2 3 4 5 6 
#
# 1 93.6842 -1.9410 -1.2673 -0.0032 2.2968 0.0084
# 2 -1.9410 40.8638 -3.1716 -0.0046 0.8434 0.0010
# 3 -1.2673 -3.1716 54.2871 -0.0001 -8.7192 0.0031
# 4 -0.0032 -0.0046 -0.0001 18.1125 0.0004 -5.0779
# 5 2.2968 0.8434 -8.7192 0.0004 44.4791 -0.0054
# 6 0.0084 0.0010 0.0031 -5.0779 -0.0054 24.2876
#
#
#
# Elastic Compliance Matrix: (Units=1/GPa)
#
#
# Indices 1 2 3 4 5 6 
#
# 1 0.010701 0.000534 0.000197 0.000001 -0.000524 -0.000004
# 2 0.000534 0.024611 0.001415 0.000006 -0.000217 0.000000
# 3 0.000197 0.001415 0.019103 0.000000 0.003708 -0.000002
# 4 0.000001 0.000006 0.000000 0.058648 0.000001 0.012262
# 5 -0.000524 -0.000217 0.003708 0.000001 0.023240 0.000005
# 6 -0.000004 0.000000 -0.000002 0.012262 0.000005 0.043737
#
#
# Mechanical properties :
#
#
# Convention : Reuss Voigt Hill
#
# Bulk Modulus (GPa) = 17.03322 19.56393 18.29858
# Shear Modulus (GPa) = 25.59941 30.39019 27.99480
#
# Velocity S-wave (km/s) = 3.23923 3.52934 3.38740
# Velocity P-wave (km/s) = 4.57949 4.96258 4.77488
#
# Compressibility (1/GPa) = 0.05870881
#
# Stress axis : x y z
#
# Youngs Moduli (GPa) = 93.45151 40.63185 52.34671
#
# Poissons Ratio (x) = -0.02171 -0.01030
# Poissons Ratio (y) = -0.04994 -0.07410
# Poissons Ratio (z) = -0.01840 -0.05751
#
# Static dielectric constant tensor:
#      x y z
#    x 1.985590 0.000000 0.001170 
#    y 0.000000 1.852160 0.000000 
#    z 0.001170 0.000000 1.972140 
# 
# From -- ./inp_files/378052.got.cif
#   From: 2010.05.17/outbox.cif.g08.bks.cpg/sg12_190_cif.got.tgz:378052.got - 2010.06.03 13:09:07.
