data_PCOD9203691
_publ_section_title
;
Structure prediction by ZEFSAII (Michael W. Deem and Ramdas Pophale) SiO2 
 PCOD9203691
Probable space group: C 2/M
;
_chemical_formula_sum "Si O2"
_cell_formula_units_Z 40
_cell_length_a 12.063072
_cell_length_b 16.105771
_cell_length_c 13.467942
_cell_angle_alpha 90.000000
_cell_angle_beta 135.928875
_cell_angle_gamma 90.000000
_cell_volume 1819.992217
_symmetry_space_group_name_H-M "C 2/M"
_symmetry_group_IT_number 12
_symmetry_cell_setting 'monoclinic'
loop_
_space_group_symop_operation_xyz
x,y,z
-x,y,-z
-x,-y,-z
x,-y,z
1/2+x,1/2+y,z
1/2-x,1/2+y,-z
1/2-x,1/2-y,-z
1/2+x,1/2-y,z
loop_
_atom_site_type_symbol
_atom_site_label
_atom_site_fract_x
_atom_site_fract_y
_atom_site_fract_z
Si Si1 0.821807 0.671511 0.857917
Si Si2 0.645038 0.633318 0.158606
Si Si3 0.985798 0.900704 0.265003
Si Si4 0.259711 0.600376 0.408289
Si Si5 0.502857 0.094702 0.610004
O O1 0.832369 0.770192 0.853150
O O2 0.684663 0.644369 0.846564
O O3 0.763951 0.635739 0.715616
O O4 0.000000 0.641200 0.000000
O O5 0.595108 0.621504 0.240960
O O6 0.813530 0.592642 0.242863
O O7 0.500000 0.600012 0.000000
O O8 0.082956 0.877883 0.427584
O O9 0.961885 0.000000 0.250363
O O10 0.257375 0.500000 0.398257
O O11 0.111442 0.630932 0.380505
O O12 0.500000 0.136946 0.500000
O O13 0.441655 0.000000 0.556531
#
# Coordination Sequence:
#
# PCOD9203691 Si02
#       5
#     8   8   8   8   8
#     4  11  27  43  63  94 133 170 214 263 320 380
#     4  11  26  42  64  94 136 169 209 265 324 379
#     4  11  24  45  69  95 128 169 218 265 318 385
#     4  10  22  42  67  93 127 167 213 268 319 378
#     4  10  20  39  65  95 127 162 213 268 317 377
#
# _framework density 21.978114999999999
#
# number of rings (size 3 to 8) (size 9 to 14) (size 15 to 20)
#    0.000    1.400    2.000    1.800    5.600    8.800 
#    0.000    0.000    0.000    0.000    0.000    0.000 
#    0.000    0.000    0.000    0.000    0.000    0.000 
#
# Total GULP energy -111823.656723 kJ/mol
# GULP energy per Si atom -5591.182836 kJ/mol
# Density = 2.192809 g / cm^3
# Si number density = 21.978115 Si / 1000 Ang^3
#
#
#
# Elastic Constant Matrix: (Units=GPa)
#
#
# Indices 1 2 3 4 5 6 
#
# 1 77.9532 9.5710 20.0756 0.0000 25.0959 0.0000
# 2 9.5710 51.4819 20.6995 0.0000 10.8439 0.0000
# 3 20.0756 20.6995 113.0613 0.0000 24.3842 0.0000
# 4 0.0000 0.0000 0.0000 38.7798 0.0000 0.9164
# 5 25.0959 10.8439 24.3842 0.0000 40.6103 0.0000
# 6 0.0000 0.0000 0.0000 0.9164 0.0000 49.0785
#
#
#
# Elastic Compliance Matrix: (Units=1/GPa)
#
#
# Indices 1 2 3 4 5 6 
#
# 1 0.016105 -0.000743 -0.000712 0.000000 -0.009327 0.000000
# 2 -0.000743 0.021521 -0.003065 0.000000 -0.003447 0.000000
# 3 -0.000712 -0.003065 0.010639 0.000000 -0.005129 0.000000
# 4 0.000000 0.000000 0.000000 0.025798 0.000000 -0.000482
# 5 -0.009327 -0.003447 -0.005129 0.000000 0.034388 0.000000
# 6 0.000000 0.000000 0.000000 -0.000482 0.000000 0.020385
#
#
# Mechanical properties :
#
#
# Convention : Reuss Voigt Hill
#
# Bulk Modulus (GPa) = 25.49429 38.13208 31.81318
# Shear Modulus (GPa) = 33.12343 38.50374 35.81359
#
# Velocity S-wave (km/s) = 3.88636 4.19013 4.04110
# Velocity P-wave (km/s) = 5.63591 6.38727 6.02332
#
# Compressibility (1/GPa) = 0.03922447
#
# Stress axis : x y z
#
# Youngs Moduli (GPa) = 62.09094 46.46670 93.99755
#
# Poissons Ratio (x) = 0.03454 0.06694
# Poissons Ratio (y) = 0.04615 0.28807
# Poissons Ratio (z) = 0.04422 0.14240
#
# Static dielectric constant tensor:
#      x y z
#    x 1.816500 0.000000 0.003900 
#    y 0.000000 1.803220 0.000000 
#    z 0.003900 0.000000 1.807870 
# 
# From -- ./inp_files/311239.got.cif
#   From: 2010.05.17/outbox.cif.g08.bks.cpg/sg12_156_cif.got.tgz:311239.got - 2010.06.03 13:09:07.
