data_PCOD9203166
_publ_section_title
;
Structure prediction by ZEFSAII (Michael W. Deem and Ramdas Pophale) SiO2 
 PCOD9203166
Probable space group: C 2/M
;
_chemical_formula_sum "Si O2"
_cell_formula_units_Z 46
_cell_length_a 15.830326
_cell_length_b 14.840190
_cell_length_c 11.173897
_cell_angle_alpha 90.000000
_cell_angle_beta 61.314450
_cell_angle_gamma 90.000000
_cell_volume 2302.851320
_symmetry_space_group_name_H-M "C 2/M"
_symmetry_group_IT_number 12
_symmetry_cell_setting 'monoclinic'
loop_
_space_group_symop_operation_xyz
x,y,z
-x,y,-z
-x,-y,-z
x,-y,z
1/2+x,1/2+y,z
1/2-x,1/2+y,-z
1/2-x,1/2-y,-z
1/2+x,1/2-y,z
loop_
_atom_site_type_symbol
_atom_site_label
_atom_site_fract_x
_atom_site_fract_y
_atom_site_fract_z
Si Si1 0.680565 0.336671 0.687142
Si Si2 0.770102 0.319279 0.879590
Si Si3 0.164025 0.638233 0.612273
Si Si4 0.312839 0.500000 0.955461
Si Si5 0.772143 0.000000 0.702296
Si Si6 0.466559 0.500000 0.236144
Si Si7 0.000000 0.000000 0.500000
Si Si8 0.038130 0.602964 0.344177
O O1 0.713775 0.303293 0.794470
O O2 0.771142 0.376926 0.550888
O O3 0.652821 0.245525 0.636461
O O4 0.597484 0.411626 0.748725
O O5 0.881391 0.332661 0.766243
O O6 0.750000 0.250000 0.000000
O O7 0.731482 0.413456 0.953247
O O8 0.218971 0.587083 0.681770
O O9 0.057328 0.600918 0.670574
O O10 0.278297 0.500000 0.840954
O O11 0.428231 0.500000 0.895119
O O12 0.881774 0.000000 0.585025
O O13 0.493477 0.500000 0.357665
O O14 0.075541 0.500000 0.332237
O O15 0.000000 0.634355 0.500000
#
# Coordination Sequence:
#
# PCOD9203166 Si02
#       8
#     8   8   8   4   4   4   2   8
#     4  11  24  42  69  99 133 181 227 285 346 407
#     4  12  26  47  68 100 145 184 228 286 350 430
#     4  11  22  42  68 105 132 165 232 290 349 401
#     4  11  27  45  64  95 138 188 230 276 359 427
#     4  11  21  43  67  97 138 176 220 298 343 413
#     4  11  24  44  66  97 135 180 231 286 342 418
#     4  10  20  38  70  96 128 174 224 284 356 388
#     4  11  23  43  75 104 130 179 234 292 348 408
#
# _framework density 19.975235999999999
#
# number of rings (size 3 to 8) (size 9 to 14) (size 15 to 20)
#    0.000    0.870    5.217    1.565    2.435    1.391 
#    1.565    3.478    0.000    0.000    0.000    0.000 
#    0.000    0.000    0.000    0.000    0.000    0.000 
#
# Total GULP energy -128235.884775 kJ/mol
# GULP energy per Si atom -5575.473251 kJ/mol
# Density = 1.992977 g / cm^3
# Si number density = 19.975236 Si / 1000 Ang^3
#
#
#
# Elastic Constant Matrix: (Units=GPa)
#
#
# Indices 1 2 3 4 5 6 
#
# 1 128.4998 28.8516 42.0655 0.0000 -16.6013 0.0000
# 2 28.8516 97.3471 33.7771 0.0000 -15.2659 0.0000
# 3 42.0655 33.7771 114.5370 0.0000 -13.7457 0.0000
# 4 0.0000 0.0000 0.0000 41.1731 0.0000 10.5012
# 5 -16.6013 -15.2659 -13.7457 0.0000 33.1431 0.0000
# 6 0.0000 0.0000 0.0000 10.5012 0.0000 22.0542
#
#
#
# Elastic Compliance Matrix: (Units=1/GPa)
#
#
# Indices 1 2 3 4 5 6 
#
# 1 0.009347 -0.001382 -0.002673 0.000000 0.002937 0.000000
# 2 -0.001382 0.012196 -0.002629 0.000000 0.003835 0.000000
# 3 -0.002673 -0.002629 0.010715 0.000000 0.001894 0.000000
# 4 0.000000 0.000000 0.000000 0.027645 0.000000 -0.013163
# 5 0.002937 0.003835 0.001894 0.000000 0.034195 0.000000
# 6 0.000000 0.000000 0.000000 -0.013163 0.000000 0.051611
#
#
# Mechanical properties :
#
#
# Convention : Reuss Voigt Hill
#
# Bulk Modulus (GPa) = 52.93767 61.08581 57.01174
# Shear Modulus (GPa) = 30.23485 34.98672 32.61078
#
# Velocity S-wave (km/s) = 3.89474 4.18964 4.04488
# Velocity P-wave (km/s) = 6.83992 7.35196 7.10056
#
# Compressibility (1/GPa) = 0.01889014
#
# Stress axis : x y z
#
# Youngs Moduli (GPa) = 106.98846 81.99645 93.32786
#
# Poissons Ratio (x) = 0.11335 0.24944
# Poissons Ratio (y) = 0.14789 0.24532
# Poissons Ratio (z) = 0.28595 0.21554
#
# Static dielectric constant tensor:
#      x y z
#    x 1.695170 0.000000 0.011650 
#    y 0.000000 1.717410 0.000000 
#    z 0.011650 0.000000 1.705770 
# 
# From -- ./inp_files/143615.got.cif
#   From: 2010.05.17/outbox.cif.g08.bks.cpg/sg12_72_cif.got.tgz:143615.got - 2010.06.03 13:09:07.
