data_PCOD9203690
_publ_section_title
;
Structure prediction by ZEFSAII (Michael W. Deem and Ramdas Pophale) SiO2 
 PCOD9203690
Probable space group: C 2/M
;
_chemical_formula_sum "Si O2"
_cell_formula_units_Z 50
_cell_length_a 14.695271
_cell_length_b 7.671152
_cell_length_c 26.550420
_cell_angle_alpha 90.000000
_cell_angle_beta 136.687939
_cell_angle_gamma 90.000000
_cell_volume 2053.126360
_symmetry_space_group_name_H-M "C 2/M"
_symmetry_group_IT_number 12
_symmetry_cell_setting 'monoclinic'
loop_
_space_group_symop_operation_xyz
x,y,z
-x,y,-z
-x,-y,-z
x,-y,z
1/2+x,1/2+y,z
1/2-x,1/2+y,-z
1/2-x,1/2-y,-z
1/2+x,1/2-y,z
loop_
_atom_site_type_symbol
_atom_site_label
_atom_site_fract_x
_atom_site_fract_y
_atom_site_fract_z
Si Si1 0.439409 0.186530 0.545278
Si Si2 0.000000 0.000000 0.500000
Si Si3 0.768362 0.200425 0.336404
Si Si4 0.583087 0.293897 0.355308
Si Si5 0.961702 0.799488 0.931114
Si Si6 0.340446 0.289066 0.192169
Si Si7 0.974324 0.211974 0.826908
O O1 0.421255 0.345527 0.500556
O O2 0.599177 0.192064 0.618016
O O3 0.381281 0.210007 0.577525
O O4 0.397391 0.000000 0.507041
O O5 0.682127 0.259521 0.349249
O O6 0.665597 0.211907 0.248849
O O7 0.816977 0.000000 0.364347
O O8 0.572272 0.500000 0.359678
O O9 0.439942 0.233903 0.276616
O O10 0.803026 0.793396 0.863175
O O11 0.010244 0.725715 0.897306
O O12 0.009499 0.000000 0.951859
O O13 0.000000 0.716535 0.000000
O O14 0.327191 0.500000 0.188938
O O15 0.415315 0.244958 0.170187
O O16 0.960140 0.000000 0.821474
#
# Coordination Sequence:
#
# PCOD9203690 Si02
#       7
#     8   2   8   8   8   8   8
#     4  12  24  43  69  92 129 169 207 255 307 363
#     4  12  26  48  64  94 132 170 212 248 296 378
#     4  11  21  37  63  96 125 155 204 260 311 367
#     4  10  20  39  65  95 125 155 202 260 312 368
#     4  10  21  35  51  74 111 155 201 245 299 371
#     4   9  19  34  55  82 113 147 191 249 304 357
#     4   9  19  36  55  80 113 151 195 248 312 365
#
# _framework density 24.353103999999998
#
# number of rings (size 3 to 8) (size 9 to 14) (size 15 to 20)
#    0.000    1.760    1.600    4.080    0.000    7.360 
#    0.000    0.800    0.000    0.000    0.000    0.000 
#    0.000    0.000    0.000    0.000    0.000    0.000 
#
# Total GULP energy -139787.491243 kJ/mol
# GULP energy per Si atom -5591.499650 kJ/mol
# Density = 2.429768 g / cm^3
# Si number density = 24.353104 Si / 1000 Ang^3
#
#
#
# Elastic Constant Matrix: (Units=GPa)
#
#
# Indices 1 2 3 4 5 6 
#
# 1 76.3338 2.6602 31.3826 0.0000 -33.4919 0.0000
# 2 2.6602 116.6715 18.5091 0.0000 -21.8890 0.0000
# 3 31.3826 18.5091 81.3096 0.0000 -41.0781 0.0000
# 4 0.0000 0.0000 0.0000 16.9439 0.0000 3.1626
# 5 -33.4919 -21.8890 -41.0781 0.0000 44.0269 0.0000
# 6 0.0000 0.0000 0.0000 3.1626 0.0000 20.6635
#
#
#
# Elastic Compliance Matrix: (Units=1/GPa)
#
#
# Indices 1 2 3 4 5 6 
#
# 1 0.020406 0.002700 0.000057 0.000000 0.016918 0.000000
# 2 0.002700 0.009818 0.000429 0.000000 0.007335 0.000000
# 3 0.000057 0.000429 0.023284 0.000000 0.021981 0.000000
# 4 0.000000 0.000000 0.000000 0.060754 0.000000 -0.009299
# 5 0.016918 0.007335 0.021981 0.000000 0.059739 0.000000
# 6 0.000000 0.000000 0.000000 -0.009299 0.000000 0.049818
#
#
# Mechanical properties :
#
#
# Convention : Reuss Voigt Hill
#
# Bulk Modulus (GPa) = 16.70064 42.15766 29.42915
# Shear Modulus (GPa) = 21.06091 31.11106 26.08598
#
# Velocity S-wave (km/s) = 2.94396 3.57809 3.27640
# Velocity P-wave (km/s) = 4.29284 5.86676 5.14040
#
# Compressibility (1/GPa) = 0.05987795
#
# Stress axis : x y z
#
# Youngs Moduli (GPa) = 49.00533 101.85774 42.94787
#
# Poissons Ratio (x) = -0.27500 -0.00243
# Poissons Ratio (y) = -0.13231 -0.01841
# Poissons Ratio (z) = -0.00278 -0.04367
#
# Static dielectric constant tensor:
#      x y z
#    x 1.903660 0.000000 0.005940 
#    y 0.000000 1.911170 0.000000 
#    z 0.005940 0.000000 1.673130 
# 
# From -- ./inp_files/308535.got.cif
#   From: 2010.05.17/outbox.cif.g08.bks.cpg/sg12_155_cif.got.tgz:308535.got - 2010.06.03 13:09:07.
