data_PCOD9203013
_publ_section_title
;
Structure prediction by ZEFSAII (Michael W. Deem and Ramdas Pophale) SiO2 
 PCOD9203013
Probable space group: C 2/M
;
_chemical_formula_sum "Si O2"
_cell_formula_units_Z 64
_cell_length_a 11.770161
_cell_length_b 23.947713
_cell_length_c 11.936224
_cell_angle_alpha 90.000000
_cell_angle_beta 107.895245
_cell_angle_gamma 90.000000
_cell_volume 3201.672661
_symmetry_space_group_name_H-M "C 2/M"
_symmetry_group_IT_number 12
_symmetry_cell_setting 'monoclinic'
loop_
_space_group_symop_operation_xyz
x,y,z
-x,y,-z
-x,-y,-z
x,-y,z
1/2+x,1/2+y,z
1/2-x,1/2+y,-z
1/2-x,1/2-y,-z
1/2+x,1/2-y,z
loop_
_atom_site_type_symbol
_atom_site_label
_atom_site_fract_x
_atom_site_fract_y
_atom_site_fract_z
Si Si1 0.876589 0.156325 0.898908
Si Si2 0.438865 0.830076 0.814255
Si Si3 0.280242 0.436057 0.726455
Si Si4 0.188621 0.309373 0.001467
Si Si5 0.756391 0.436959 0.543018
Si Si6 0.359125 0.677104 0.460974
Si Si7 0.490052 0.935233 0.294703
Si Si8 0.307900 0.737745 0.676768
O O1 0.873090 0.101812 0.820639
O O2 0.775618 0.148944 0.962773
O O3 0.835918 0.204622 0.799265
O O4 0.000000 0.168275 0.000000
O O5 0.560836 0.807781 0.903725
O O6 0.464967 0.892859 0.785872
O O7 0.401750 0.789221 0.702085
O O8 0.337418 0.825232 0.878532
O O9 0.290084 0.500000 0.765722
O O10 0.295172 0.434267 0.597705
O O11 0.142370 0.417649 0.707258
O O12 0.250000 0.250000 0.000000
O O13 0.730661 0.500000 0.580415
O O14 0.703657 0.382065 0.586876
O O15 0.900980 0.432704 0.583298
O O16 0.500000 0.670077 0.500000
O O17 0.320383 0.697150 0.574296
O O18 0.316100 0.728490 0.369690
O O19 0.482643 0.000000 0.257375
#
# Coordination Sequence:
#
# PCOD9203013 Si02
#       8
#     8   8   8   8   8   8   8   8
#     4  12  24  41  64  90 125 169 213 257 307 370
#     4  11  22  39  62  88 122 162 203 259 310 362
#     4  10  21  40  65  92 124 161 206 260 309 367
#     4  11  23  38  59  90 118 160 210 252 306 363
#     4  10  20  40  65  93 123 157 207 256 312 376
#     4  11  25  40  61  93 126 164 198 252 319 374
#     4  10  20  38  65  93 122 158 203 258 317 371
#     4  11  24  42  59  92 125 161 202 253 306 376
#
# _framework density 19.989552
#
# number of rings (size 3 to 8) (size 9 to 14) (size 15 to 20)
#    0.000    1.250    5.000    1.125    1.750    3.000 
#    0.000    1.875    0.000    0.000    0.000    0.000 
#    0.000    0.000    0.000    0.000    0.000    0.000 
#
# Total GULP energy -178484.445116 kJ/mol
# GULP energy per Si atom -5577.638910 kJ/mol
# Density = 1.994405 g / cm^3
# Si number density = 19.989552 Si / 1000 Ang^3
#
#
#
# Elastic Constant Matrix: (Units=GPa)
#
#
# Indices 1 2 3 4 5 6 
#
# 1 59.9643 18.1884 9.4988 0.0000 10.9245 0.0000
# 2 18.1884 97.1763 26.1972 0.0000 5.0063 0.0000
# 3 9.4988 26.1972 71.7673 0.0000 14.4729 0.0000
# 4 0.0000 0.0000 0.0000 26.2574 0.0000 5.6250
# 5 10.9245 5.0063 14.4729 0.0000 26.4479 0.0000
# 6 0.0000 0.0000 0.0000 5.6250 0.0000 28.3792
#
#
#
# Elastic Compliance Matrix: (Units=1/GPa)
#
#
# Indices 1 2 3 4 5 6 
#
# 1 0.018958 -0.003208 0.000133 0.000000 -0.007296 0.000000
# 2 -0.003208 0.011957 -0.004216 0.000000 0.001369 0.000000
# 3 0.000133 -0.004216 0.017204 0.000000 -0.008671 0.000000
# 4 0.000000 0.000000 0.000000 0.039773 0.000000 -0.007883
# 5 -0.007296 0.001369 -0.008671 0.000000 0.045310 0.000000
# 6 0.000000 0.000000 0.000000 -0.007883 0.000000 0.036800
#
#
# Mechanical properties :
#
#
# Convention : Reuss Voigt Hill
#
# Bulk Modulus (GPa) = 29.81800 37.40853 33.61327
# Shear Modulus (GPa) = 25.54103 27.88514 26.71308
#
# Velocity S-wave (km/s) = 3.57840 3.73900 3.65958
# Velocity P-wave (km/s) = 5.65883 6.11513 5.89140
#
# Compressibility (1/GPa) = 0.03353678
#
# Stress axis : x y z
#
# Youngs Moduli (GPa) = 52.74839 83.63183 58.12598
#
# Poissons Ratio (x) = 0.26832 -0.00775
# Poissons Ratio (y) = 0.16924 0.24507
# Poissons Ratio (z) = -0.00704 0.35261
#
# Static dielectric constant tensor:
#      x y z
#    x 1.705050 0.000000 -0.006400 
#    y 0.000000 1.753010 0.000000 
#    z -0.006400 0.000000 1.745850 
# 
# From -- ./inp_files/135995.got.cif
#   From: 2010.05.17/outbox.cif.g08.bks.cpg/sg12_68_cif.got.tgz:135995.got - 2010.06.03 13:09:07.
