data_PCOD9203232
_publ_section_title
;
Structure prediction by ZEFSAII (Michael W. Deem and Ramdas Pophale) SiO2 
 PCOD9203232
Probable space group: C 2/M
;
_chemical_formula_sum "Si O2"
_cell_formula_units_Z 48
_cell_length_a 20.256193
_cell_length_b 7.755210
_cell_length_c 27.120862
_cell_angle_alpha 90.000000
_cell_angle_beta 147.733311
_cell_angle_gamma 90.000000
_cell_volume 2274.484278
_symmetry_space_group_name_H-M "C 2/M"
_symmetry_group_IT_number 12
_symmetry_cell_setting 'monoclinic'
loop_
_space_group_symop_operation_xyz
x,y,z
-x,y,-z
-x,-y,-z
x,-y,z
1/2+x,1/2+y,z
1/2-x,1/2+y,-z
1/2-x,1/2-y,-z
1/2+x,1/2-y,z
loop_
_atom_site_type_symbol
_atom_site_label
_atom_site_fract_x
_atom_site_fract_y
_atom_site_fract_z
Si Si1 0.068153 0.707787 0.418030
Si Si2 0.403375 0.202325 0.774853
Si Si3 0.198169 0.701018 0.720266
Si Si4 0.645106 0.791321 0.085588
Si Si5 0.347466 0.207410 0.019323
Si Si6 0.833764 0.707802 0.624574
O O1 0.058546 0.500000 0.409223
O O2 0.095497 0.771816 0.379641
O O3 0.189373 0.750530 0.526099
O O4 0.939372 0.773305 0.358526
O O5 0.280289 0.216372 0.729464
O O6 0.518890 0.274992 0.878505
O O7 0.384814 0.276364 0.708541
O O8 0.430837 0.000000 0.785590
O O9 0.187732 0.500000 0.700961
O O10 0.272490 0.718664 0.818470
O O11 0.653874 0.000000 0.094608
O O12 0.500000 0.747757 0.000000
O O13 0.685011 0.731572 0.056216
O O14 0.355357 0.000000 0.019792
O O15 0.250000 0.250000 0.000000
O O16 0.844180 0.500000 0.631441
#
# Coordination Sequence:
#
# PCOD9203232 Si02
#       6
#     8   8   8   8   8   8
#     4   9  20  38  57  82 113 143 179 229 285 329
#     4  10  21  39  59  80 113 151 186 228 276 331
#     4  11  23  36  57  86 114 147 185 231 281 326
#     4  10  20  39  60  79 111 152 188 224 273 328
#     4  10  22  38  58  83 113 149 184 228 278 326
#     4   9  19  37  61  82 105 145 189 226 272 333
#
# _framework density 21.103684999999999
#
# number of rings (size 3 to 8) (size 9 to 14) (size 15 to 20)
#    0.000    2.167    1.667    0.500    2.333    4.333 
#    0.000    3.333    0.000    0.000    0.000    0.000 
#    0.000    0.000    0.000    0.000    0.000    0.000 
#
# Total GULP energy -134031.713066 kJ/mol
# GULP energy per Si atom -5584.654711 kJ/mol
# Density = 2.105565 g / cm^3
# Si number density = 21.103685 Si / 1000 Ang^3
#
#
#
# Elastic Constant Matrix: (Units=GPa)
#
#
# Indices 1 2 3 4 5 6 
#
# 1 58.1241 -6.4416 -3.5809 0.0002 -0.6355 0.0003
# 2 -6.4416 25.0292 -1.4257 0.0003 -1.7589 0.0013
# 3 -3.5809 -1.4257 20.0708 0.0000 -3.7911 0.0000
# 4 0.0002 0.0003 0.0000 17.3773 0.0000 -2.5737
# 5 -0.6355 -1.7589 -3.7911 0.0000 45.1122 0.0000
# 6 0.0003 0.0013 0.0000 -2.5737 0.0000 20.4823
#
#
#
# Elastic Compliance Matrix: (Units=1/GPa)
#
#
# Indices 1 2 3 4 5 6 
#
# 1 0.017983 0.004892 0.003698 0.000000 0.000755 -0.000001
# 2 0.004892 0.041596 0.004214 -0.000001 0.002045 -0.000003
# 3 0.003698 0.004214 0.051643 0.000000 0.004556 0.000000
# 4 0.000000 -0.000001 0.000000 0.058638 0.000000 0.007368
# 5 0.000755 0.002045 0.004556 0.000000 0.022640 0.000000
# 6 -0.000001 -0.000003 0.000000 0.007368 0.000000 0.049749
#
#
# Mechanical properties :
#
#
# Convention : Reuss Voigt Hill
#
# Bulk Modulus (GPa) = 7.30833 8.92531 8.11682
# Shear Modulus (GPa) = 19.06573 24.23919 21.65246
#
# Velocity S-wave (km/s) = 3.00897 3.39274 3.20660
# Velocity P-wave (km/s) = 3.94239 4.42561 4.19097
#
# Compressibility (1/GPa) = 0.13683015
#
# Stress axis : x y z
#
# Youngs Moduli (GPa) = 55.60874 24.04075 19.36356
#
# Poissons Ratio (x) = -0.11760 -0.07161
# Poissons Ratio (y) = -0.27203 -0.08159
# Poissons Ratio (z) = -0.20566 -0.10130
#
# Static dielectric constant tensor:
#      x y z
#    x 1.758280 0.000000 -0.008400 
#    y 0.000000 1.689160 0.000000 
#    z -0.008400 0.000000 1.739420 
# 
# From -- ./inp_files/229945.got.cif
#   From: 2010.05.17/outbox.cif.g08.bks.cpg/sg12_115_cif.got.tgz:229945.got - 2010.06.03 13:09:07.
