data_PCOD9203188
_publ_section_title
;
Structure prediction by ZEFSAII (Michael W. Deem and Ramdas Pophale) SiO2 
 PCOD9203188
Probable space group: C 2/M
;
_chemical_formula_sum "Si O2"
_cell_formula_units_Z 56
_cell_length_a 15.774144
_cell_length_b 15.796524
_cell_length_c 18.440603
_cell_angle_alpha 90.000000
_cell_angle_beta 36.639203
_cell_angle_gamma 90.000000
_cell_volume 2742.157364
_symmetry_space_group_name_H-M "C 2/M"
_symmetry_group_IT_number 12
_symmetry_cell_setting 'monoclinic'
loop_
_space_group_symop_operation_xyz
x,y,z
-x,y,-z
-x,-y,-z
x,-y,z
1/2+x,1/2+y,z
1/2-x,1/2+y,-z
1/2-x,1/2-y,-z
1/2+x,1/2-y,z
loop_
_atom_site_type_symbol
_atom_site_label
_atom_site_fract_x
_atom_site_fract_y
_atom_site_fract_z
Si Si1 0.166150 0.500000 0.305355
Si Si2 0.928675 0.595505 0.129098
Si Si3 0.814190 0.342704 0.440546
Si Si4 0.843938 0.647172 0.794861
Si Si5 0.694780 0.844144 0.021046
Si Si6 0.926356 0.100955 0.477642
Si Si7 0.175220 0.841951 0.216412
Si Si8 0.679214 0.000000 0.460980
O O1 0.203736 0.583470 0.234572
O O2 0.225159 0.500000 0.345957
O O3 0.993223 0.500000 0.424358
O O4 0.932210 0.500000 0.155984
O O5 0.770429 0.621827 0.216515
O O6 0.030610 0.652972 0.107934
O O7 0.000000 0.595266 0.000000
O O8 0.750000 0.250000 0.500000
O O9 0.736477 0.373209 0.420676
O O10 0.777452 0.415281 0.525415
O O11 0.984325 0.344227 0.319712
O O12 0.795544 0.613777 0.906831
O O13 0.793609 0.742244 0.812292
O O14 0.750000 0.750000 0.000000
O O15 0.781466 0.879045 0.892144
O O16 0.000000 0.133715 0.500000
O O17 0.015303 0.138710 0.349331
O O18 0.938349 0.000000 0.467928
#
# Coordination Sequence:
#
# PCOD9203188 Si02
#       8
#     4   8   8   8   8   8   8   4
#     4   9  20  38  58  85 113 154 210 253 301 345
#     4   9  18  33  57  87 114 150 199 243 296 364
#     4  11  21  39  62  88 121 162 212 245 310 378
#     4  10  21  37  59  88 119 157 209 260 293 361
#     4   9  20  37  59  86 121 159 199 249 305 352
#     4  11  24  39  58  88 128 158 192 255 315 367
#     4  10  20  39  57  88 122 161 201 247 310 372
#     4   9  20  40  61  79 118 161 200 260 299 362
#
# _framework density 20.421876000000001
#
# number of rings (size 3 to 8) (size 9 to 14) (size 15 to 20)
#    0.000    2.143    2.143    0.429    3.000    1.714 
#    0.000    0.000    0.000    0.000    1.857    3.500 
#    0.000    0.000    0.000    0.000    0.000    0.000 
#
# Total GULP energy -156132.750462 kJ/mol
# GULP energy per Si atom -5576.169659 kJ/mol
# Density = 2.037540 g / cm^3
# Si number density = 20.421876 Si / 1000 Ang^3
#
#
#
# Elastic Constant Matrix: (Units=GPa)
#
#
# Indices 1 2 3 4 5 6 
#
# 1 106.3536 37.9000 11.3859 -0.0001 11.7853 0.0001
# 2 37.9000 94.4406 10.7272 0.0000 9.2368 0.0000
# 3 11.3859 10.7272 56.8560 -0.0001 13.1073 0.0001
# 4 -0.0001 0.0000 -0.0001 19.6976 0.0002 -1.6148
# 5 11.7853 9.2368 13.1073 0.0002 35.9724 -0.0001
# 6 0.0001 0.0000 0.0001 -1.6148 -0.0001 28.0688
#
#
#
# Elastic Compliance Matrix: (Units=1/GPa)
#
#
# Indices 1 2 3 4 5 6 
#
# 1 0.011246 -0.004184 -0.000940 0.000000 -0.002267 0.000000
# 2 -0.004184 0.012543 -0.001203 0.000000 -0.001411 0.000000
# 3 -0.000940 -0.001203 0.019499 0.000000 -0.006488 0.000000
# 4 0.000000 0.000000 0.000000 0.051008 0.000000 0.002935
# 5 -0.002267 -0.001411 -0.006488 0.000000 0.031268 0.000000
# 6 0.000000 0.000000 0.000000 0.002935 0.000000 0.035796
#
#
# Mechanical properties :
#
#
# Convention : Reuss Voigt Hill
#
# Bulk Modulus (GPa) = 32.64486 41.96404 37.30445
# Shear Modulus (GPa) = 27.14064 29.92355 28.53210
#
# Velocity S-wave (km/s) = 3.64950 3.83204 3.74188
# Velocity P-wave (km/s) = 5.81192 6.33818 6.08074
#
# Compressibility (1/GPa) = 0.03063269
#
# Stress axis : x y z
#
# Youngs Moduli (GPa) = 88.92333 79.72811 51.28402
#
# Poissons Ratio (x) = 0.33362 0.04820
# Poissons Ratio (y) = 0.37210 0.06170
# Poissons Ratio (z) = 0.08357 0.09592
#
# Static dielectric constant tensor:
#      x y z
#    x 1.728410 0.000000 0.007590 
#    y 0.000000 1.727600 0.000000 
#    z 0.007590 0.000000 1.806320 
# 
# From -- ./inp_files/271428.got.cif
#   From: 2010.05.17/outbox.cif.g08.bks.cpg/sg12_136_cif.got.tgz:271428.got - 2010.06.03 13:09:07.
