data_PCOD9203640
_publ_section_title
;
Structure prediction by ZEFSAII (Michael W. Deem and Ramdas Pophale) SiO2 
 PCOD9203640
Probable space group: C 2/M
;
_chemical_formula_sum "Si O2"
_cell_formula_units_Z 60
_cell_length_a 11.550270
_cell_length_b 28.239874
_cell_length_c 9.723615
_cell_angle_alpha 90.000000
_cell_angle_beta 92.050945
_cell_angle_gamma 90.000000
_cell_volume 3169.599197
_symmetry_space_group_name_H-M "C 2/M"
_symmetry_group_IT_number 12
_symmetry_cell_setting 'monoclinic'
loop_
_space_group_symop_operation_xyz
x,y,z
-x,y,-z
-x,-y,-z
x,-y,z
1/2+x,1/2+y,z
1/2-x,1/2+y,-z
1/2-x,1/2-y,-z
1/2+x,1/2-y,z
loop_
_atom_site_type_symbol
_atom_site_label
_atom_site_fract_x
_atom_site_fract_y
_atom_site_fract_z
Si Si1 0.232622 0.109628 0.847560
Si Si2 0.859492 0.619332 0.404081
Si Si3 0.758708 0.848574 0.867683
Si Si4 0.512074 0.666396 0.791282
Si Si5 0.000000 0.122087 0.500000
Si Si6 0.062321 0.270065 0.855436
Si Si7 0.281972 0.445180 0.416338
Si Si8 0.088547 0.336942 0.330132
O O1 0.098798 0.124935 0.838750
O O2 0.243087 0.064636 0.746861
O O3 0.311581 0.147359 0.768632
O O4 0.267598 0.115668 0.007603
O O5 0.771275 0.626305 0.276837
O O6 0.822668 0.574508 0.493446
O O7 0.858925 0.663109 0.514056
O O8 0.986917 0.623178 0.342241
O O9 0.676660 0.802388 0.869979
O O10 0.892420 0.833386 0.869500
O O11 0.483293 0.655203 0.631705
O O12 0.578343 0.715647 0.816673
O O13 0.889983 0.088287 0.464202
O O14 0.977926 0.292598 0.735924
O O15 0.000000 0.273132 0.000000
O O16 0.305137 0.500000 0.441498
#
# Coordination Sequence:
#
# PCOD9203640 Si02
#       8
#     8   8   8   8   4   8   8   8
#     4  10  21  37  58  82 120 156 190 245 304 350
#     4   9  19  36  60  84 115 153 190 241 300 353
#     4  11  21  38  58  84 121 161 198 242 299 345
#     4  11  24  36  57  85 121 158 207 245 291 343
#     4  10  21  42  58  84 122 162 188 252 309 350
#     4  11  22  35  58  86 117 165 208 242 277 350
#     4  10  20  39  65  90 113 151 201 246 304 369
#     4   9  19  37  56  83 119 157 200 236 293 345
#
# _framework density 18.929838
#
# number of rings (size 3 to 8) (size 9 to 14) (size 15 to 20)
#    0.000    1.867    2.667    1.400    1.867    3.200 
#    0.000    7.333    0.000    1.600    0.000   13.067 
#    0.000    0.000    0.000    0.000    0.000    0.000 
#
# Total GULP energy -167167.548654 kJ/mol
# GULP energy per Si atom -5572.251622 kJ/mol
# Density = 1.888675 g / cm^3
# Si number density = 18.929838 Si / 1000 Ang^3
#
#
#
# Elastic Constant Matrix: (Units=GPa)
#
#
# Indices 1 2 3 4 5 6 
#
# 1 52.8665 10.5064 17.2614 0.0000 -8.4863 0.0000
# 2 10.5064 67.2755 31.2587 0.0000 -11.6029 0.0000
# 3 17.2614 31.2587 137.1214 0.0000 3.9632 0.0000
# 4 0.0000 0.0000 0.0000 19.6631 0.0000 2.9352
# 5 -8.4863 -11.6029 3.9632 0.0000 26.7140 0.0000
# 6 0.0000 0.0000 0.0000 2.9352 0.0000 17.6212
#
#
#
# Elastic Compliance Matrix: (Units=1/GPa)
#
#
# Indices 1 2 3 4 5 6 
#
# 1 0.021027 -0.000909 -0.002633 0.000000 0.006675 0.000000
# 2 -0.000909 0.018466 -0.004337 0.000000 0.008375 0.000000
# 3 -0.002633 -0.004337 0.008729 0.000000 -0.004015 0.000000
# 4 0.000000 0.000000 0.000000 0.052153 0.000000 -0.008687
# 5 0.006675 0.008375 -0.004015 0.000000 0.043787 0.000000
# 6 0.000000 0.000000 0.000000 -0.008687 0.000000 0.058197
#
#
# Mechanical properties :
#
#
# Convention : Reuss Voigt Hill
#
# Bulk Modulus (GPa) = 30.80331 41.70183 36.25257
# Shear Modulus (GPa) = 21.83983 26.01546 23.92765
#
# Velocity S-wave (km/s) = 3.40034 3.71119 3.55916
# Velocity P-wave (km/s) = 5.63241 6.35936 6.00689
#
# Compressibility (1/GPa) = 0.03246404
#
# Stress axis : x y z
#
# Youngs Moduli (GPa) = 47.55692 54.15394 114.56102
#
# Poissons Ratio (x) = 0.04924 0.30160
# Poissons Ratio (y) = 0.04324 0.49687
# Poissons Ratio (z) = 0.12520 0.23487
#
# Static dielectric constant tensor:
#      x y z
#    x 1.709710 0.000000 0.021070 
#    y 0.000000 1.620060 0.000000 
#    z 0.021070 0.000000 1.706620 
# 
# From -- ./inp_files/53242.got.cif
#   From: 2010.05.17/outbox.cif.g08.bks.cpg/sg12_27_cif.got.tgz:53242.got - 2010.06.03 13:09:07.
