data_PCOD9203924
_publ_section_title
;
Structure prediction by ZEFSAII (Michael W. Deem and Ramdas Pophale) SiO2 
 PCOD9203924
Probable space group: C 2/M
;
_chemical_formula_sum "Si O2"
_cell_formula_units_Z 64
_cell_length_a 12.809448
_cell_length_b 30.141763
_cell_length_c 9.185938
_cell_angle_alpha 90.000000
_cell_angle_beta 92.288650
_cell_angle_gamma 90.000000
_cell_volume 3543.855552
_symmetry_space_group_name_H-M "C 2/M"
_symmetry_group_IT_number 12
_symmetry_cell_setting 'monoclinic'
loop_
_space_group_symop_operation_xyz
x,y,z
-x,y,-z
-x,-y,-z
x,-y,z
1/2+x,1/2+y,z
1/2-x,1/2+y,-z
1/2-x,1/2-y,-z
1/2+x,1/2-y,z
loop_
_atom_site_type_symbol
_atom_site_label
_atom_site_fract_x
_atom_site_fract_y
_atom_site_fract_z
Si Si1 0.376459 0.947502 0.965673
Si Si2 0.619285 0.552540 0.484924
Si Si3 0.604754 0.686082 0.817310
Si Si4 0.616277 0.857277 0.538226
Si Si5 0.746038 0.410570 0.226767
Si Si6 0.300904 0.767109 0.354886
Si Si7 0.365145 0.319753 0.847259
Si Si8 0.253817 0.890805 0.717199
O O1 0.326552 0.917072 0.835599
O O2 0.369210 0.000000 0.929484
O O3 0.500000 0.937438 0.000000
O O4 0.307145 0.937554 0.106173
O O5 0.500000 0.568393 0.500000
O O6 0.621033 0.500000 0.505416
O O7 0.665975 0.563606 0.328084
O O8 0.691014 0.575267 0.610825
O O9 0.643015 0.726774 0.722017
O O10 0.481576 0.678186 0.788847
O O11 0.671270 0.642146 0.786824
O O12 0.624420 0.697021 0.987560
O O13 0.500000 0.871598 0.500000
O O14 0.669732 0.889172 0.658780
O O15 0.622489 0.807656 0.601160
O O16 0.679158 0.861192 0.391189
O O17 0.684274 0.368890 0.155317
O O18 0.250000 0.750000 0.500000
O O19 0.210294 0.788418 0.249960
#
# Coordination Sequence:
#
# PCOD9203924 Si02
#       8
#     8   8   8   8   8   8   8   8
#     4  11  23  39  63  93 122 158 201 249 305 362
#     4  10  21  37  58  87 119 155 198 245 300 358
#     4  11  22  39  62  83 120 159 198 246 293 360
#     4  10  22  38  58  86 116 157 200 243 295 352
#     4  10  20  40  61  84 123 156 200 245 298 356
#     4  11  23  38  58  88 118 151 197 249 292 347
#     4  10  23  40  59  87 118 158 200 240 298 357
#     4  11  21  39  61  85 121 158 198 246 299 355
#
# _framework density 18.059425999999998
#
# number of rings (size 3 to 8) (size 9 to 14) (size 15 to 20)
#    0.000    1.500    2.500    2.625    1.750    0.000 
#    0.000    0.000    0.000    9.000    0.000    0.000 
#    0.000    0.000    0.000    0.000    0.000    0.000 
#
# Total GULP energy -178656.801914 kJ/mol
# GULP energy per Si atom -5583.025060 kJ/mol
# Density = 1.801832 g / cm^3
# Si number density = 18.059426 Si / 1000 Ang^3
#
#
#
# Elastic Constant Matrix: (Units=GPa)
#
#
# Indices 1 2 3 4 5 6 
#
# 1 118.8575 36.2857 42.3763 0.0000 -7.4959 0.0000
# 2 36.2857 83.5799 32.1207 0.0000 -5.4184 0.0000
# 3 42.3763 32.1207 93.7828 0.0000 -9.0043 0.0000
# 4 0.0000 0.0000 0.0000 19.5665 0.0000 -12.8860
# 5 -7.4959 -5.4184 -9.0043 0.0000 20.4111 0.0000
# 6 0.0000 0.0000 0.0000 -12.8860 0.0000 11.7435
#
#
#
# Elastic Compliance Matrix: (Units=1/GPa)
#
#
# Indices 1 2 3 4 5 6 
#
# 1 0.010776 -0.003184 -0.003634 0.000000 0.001509 0.000000
# 2 -0.003184 0.014772 -0.003505 0.000000 0.001206 0.000000
# 3 -0.003634 -0.003505 0.013876 0.000000 0.003856 0.000000
# 4 0.000000 0.000000 0.000000 0.184268 0.000000 0.202194
# 5 0.001509 0.001206 0.003856 0.000000 0.051568 0.000000
# 6 0.000000 0.000000 0.000000 0.202194 0.000000 0.307017
#
#
# Mechanical properties :
#
#
# Convention : Reuss Voigt Hill
#
# Bulk Modulus (GPa) = 53.25312 57.53172 55.39242
# Shear Modulus (GPa) = 8.20772 22.70672 15.45722
#
# Velocity S-wave (km/s) = 2.13418 3.54974 2.92877
# Velocity P-wave (km/s) = 5.96864 6.98046 6.49429
#
# Compressibility (1/GPa) = 0.01877824
#
# Stress axis : x y z
#
# Youngs Moduli (GPa) = 92.79663 67.69512 72.06888
#
# Poissons Ratio (x) = 0.21555 0.26189
# Poissons Ratio (y) = 0.29547 0.25260
# Poissons Ratio (z) = 0.33721 0.23727
#
# Static dielectric constant tensor:
#      x y z
#    x 1.606440 0.000000 -0.010760 
#    y 0.000000 1.598550 0.000000 
#    z -0.010760 0.000000 1.614530 
# 
# From -- ./inp_files/54711.got.cif
#   From: 2010.05.17/outbox.cif.g08.bks.cpg/sg12_28_cif.got.tgz:54711.got - 2010.06.03 13:09:07.
