data_PCOD9203274
_publ_section_title
;
Structure prediction by ZEFSAII (Michael W. Deem and Ramdas Pophale) SiO2 
 PCOD9203274
Probable space group: C 2/M
;
_chemical_formula_sum "Si O2"
_cell_formula_units_Z 64
_cell_length_a 19.742669
_cell_length_b 7.752368
_cell_length_c 31.019849
_cell_angle_alpha 90.000000
_cell_angle_beta 36.458757
_cell_angle_gamma 90.000000
_cell_volume 2821.270489
_symmetry_space_group_name_H-M "C 2/M"
_symmetry_group_IT_number 12
_symmetry_cell_setting 'monoclinic'
loop_
_space_group_symop_operation_xyz
x,y,z
-x,y,-z
-x,-y,-z
x,-y,z
1/2+x,1/2+y,z
1/2-x,1/2+y,-z
1/2-x,1/2-y,-z
1/2+x,1/2-y,z
loop_
_atom_site_type_symbol
_atom_site_label
_atom_site_fract_x
_atom_site_fract_y
_atom_site_fract_z
Si Si1 0.986530 0.301903 0.343419
Si Si2 0.767758 0.195233 0.803279
Si Si3 0.678872 0.791715 0.396010
Si Si4 0.101430 0.709888 0.119160
Si Si5 0.569277 0.203229 0.720162
Si Si6 0.970664 0.200495 0.100114
Si Si7 0.180808 0.791436 0.942852
Si Si8 0.966014 0.288868 0.448565
O O1 0.945646 0.500000 0.365787
O O2 0.123937 0.302551 0.267954
O O3 0.953599 0.224113 0.406349
O O4 0.939116 0.221042 0.323621
O O5 0.652680 0.214336 0.834517
O O6 0.728192 0.239930 0.872093
O O7 0.808007 0.000000 0.781545
O O8 0.805441 0.725680 0.325176
O O9 0.587315 0.736670 0.407090
O O10 0.629353 0.736902 0.467998
O O11 0.681774 0.000000 0.394042
O O12 0.098239 0.500000 0.117869
O O13 0.043824 0.782440 0.105984
O O14 0.229380 0.762786 0.066150
O O15 0.024478 0.769968 0.198863
O O16 0.543494 0.000000 0.729089
O O17 0.947657 0.000000 0.102457
O O18 0.054911 0.270857 0.019878
O O19 0.177086 0.000000 0.945349
O O20 0.966501 0.500000 0.447574
#
# Coordination Sequence:
#
# PCOD9203274 Si02
#       8
#     8   8   8   8   8   8   8   8
#     4  10  20  39  61  80 111 158 200 232 283 348
#     4  12  25  39  58  87 120 152 191 243 295 341
#     4   9  18  35  58  87 117 144 189 241 281 332
#     4  10  21  39  59  84 120 153 189 242 293 338
#     4  10  21  36  56  82 116 154 189 232 288 342
#     4  11  24  39  61  88 113 150 199 240 287 351
#     4  10  21  42  65  84 113 154 194 237 289 349
#     4   8  17  35  60  85 111 149 191 236 282 332
#
# _framework density 22.684816000000001
#
# number of rings (size 3 to 8) (size 9 to 14) (size 15 to 20)
#    0.000    2.000    1.250    3.000    1.750    4.500 
#    0.000    1.875    0.000    0.000    0.000    0.000 
#    0.000    0.000    0.000    0.000    0.000    0.000 
#
# Total GULP energy -178827.596789 kJ/mol
# GULP energy per Si atom -5588.362400 kJ/mol
# Density = 2.263318 g / cm^3
# Si number density = 22.684816 Si / 1000 Ang^3
#
#
#
# Elastic Constant Matrix: (Units=GPa)
#
#
# Indices 1 2 3 4 5 6 
#
# 1 52.7955 -3.8591 -9.4851 0.0037 5.6808 0.0197
# 2 -3.8591 34.9668 -4.6422 0.0073 1.8869 0.0076
# 3 -9.4851 -4.6422 17.6070 0.0005 -0.0464 -0.0001
# 4 0.0037 0.0073 0.0005 9.8431 -0.0016 -3.0138
# 5 5.6808 1.8869 -0.0464 -0.0016 42.2325 0.0003
# 6 0.0197 0.0076 -0.0001 -3.0138 0.0003 20.6810
#
#
#
# Elastic Compliance Matrix: (Units=1/GPa)
#
#
# Indices 1 2 3 4 5 6 
#
# 1 0.021915 0.004304 0.012933 -0.000020 -0.003126 -0.000025
# 2 0.004304 0.030555 0.010369 -0.000031 -0.001933 -0.000020
# 3 0.012933 0.010369 0.066491 -0.000022 -0.002130 -0.000019
# 4 -0.000020 -0.000031 -0.000022 0.106338 0.000008 0.015497
# 5 -0.003126 -0.001933 -0.002130 0.000008 0.024183 0.000004
# 6 -0.000025 -0.000020 -0.000019 0.015497 0.000004 0.050612
#
#
# Mechanical properties :
#
#
# Convention : Reuss Voigt Hill
#
# Bulk Modulus (GPa) = 5.74140 7.71075 6.72607
# Shear Modulus (GPa) = 16.50497 22.77503 19.64000
#
# Velocity S-wave (km/s) = 2.70029 3.17200 2.94560
# Velocity P-wave (km/s) = 3.50122 4.10145 3.81316
#
# Compressibility (1/GPa) = 0.17417357
#
# Stress axis : x y z
#
# Youngs Moduli (GPa) = 45.62996 32.72840 15.03969
#
# Poissons Ratio (x) = -0.14087 -0.19450
# Poissons Ratio (y) = -0.19641 -0.15595
# Poissons Ratio (z) = -0.59012 -0.33938
#
# Static dielectric constant tensor:
#      x y z
#    x 1.841890 0.000000 0.028250 
#    y 0.000000 1.836070 0.000000 
#    z 0.028250 0.000000 1.812270 
# 
# From -- ./inp_files/378261.got.cif
#   From: 2010.05.17/outbox.cif.g08.bks.cpg/sg12_190_cif.got.tgz:378261.got - 2010.06.03 13:09:07.
