data_PCOD9203553
_publ_section_title
;
Structure prediction by ZEFSAII (Michael W. Deem and Ramdas Pophale) SiO2 
 PCOD9203553
Probable space group: C 2/M
;
_chemical_formula_sum "Si O2"
_cell_formula_units_Z 36
_cell_length_a 9.264475
_cell_length_b 29.112864
_cell_length_c 9.380772
_cell_angle_alpha 90.000000
_cell_angle_beta 45.850391
_cell_angle_gamma 90.000000
_cell_volume 1815.433908
_symmetry_space_group_name_H-M "C 2/M"
_symmetry_group_IT_number 12
_symmetry_cell_setting 'monoclinic'
loop_
_space_group_symop_operation_xyz
x,y,z
-x,y,-z
-x,-y,-z
x,-y,z
1/2+x,1/2+y,z
1/2-x,1/2+y,-z
1/2-x,1/2-y,-z
1/2+x,1/2-y,z
loop_
_atom_site_type_symbol
_atom_site_label
_atom_site_fract_x
_atom_site_fract_y
_atom_site_fract_z
Si Si1 0.293063 0.552059 0.730044
Si Si2 0.652930 0.688077 0.612950
Si Si3 0.885379 0.108921 0.938260
Si Si4 0.500000 0.242418 0.500000
Si Si5 0.542935 0.860293 0.811033
O O1 0.500000 0.554424 0.500000
O O2 0.217618 0.500000 0.775676
O O3 0.341419 0.568525 0.856649
O O4 0.143673 0.589879 0.768400
O O5 0.522797 0.646943 0.765465
O O6 0.513190 0.725376 0.630393
O O7 0.802956 0.669104 0.387155
O O8 0.798809 0.711992 0.627441
O O9 0.670083 0.132138 0.118262
O O10 0.000000 0.093489 0.000000
O O11 0.500000 0.841317 0.000000
#
# Coordination Sequence:
#
# PCOD9203553 Si02
#       5
#     8   8   8   4   8
#     4  10  20  39  64  89 117 157 198 239 286 350
#     4  11  21  42  55  86 121 151 199 249 286 358
#     4  11  23  38  62  90 121 159 193 242 299 344
#     4  10  22  36  64  78 116 164 188 246 310 324
#     4  10  21  37  64  87 114 162 199 236 293 354
#
# _framework density 19.829968999999998
#
# number of rings (size 3 to 8) (size 9 to 14) (size 15 to 20)
#    0.000    1.556    2.222    4.000    0.000    4.444 
#    0.000   22.222    0.000    2.667    0.000    0.000 
#    0.000    0.000    0.000    0.000    0.000    0.000 
#
# Total GULP energy -100591.544150 kJ/mol
# GULP energy per Si atom -5588.419119 kJ/mol
# Density = 1.978483 g / cm^3
# Si number density = 19.829969 Si / 1000 Ang^3
#
#
#
# Elastic Constant Matrix: (Units=GPa)
#
#
# Indices 1 2 3 4 5 6 
#
# 1 127.0932 27.5166 28.2001 0.0000 -2.4450 0.0000
# 2 27.5166 75.6622 39.7107 0.0000 5.5542 0.0000
# 3 28.2001 39.7107 87.2441 0.0000 -15.8843 0.0000
# 4 0.0000 0.0000 0.0000 -6.8431 0.0000 2.1557
# 5 -2.4450 5.5542 -15.8843 0.0000 21.6804 0.0000
# 6 0.0000 0.0000 0.0000 2.1557 0.0000 28.0181
#
#
#
# Elastic Compliance Matrix: (Units=1/GPa)
#
#
# Indices 1 2 3 4 5 6 
#
# 1 0.008755 -0.002301 -0.001726 0.000000 0.000313 0.000000
# 2 -0.002301 0.021060 -0.011391 0.000000 -0.014000 0.000000
# 3 -0.001726 -0.011391 0.020425 0.000000 0.017688 0.000000
# 4 0.000000 0.000000 0.000000 -0.142674 0.000000 0.010977
# 5 0.000313 -0.014000 0.017688 0.000000 0.062706 0.000000
# 6 0.000000 0.000000 0.000000 0.010977 0.000000 0.034847
#
#
# Mechanical properties :
#
#
# Convention : Reuss Voigt Hill
#
# Bulk Modulus (GPa) = 51.53435 53.42826 52.48130
# Shear Modulus (GPa) = 117.86219 21.54254 69.70237
#
# Velocity S-wave (km/s) = 7.71786 3.29958 5.93518
# Velocity P-wave (km/s) = 10.26962 6.44344 8.57272
#
# Compressibility (1/GPa) = 0.01940453
#
# Stress axis : x y z
#
# Youngs Moduli (GPa) = 114.21501 47.48402 48.95970
#
# Poissons Ratio (x) = 0.10928 0.08448
# Poissons Ratio (y) = 0.26286 0.55769
# Poissons Ratio (z) = 0.19708 0.54088
#
# Static dielectric constant tensor:
#      x y z
#    x 1.699370 0.000000 -0.008010 
#    y 0.000000 1.688930 0.000000 
#    z -0.008010 0.000000 1.699710 
# 
# From -- ./inp_files/41299.got.cif
#   From: 2010.05.17/outbox.cif.g08.bks.cpg/sg12_21_cif.got.tgz:41299.got - 2010.06.03 13:09:07.
