data_PCOD9203381
_publ_section_title
;
Structure prediction by ZEFSAII (Michael W. Deem and Ramdas Pophale) SiO2 
 PCOD9203381
Probable space group: C 2/M
;
_chemical_formula_sum "Si O2"
_cell_formula_units_Z 64
_cell_length_a 31.576318
_cell_length_b 19.306216
_cell_length_c 9.722613
_cell_angle_alpha 90.000000
_cell_angle_beta 149.481556
_cell_angle_gamma 90.000000
_cell_volume 3009.870241
_symmetry_space_group_name_H-M "C 2/M"
_symmetry_group_IT_number 12
_symmetry_cell_setting 'monoclinic'
loop_
_space_group_symop_operation_xyz
x,y,z
-x,y,-z
-x,-y,-z
x,-y,z
1/2+x,1/2+y,z
1/2-x,1/2+y,-z
1/2-x,1/2-y,-z
1/2+x,1/2-y,z
loop_
_atom_site_type_symbol
_atom_site_label
_atom_site_fract_x
_atom_site_fract_y
_atom_site_fract_z
Si Si1 0.487676 0.295965 0.121433
Si Si2 0.416452 0.774091 0.171401
Si Si3 0.258648 0.221727 0.369834
Si Si4 0.138081 0.922843 0.267204
Si Si5 0.400440 0.924359 0.225392
Si Si6 0.711415 0.074355 0.531829
Si Si7 0.168313 0.160606 0.616233
Si Si8 0.226028 0.574920 0.899072
O O1 0.452915 0.237505 0.122273
O O2 0.576779 0.324808 0.416461
O O3 0.500000 0.272291 0.000000
O O4 0.426204 0.361947 0.947342
O O5 0.500000 0.764234 0.500000
O O6 0.379291 0.851429 0.093185
O O7 0.337497 0.720904 0.957772
O O8 0.250000 0.250000 0.500000
O O9 0.315751 0.153794 0.551052
O O10 0.303458 0.273068 0.390774
O O11 0.210063 0.923906 0.353097
O O12 0.170709 0.901015 0.509383
O O13 0.101175 0.000000 0.168618
O O14 0.500000 0.925890 0.500000
O O15 0.364259 0.920981 0.279300
O O16 0.371165 0.000000 0.086581
O O17 0.729961 0.073253 0.746876
O O18 0.667477 0.000000 0.380131
O O19 0.225855 0.138782 0.902030
O O20 0.261685 0.500000 0.044216
#
# Coordination Sequence:
#
# PCOD9203381 Si02
#       8
#     8   8   8   8   8   8   8   8
#     4  10  22  39  58  88 126 165 205 257 313 368
#     4  11  23  40  65  90 123 163 209 258 309 378
#     4  12  22  41  64  91 126 165 211 260 315 372
#     4  10  20  39  62  87 124 173 209 245 309 386
#     4   9  19  38  62  86 120 160 202 252 316 372
#     4  10  22  39  62  89 128 166 204 255 313 376
#     4  11  22  35  62  92 119 161 211 265 310 367
#     4  10  21  37  58  93 127 155 202 263 314 366
#
# _framework density 21.263375
#
# number of rings (size 3 to 8) (size 9 to 14) (size 15 to 20)
#    0.000    1.625    3.750    1.125    1.750    5.250 
#    0.000    0.625    0.000    3.375    0.000    0.000 
#    0.000    0.000    0.000    0.000    0.000    0.000 
#
# Total GULP energy -178195.250449 kJ/mol
# GULP energy per Si atom -5568.601577 kJ/mol
# Density = 2.121498 g / cm^3
# Si number density = 21.263375 Si / 1000 Ang^3
#
#
#
# Elastic Constant Matrix: (Units=GPa)
#
#
# Indices 1 2 3 4 5 6 
#
# 1 93.6432 17.5687 6.1008 0.0000 -10.1453 0.0000
# 2 17.5687 99.9441 -0.9345 0.0000 -24.3450 0.0000
# 3 6.1008 -0.9345 46.4871 0.0000 6.8583 0.0000
# 4 0.0000 0.0000 0.0000 9.8057 0.0000 -14.3584
# 5 -10.1453 -24.3450 6.8583 0.0000 18.7991 0.0000
# 6 0.0000 0.0000 0.0000 -14.3584 0.0000 15.6568
#
#
#
# Elastic Compliance Matrix: (Units=1/GPa)
#
#
# Indices 1 2 3 4 5 6 
#
# 1 0.011644 -0.000462 -0.002511 0.000000 0.006602 0.000000
# 2 -0.000462 0.014948 -0.002598 0.000000 0.020056 0.000000
# 3 -0.002511 -0.002598 0.023764 0.000000 -0.013389 0.000000
# 4 0.000000 0.000000 0.000000 -0.297440 0.000000 -0.272774
# 5 0.006602 0.020056 -0.013389 0.000000 0.087614 0.000000
# 6 0.000000 0.000000 0.000000 -0.272774 0.000000 -0.186284
#
#
# Mechanical properties :
#
#
# Convention : Reuss Voigt Hill
#
# Bulk Modulus (GPa) = 25.50147 31.72715 28.61431
# Shear Modulus (GPa) = -15.55019 23.34162 3.89571
#
# Velocity S-wave (km/s) = -2.70721 3.31681 1.35503
# Velocity P-wave (km/s) = 1.49905 5.44258 3.99180
#
# Compressibility (1/GPa) = 0.03921343
#
# Stress axis : x y z
#
# Youngs Moduli (GPa) = 85.87821 66.89910 42.08044
#
# Poissons Ratio (x) = 0.03093 0.10568
# Poissons Ratio (y) = 0.03971 0.10931
# Poissons Ratio (z) = 0.21567 0.17378
#
# Static dielectric constant tensor:
#      x y z
#    x 1.747910 0.000000 0.014980 
#    y 0.000000 1.869580 0.000000 
#    z 0.014980 0.000000 1.809800 
# 
# From -- ./inp_files/112879.got.cif
#   From: 2010.05.17/outbox.cif.g08.bks.cpg/sg12_57_cif.got.tgz:112879.got - 2010.06.03 13:09:07.
