data_PCOD9203781
_publ_section_title
;
Structure prediction by ZEFSAII (Michael W. Deem and Ramdas Pophale) SiO2 
 PCOD9203781
Probable space group: C 2/M
;
_chemical_formula_sum "Si O2"
_cell_formula_units_Z 40
_cell_length_a 9.148462
_cell_length_b 13.111871
_cell_length_c 17.184826
_cell_angle_alpha 90.000000
_cell_angle_beta 90.488286
_cell_angle_gamma 90.000000
_cell_volume 2061.304372
_symmetry_space_group_name_H-M "C 2/M"
_symmetry_group_IT_number 12
_symmetry_cell_setting 'monoclinic'
loop_
_space_group_symop_operation_xyz
x,y,z
-x,y,-z
-x,-y,-z
x,-y,z
1/2+x,1/2+y,z
1/2-x,1/2+y,-z
1/2-x,1/2-y,-z
1/2+x,1/2-y,z
loop_
_atom_site_type_symbol
_atom_site_label
_atom_site_fract_x
_atom_site_fract_y
_atom_site_fract_z
Si Si1 0.505644 0.880269 0.739309
Si Si2 0.341143 0.605809 0.536845
Si Si3 0.502097 0.620116 0.093359
Si Si4 0.748886 0.753173 0.177267
Si Si5 0.604111 0.178673 0.425757
O O1 0.362749 0.827687 0.777802
O O2 0.646394 0.816232 0.767965
O O3 0.477613 0.867442 0.647270
O O4 0.517079 0.000000 0.759295
O O5 0.500000 0.601382 0.500000
O O6 0.307914 0.500000 0.578950
O O7 0.336871 0.706827 0.588702
O O8 0.238015 0.616704 0.461416
O O9 0.502391 0.500000 0.115222
O O10 0.645089 0.678160 0.126778
O O11 0.360240 0.677910 0.127228
O O12 0.500000 0.626710 0.000000
O O13 0.500000 0.185088 0.500000
#
# Coordination Sequence:
#
# PCOD9203781 Si02
#       5
#     8   8   8   8   8
#     4  11  24  41  60  84 123 164 196 248 305 350
#     4   9  19  35  55  77 105 138 190 251 298 347
#     4  10  20  39  67  94 122 157 195 237 286 348
#     4  10  23  40  60  92 126 156 196 240 291 362
#     4  10  22  38  55  80 111 146 205 252 293 349
#
# _framework density 19.405189
#
# number of rings (size 3 to 8) (size 9 to 14) (size 15 to 20)
#    0.000    2.000    0.000    2.400    8.400    1.600 
#    0.000    4.000    0.000    9.600    0.000    0.000 
#    0.000    0.000    0.000    0.000    0.000    0.000 
#
# Total GULP energy -111597.375586 kJ/mol
# GULP energy per Si atom -5579.868779 kJ/mol
# Density = 1.936102 g / cm^3
# Si number density = 19.405189 Si / 1000 Ang^3
#
#
#
# Elastic Constant Matrix: (Units=GPa)
#
#
# Indices 1 2 3 4 5 6 
#
# 1 129.1155 59.2845 50.9192 0.0000 16.2989 0.0000
# 2 59.2845 169.6802 40.0343 0.0000 4.0478 0.0000
# 3 50.9192 40.0343 80.9579 0.0000 5.5101 0.0000
# 4 0.0000 0.0000 0.0000 414.1881 0.0000 19.4803
# 5 16.2989 4.0478 5.5101 0.0000 24.7025 0.0000
# 6 0.0000 0.0000 0.0000 19.4803 0.0000 32.3855
#
#
#
# Elastic Compliance Matrix: (Units=1/GPa)
#
#
# Indices 1 2 3 4 5 6 
#
# 1 0.012067 -0.002691 -0.005836 0.000000 -0.006219 0.000000
# 2 -0.002691 0.007275 -0.001975 0.000000 0.001024 0.000000
# 3 -0.005836 -0.001975 0.016973 0.000000 0.000388 0.000000
# 4 0.000000 0.000000 0.000000 0.002485 0.000000 -0.001495
# 5 -0.006219 0.001024 0.000388 0.000000 0.044331 0.000000
# 6 0.000000 0.000000 0.000000 -0.001495 0.000000 0.031777
#
#
# Mechanical properties :
#
#
# Convention : Reuss Voigt Hill
#
# Bulk Modulus (GPa) = 65.30832 75.58108 70.44470
# Shear Modulus (GPa) = 35.45736 109.55625 72.50680
#
# Velocity S-wave (km/s) = 4.27923 7.52195 6.11929
# Velocity P-wave (km/s) = 7.62521 10.69921 9.29024
#
# Compressibility (1/GPa) = 0.01531199
#
# Stress axis : x y z
#
# Youngs Moduli (GPa) = 82.87009 137.45486 58.91813
#
# Poissons Ratio (x) = 0.36987 0.34383
# Poissons Ratio (y) = 0.22299 0.11635
# Poissons Ratio (z) = 0.48361 0.27145
#
# Static dielectric constant tensor:
#      x y z
#    x 1.622580 0.000000 -0.008060 
#    y 0.000000 1.740270 0.000000 
#    z -0.008060 0.000000 1.637760 
# 
# From -- ./inp_files/254733.got.cif
#   From: 2010.05.17/outbox.cif.g08.bks.cpg/sg12_128_cif.got.tgz:254733.got - 2010.06.03 13:09:07.
