data_PCOD9203988
_publ_section_title
;
Structure prediction by ZEFSAII (Michael W. Deem and Ramdas Pophale) SiO2 
 PCOD9203988
Probable space group: C 2/M
;
_chemical_formula_sum "Si O2"
_cell_formula_units_Z 56
_cell_length_a 19.723575
_cell_length_b 8.987582
_cell_length_c 27.297932
_cell_angle_alpha 90.000000
_cell_angle_beta 38.583422
_cell_angle_gamma 90.000000
_cell_volume 3017.877276
_symmetry_space_group_name_H-M "C 2/M"
_symmetry_group_IT_number 12
_symmetry_cell_setting 'monoclinic'
loop_
_space_group_symop_operation_xyz
x,y,z
-x,y,-z
-x,-y,-z
x,-y,z
1/2+x,1/2+y,z
1/2-x,1/2+y,-z
1/2-x,1/2-y,-z
1/2+x,1/2-y,z
loop_
_atom_site_type_symbol
_atom_site_label
_atom_site_fract_x
_atom_site_fract_y
_atom_site_fract_z
Si Si1 0.249621 0.822181 0.262787
Si Si2 0.339895 0.823075 0.483780
Si Si3 0.518311 0.321618 0.859834
Si Si4 0.092305 0.178434 0.180456
Si Si5 0.956760 0.178239 0.682753
Si Si6 0.293349 0.678398 0.025937
Si Si7 0.371285 0.321980 0.567870
O O1 0.366550 0.748010 0.192852
O O2 0.163563 0.785160 0.268894
O O3 0.191581 0.781885 0.346978
O O4 0.263600 0.000000 0.254780
O O5 0.250000 0.750000 0.500000
O O6 0.455418 0.765701 0.398362
O O7 0.326625 0.764631 0.546428
O O8 0.332871 0.000000 0.485976
O O9 0.528156 0.500000 0.853293
O O10 0.476260 0.275534 0.829007
O O11 0.421343 0.284202 0.952761
O O12 0.034797 0.211180 0.264351
O O13 0.210735 0.254769 0.111970
O O14 0.107582 0.000000 0.168691
O O15 0.973153 0.000000 0.666088
O O16 0.283413 0.500000 0.029915
O O17 0.250000 0.750000 0.000000
O O18 0.500000 0.290527 0.500000
O O19 0.360541 0.500000 0.566255
#
# Coordination Sequence:
#
# PCOD9203988 Si02
#       7
#     8   8   8   8   8   8   8
#     4  10  21  36  58  83 111 149 188 229 278 333
#     4  12  26  41  60  86 115 150 192 237 286 337
#     4   9  19  34  53  82 113 143 183 232 278 326
#     4   9  19  35  58  83 110 145 185 232 282 332
#     4  10  21  41  60  81 115 152 187 230 286 337
#     4   9  17  32  54  80 111 146 184 227 280 332
#     4  10  20  40  63  83 113 151 190 234 284 336
#
# _framework density 18.556089
#
# number of rings (size 3 to 8) (size 9 to 14) (size 15 to 20)
#    0.000    2.143    1.429    2.571    2.000    4.857 
#    0.000    0.714    0.000    4.286    0.000    0.000 
#    0.000    0.000    0.000    0.000    0.000    0.000 
#
# Total GULP energy -156246.500560 kJ/mol
# GULP energy per Si atom -5580.232163 kJ/mol
# Density = 1.851385 g / cm^3
# Si number density = 18.556089 Si / 1000 Ang^3
#
#
#
# Elastic Constant Matrix: (Units=GPa)
#
#
# Indices 1 2 3 4 5 6 
#
# 1 59.2894 13.9636 -8.3920 0.0000 -11.9673 -0.0001
# 2 13.9636 20.4769 2.5612 -0.0001 -3.2459 0.0000
# 3 -8.3920 2.5612 26.5475 0.0000 -17.2572 0.0000
# 4 0.0000 -0.0001 0.0000 32.8541 0.0000 -5.3390
# 5 -11.9673 -3.2459 -17.2572 0.0000 34.9516 0.0000
# 6 -0.0001 0.0000 0.0000 -5.3390 0.0000 26.2066
#
#
#
# Elastic Compliance Matrix: (Units=1/GPa)
#
#
# Indices 1 2 3 4 5 6 
#
# 1 0.028869 -0.019528 0.023941 0.000000 0.019892 0.000000
# 2 -0.019528 0.062900 -0.018837 0.000000 -0.010145 0.000000
# 3 0.023941 -0.018837 0.075467 0.000000 0.043709 0.000000
# 4 0.000000 0.000000 0.000000 0.031480 0.000000 0.006413
# 5 0.019892 -0.010145 0.043709 0.000000 0.056061 0.000000
# 6 0.000000 0.000000 0.000000 0.006413 0.000000 0.039465
#
#
# Mechanical properties :
#
#
# Convention : Reuss Voigt Hill
#
# Bulk Modulus (GPa) = 7.22603 13.61995 10.42299
# Shear Modulus (GPa) = 13.54208 25.34785 19.44497
#
# Velocity S-wave (km/s) = 2.70440 3.69997 3.24064
# Velocity P-wave (km/s) = 3.69517 5.06052 4.43075
#
# Compressibility (1/GPa) = 0.13838855
#
# Stress axis : x y z
#
# Youngs Moduli (GPa) = 34.63884 15.89822 13.25085
#
# Poissons Ratio (x) = 0.31046 -0.31723
# Poissons Ratio (y) = 0.67643 0.24960
# Poissons Ratio (z) = -0.82928 0.29947
#
# Static dielectric constant tensor:
#      x y z
#    x 1.634260 0.000000 0.000910 
#    y 0.000000 1.625050 0.000000 
#    z 0.000910 0.000000 1.653120 
# 
# From -- ./inp_files/362958.got.cif
#   From: 2010.05.17/outbox.cif.g08.bks.cpg/sg12_182_cif.got.tgz:362958.got - 2010.06.03 13:09:07.
