data_PCOD9203063
_publ_section_title
;
Structure prediction by ZEFSAII (Michael W. Deem and Ramdas Pophale) SiO2 
 PCOD9203063
Probable space group: C 2/M
;
_chemical_formula_sum "Si O2"
_cell_formula_units_Z 64
_cell_length_a 31.386710
_cell_length_b 8.615366
_cell_length_c 19.892277
_cell_angle_alpha 90.000000
_cell_angle_beta 38.532458
_cell_angle_gamma 90.000000
_cell_volume 3350.909594
_symmetry_space_group_name_H-M "C 2/M"
_symmetry_group_IT_number 12
_symmetry_cell_setting 'monoclinic'
loop_
_space_group_symop_operation_xyz
x,y,z
-x,y,-z
-x,-y,-z
x,-y,z
1/2+x,1/2+y,z
1/2-x,1/2+y,-z
1/2-x,1/2-y,-z
1/2+x,1/2-y,z
loop_
_atom_site_type_symbol
_atom_site_label
_atom_site_fract_x
_atom_site_fract_y
_atom_site_fract_z
Si Si1 0.190222 0.685354 0.772959
Si Si2 0.310284 0.813394 0.878109
Si Si3 0.947984 0.821058 0.002245
Si Si4 0.187366 0.313268 0.621423
Si Si5 0.546159 0.322009 0.509215
Si Si6 0.039595 0.185501 0.765511
Si Si7 0.192330 0.811613 0.270314
Si Si8 0.036333 0.683062 0.269177
O O1 0.197738 0.500000 0.759915
O O2 0.193353 0.742556 0.691918
O O3 0.248463 0.742193 0.752091
O O4 0.117982 0.726714 0.894822
O O5 0.302260 0.754709 0.811448
O O6 0.385558 0.765011 0.812585
O O7 0.308251 0.000000 0.880840
O O8 0.250000 0.750000 0.000000
O O9 0.989878 0.759988 0.886958
O O10 0.927566 0.000000 0.013955
O O11 0.000000 0.821219 0.000000
O O12 0.189347 0.500000 0.618615
O O13 0.250000 0.250000 0.500000
O O14 0.114502 0.258716 0.681863
O O15 0.500000 0.325962 0.500000
O O16 0.551336 0.500000 0.529042
O O17 0.620587 0.269332 0.393552
O O18 0.508929 0.216716 0.609340
O O19 0.001314 0.229480 0.744593
O O20 0.047229 0.000000 0.761869
O O21 0.194063 0.000000 0.262716
O O22 0.037904 0.500000 0.252459
#
# Coordination Sequence:
#
# PCOD9203063 Si02
#       8
#     8   8   8   8   8   8   8   8
#     4  10  23  40  62  91 125 162 201 251 307 366
#     4  11  25  43  63  89 125 165 206 256 309 369
#     4  10  21  40  64  90 119 155 205 258 308 364
#     4  11  24  42  63  92 128 168 210 255 309 368
#     4  10  20  38  66  92 120 162 206 251 305 367
#     4  11  24  42  65  91 124 165 207 257 311 370
#     4  10  22  41  63  92 125 161 205 251 303 366
#     4  11  25  42  62  92 126 161 206 259 311 367
#
# _framework density 19.099291000000001
#
# number of rings (size 3 to 8) (size 9 to 14) (size 15 to 20)
#    0.000    1.500    2.500    1.500    3.500    4.500 
#    0.000    0.000    0.000    0.000    0.000    0.000 
#    0.000    0.000    0.000    0.000    0.000    0.000 
#
# Total GULP energy -178761.880470 kJ/mol
# GULP energy per Si atom -5586.308765 kJ/mol
# Density = 1.905582 g / cm^3
# Si number density = 19.099291 Si / 1000 Ang^3
#
#
#
# Elastic Constant Matrix: (Units=GPa)
#
#
# Indices 1 2 3 4 5 6 
#
# 1 154.4439 30.6798 90.4885 -0.0343 -10.7783 0.0495
# 2 30.6798 32.1237 32.0722 -0.0107 -2.5088 0.0045
# 3 90.4885 32.0722 170.2220 -0.0213 -9.1707 0.0164
# 4 -0.0343 -0.0107 -0.0213 19.9494 0.0172 25.0255
# 5 -10.7783 -2.5088 -9.1707 0.0172 30.9674 -0.0199
# 6 0.0495 0.0045 0.0164 25.0255 -0.0199 -17.8234
#
#
#
# Elastic Compliance Matrix: (Units=1/GPa)
#
#
# Indices 1 2 3 4 5 6 
#
# 1 0.010181 -0.005266 -0.004321 -0.000006 0.001837 0.000012
# 2 -0.005266 0.041095 -0.004942 0.000007 0.000033 0.000001
# 3 -0.004321 -0.004942 0.009146 0.000002 0.000804 -0.000003
# 4 -0.000006 0.000007 0.000002 0.018153 0.000005 0.025488
# 5 0.001837 0.000033 0.000804 0.000005 0.033172 -0.000024
# 6 0.000012 0.000001 -0.000003 0.025488 -0.000024 -0.020318
#
#
# Mechanical properties :
#
#
# Convention : Reuss Voigt Hill
#
# Bulk Modulus (GPa) = 31.88263 73.69673 52.78968
# Shear Modulus (GPa) = 38.18517 20.18862 29.18690
#
# Velocity S-wave (km/s) = 4.47620 3.25473 3.91342
# Velocity P-wave (km/s) = 6.59125 7.26597 6.93681
#
# Compressibility (1/GPa) = 0.03136504
#
# Stress axis : x y z
#
# Youngs Moduli (GPa) = 98.22572 24.33372 109.33679
#
# Poissons Ratio (x) = 0.12813 0.47243
# Poissons Ratio (y) = 0.51722 0.54034
# Poissons Ratio (z) = 0.42442 0.12026
#
# Static dielectric constant tensor:
#      x y z
#    x 1.676890 -0.000010 0.001880 
#    y -0.000010 1.672730 0.000000 
#    z 0.001880 0.000000 1.617130 
# 
# From -- ./inp_files/295455.got.cif
#   From: 2010.05.17/outbox.cif.g08.bks.cpg/sg12_148_cif.got.tgz:295455.got - 2010.06.03 13:09:07.
