data_PCOD9203086
_publ_section_title
;
Structure prediction by ZEFSAII (Michael W. Deem and Ramdas Pophale) SiO2 
 PCOD9203086
Probable space group: C 2/M
;
_chemical_formula_sum "Si O2"
_cell_formula_units_Z 48
_cell_length_a 20.703516
_cell_length_b 14.014614
_cell_length_c 9.139010
_cell_angle_alpha 90.000000
_cell_angle_beta 63.383863
_cell_angle_gamma 90.000000
_cell_volume 2370.694353
_symmetry_space_group_name_H-M "C 2/M"
_symmetry_group_IT_number 12
_symmetry_cell_setting 'monoclinic'
loop_
_space_group_symop_operation_xyz
x,y,z
-x,y,-z
-x,-y,-z
x,-y,z
1/2+x,1/2+y,z
1/2-x,1/2+y,-z
1/2-x,1/2-y,-z
1/2+x,1/2-y,z
loop_
_atom_site_type_symbol
_atom_site_label
_atom_site_fract_x
_atom_site_fract_y
_atom_site_fract_z
Si Si1 0.015445 0.741505 0.642102
Si Si2 0.236772 0.395423 0.478364
Si Si3 0.136508 0.889703 0.432835
Si Si4 0.372610 0.216170 0.940150
Si Si5 0.404640 0.890232 0.200388
Si Si6 0.221550 0.274895 0.213788
O O1 0.065029 0.830694 0.545360
O O2 0.055794 0.673684 0.717516
O O3 0.000000 0.692279 0.500000
O O4 0.940486 0.768831 0.797338
O O5 0.227873 0.500000 0.419073
O O6 0.315148 0.388900 0.469104
O O7 0.179305 0.388523 0.666969
O O8 0.219848 0.317789 0.375879
O O9 0.184479 0.829533 0.267668
O O10 0.124687 0.000000 0.402757
O O11 0.405722 0.151910 0.035884
O O12 0.304653 0.272991 0.078366
O O13 0.329607 0.168313 0.847600
O O14 0.429343 0.000000 0.179805
#
# Coordination Sequence:
#
# PCOD9203086 Si02
#       6
#     8   8   8   8   8   8
#     4  12  24  43  63  95 129 173 212 265 325 382
#     4  10  20  38  66  96 124 165 214 262 319 385
#     4  11  22  40  69  95 122 169 224 266 314 378
#     4  11  24  38  63  94 129 166 215 259 323 377
#     4  11  23  40  66  96 130 168 210 264 324 389
#     4  11  21  42  65  94 125 169 213 269 314 377
#
# _framework density 20.247232
#
# number of rings (size 3 to 8) (size 9 to 14) (size 15 to 20)
#    0.000    1.000    5.000    2.000    0.000    2.667 
#    0.000    3.333    0.000    5.000    0.000    0.000 
#    0.000    0.000    0.000    0.000    0.000    0.000 
#
# Total GULP energy -133845.615522 kJ/mol
# GULP energy per Si atom -5576.900647 kJ/mol
# Density = 2.020115 g / cm^3
# Si number density = 20.247232 Si / 1000 Ang^3
#
#
#
# Elastic Constant Matrix: (Units=GPa)
#
#
# Indices 1 2 3 4 5 6 
#
# 1 105.4767 43.4048 40.6901 0.0000 -5.0177 0.0000
# 2 43.4048 89.7297 44.1057 0.0000 -0.6984 0.0000
# 3 40.6901 44.1057 116.9207 0.0000 -13.9695 0.0000
# 4 0.0000 0.0000 0.0000 11.3971 0.0000 -6.6106
# 5 -5.0177 -0.6984 -13.9695 0.0000 56.3749 0.0000
# 6 0.0000 0.0000 0.0000 -6.6106 0.0000 11.5578
#
#
#
# Elastic Compliance Matrix: (Units=1/GPa)
#
#
# Indices 1 2 3 4 5 6 
#
# 1 0.012425 -0.004797 -0.002463 0.000000 0.000436 0.000000
# 2 -0.004797 0.015605 -0.004375 0.000000 -0.001318 0.000000
# 3 -0.002463 -0.004375 0.011364 0.000000 0.002543 0.000000
# 4 0.000000 0.000000 0.000000 0.131300 0.000000 0.075098
# 5 0.000436 -0.001318 0.002543 0.000000 0.018391 0.000000
# 6 0.000000 0.000000 0.000000 0.075098 0.000000 0.129474
#
#
# Mechanical properties :
#
#
# Convention : Reuss Voigt Hill
#
# Bulk Modulus (GPa) = 62.01103 63.16981 62.59042
# Shear Modulus (GPa) = 14.40081 28.12773 21.26427
#
# Velocity S-wave (km/s) = 2.66982 3.73126 3.24424
# Velocity P-wave (km/s) = 6.34013 7.05904 6.70922
#
# Compressibility (1/GPa) = 0.01612616
#
# Stress axis : x y z
#
# Youngs Moduli (GPa) = 80.48026 64.08218 87.99785
#
# Poissons Ratio (x) = 0.30738 0.21671
# Poissons Ratio (y) = 0.38603 0.38497
# Poissons Ratio (z) = 0.19820 0.28034
#
# Static dielectric constant tensor:
#      x y z
#    x 1.762090 0.000000 -0.000450 
#    y 0.000000 1.745870 0.000000 
#    z -0.000450 0.000000 1.738010 
# 
# From -- ./inp_files/85696.got.cif
#   From: 2010.05.17/outbox.cif.g08.bks.cpg/sg12_43_cif.got.tgz:85696.got - 2010.06.03 13:09:07.
