data_PCOD9203238
_publ_section_title
;
Structure prediction by ZEFSAII (Michael W. Deem and Ramdas Pophale) SiO2 
 PCOD9203238
Probable space group: C 2/M
;
_chemical_formula_sum "Si O2"
_cell_formula_units_Z 58
_cell_length_a 28.391551
_cell_length_b 17.103309
_cell_length_c 11.465841
_cell_angle_alpha 90.000000
_cell_angle_beta 146.504306
_cell_angle_gamma 90.000000
_cell_volume 3072.666011
_symmetry_space_group_name_H-M "C 2/M"
_symmetry_group_IT_number 12
_symmetry_cell_setting 'monoclinic'
loop_
_space_group_symop_operation_xyz
x,y,z
-x,y,-z
-x,-y,-z
x,-y,z
1/2+x,1/2+y,z
1/2-x,1/2+y,-z
1/2-x,1/2-y,-z
1/2+x,1/2-y,z
loop_
_atom_site_type_symbol
_atom_site_label
_atom_site_fract_x
_atom_site_fract_y
_atom_site_fract_z
Si Si1 0.794419 0.409791 0.516088
Si Si2 0.620875 0.642199 0.718742
Si Si3 0.705366 0.679333 0.132961
Si Si4 0.653532 0.841153 0.145236
Si Si5 0.973736 0.407619 0.750535
Si Si6 0.000000 0.000000 0.500000
Si Si7 0.803772 0.409961 0.005899
Si Si8 0.386692 0.812056 0.372261
O O1 0.781075 0.500000 0.520830
O O2 0.728478 0.383193 0.280329
O O3 0.792926 0.356387 0.627538
O O4 0.889076 0.403423 0.655166
O O5 0.561694 0.569017 0.575317
O O6 0.585603 0.724100 0.597991
O O7 0.642030 0.650729 0.900647
O O8 0.711248 0.624242 0.844864
O O9 0.670307 0.756402 0.124263
O O10 0.795479 0.694433 0.252077
O O11 0.555274 0.862436 0.969111
O O12 0.678785 0.900394 0.094089
O O13 0.992642 0.500000 0.772966
O O14 0.948555 0.363550 0.579396
O O15 0.809064 0.500000 0.054286
O O16 0.868411 0.357590 0.214768
#
# Coordination Sequence:
#
# PCOD9203238 Si02
#       8
#     8   8   8   8   8   2   8   8
#     4  10  22  39  59  83 114 151 197 243 282 339
#     4  11  22  41  57  88 117 154 195 235 286 339
#     4  10  21  38  62  83 112 153 199 239 282 339
#     4  12  21  36  57  89 116 153 189 238 292 344
#     4  10  22  37  57  88 121 153 189 235 294 351
#     4  12  28  36  64  88 120 162 188 236 284 344
#     4  11  20  35  59  87 119 148 192 239 288 346
#     4  10  20  39  60  83 120 155 188 240 291 342
#
# _framework density 18.876117000000001
#
# number of rings (size 3 to 8) (size 9 to 14) (size 15 to 20)
#    0.000    1.379    3.448    3.310    2.897    3.310 
#    0.000    1.379    0.000    0.000    0.000    0.966 
#    0.000    0.000    0.000    0.000    0.000    0.000 
#
# Total GULP energy -161713.465880 kJ/mol
# GULP energy per Si atom -5576.326410 kJ/mol
# Density = 1.883315 g / cm^3
# Si number density = 18.876117 Si / 1000 Ang^3
#
#
#
# Elastic Constant Matrix: (Units=GPa)
#
#
# Indices 1 2 3 4 5 6 
#
# 1 44.4565 18.6012 7.0756 0.0000 -18.0870 0.0000
# 2 18.6012 88.6812 -5.2312 0.0000 2.9390 0.0000
# 3 7.0756 -5.2312 20.1561 0.0000 -5.6639 0.0000
# 4 0.0000 0.0000 0.0000 -78.2145 0.0000 -153.5101
# 5 -18.0870 2.9390 -5.6639 0.0000 21.7182 0.0000
# 6 0.0000 0.0000 0.0000 -153.5101 0.0000 -227.1809
#
#
#
# Elastic Compliance Matrix: (Units=1/GPa)
#
#
# Indices 1 2 3 4 5 6 
#
# 1 0.042123 -0.010438 -0.007814 0.000000 0.034455 0.000000
# 2 -0.010438 0.014052 0.004677 0.000000 -0.009375 0.000000
# 3 -0.007814 0.004677 0.055641 0.000000 0.007370 0.000000
# 4 0.000000 0.000000 0.000000 0.039193 0.000000 -0.026483
# 5 0.034455 -0.009375 0.007370 0.000000 0.077930 0.000000
# 6 0.000000 0.000000 0.000000 -0.026483 0.000000 0.013493
#
#
# Mechanical properties :
#
#
# Convention : Reuss Voigt Hill
#
# Bulk Modulus (GPa) = 11.81120 21.57611 16.69366
# Shear Modulus (GPa) = 16.78954 -47.87891 -15.54468
#
# Velocity S-wave (km/s) = 2.98562 -5.04181 -2.87280
# Velocity P-wave (km/s) = 4.26099 4.73687 1.46321
#
# Compressibility (1/GPa) = 0.08466539
#
# Stress axis : x y z
#
# Youngs Moduli (GPa) = 23.73990 71.16212 17.97249
#
# Poissons Ratio (x) = 0.74281 0.14044
# Poissons Ratio (y) = 0.24780 -0.08406
# Poissons Ratio (z) = 0.18550 -0.33282
#
# Static dielectric constant tensor:
#      x y z
#    x 1.662860 0.000000 0.019740 
#    y 0.000000 1.630480 0.000000 
#    z 0.019740 0.000000 1.686410 
# 
# From -- ./inp_files/189951.got.cif
#   From: 2010.05.17/outbox.cif.g08.bks.cpg/sg12_95_cif.got.tgz:189951.got - 2010.06.03 13:09:07.
