data_PCOD9203442
_publ_section_title
;
Structure prediction by ZEFSAII (Michael W. Deem and Ramdas Pophale) SiO2 
 PCOD9203442
Probable space group: C 2/M
;
_chemical_formula_sum "Si O2"
_cell_formula_units_Z 64
_cell_length_a 21.157805
_cell_length_b 32.369138
_cell_length_c 14.761541
_cell_angle_alpha 90.000000
_cell_angle_beta 161.358232
_cell_angle_gamma 90.000000
_cell_volume 3231.531077
_symmetry_space_group_name_H-M "C 2/M"
_symmetry_group_IT_number 12
_symmetry_cell_setting 'monoclinic'
loop_
_space_group_symop_operation_xyz
x,y,z
-x,y,-z
-x,-y,-z
x,-y,z
1/2+x,1/2+y,z
1/2-x,1/2+y,-z
1/2-x,1/2-y,-z
1/2+x,1/2-y,z
loop_
_atom_site_type_symbol
_atom_site_label
_atom_site_fract_x
_atom_site_fract_y
_atom_site_fract_z
Si Si1 0.122542 0.548313 0.804466
Si Si2 0.761942 0.546447 0.693519
Si Si3 0.692096 0.547741 0.143855
Si Si4 0.818769 0.824264 0.321569
Si Si5 0.651459 0.685821 0.426776
Si Si6 0.682878 0.405176 0.409877
Si Si7 0.642768 0.907065 0.006235
Si Si8 0.475519 0.247648 0.069486
O O1 0.135927 0.500000 0.853147
O O2 0.233386 0.551298 0.859191
O O3 0.205486 0.580444 0.990508
O O4 0.890094 0.557349 0.469369
O O5 0.686751 0.500000 0.580299
O O6 0.669652 0.576057 0.493408
O O7 0.743393 0.563442 0.769102
O O8 0.000000 0.546252 0.000000
O O9 0.640805 0.500000 0.090971
O O10 0.496191 0.574778 0.888498
O O11 0.872523 0.827216 0.500934
O O12 0.000000 0.826764 0.500000
O O13 0.677651 0.861468 0.095089
O O14 0.718041 0.779505 0.179345
O O15 0.663488 0.643910 0.387057
O O16 0.493190 0.716708 0.167670
O O17 0.850369 0.713241 0.688202
O O18 0.907355 0.415714 0.687372
O O19 0.500000 0.264445 0.000000
#
# Coordination Sequence:
#
# PCOD9203442 Si02
#       8
#     8   8   8   8   8   8   8   8
#     4   9  20  39  57  77 116 164 206 247 294 350
#     4   9  18  30  49  81 117 151 186 234 288 340
#     4   9  20  39  59  79 112 163 208 246 298 349
#     4  11  23  38  61  91 125 158 194 238 305 366
#     4  10  20  39  63  86 117 154 191 247 298 354
#     4  11  20  34  58  84 117 150 195 248 295 346
#     4  11  21  34  56  88 121 153 196 246 292 353
#     4   9  20  41  66  87 112 153 200 238 293 367
#
# _framework density 19.804853000000001
#
# number of rings (size 3 to 8) (size 9 to 14) (size 15 to 20)
#    0.000    2.125    2.500    1.500    1.750    2.500 
#    2.250    1.250    2.750    3.000    0.000    0.000 
#    0.000    0.000    0.000    0.000    0.000    0.000 
#
# Total GULP energy -178520.442424 kJ/mol
# GULP energy per Si atom -5578.763826 kJ/mol
# Density = 1.975978 g / cm^3
# Si number density = 19.804853 Si / 1000 Ang^3
#
#
#
# Elastic Constant Matrix: (Units=GPa)
#
#
# Indices 1 2 3 4 5 6 
#
# 1 76.8328 30.6413 20.1808 0.0000 -21.6892 -0.0001
# 2 30.6413 77.6012 18.8826 -0.0001 -22.1448 -0.0001
# 3 20.1808 18.8826 65.3014 -0.0007 -1.2617 0.0000
# 4 0.0000 -0.0001 -0.0007 21.3499 -0.0003 -12.7629
# 5 -21.6892 -22.1448 -1.2617 -0.0003 26.8659 0.0000
# 6 -0.0001 -0.0001 0.0000 -12.7629 0.0000 8.4816
#
#
#
# Elastic Compliance Matrix: (Units=1/GPa)
#
#
# Indices 1 2 3 4 5 6 
#
# 1 0.018991 -0.002623 -0.004861 0.000001 0.012942 0.000002
# 2 -0.002623 0.018722 -0.004350 0.000002 0.013110 0.000003
# 3 -0.004861 -0.004350 0.017945 0.000004 -0.006667 0.000005
# 4 0.000001 0.000002 0.000004 0.466307 0.000008 0.701691
# 5 0.012942 0.013110 -0.006667 0.000008 0.058163 0.000012
# 6 0.000002 0.000003 0.000005 0.701691 0.000012 1.173795
#
#
# Mechanical properties :
#
#
# Convention : Reuss Voigt Hill
#
# Bulk Modulus (GPa) = 31.25863 39.90497 35.58180
# Shear Modulus (GPa) = 2.79603 21.34152 12.06877
#
# Velocity S-wave (km/s) = 1.18948 3.28623 2.47125
# Velocity P-wave (km/s) = 4.20762 5.88149 5.11351
#
# Compressibility (1/GPa) = 0.03199116
#
# Stress axis : x y z
#
# Youngs Moduli (GPa) = 52.65568 53.41416 55.72688
#
# Poissons Ratio (x) = 0.14011 0.27086
# Poissons Ratio (y) = 0.13812 0.24239
# Poissons Ratio (z) = 0.25594 0.23233
#
# Static dielectric constant tensor:
#      x y z
#    x 1.709010 0.000000 -0.004420 
#    y 0.000000 1.666110 0.000000 
#    z -0.004420 0.000000 1.737530 
# 
# From -- ./inp_files/236007.got.cif
#   From: 2010.05.17/outbox.cif.g08.bks.cpg/sg12_119_cif.got.tgz:236007.got - 2010.06.03 13:09:07.
