data_PCOD9203808
_publ_section_title
;
Structure prediction by ZEFSAII (Michael W. Deem and Ramdas Pophale) SiO2 
 PCOD9203808
Probable space group: C 2/M
;
_chemical_formula_sum "Si O2"
_cell_formula_units_Z 44
_cell_length_a 19.250379
_cell_length_b 7.590623
_cell_length_c 12.437857
_cell_angle_alpha 90.000000
_cell_angle_beta 97.254635
_cell_angle_gamma 90.000000
_cell_volume 1802.899980
_symmetry_space_group_name_H-M "C 2/M"
_symmetry_group_IT_number 12
_symmetry_cell_setting 'monoclinic'
loop_
_space_group_symop_operation_xyz
x,y,z
-x,y,-z
-x,-y,-z
x,-y,z
1/2+x,1/2+y,z
1/2-x,1/2+y,-z
1/2-x,1/2-y,-z
1/2+x,1/2-y,z
loop_
_atom_site_type_symbol
_atom_site_label
_atom_site_fract_x
_atom_site_fract_y
_atom_site_fract_z
Si Si1 0.762043 0.000000 0.805476
Si Si2 0.575354 0.701265 0.482468
Si Si3 0.190686 0.206732 0.663515
Si Si4 0.067983 0.295250 0.240196
Si Si5 0.089166 0.205188 0.849635
Si Si6 0.827820 0.699591 0.927235
O O1 0.749540 0.157041 0.711735
O O2 0.769013 0.154394 0.901539
O O3 0.500000 0.783875 0.500000
O O4 0.572398 0.500000 0.523980
O O5 0.645701 0.770386 0.551753
O O6 0.579015 0.701922 0.355405
O O7 0.134482 0.221267 0.750407
O O8 0.212070 0.000000 0.656949
O O9 0.082974 0.500000 0.261204
O O10 0.117653 0.232489 0.154437
O O11 0.987999 0.275489 0.187989
O O12 0.083722 0.000000 0.876137
O O13 0.127468 0.297022 0.955610
O O14 0.805328 0.500000 0.898417
#
# Coordination Sequence:
#
# PCOD9203808 Si02
#       6
#     4   8   8   8   8   8
#     4  12  26  46  70  90 130 197 225 266 323 393
#     4  10  20  39  68 100 133 168 210 279 344 393
#     4  10  24  43  66 102 135 168 224 280 329 389
#     4  11  24  39  68 100 137 170 216 280 338 401
#     4  11  22  41  68 103 134 172 215 276 344 399
#     4  11  26  46  64  97 136 177 230 272 325 392
#
# _framework density 24.405124000000001
#
# number of rings (size 3 to 8) (size 9 to 14) (size 15 to 20)
#    0.000    1.273    2.727    2.182    6.364    3.273 
#    0.000    0.909    0.000    0.000    0.000    0.000 
#    0.000    0.000    0.000    0.000    0.000    0.000 
#
# Total GULP energy -122652.948502 kJ/mol
# GULP energy per Si atom -5575.134023 kJ/mol
# Density = 2.434958 g / cm^3
# Si number density = 24.405124 Si / 1000 Ang^3
#
#
#
# Elastic Constant Matrix: (Units=GPa)
#
#
# Indices 1 2 3 4 5 6 
#
# 1 50.5986 10.8149 37.8499 0.0000 11.3995 0.0000
# 2 10.8149 107.2487 31.9014 0.0000 12.9825 0.0000
# 3 37.8499 31.9014 153.3897 0.0000 37.3937 0.0000
# 4 0.0000 0.0000 0.0000 32.8801 0.0000 11.7096
# 5 11.3995 12.9825 37.3937 0.0000 48.8577 0.0000
# 6 0.0000 0.0000 0.0000 11.7096 0.0000 4.9764
#
#
#
# Elastic Compliance Matrix: (Units=1/GPa)
#
#
# Indices 1 2 3 4 5 6 
#
# 1 0.024349 -0.000648 -0.005570 0.000000 -0.001246 0.000000
# 2 -0.000648 0.010024 -0.001613 0.000000 -0.001278 0.000000
# 3 -0.005570 -0.001613 0.009599 0.000000 -0.005618 0.000000
# 4 0.000000 0.000000 0.000000 0.187725 0.000000 -0.441721
# 5 -0.001246 -0.001278 -0.005618 0.000000 0.025398 0.000000
# 6 0.000000 0.000000 0.000000 -0.441721 0.000000 1.240331
#
#
# Mechanical properties :
#
#
# Convention : Reuss Voigt Hill
#
# Bulk Modulus (GPa) = 35.32323 52.48548 43.90435
# Shear Modulus (GPa) = 3.28402 32.72089 18.00246
#
# Velocity S-wave (km/s) = 1.16127 3.66558 2.71892
# Velocity P-wave (km/s) = 4.03772 6.28235 5.28068
#
# Compressibility (1/GPa) = 0.02830999
#
# Stress axis : x y z
#
# Youngs Moduli (GPa) = 41.06944 99.76031 104.17817
#
# Poissons Ratio (x) = 0.06462 0.58025
# Poissons Ratio (y) = 0.02660 0.16809
# Poissons Ratio (z) = 0.22875 0.16096
#
# Static dielectric constant tensor:
#      x y z
#    x 2.039650 0.000000 -0.028950 
#    y 0.000000 1.965230 0.000000 
#    z -0.028950 0.000000 1.951920 
# 
# From -- ./inp_files/163207.got.cif
#   From: 2010.05.17/outbox.cif.g08.bks.cpg/sg12_82_cif.got.tgz:163207.got - 2010.06.03 13:09:07.
