data_PCOD9203322
_publ_section_title
;
Structure prediction by ZEFSAII (Michael W. Deem and Ramdas Pophale) SiO2 
 PCOD9203322
Probable space group: C 2/M
;
_chemical_formula_sum "Si O2"
_cell_formula_units_Z 50
_cell_length_a 7.360856
_cell_length_b 27.182984
_cell_length_c 9.884381
_cell_angle_alpha 90.000000
_cell_angle_beta 75.071650
_cell_angle_gamma 90.000000
_cell_volume 1911.013985
_symmetry_space_group_name_H-M "C 2/M"
_symmetry_group_IT_number 12
_symmetry_cell_setting 'monoclinic'
loop_
_space_group_symop_operation_xyz
x,y,z
-x,y,-z
-x,-y,-z
x,-y,z
1/2+x,1/2+y,z
1/2-x,1/2+y,-z
1/2-x,1/2-y,-z
1/2+x,1/2-y,z
loop_
_atom_site_type_symbol
_atom_site_label
_atom_site_fract_x
_atom_site_fract_y
_atom_site_fract_z
Si Si1 0.910398 0.723425 0.183090
Si Si2 0.004883 0.443797 0.155405
Si Si3 0.581605 0.570734 0.242276
Si Si4 0.500000 0.500000 0.000000
Si Si5 0.839860 0.706839 0.637624
Si Si6 0.105988 0.172142 0.105721
Si Si7 0.193686 0.402966 0.379240
O O1 0.750518 0.739578 0.321542
O O2 0.811849 0.696789 0.077302
O O3 0.065852 0.694740 0.234810
O O4 0.980812 0.778851 0.146135
O O5 0.082567 0.500000 0.133515
O O6 0.789805 0.445140 0.249775
O O7 0.132915 0.414777 0.235967
O O8 0.000000 0.425540 0.000000
O O9 0.547742 0.542254 0.107883
O O10 0.609986 0.629047 0.212807
O O11 0.386894 0.566598 0.364304
O O12 0.753117 0.654647 0.611983
O O13 0.000000 0.715545 0.500000
O O14 0.000000 0.148716 0.000000
O O15 0.000000 0.412736 0.500000
#
# Coordination Sequence:
#
# PCOD9203322 Si02
#       7
#     8   8   8   2   8   8   8
#     4  10  21  37  60  95 131 176 232 275 338 420
#     4  11  26  45  72 105 133 175 239 297 357 423
#     4  12  24  45  72 104 139 188 235 300 351 423
#     4  12  24  44  76  98 130 180 246 290 360 418
#     4  10  20  39  61  91 132 178 228 278 332 409
#     4  11  22  38  62  94 139 178 226 281 354 409
#     4  11  26  46  69 103 147 188 232 287 357 423
#
# _framework density 26.164121999999999
#
# number of rings (size 3 to 8) (size 9 to 14) (size 15 to 20)
#    0.000    1.120    3.200    2.880    3.360    0.960 
#    0.000    2.400    0.000    0.000    0.000    0.000 
#    0.000    0.000    0.000    0.000    0.000    0.000 
#
# Total GULP energy -139260.565352 kJ/mol
# GULP energy per Si atom -5570.422614 kJ/mol
# Density = 2.610457 g / cm^3
# Si number density = 26.164122 Si / 1000 Ang^3
#
#
#
# Elastic Constant Matrix: (Units=GPa)
#
#
# Indices 1 2 3 4 5 6 
#
# 1 111.9164 13.7534 9.9410 0.0000 -8.1820 0.0000
# 2 13.7534 105.0652 14.3888 0.0000 -13.0648 0.0000
# 3 9.9410 14.3888 57.3551 0.0000 -6.2404 0.0000
# 4 0.0000 0.0000 0.0000 12.2026 0.0000 0.7434
# 5 -8.1820 -13.0648 -6.2404 0.0000 37.2422 0.0000
# 6 0.0000 0.0000 0.0000 0.7434 0.0000 22.7689
#
#
#
# Elastic Compliance Matrix: (Units=1/GPa)
#
#
# Indices 1 2 3 4 5 6 
#
# 1 0.009261 -0.000854 -0.001224 0.000000 0.001530 0.000000
# 2 -0.000854 0.010300 -0.002101 0.000000 0.003073 0.000000
# 3 -0.001224 -0.002101 0.018401 0.000000 0.002077 0.000000
# 4 0.000000 0.000000 0.000000 0.082113 0.000000 -0.002681
# 5 0.001530 0.003073 0.002077 0.000000 0.028614 0.000000
# 6 0.000000 0.000000 0.000000 -0.002681 0.000000 0.044007
#
#
# Mechanical properties :
#
#
# Convention : Reuss Voigt Hill
#
# Bulk Modulus (GPa) = 33.78282 38.94479 36.36380
# Shear Modulus (GPa) = 23.70546 30.19298 26.94922
#
# Velocity S-wave (km/s) = 3.01330 3.40072 3.21285
# Velocity P-wave (km/s) = 5.00465 5.50790 5.26230
#
# Compressibility (1/GPa) = 0.02960085
#
# Stress axis : x y z
#
# Youngs Moduli (GPa) = 107.98181 97.09009 54.34594
#
# Poissons Ratio (x) = 0.08295 0.06654
# Poissons Ratio (y) = 0.09226 0.11420
# Poissons Ratio (z) = 0.13221 0.20403
#
# Static dielectric constant tensor:
#      x y z
#    x 2.221850 0.000000 -0.157140 
#    y 0.000000 1.895230 0.000000 
#    z -0.157140 0.000000 2.282370 
# 
# From -- ./inp_files/123598.got.cif
#   From: 2010.05.17/outbox.cif.g08.bks.cpg/sg12_62_cif.got.tgz:123598.got - 2010.06.03 13:09:07.
