data_PCOD9203510
_publ_section_title
;
Structure prediction by ZEFSAII (Michael W. Deem and Ramdas Pophale) SiO2 
 PCOD9203510
Probable space group: C 2/M
;
_chemical_formula_sum "Si O2"
_cell_formula_units_Z 64
_cell_length_a 20.808746
_cell_length_b 24.488390
_cell_length_c 17.269194
_cell_angle_alpha 90.000000
_cell_angle_beta 160.818310
_cell_angle_gamma 90.000000
_cell_volume 2891.340852
_symmetry_space_group_name_H-M "C 2/M"
_symmetry_group_IT_number 12
_symmetry_cell_setting 'monoclinic'
loop_
_space_group_symop_operation_xyz
x,y,z
-x,y,-z
-x,-y,-z
x,-y,z
1/2+x,1/2+y,z
1/2-x,1/2+y,-z
1/2-x,1/2-y,-z
1/2+x,1/2-y,z
loop_
_atom_site_type_symbol
_atom_site_label
_atom_site_fract_x
_atom_site_fract_y
_atom_site_fract_z
Si Si1 0.766818 0.264786 0.751071
Si Si2 0.192600 0.147966 0.542844
Si Si3 0.711164 0.562196 0.700281
Si Si4 0.572348 0.632070 0.910824
Si Si5 0.345223 0.193052 0.124919
Si Si6 0.785591 0.659175 0.391090
Si Si7 0.860290 0.346639 0.981752
Si Si8 0.064051 0.560526 0.662080
O O1 0.655067 0.301787 0.559691
O O2 0.721412 0.200832 0.689281
O O3 0.749322 0.297042 0.811800
O O4 0.000000 0.269368 0.000000
O O5 0.199346 0.094973 0.606348
O O6 0.057876 0.136722 0.315336
O O7 0.408096 0.161736 0.756699
O O8 0.500000 0.560540 0.500000
O O9 0.779580 0.500000 0.769106
O O10 0.830408 0.599687 0.895922
O O11 0.425315 0.644973 0.813572
O O12 0.745404 0.675073 0.091298
O O13 0.707839 0.578480 0.073490
O O14 0.578377 0.193759 0.395745
O O15 0.250000 0.250000 0.000000
O O16 0.296660 0.152176 0.998415
O O17 0.913719 0.604487 0.526839
O O18 0.039909 0.500000 0.668603
O O19 0.000000 0.559059 0.500000
#
# Coordination Sequence:
#
# PCOD9203510 Si02
#       8
#     8   8   8   8   8   8   8   8
#     4   9  21  35  64  95 133 178 216 267 325 398
#     4  10  20  39  63  94 136 177 215 270 335 400
#     4  10  21  37  60  90 128 177 231 277 324 394
#     4  11  24  41  70  98 130 174 219 275 339 414
#     4  11  24  39  62  96 137 181 221 274 337 405
#     4  11  24  42  68 100 132 171 230 277 338 413
#     4  10  21  41  61  92 135 181 226 274 336 392
#     4  10  26  50  70  96 130 166 223 292 352 413
#
# _framework density 22.135058999999998
#
# number of rings (size 3 to 8) (size 9 to 14) (size 15 to 20)
#    0.000    1.750    1.250    2.625    5.250    5.000 
#    0.000    5.625    0.000    0.000    0.000    0.000 
#    0.000    0.000    0.000    0.000    0.000    0.000 
#
# Total GULP energy -178549.713806 kJ/mol
# GULP energy per Si atom -5579.678556 kJ/mol
# Density = 2.208468 g / cm^3
# Si number density = 22.135059 Si / 1000 Ang^3
#
#
#
# Elastic Constant Matrix: (Units=GPa)
#
#
# Indices 1 2 3 4 5 6 
#
# 1 92.3227 37.0322 41.1754 -0.0001 6.7989 -0.0001
# 2 37.0322 137.2360 36.4344 0.0001 4.1890 0.0001
# 3 41.1754 36.4344 112.4982 -0.0003 0.5753 -0.0011
# 4 -0.0001 0.0001 -0.0003 24.6968 -0.0001 7.3360
# 5 6.7989 4.1890 0.5753 -0.0001 45.0190 -0.0004
# 6 -0.0001 0.0001 -0.0011 7.3360 -0.0004 1.7377
#
#
#
# Elastic Compliance Matrix: (Units=1/GPa)
#
#
# Indices 1 2 3 4 5 6 
#
# 1 0.013885 -0.002566 -0.004242 -0.000002 -0.001804 0.000007
# 2 -0.002566 0.008469 -0.001802 -0.000002 -0.000378 0.000006
# 3 -0.004242 -0.001802 0.011022 0.000008 0.000667 -0.000025
# 4 -0.000002 -0.000002 0.000008 -0.159424 0.000006 0.673021
# 5 -0.001804 -0.000378 0.000667 0.000006 0.022512 -0.000020
# 6 0.000007 0.000006 -0.000025 0.673021 -0.000020 -2.265746
#
#
# Mechanical properties :
#
#
# Convention : Reuss Voigt Hill
#
# Bulk Modulus (GPa) = 61.89203 63.48233 62.68718
# Shear Modulus (GPa) = -2.13067 29.45170 13.66051
#
# Velocity S-wave (km/s) = -0.98217 3.65162 2.48693
# Velocity P-wave (km/s) = 5.17064 6.82062 6.05213
#
# Compressibility (1/GPa) = 0.01615717
#
# Stress axis : x y z
#
# Youngs Moduli (GPa) = 72.01771 118.07884 90.72925
#
# Poissons Ratio (x) = 0.30294 0.38488
# Poissons Ratio (y) = 0.18477 0.16348
# Poissons Ratio (z) = 0.30550 0.21276
#
# Static dielectric constant tensor:
#      x y z
#    x 1.841370 0.000000 -0.002630 
#    y 0.000000 1.845830 0.000000 
#    z -0.002630 0.000000 1.891130 
# 
# From -- ./inp_files/286441.got.cif
#   From: 2010.05.17/outbox.cif.g08.bks.cpg/sg12_144_cif.got.tgz:286441.got - 2010.06.03 13:09:07.
