data_PCOD9203836
_publ_section_title
;
Structure prediction by ZEFSAII (Michael W. Deem and Ramdas Pophale) SiO2 
 PCOD9203836
Probable space group: C 2/M
;
_chemical_formula_sum "Si O2"
_cell_formula_units_Z 56
_cell_length_a 16.708266
_cell_length_b 27.230936
_cell_length_c 8.400689
_cell_angle_alpha 90.000000
_cell_angle_beta 133.492441
_cell_angle_gamma 90.000000
_cell_volume 2772.843951
_symmetry_space_group_name_H-M "C 2/M"
_symmetry_group_IT_number 12
_symmetry_cell_setting 'monoclinic'
loop_
_space_group_symop_operation_xyz
x,y,z
-x,y,-z
-x,-y,-z
x,-y,z
1/2+x,1/2+y,z
1/2-x,1/2+y,-z
1/2-x,1/2-y,-z
1/2+x,1/2-y,z
loop_
_atom_site_type_symbol
_atom_site_label
_atom_site_fract_x
_atom_site_fract_y
_atom_site_fract_z
Si Si1 0.078145 0.116390 0.734342
Si Si2 0.066600 0.555679 0.425618
Si Si3 0.990836 0.657511 0.177631
Si Si4 0.086026 0.858684 0.245904
Si Si5 0.328449 0.442874 0.840149
Si Si6 0.235094 0.691842 0.961006
Si Si7 0.283027 0.201899 0.442714
O O1 0.000000 0.088916 0.500000
O O2 0.980574 0.146322 0.685813
O O3 0.132449 0.080749 0.939797
O O4 0.172604 0.156765 0.832064
O O5 0.053599 0.500000 0.340864
O O6 0.196516 0.563381 0.638550
O O7 0.000000 0.556904 0.500000
O O8 0.020529 0.601052 0.261192
O O9 0.879011 0.673800 0.114075
O O10 0.087982 0.692537 0.372722
O O11 0.000000 0.662652 0.000000
O O12 0.109508 0.913427 0.214238
O O13 0.206666 0.837358 0.425927
O O14 0.000000 0.835623 0.000000
O O15 0.353387 0.500000 0.869583
O O16 0.244374 0.689630 0.780542
O O17 0.250000 0.750000 0.000000
O O18 0.250000 0.250000 0.500000
#
# Coordination Sequence:
#
# PCOD9203836 Si02
#       7
#     8   8   8   8   8   8   8
#     4  11  25  40  65  94 137 174 212 277 329 398
#     4  10  20  39  69  97 131 178 225 277 342 404
#     4  12  26  43  67  99 138 173 223 284 335 406
#     4  10  21  42  65  92 128 169 219 270 325 402
#     4  10  20  41  69  97 127 174 225 271 334 406
#     4  12  27  46  66  96 132 180 228 275 338 404
#     4  12  25  43  69  95 128 174 223 278 337 398
#
# _framework density 20.195871
#
# number of rings (size 3 to 8) (size 9 to 14) (size 15 to 20)
#    0.000    1.000    4.286    3.000    6.000    3.714 
#    0.000    0.000    0.000    0.000    0.000    0.000 
#    0.000    0.000    0.000    0.000    0.000    0.000 
#
# Total GULP energy -155920.280704 kJ/mol
# GULP energy per Si atom -5568.581454 kJ/mol
# Density = 2.014990 g / cm^3
# Si number density = 20.195871 Si / 1000 Ang^3
#
#
#
# Elastic Constant Matrix: (Units=GPa)
#
#
# Indices 1 2 3 4 5 6 
#
# 1 111.7876 26.0222 29.5760 0.0000 43.1744 0.0000
# 2 26.0222 122.1217 34.5181 0.0000 23.0027 0.0000
# 3 29.5760 34.5181 71.7098 0.0000 18.6140 0.0000
# 4 0.0000 0.0000 0.0000 12.6382 0.0000 0.3049
# 5 43.1744 23.0027 18.6140 0.0000 38.9022 0.0000
# 6 0.0000 0.0000 0.0000 0.3049 0.0000 26.0114
#
#
#
# Elastic Compliance Matrix: (Units=1/GPa)
#
#
# Indices 1 2 3 4 5 6 
#
# 1 0.015994 0.000456 -0.002442 0.000000 -0.016852 0.000000
# 2 0.000456 0.010041 -0.003824 0.000000 -0.004614 0.000000
# 3 -0.002442 -0.003824 0.017701 0.000000 -0.003498 0.000000
# 4 0.000000 0.000000 0.000000 0.079148 0.000000 -0.000928
# 5 -0.016852 -0.004614 -0.003498 0.000000 0.048810 0.000000
# 6 0.000000 0.000000 0.000000 -0.000928 0.000000 0.038455
#
#
# Mechanical properties :
#
#
# Convention : Reuss Voigt Hill
#
# Bulk Modulus (GPa) = 31.13604 53.98351 42.55977
# Shear Modulus (GPa) = 21.50776 29.87721 25.69249
#
# Velocity S-wave (km/s) = 3.26691 3.85043 3.57061
# Velocity P-wave (km/s) = 5.44801 6.82318 6.17400
#
# Compressibility (1/GPa) = 0.03211712
#
# Stress axis : x y z
#
# Youngs Moduli (GPa) = 62.52423 99.58894 56.49387
#
# Poissons Ratio (x) = -0.04545 0.13795
# Poissons Ratio (y) = -0.02853 0.21603
# Poissons Ratio (z) = 0.15268 0.38082
#
# Static dielectric constant tensor:
#      x y z
#    x 1.697910 0.000000 0.014560 
#    y 0.000000 1.743140 0.000000 
#    z 0.014560 0.000000 1.728910 
# 
# From -- ./inp_files/80066.got.cif
#   From: 2010.05.17/outbox.cif.g08.bks.cpg/sg12_41_cif.got.tgz:80066.got - 2010.06.03 13:09:07.
