data_PCOD9203503
_publ_section_title
;
Structure prediction by ZEFSAII (Michael W. Deem and Ramdas Pophale) SiO2 
 PCOD9203503
Probable space group: C 2/M
;
_chemical_formula_sum "Si O2"
_cell_formula_units_Z 50
_cell_length_a 29.690169
_cell_length_b 13.530061
_cell_length_c 6.924661
_cell_angle_alpha 90.000000
_cell_angle_beta 126.520180
_cell_angle_gamma 90.000000
_cell_volume 2235.509072
_symmetry_space_group_name_H-M "C 2/M"
_symmetry_group_IT_number 12
_symmetry_cell_setting 'monoclinic'
loop_
_space_group_symop_operation_xyz
x,y,z
-x,y,-z
-x,-y,-z
x,-y,z
1/2+x,1/2+y,z
1/2-x,1/2+y,-z
1/2-x,1/2-y,-z
1/2+x,1/2-y,z
loop_
_atom_site_type_symbol
_atom_site_label
_atom_site_fract_x
_atom_site_fract_y
_atom_site_fract_z
Si Si1 0.775105 0.617401 0.751751
Si Si2 0.354381 0.387037 0.524734
Si Si3 0.547313 0.816637 0.823338
Si Si4 0.643905 0.794530 0.752927
Si Si5 0.000000 0.500000 0.500000
Si Si6 0.866940 0.386894 0.674914
Si Si7 0.042402 0.891898 0.930117
O O1 0.785312 0.500000 0.823335
O O2 0.708928 0.629167 0.563404
O O3 0.811191 0.641178 0.652875
O O4 0.799481 0.686391 0.982902
O O5 0.359723 0.500000 0.468049
O O6 0.363606 0.310311 0.373501
O O7 0.396858 0.377826 0.813039
O O8 0.595334 0.819025 0.781354
O O9 0.508860 0.910596 0.684308
O O10 0.579407 0.829965 0.107666
O O11 0.525041 0.705153 0.768349
O O12 0.641734 0.870497 0.571086
O O13 0.877533 0.500000 0.748460
O O14 0.041916 0.000000 0.830412
O O15 0.000000 0.896747 0.000000
#
# Coordination Sequence:
#
# PCOD9203503 Si02
#       7
#     8   8   8   8   2   8   8
#     4   9  20  38  60  93 135 170 215 267 324 392
#     4  10  21  40  64  93 128 170 221 277 321 391
#     4  11  25  44  65 100 133 171 221 277 330 395
#     4  11  22  38  65  97 132 172 215 266 334 398
#     4  12  28  44  68 100 136 170 228 274 324 404
#     4  10  20  39  63  91 134 178 211 263 332 389
#     4  10  23  47  73  95 128 176 227 274 334 397
#
# _framework density 22.36627
#
# number of rings (size 3 to 8) (size 9 to 14) (size 15 to 20)
#    0.000    1.760    2.400    0.960    4.480    1.280 
#    2.880    1.600    0.000    0.000    0.000    0.000 
#    0.000    0.000    0.000    0.000    0.000    0.000 
#
# Total GULP energy -139379.215941 kJ/mol
# GULP energy per Si atom -5575.168638 kJ/mol
# Density = 2.231536 g / cm^3
# Si number density = 22.366270 Si / 1000 Ang^3
#
#
#
# Elastic Constant Matrix: (Units=GPa)
#
#
# Indices 1 2 3 4 5 6 
#
# 1 5.0268 3.4861 3.0861 0.0000 8.4942 0.0000
# 2 3.4861 165.8509 21.2125 0.0000 14.1374 0.0000
# 3 3.0861 21.2125 49.7163 0.0000 -0.7524 0.0000
# 4 0.0000 0.0000 0.0000 27.2947 0.0000 -13.3554
# 5 8.4942 14.1374 -0.7524 0.0000 25.9459 0.0000
# 6 0.0000 0.0000 0.0000 -13.3554 0.0000 17.8836
#
#
#
# Elastic Compliance Matrix: (Units=1/GPa)
#
#
# Indices 1 2 3 4 5 6 
#
# 1 0.505746 0.008814 -0.037750 0.000000 -0.171469 0.000000
# 2 0.008814 0.006877 -0.003583 0.000000 -0.006737 0.000000
# 3 -0.037750 -0.003583 0.024214 0.000000 0.015013 0.000000
# 4 0.000000 0.000000 0.000000 0.057733 0.000000 0.043115
# 5 -0.171469 -0.006737 0.015013 0.000000 0.098784 0.000000
# 6 0.000000 0.000000 0.000000 0.043115 0.000000 0.088115
#
#
# Mechanical properties :
#
#
# Convention : Reuss Voigt Hill
#
# Bulk Modulus (GPa) = 2.11955 30.68483 16.40219
# Shear Modulus (GPa) = 4.98121 27.07880 16.03000
#
# Velocity S-wave (km/s) = 1.49397 3.48328 2.68004
# Velocity P-wave (km/s) = 1.98132 5.47053 4.11414
#
# Compressibility (1/GPa) = 0.47179771
#
# Stress axis : x y z
#
# Youngs Moduli (GPa) = 1.97728 145.41697 41.29923
#
# Poissons Ratio (x) = -1.28174 1.55905
# Poissons Ratio (y) = -0.01743 0.14798
# Poissons Ratio (z) = 0.07464 0.52106
#
# Static dielectric constant tensor:
#      x y z
#    x 1.821130 0.000000 0.033630 
#    y 0.000000 1.890810 0.000000 
#    z 0.033630 0.000000 1.784980 
# 
# From -- ./inp_files/31566.got.cif
#   From: 2010.05.17/outbox.cif.g08.bks.cpg/sg12_16_cif.got.tgz:31566.got - 2010.06.03 13:09:07.
