data_PCOD9203722
_publ_section_title
;
Structure prediction by ZEFSAII (Michael W. Deem and Ramdas Pophale) SiO2 
 PCOD9203722
Probable space group: C 2/M
;
_chemical_formula_sum "Si O2"
_cell_formula_units_Z 46
_cell_length_a 8.678736
_cell_length_b 15.598105
_cell_length_c 23.586189
_cell_angle_alpha 90.000000
_cell_angle_beta 138.388764
_cell_angle_gamma 90.000000
_cell_volume 2120.321975
_symmetry_space_group_name_H-M "C 2/M"
_symmetry_group_IT_number 12
_symmetry_cell_setting 'monoclinic'
loop_
_space_group_symop_operation_xyz
x,y,z
-x,y,-z
-x,-y,-z
x,-y,z
1/2+x,1/2+y,z
1/2-x,1/2+y,-z
1/2-x,1/2-y,-z
1/2+x,1/2-y,z
loop_
_atom_site_type_symbol
_atom_site_label
_atom_site_fract_x
_atom_site_fract_y
_atom_site_fract_z
Si Si1 0.993643 0.786808 0.621500
Si Si2 0.601771 0.362618 0.858892
Si Si3 0.000000 0.500000 0.000000
Si Si4 0.156343 0.195316 0.098198
Si Si5 0.909735 0.403890 0.761336
Si Si6 0.500000 0.246822 0.500000
Si Si7 0.598664 0.906283 0.683749
O O1 0.198941 0.837498 0.708153
O O2 0.023078 0.683872 0.635909
O O3 0.735010 0.807164 0.570359
O O4 0.993787 0.803831 0.554538
O O5 0.809614 0.426363 0.928840
O O6 0.703342 0.282452 0.852353
O O7 0.499728 0.329300 0.891138
O O8 0.377382 0.401532 0.766556
O O9 0.357462 0.125206 0.142501
O O10 0.000000 0.205759 0.000000
O O11 0.841215 0.500000 0.758745
O O12 0.991672 0.403664 0.718019
O O13 0.534330 0.000000 0.641416
#
# Coordination Sequence:
#
# PCOD9203722 Si02
#       7
#     8   8   2   8   8   4   8
#     4  11  20  43  65  96 127 166 202 267 314 394
#     4  11  23  40  64  91 128 170 218 264 314 375
#     4  12  24  40  62  96 134 160 218 282 306 364
#     4  11  23  40  65  93 130 172 215 266 318 368
#     4  10  22  40  65  93 128 171 216 258 315 381
#     4  10  24  38  68  96 128 162 204 254 340 380
#     4  10  20  39  66  93 122 173 213 250 312 389
#
# _framework density 21.694818000000001
#
# number of rings (size 3 to 8) (size 9 to 14) (size 15 to 20)
#    0.000    1.391    5.217    0.522    1.217    0.348 
#    0.000    6.087    0.000    0.000    0.000    0.000 
#    0.000    0.000    0.000    0.000    0.000    0.000 
#
# Total GULP energy -128228.516998 kJ/mol
# GULP energy per Si atom -5575.152913 kJ/mol
# Density = 2.164544 g / cm^3
# Si number density = 21.694818 Si / 1000 Ang^3
#
#
#
# Elastic Constant Matrix: (Units=GPa)
#
#
# Indices 1 2 3 4 5 6 
#
# 1 41.1283 11.2660 18.9209 0.0000 17.6129 0.0000
# 2 11.2660 139.7658 27.6499 0.0000 16.5567 0.0000
# 3 18.9209 27.6499 79.1661 0.0001 35.9055 0.0001
# 4 0.0000 0.0000 0.0001 6.6456 0.0000 -4.2275
# 5 17.6129 16.5567 35.9055 0.0000 34.9013 0.0000
# 6 0.0000 0.0000 0.0001 -4.2275 0.0000 -3.4411
#
#
#
# Elastic Compliance Matrix: (Units=1/GPa)
#
#
# Indices 1 2 3 4 5 6 
#
# 1 0.031087 -0.000652 -0.000426 0.000000 -0.014941 0.000000
# 2 -0.000652 0.007751 -0.001936 0.000000 -0.001356 0.000000
# 3 -0.000426 -0.001936 0.024176 0.000000 -0.023738 0.000001
# 4 0.000000 0.000000 0.000000 0.084464 0.000000 -0.103768
# 5 -0.014941 -0.001356 -0.023738 0.000000 0.061257 0.000000
# 6 0.000000 0.000000 0.000001 -0.103768 0.000000 -0.163122
#
#
# Mechanical properties :
#
#
# Convention : Reuss Voigt Hill
#
# Bulk Modulus (GPa) = 17.54817 41.74821 29.64819
# Shear Modulus (GPa) = 70.78498 21.10271 45.94384
#
# Velocity S-wave (km/s) = 5.71825 3.12221 4.60688
# Velocity P-wave (km/s) = 7.19056 5.68179 6.48023
#
# Compressibility (1/GPa) = 0.05698601
#
# Stress axis : x y z
#
# Youngs Moduli (GPa) = 32.16797 129.01442 41.36298
#
# Poissons Ratio (x) = 0.08407 0.01762
# Poissons Ratio (y) = 0.02096 0.08010
# Poissons Ratio (z) = 0.01370 0.24983
#
# Static dielectric constant tensor:
#      x y z
#    x 1.828240 0.000000 0.005500 
#    y 0.000000 1.797830 0.000000 
#    z 0.005500 0.000000 1.769250 
# 
# From -- ./inp_files/256748.got.cif
#   From: 2010.05.17/outbox.cif.g08.bks.cpg/sg12_129_cif.got.tgz:256748.got - 2010.06.03 13:09:07.
