data_PCOD9203860
_publ_section_title
;
Structure prediction by ZEFSAII (Michael W. Deem and Ramdas Pophale) SiO2 
 PCOD9203860
Probable space group: C 2/M
;
_chemical_formula_sum "Si O2"
_cell_formula_units_Z 48
_cell_length_a 14.077019
_cell_length_b 26.953663
_cell_length_c 6.306793
_cell_angle_alpha 90.000000
_cell_angle_beta 94.328482
_cell_angle_gamma 90.000000
_cell_volume 2386.143600
_symmetry_space_group_name_H-M "C 2/M"
_symmetry_group_IT_number 12
_symmetry_cell_setting 'monoclinic'
loop_
_space_group_symop_operation_xyz
x,y,z
-x,y,-z
-x,-y,-z
x,-y,z
1/2+x,1/2+y,z
1/2-x,1/2+y,-z
1/2-x,1/2-y,-z
1/2+x,1/2-y,z
loop_
_atom_site_type_symbol
_atom_site_label
_atom_site_fract_x
_atom_site_fract_y
_atom_site_fract_z
Si Si1 0.192828 0.788871 0.354592
Si Si2 0.500000 0.400804 0.000000
Si Si3 0.596866 0.798814 0.143782
Si Si4 0.826470 0.942006 0.696261
Si Si5 0.671555 0.871778 0.822314
Si Si6 0.500000 0.850610 0.500000
Si Si7 0.400588 0.630221 0.383750
O O1 0.250000 0.750000 0.500000
O O2 0.146042 0.754645 0.166315
O O3 0.262886 0.829642 0.273266
O O4 0.125307 0.818211 0.507411
O O5 0.575889 0.431659 0.153786
O O6 0.427886 0.369688 0.140744
O O7 0.568030 0.815924 0.372271
O O8 0.500000 0.792377 0.000000
O O9 0.650022 0.845553 0.044079
O O10 0.737636 0.920126 0.816212
O O11 0.830378 0.911016 0.473998
O O12 0.817525 0.000000 0.655079
O O13 0.572235 0.878099 0.674829
O O14 0.500000 0.614550 0.500000
#
# Coordination Sequence:
#
# PCOD9203860 Si02
#       7
#     8   4   8   8   8   4   8
#     4  11  21  36  58  84 123 155 197 244 289 342
#     4  10  21  40  62  84 122 160 192 236 293 362
#     4  10  22  38  59  84 117 161 198 238 291 355
#     4  10  22  40  62  89 118 152 195 247 302 354
#     4  10  22  39  59  85 115 154 200 247 290 353
#     4  10  20  40  57  82 116 154 191 246 296 342
#     4   9  22  39  55  87 121 154 193 244 282 350
#
# _framework density 20.116139
#
# number of rings (size 3 to 8) (size 9 to 14) (size 15 to 20)
#    0.000    2.000    1.667    0.750    3.500    3.667 
#   16.500    0.417    0.000    4.500    0.000    0.000 
#    0.000    0.000    0.000    0.000    0.000    0.000 
#
# Total GULP energy -133652.846205 kJ/mol
# GULP energy per Si atom -5568.868592 kJ/mol
# Density = 2.007035 g / cm^3
# Si number density = 20.116139 Si / 1000 Ang^3
#
#
#
# Elastic Constant Matrix: (Units=GPa)
#
#
# Indices 1 2 3 4 5 6 
#
# 1 74.7959 33.5500 19.7153 0.0000 -10.7600 0.0000
# 2 33.5500 81.0470 29.6494 0.0000 -9.1402 0.0000
# 3 19.7153 29.6494 79.4453 0.0000 -26.0783 0.0000
# 4 0.0000 0.0000 0.0000 12.0933 0.0000 2.3332
# 5 -10.7600 -9.1402 -26.0783 0.0000 33.8164 0.0000
# 6 0.0000 0.0000 0.0000 2.3332 0.0000 16.8282
#
#
#
# Elastic Compliance Matrix: (Units=1/GPa)
#
#
# Indices 1 2 3 4 5 6 
#
# 1 0.016865 -0.006338 -0.000831 0.000000 0.003012 0.000000
# 2 -0.006338 0.016674 -0.005132 0.000000 -0.001467 0.000000
# 3 -0.000831 -0.005132 0.018968 0.000000 0.012976 0.000000
# 4 0.000000 0.000000 0.000000 0.084963 0.000000 -0.011780
# 5 0.003012 -0.001467 0.012976 0.000000 0.040140 0.000000
# 6 0.000000 0.000000 0.000000 -0.011780 0.000000 0.061057
#
#
# Mechanical properties :
#
#
# Convention : Reuss Voigt Hill
#
# Bulk Modulus (GPa) = 35.83440 44.56859 40.20150
# Shear Modulus (GPa) = 18.34390 22.70583 20.52486
#
# Velocity S-wave (km/s) = 3.02304 3.36331 3.19771
# Velocity P-wave (km/s) = 5.48065 6.10625 5.80188
#
# Compressibility (1/GPa) = 0.02790615
#
# Stress axis : x y z
#
# Youngs Moduli (GPa) = 59.29479 59.97422 52.71978
#
# Poissons Ratio (x) = 0.38009 0.04382
# Poissons Ratio (y) = 0.37578 0.27054
# Poissons Ratio (z) = 0.04929 0.30776
#
# Static dielectric constant tensor:
#      x y z
#    x 1.766540 0.000000 -0.013090 
#    y 0.000000 1.676620 0.000000 
#    z -0.013090 0.000000 1.829090 
# 
# From -- ./inp_files/12402.got.cif
#   From: 2010.05.17/outbox.cif.g08.bks.cpg/sg12_7_cif.got.tgz:12402.got - 2010.06.03 13:09:07.
