data_PCOD9203709
_publ_section_title
;
Structure prediction by ZEFSAII (Michael W. Deem and Ramdas Pophale) SiO2 
 PCOD9203709
Probable space group: C 2/M
;
_chemical_formula_sum "Si O2"
_cell_formula_units_Z 56
_cell_length_a 13.199188
_cell_length_b 23.963041
_cell_length_c 11.811673
_cell_angle_alpha 90.000000
_cell_angle_beta 45.597579
_cell_angle_gamma 90.000000
_cell_volume 2669.120717
_symmetry_space_group_name_H-M "C 2/M"
_symmetry_group_IT_number 12
_symmetry_cell_setting 'monoclinic'
loop_
_space_group_symop_operation_xyz
x,y,z
-x,y,-z
-x,-y,-z
x,-y,z
1/2+x,1/2+y,z
1/2-x,1/2+y,-z
1/2-x,1/2-y,-z
1/2+x,1/2-y,z
loop_
_atom_site_type_symbol
_atom_site_label
_atom_site_fract_x
_atom_site_fract_y
_atom_site_fract_z
Si Si1 0.613777 0.334606 0.650367
Si Si2 0.171584 0.630136 0.128132
Si Si3 0.955403 0.563301 0.160888
Si Si4 0.311955 0.303080 0.834795
Si Si5 0.156535 0.107400 0.384099
Si Si6 0.962876 0.935480 0.895767
Si Si7 0.162983 0.704075 0.345153
O O1 0.472041 0.296855 0.757281
O O2 0.654604 0.349291 0.490203
O O3 0.563493 0.392472 0.749742
O O4 0.740780 0.307622 0.621453
O O5 0.162813 0.650262 0.263436
O O6 0.029353 0.602024 0.194975
O O7 0.208254 0.682702 0.018540
O O8 0.302949 0.587739 0.009056
O O9 0.005572 0.500000 0.135701
O O10 0.786755 0.566762 0.299982
O O11 0.000000 0.582094 0.000000
O O12 0.319152 0.358003 0.749619
O O13 0.273109 0.253305 0.781744
O O14 0.000000 0.081547 0.500000
O O15 0.974769 0.000000 0.849279
O O16 0.000000 0.932751 0.000000
O O17 0.000000 0.718435 0.500000
#
# Coordination Sequence:
#
# PCOD9203709 Si02
#       7
#     8   8   8   8   8   8   8
#     4  10  22  40  62  91 125 157 209 263 307 374
#     4  11  22  42  62  93 126 160 206 264 308 377
#     4  11  23  40  63  93 128 167 207 256 316 374
#     4  10  23  41  64  90 121 165 213 257 308 372
#     4  10  21  42  64  91 129 167 209 263 310 369
#     4  10  20  39  66  89 117 163 210 259 315 368
#     4  12  24  39  62  92 126 167 205 254 320 374
#
# _framework density 20.980692000000001
#
# number of rings (size 3 to 8) (size 9 to 14) (size 15 to 20)
#    0.000    1.429    2.857    3.000    0.000    4.286 
#    0.000    1.429    0.000    2.143    0.000    0.000 
#    0.000    0.000    0.000    0.000    0.000    0.000 
#
# Total GULP energy -156538.981869 kJ/mol
# GULP energy per Si atom -5590.677924 kJ/mol
# Density = 2.093294 g / cm^3
# Si number density = 20.980692 Si / 1000 Ang^3
#
#
#
# Elastic Constant Matrix: (Units=GPa)
#
#
# Indices 1 2 3 4 5 6 
#
# 1 124.2512 19.1403 22.4660 0.0000 -6.6633 0.0000
# 2 19.1403 38.8593 -6.3756 0.0000 -7.8052 0.0000
# 3 22.4660 -6.3756 50.8479 0.0000 1.4644 0.0000
# 4 0.0000 0.0000 0.0000 6.9514 0.0000 -4.1968
# 5 -6.6633 -7.8052 1.4644 0.0000 34.1804 0.0000
# 6 0.0000 0.0000 0.0000 -4.1968 0.0000 16.6754
#
#
#
# Elastic Compliance Matrix: (Units=1/GPa)
#
#
# Indices 1 2 3 4 5 6 
#
# 1 0.009862 -0.005513 -0.005074 0.000000 0.000881 0.000000
# 2 -0.005513 0.030586 0.006108 0.000000 0.005648 0.000000
# 3 -0.005074 0.006108 0.022691 0.000000 -0.000566 0.000000
# 4 0.000000 0.000000 0.000000 0.169630 0.000000 0.042692
# 5 0.000881 0.005648 -0.000566 0.000000 0.030742 0.000000
# 6 0.000000 0.000000 0.000000 0.042692 0.000000 0.070713
#
#
# Mechanical properties :
#
#
# Convention : Reuss Voigt Hill
#
# Bulk Modulus (GPa) = 18.45674 31.60220 25.02947
# Shear Modulus (GPa) = 13.84112 23.47663 18.65888
#
# Velocity S-wave (km/s) = 2.57126 3.34872 2.98541
# Velocity P-wave (km/s) = 4.19896 5.48153 4.88254
#
# Compressibility (1/GPa) = 0.05418075
#
# Stress axis : x y z
#
# Youngs Moduli (GPa) = 101.39758 32.69474 44.07124
#
# Poissons Ratio (x) = 0.18025 0.22362
# Poissons Ratio (y) = 0.55902 -0.26920
# Poissons Ratio (z) = 0.51449 -0.19971
#
# Static dielectric constant tensor:
#      x y z
#    x 1.727310 0.000000 -0.005460 
#    y 0.000000 1.761100 0.000000 
#    z -0.005460 0.000000 1.745270 
# 
# From -- ./inp_files/136928.got.cif
#   From: 2010.05.17/outbox.cif.g08.bks.cpg/sg12_69_cif.got.tgz:136928.got - 2010.06.03 13:09:07.
