data_PCOD9203348
_publ_section_title
;
Structure prediction by ZEFSAII (Michael W. Deem and Ramdas Pophale) SiO2 
 PCOD9203348
Probable space group: C 2/M
;
_chemical_formula_sum "Si O2"
_cell_formula_units_Z 64
_cell_length_a 20.692943
_cell_length_b 8.858717
_cell_length_c 34.657555
_cell_angle_alpha 90.000000
_cell_angle_beta 147.474406
_cell_angle_gamma 90.000000
_cell_volume 3415.953123
_symmetry_space_group_name_H-M "C 2/M"
_symmetry_group_IT_number 12
_symmetry_cell_setting 'monoclinic'
loop_
_space_group_symop_operation_xyz
x,y,z
-x,y,-z
-x,-y,-z
x,-y,z
1/2+x,1/2+y,z
1/2-x,1/2+y,-z
1/2-x,1/2-y,-z
1/2+x,1/2-y,z
loop_
_atom_site_type_symbol
_atom_site_label
_atom_site_fract_x
_atom_site_fract_y
_atom_site_fract_z
Si Si1 0.138634 0.818043 0.559894
Si Si2 0.450789 0.319444 0.136035
Si Si3 0.717319 0.320177 0.297607
Si Si4 0.750774 0.820546 0.822430
Si Si5 0.502761 0.179834 0.923113
Si Si6 0.149133 0.818234 0.476483
Si Si7 0.382685 0.318900 0.314353
Si Si8 0.759032 0.319132 0.910112
O O1 0.227051 0.742447 0.634956
O O2 0.163807 0.772741 0.528530
O O3 0.000000 0.780070 0.500000
O O4 0.149154 0.000000 0.568439
O O5 0.445170 0.500000 0.125609
O O6 0.576122 0.288644 0.221081
O O7 0.454243 0.233020 0.097329
O O8 0.338674 0.278610 0.106541
O O9 0.734160 0.500000 0.304059
O O10 0.788957 0.243834 0.298513
O O11 0.880362 0.763171 0.872684
O O12 0.652675 0.747791 0.744708
O O13 0.736008 0.764803 0.858644
O O14 0.745247 0.000000 0.817106
O O15 0.481595 0.000000 0.912397
O O16 0.608374 0.213325 0.006719
O O17 0.250000 0.750000 0.500000
O O18 0.016293 0.775247 0.395016
O O19 0.155732 0.000000 0.478564
O O20 0.374785 0.500000 0.309584
O O21 0.750818 0.500000 0.899543
#
# Coordination Sequence:
#
# PCOD9203348 Si02
#       8
#     8   8   8   8   8   8   8   8
#     4  10  20  39  62  85 117 157 202 243 288 350
#     4  10  22  40  61  88 125 159 198 253 308 359
#     4  11  22  36  60  94 123 154 198 251 303 353
#     4  12  25  40  61  91 123 159 206 257 305 359
#     4  11  22  38  64  91 118 160 209 249 301 370
#     4  10  23  41  63  91 123 160 198 245 301 356
#     4  11  22  41  65  87 119 163 202 245 300 362
#     4  10  23  42  61  87 124 163 202 250 306 368
#
# _framework density 18.735619
#
# number of rings (size 3 to 8) (size 9 to 14) (size 15 to 20)
#    0.000    1.375    2.500    3.000    0.000    6.250 
#    0.000    3.750    0.000    0.000    0.000    0.000 
#    0.000    0.000    0.000    0.000    0.000    0.000 
#
# Total GULP energy -178933.901640 kJ/mol
# GULP energy per Si atom -5591.684426 kJ/mol
# Density = 1.869298 g / cm^3
# Si number density = 18.735619 Si / 1000 Ang^3
#
#
#
# Elastic Constant Matrix: (Units=GPa)
#
#
# Indices 1 2 3 4 5 6 
#
# 1 53.1439 6.5938 -11.3429 0.0001 -15.0810 -0.0001
# 2 6.5938 36.4865 23.1447 0.0003 -8.3966 -0.0002
# 3 -11.3429 23.1447 64.9060 0.0000 -21.7019 -0.0001
# 4 0.0001 0.0003 0.0000 7.4400 0.0000 -0.9502
# 5 -15.0810 -8.3966 -21.7019 0.0000 33.4695 0.0000
# 6 -0.0001 -0.0002 -0.0001 -0.9502 0.0000 36.0235
#
#
#
# Elastic Compliance Matrix: (Units=1/GPa)
#
#
# Indices 1 2 3 4 5 6 
#
# 1 0.029489 -0.010623 0.015952 0.000000 0.020965 0.000000
# 2 -0.010623 0.039267 -0.018086 -0.000001 -0.006663 0.000000
# 3 0.015952 -0.018086 0.032597 0.000000 0.023786 0.000000
# 4 0.000000 -0.000001 0.000000 0.134862 0.000000 0.003557
# 5 0.020965 -0.006663 0.023786 0.000000 0.053076 0.000000
# 6 0.000000 0.000000 0.000000 0.003557 0.000000 0.027854
#
#
# Mechanical properties :
#
#
# Convention : Reuss Voigt Hill
#
# Bulk Modulus (GPa) = 13.18620 21.25864 17.22242
# Shear Modulus (GPa) = 13.58917 24.46265 19.02591
#
# Velocity S-wave (km/s) = 2.69608 3.61733 3.19014
# Velocity P-wave (km/s) = 4.09208 5.36825 4.77301
#
# Compressibility (1/GPa) = 0.07583689
#
# Stress axis : x y z
#
# Youngs Moduli (GPa) = 33.91088 25.46686 30.67749
#
# Poissons Ratio (x) = 0.27054 -0.48935
# Poissons Ratio (y) = 0.36024 0.55485
# Poissons Ratio (z) = -0.54093 0.46060
#
# Static dielectric constant tensor:
#      x y z
#    x 1.617640 0.000000 -0.001230 
#    y 0.000000 1.627410 0.000000 
#    z -0.001230 0.000000 1.631800 
# 
# From -- ./inp_files/378490.got.cif
#   From: 2010.05.17/outbox.cif.g08.bks.cpg/sg12_190_cif.got.tgz:378490.got - 2010.06.03 13:09:07.
