data_PCOD9203301
_publ_section_title
;
Structure prediction by ZEFSAII (Michael W. Deem and Ramdas Pophale) SiO2 
 PCOD9203301
Probable space group: C 2/M
;
_chemical_formula_sum "Si O2"
_cell_formula_units_Z 48
_cell_length_a 18.390652
_cell_length_b 13.750476
_cell_length_c 10.538555
_cell_angle_alpha 90.000000
_cell_angle_beta 89.942506
_cell_angle_gamma 90.000000
_cell_volume 2664.990754
_symmetry_space_group_name_H-M "C 2/M"
_symmetry_group_IT_number 12
_symmetry_cell_setting 'monoclinic'
loop_
_space_group_symop_operation_xyz
x,y,z
-x,y,-z
-x,-y,-z
x,-y,z
1/2+x,1/2+y,z
1/2-x,1/2+y,-z
1/2-x,1/2-y,-z
1/2+x,1/2-y,z
loop_
_atom_site_type_symbol
_atom_site_label
_atom_site_fract_x
_atom_site_fract_y
_atom_site_fract_z
Si Si1 0.501986 0.500000 0.650690
Si Si2 0.412413 0.000000 0.516782
Si Si3 0.581237 0.790001 0.371975
Si Si4 0.848883 0.000000 0.794318
Si Si5 0.658788 0.285586 0.120649
Si Si6 0.682658 0.000000 0.740808
Si Si7 0.829212 0.709382 0.146905
Si Si8 0.073784 0.794664 0.638976
O O1 0.500000 0.500000 0.500000
O O2 0.421129 0.500000 0.708223
O O3 0.543794 0.399940 0.679515
O O4 0.500000 0.000000 0.500000
O O5 0.396572 0.898951 0.589442
O O6 0.365309 0.000000 0.387193
O O7 0.618160 0.755784 0.243147
O O8 0.494426 0.779605 0.352675
O O9 0.597516 0.717694 0.491508
O O10 0.850428 0.097967 0.876956
O O11 0.770955 0.000000 0.720391
O O12 0.744235 0.264949 0.138429
O O13 0.635651 0.239826 0.986874
O O14 0.665202 0.095621 0.821867
O O15 0.864679 0.763674 0.264930
#
# Coordination Sequence:
#
# PCOD9203301 Si02
#       8
#     4   4   8   4   8   4   8   8
#     4  12  20  37  59  89 123 157 197 250 300 351
#     4  12  20  37  60  88 121 153 200 245 306 350
#     4  11  21  37  59  87 119 154 193 253 291 352
#     4  10  20  39  61  86 122 159 201 239 305 354
#     4  10  22  40  61  86 123 158 199 250 295 352
#     4  10  20  39  64  88 114 163 199 245 304 359
#     4  10  22  40  61  87 119 162 199 244 299 358
#     4  11  21  37  60  89 117 157 197 247 299 353
#
# _framework density 18.011319
#
# number of rings (size 3 to 8) (size 9 to 14) (size 15 to 20)
#    0.000    1.333    6.667    0.000    0.000    2.667 
#    3.000    2.500    0.000    3.000    0.000    0.000 
#    0.000    0.000    0.000    0.000    0.000    0.000 
#
# Total GULP energy -133864.008640 kJ/mol
# GULP energy per Si atom -5577.667027 kJ/mol
# Density = 1.797032 g / cm^3
# Si number density = 18.011319 Si / 1000 Ang^3
#
#
#
# Elastic Constant Matrix: (Units=GPa)
#
#
# Indices 1 2 3 4 5 6 
#
# 1 -45.2093 -43.0418 -80.3289 0.0000 -30.0877 0.0000
# 2 -43.0418 42.3117 -72.3047 0.0000 -20.6494 0.0000
# 3 -80.3289 -72.3047 -56.9730 0.0000 -47.0342 0.0000
# 4 0.0000 0.0000 0.0000 19.4939 0.0000 -1.0243
# 5 -30.0877 -20.6494 -47.0342 0.0000 24.0823 0.0000
# 6 0.0000 0.0000 0.0000 -1.0243 0.0000 19.0669
#
#
#
# Elastic Compliance Matrix: (Units=1/GPa)
#
#
# Indices 1 2 3 4 5 6 
#
# 1 0.028481 -0.009443 -0.019470 0.000000 -0.010540 0.000000
# 2 -0.009443 0.012235 -0.000434 0.000000 -0.002155 0.000000
# 3 -0.019470 -0.000434 0.011805 0.000000 -0.001641 0.000000
# 4 0.000000 0.000000 0.000000 0.051443 0.000000 0.002764
# 5 -0.010540 -0.002155 -0.001641 0.000000 0.023302 0.000000
# 6 0.000000 0.000000 0.000000 0.002764 0.000000 0.052595
#
#
# Mechanical properties :
#
#
# Convention : Reuss Voigt Hill
#
# Bulk Modulus (GPa) = -161.97526 -50.13571 -106.05548
# Shear Modulus (GPa) = 21.14188 21.58227 21.36208
#
# Velocity S-wave (km/s) = 3.42981 3.46535 3.44762
# Velocity P-wave (km/s) = 8.62787 3.44740 6.56981
#
# Compressibility (1/GPa) = -0.00617378
#
# Stress axis : x y z
#
# Youngs Moduli (GPa) = 35.11171 81.73377 84.71044
#
# Poissons Ratio (x) = 0.77184 1.64930
# Poissons Ratio (y) = 0.33157 0.03675
# Poissons Ratio (z) = 0.68362 0.03546
#
# Static dielectric constant tensor:
#      x y z
#    x 1.616030 0.000000 -0.007500 
#    y 0.000000 1.812880 0.000000 
#    z -0.007500 0.000000 1.607010 
# 
# From -- ./inp_files/85213.got.cif
#   From: 2010.05.17/outbox.cif.g08.bks.cpg/sg12_43_cif.got.tgz:85213.got - 2010.06.03 13:09:07.
