data_PCOD9203758
_publ_section_title
;
Structure prediction by ZEFSAII (Michael W. Deem and Ramdas Pophale) SiO2 
 PCOD9203758
Probable space group: C 2/M
;
_chemical_formula_sum "Si O2"
_cell_formula_units_Z 40
_cell_length_a 15.420783
_cell_length_b 12.405916
_cell_length_c 15.286266
_cell_angle_alpha 90.000000
_cell_angle_beta 146.611355
_cell_angle_gamma 90.000000
_cell_volume 1609.341624
_symmetry_space_group_name_H-M "C 2/M"
_symmetry_group_IT_number 12
_symmetry_cell_setting 'monoclinic'
loop_
_space_group_symop_operation_xyz
x,y,z
-x,y,-z
-x,-y,-z
x,-y,z
1/2+x,1/2+y,z
1/2-x,1/2+y,-z
1/2-x,1/2-y,-z
1/2+x,1/2-y,z
loop_
_atom_site_type_symbol
_atom_site_label
_atom_site_fract_x
_atom_site_fract_y
_atom_site_fract_z
Si Si1 0.127447 0.844149 0.496866
Si Si2 0.909941 0.709199 0.088997
Si Si3 0.225365 0.171369 0.766329
Si Si4 0.367297 0.622036 0.815069
Si Si5 0.891624 0.386457 0.590426
O O1 0.221536 0.874805 0.664300
O O2 0.118699 0.714269 0.481894
O O3 0.222002 0.886953 0.494720
O O4 0.943154 0.869898 0.341856
O O5 0.036123 0.804074 0.173613
O O6 0.990684 0.636883 0.230443
O O7 0.750000 0.750000 0.000000
O O8 0.856610 0.654871 0.951800
O O9 0.241068 0.300158 0.758144
O O10 0.321305 0.500000 0.749291
O O11 0.500000 0.608269 0.000000
O O12 0.935195 0.500000 0.587186
#
# Coordination Sequence:
#
# PCOD9203758 Si02
#       5
#     8   8   8   8   8
#     4  10  22  42  63  92 131 167 205 269 324 375
#     4  11  21  40  63  91 130 169 210 265 312 373
#     4  10  20  39  67  89 128 165 208 262 327 372
#     4   9  19  35  61  93 123 159 208 263 320 373
#     4  11  24  43  66  94 129 172 217 258 319 389
#
# _framework density 24.854883999999998
#
# number of rings (size 3 to 8) (size 9 to 14) (size 15 to 20)
#    0.000    1.800    4.000    0.000    0.000    2.400 
#    0.000    7.000    0.000    0.000    0.000    0.000 
#    0.000    0.000    0.000    0.000    0.000    0.000 
#
# Total GULP energy -111588.308057 kJ/mol
# GULP energy per Si atom -5579.415403 kJ/mol
# Density = 2.479831 g / cm^3
# Si number density = 24.854884 Si / 1000 Ang^3
#
#
#
# Elastic Constant Matrix: (Units=GPa)
#
#
# Indices 1 2 3 4 5 6 
#
# 1 55.7857 -9.8990 34.4686 -0.0001 11.3587 0.0000
# 2 -9.8990 131.5832 18.9899 -0.0001 -2.1035 0.0000
# 3 34.4686 18.9899 178.3793 -0.0001 -40.4320 -0.0001
# 4 -0.0001 -0.0001 -0.0001 -15.6546 -0.0001 -5.1443
# 5 11.3587 -2.1035 -40.4320 -0.0001 63.1590 0.0000
# 6 0.0000 0.0000 -0.0001 -5.1443 0.0000 -11.0303
#
#
#
# Elastic Compliance Matrix: (Units=1/GPa)
#
#
# Indices 1 2 3 4 5 6 
#
# 1 0.024553 0.002721 -0.007035 0.000000 -0.008829 0.000000
# 2 0.002721 0.008025 -0.001673 0.000000 -0.001293 0.000000
# 3 -0.007035 -0.001673 0.008677 0.000000 0.006764 0.000000
# 4 0.000000 0.000000 0.000000 -0.075441 0.000000 0.035184
# 5 -0.008829 -0.001293 0.006764 0.000000 0.021708 0.000000
# 6 0.000000 0.000000 0.000000 0.035184 0.000000 -0.107068
#
#
# Mechanical properties :
#
#
# Convention : Reuss Voigt Hill
#
# Bulk Modulus (GPa) = 34.15231 50.31857 42.23544
# Shear Modulus (GPa) = -51.11889 28.77407 -11.17241
#
# Velocity S-wave (km/s) = -4.54000 3.40617 -2.12245
# Velocity P-wave (km/s) = 3.70292 5.97981 3.32013
#
# Compressibility (1/GPa) = 0.02928060
#
# Stress axis : x y z
#
# Youngs Moduli (GPa) = 40.72773 124.60594 115.24978
#
# Poissons Ratio (x) = -0.33909 0.81083
# Poissons Ratio (y) = -0.11083 0.19285
# Poissons Ratio (z) = 0.28653 0.20851
#
# Static dielectric constant tensor:
#      x y z
#    x 1.965810 0.000000 -0.008920 
#    y 0.000000 2.048540 0.000000 
#    z -0.008920 0.000000 1.990310 
# 
# From -- ./inp_files/277230.got.cif
#   From: 2010.05.17/outbox.cif.g08.bks.cpg/sg12_139_cif.got.tgz:277230.got - 2010.06.03 13:09:07.
