data_PCOD9203101
_publ_section_title
;
Structure prediction by ZEFSAII (Michael W. Deem and Ramdas Pophale) SiO2 
 PCOD9203101
Probable space group: C 2/M
;
_chemical_formula_sum "Si O2"
_cell_formula_units_Z 40
_cell_length_a 5.286400
_cell_length_b 16.695663
_cell_length_c 18.283816
_cell_angle_alpha 90.000000
_cell_angle_beta 92.169743
_cell_angle_gamma 90.000000
_cell_volume 1612.571774
_symmetry_space_group_name_H-M "C 2/M"
_symmetry_group_IT_number 12
_symmetry_cell_setting 'monoclinic'
loop_
_space_group_symop_operation_xyz
x,y,z
-x,y,-z
-x,-y,-z
x,-y,z
1/2+x,1/2+y,z
1/2-x,1/2+y,-z
1/2-x,1/2-y,-z
1/2+x,1/2-y,z
loop_
_atom_site_type_symbol
_atom_site_label
_atom_site_fract_x
_atom_site_fract_y
_atom_site_fract_z
Si Si1 0.006273 0.805037 0.854693
Si Si2 0.409542 0.664102 0.416494
Si Si3 0.322152 0.092486 0.061555
Si Si4 0.099057 0.655011 0.642939
Si Si5 0.142344 0.408065 0.216907
O O1 0.757443 0.749535 0.853312
O O2 0.936194 0.861728 0.922173
O O3 0.082728 0.868127 0.792532
O O4 0.500000 0.677690 0.500000
O O5 0.136255 0.624311 0.407839
O O6 0.371476 0.750784 0.377121
O O7 0.632632 0.619169 0.376614
O O8 0.490204 0.092862 0.138164
O O9 0.269805 0.000000 0.042869
O O10 0.500000 0.128234 0.000000
O O11 0.012829 0.640867 0.724487
O O12 0.165405 0.500000 0.239932
#
# Coordination Sequence:
#
# PCOD9203101 Si02
#       5
#     8   8   8   8   8
#     4  12  26  45  73 101 141 177 238 301 358 415
#     4  10  20  38  66  98 135 173 227 284 336 415
#     4  10  24  49  76 101 141 196 246 291 354 431
#     4  10  21  34  64  95 130 172 222 278 342 396
#     4  11  26  46  68 102 147 190 238 291 359 429
#
# _framework density 24.805097
#
# number of rings (size 3 to 8) (size 9 to 14) (size 15 to 20)
#    0.000    1.400    2.000    3.600    8.400    1.600 
#    0.000    3.000    0.000    6.600    0.000    0.000 
#    0.000    0.000    0.000    0.000    0.000    0.000 
#
# Total GULP energy -111769.041175 kJ/mol
# GULP energy per Si atom -5588.452059 kJ/mol
# Density = 2.474864 g / cm^3
# Si number density = 24.805097 Si / 1000 Ang^3
#
#
#
# Elastic Constant Matrix: (Units=GPa)
#
#
# Indices 1 2 3 4 5 6 
#
# 1 161.8028 24.2324 14.0423 0.0000 -30.2858 0.0000
# 2 24.2324 57.7712 25.8274 0.0000 -15.0007 0.0000
# 3 14.0423 25.8274 131.3574 0.0000 -22.0125 0.0000
# 4 0.0000 0.0000 0.0000 27.4346 0.0000 12.4785
# 5 -30.2858 -15.0007 -22.0125 0.0000 50.4025 0.0000
# 6 0.0000 0.0000 0.0000 12.4785 0.0000 -64.5471
#
#
#
# Elastic Compliance Matrix: (Units=1/GPa)
#
#
# Indices 1 2 3 4 5 6 
#
# 1 0.007191 -0.002159 0.000294 0.000000 0.003806 0.000000
# 2 -0.002159 0.020547 -0.003239 0.000000 0.003403 0.000000
# 3 0.000294 -0.003239 0.008725 0.000000 0.003023 0.000000
# 4 0.000000 0.000000 0.000000 0.033504 0.000000 0.006477
# 5 0.003806 0.003403 0.003023 0.000000 0.024461 0.000000
# 6 0.000000 0.000000 0.000000 0.006477 0.000000 -0.014240
#
#
# Mechanical properties :
#
#
# Convention : Reuss Voigt Hill
#
# Bulk Modulus (GPa) = 38.08940 53.23728 45.66334
# Shear Modulus (GPa) = 50.43032 21.77996 36.10514
#
# Velocity S-wave (km/s) = 4.51384 2.96639 3.81931
# Velocity P-wave (km/s) = 6.52343 5.76554 6.15616
#
# Compressibility (1/GPa) = 0.02625403
#
# Stress axis : x y z
#
# Youngs Moduli (GPa) = 139.06839 48.66899 114.61557
#
# Poissons Ratio (x) = 0.10508 -0.03366
# Poissons Ratio (y) = 0.30027 0.37122
# Poissons Ratio (z) = -0.04084 0.15763
#
# Static dielectric constant tensor:
#      x y z
#    x 2.089230 0.000000 0.061660 
#    y 0.000000 2.065380 0.000000 
#    z 0.061660 0.000000 1.998570 
# 
# From -- ./inp_files/252817.got.cif
#   From: 2010.05.17/outbox.cif.g08.bks.cpg/sg12_127_cif.got.tgz:252817.got - 2010.06.03 13:09:07.
