data_PCOD9203994
_publ_section_title
;
Structure prediction by ZEFSAII (Michael W. Deem and Ramdas Pophale) SiO2 
 PCOD9203994
Probable space group: C 2/M
;
_chemical_formula_sum "Si O2"
_cell_formula_units_Z 64
_cell_length_a 19.711181
_cell_length_b 8.759406
_cell_length_c 31.336876
_cell_angle_alpha 90.000000
_cell_angle_beta 38.548820
_cell_angle_gamma 90.000000
_cell_volume 3371.765616
_symmetry_space_group_name_H-M "C 2/M"
_symmetry_group_IT_number 12
_symmetry_cell_setting 'monoclinic'
loop_
_space_group_symop_operation_xyz
x,y,z
-x,y,-z
-x,-y,-z
x,-y,z
1/2+x,1/2+y,z
1/2-x,1/2+y,-z
1/2-x,1/2-y,-z
1/2+x,1/2-y,z
loop_
_atom_site_type_symbol
_atom_site_label
_atom_site_fract_x
_atom_site_fract_y
_atom_site_fract_z
Si Si1 0.771665 0.318331 0.943387
Si Si2 0.374266 0.686185 0.563538
Si Si3 0.779594 0.320957 0.284385
Si Si4 0.280102 0.182990 0.439325
Si Si5 0.512438 0.678090 0.302104
Si Si6 0.738605 0.182013 0.215348
Si Si7 0.485628 0.176896 0.788095
Si Si8 0.625832 0.686314 0.935157
O O1 0.756155 0.500000 0.953749
O O2 0.895235 0.290493 0.867885
O O3 0.693092 0.262886 0.943794
O O4 0.750000 0.250000 0.000000
O O5 0.500000 0.735438 0.500000
O O6 0.373102 0.500000 0.564184
O O7 0.313632 0.733702 0.636935
O O8 0.303035 0.733848 0.557404
O O9 0.759230 0.500000 0.284577
O O10 0.786929 0.229783 0.236985
O O11 0.893487 0.312091 0.253268
O O12 0.250000 0.250000 0.500000
O O13 0.401774 0.236025 0.368616
O O14 0.275824 0.000000 0.442865
O O15 0.500550 0.500000 0.317184
O O16 0.619248 0.744245 0.271917
O O17 0.529677 0.711273 0.243699
O O18 0.812312 0.233648 0.138737
O O19 0.728536 0.000000 0.217314
O O20 0.468013 0.000000 0.782086
O O21 0.626550 0.500000 0.934665
O O22 0.500000 0.735065 0.000000
#
# Coordination Sequence:
#
# PCOD9203994 Si02
#       8
#     8   8   8   8   8   8   8   8
#     4  10  21  37  59  85 119 157 199 246 302 365
#     4   9  19  37  61  87 120 160 196 235 291 356
#     4  10  21  38  61  88 121 158 199 246 300 361
#     4  11  23  41  64  92 126 165 205 250 306 362
#     4  12  24  40  64  90 119 158 210 263 306 360
#     4  11  23  40  62  88 122 160 201 251 309 368
#     4  10  20  40  63  85 119 163 202 250 310 364
#     4   9  19  37  59  83 117 159 199 243 301 365
#
# _framework density 18.981152000000002
#
# number of rings (size 3 to 8) (size 9 to 14) (size 15 to 20)
#    0.000    1.750    2.500    1.875    3.500    1.000 
#    0.000    0.000    0.000    3.750    0.000    0.000 
#    0.000    0.000    0.000    0.000    0.000    0.000 
#
# Total GULP energy -178706.467257 kJ/mol
# GULP energy per Si atom -5584.577102 kJ/mol
# Density = 1.893795 g / cm^3
# Si number density = 18.981152 Si / 1000 Ang^3
#
#
#
# Elastic Constant Matrix: (Units=GPa)
#
#
# Indices 1 2 3 4 5 6 
#
# 1 46.9994 10.1575 17.7844 -0.0001 7.1812 -0.0012
# 2 10.1575 32.8045 12.7042 -0.0002 2.1198 -0.0023
# 3 17.7844 12.7042 101.4483 -0.0001 0.4239 0.0000
# 4 -0.0001 -0.0002 -0.0001 23.7142 0.0001 10.7658
# 5 7.1812 2.1198 0.4239 0.0001 38.7059 -0.0001
# 6 -0.0012 -0.0023 0.0000 10.7658 -0.0001 24.8636
#
#
#
# Elastic Compliance Matrix: (Units=1/GPa)
#
#
# Indices 1 2 3 4 5 6 
#
# 1 0.024544 -0.005958 -0.003539 0.000000 -0.004189 0.000001
# 2 -0.005958 0.033598 -0.003160 -0.000001 -0.000700 0.000003
# 3 -0.003539 -0.003160 0.010870 0.000000 0.000711 -0.000001
# 4 0.000000 -0.000001 0.000000 0.052486 0.000000 -0.022726
# 5 -0.004189 -0.000700 0.000711 0.000000 0.026644 0.000000
# 6 0.000001 0.000003 -0.000001 -0.022726 0.000000 0.050060
#
#
# Mechanical properties :
#
#
# Convention : Reuss Voigt Hill
#
# Bulk Modulus (GPa) = 22.88487 29.17162 26.02825
# Shear Modulus (GPa) = 21.00125 26.83049 23.91587
#
# Velocity S-wave (km/s) = 3.32991 3.76378 3.55347
# Velocity P-wave (km/s) = 5.18336 5.85578 5.52980
#
# Compressibility (1/GPa) = 0.04369699
#
# Stress axis : x y z
#
# Youngs Moduli (GPa) = 40.74363 29.76404 91.99312
#
# Poissons Ratio (x) = 0.17735 0.32556
# Poissons Ratio (y) = 0.24277 0.29069
# Poissons Ratio (z) = 0.14419 0.09405
#
# Static dielectric constant tensor:
#      x y z
#    x 1.648300 0.000000 -0.005020 
#    y 0.000000 1.651960 0.000000 
#    z -0.005020 0.000000 1.666900 
# 
# From -- ./inp_files/377973.got.cif
#   From: 2010.05.17/outbox.cif.g08.bks.cpg/sg12_189_cif.got.tgz:377973.got - 2010.06.03 13:09:07.
