data_PCOD9203495
_publ_section_title
;
Structure prediction by ZEFSAII (Michael W. Deem and Ramdas Pophale) SiO2 
 PCOD9203495
Probable space group: C 2/M
;
_chemical_formula_sum "Si O2"
_cell_formula_units_Z 42
_cell_length_a 14.155657
_cell_length_b 7.504340
_cell_length_c 19.450913
_cell_angle_alpha 90.000000
_cell_angle_beta 56.769124
_cell_angle_gamma 90.000000
_cell_volume 1728.352952
_symmetry_space_group_name_H-M "C 2/M"
_symmetry_group_IT_number 12
_symmetry_cell_setting 'monoclinic'
loop_
_space_group_symop_operation_xyz
x,y,z
-x,y,-z
-x,-y,-z
x,-y,z
1/2+x,1/2+y,z
1/2-x,1/2+y,-z
1/2-x,1/2-y,-z
1/2+x,1/2-y,z
loop_
_atom_site_type_symbol
_atom_site_label
_atom_site_fract_x
_atom_site_fract_y
_atom_site_fract_z
Si Si1 0.713492 0.786518 0.091761
Si Si2 0.597234 0.291106 0.378299
Si Si3 0.976167 0.705269 0.238796
Si Si4 0.208357 0.287658 0.592499
Si Si5 0.000000 0.500000 0.500000
Si Si6 0.288690 0.713207 0.202920
O O1 0.589315 0.715416 0.161350
O O2 0.795566 0.728044 0.121005
O O3 0.709400 0.000000 0.098120
O O4 0.750000 0.750000 0.000000
O O5 0.571047 0.500000 0.398031
O O6 0.694396 0.225388 0.393783
O O7 0.663546 0.262903 0.280693
O O8 0.500171 0.156755 0.438998
O O9 0.002351 0.500000 0.246202
O O10 0.910459 0.785979 0.330946
O O11 0.881669 0.706413 0.216318
O O12 0.204397 0.500000 0.602769
O O13 0.250000 0.250000 0.500000
O O14 0.300207 0.500000 0.203084
#
# Coordination Sequence:
#
# PCOD9203495 Si02
#       6
#     8   8   8   8   2   8
#     4  10  23  41  63  93 127 161 214 269 328 395
#     4  10  22  39  57  88 125 169 218 264 319 387
#     4   9  20  40  61  85 122 171 208 257 327 389
#     4   9  19  34  56  86 120 161 212 262 309 377
#     4  12  22  36  60  86 124 166 214 264 320 368
#     4  10  20  39  63  91 123 166 212 266 321 388
#
# _framework density 24.300592999999999
#
# number of rings (size 3 to 8) (size 9 to 14) (size 15 to 20)
#    0.000    2.286    0.952    2.000    1.333    5.333 
#    3.429    3.810    0.000    0.000    0.000    0.000 
#    0.000    0.000    0.000    0.000    0.000    0.000 
#
# Total GULP energy -117130.440615 kJ/mol
# GULP energy per Si atom -5577.640029 kJ/mol
# Density = 2.424528 g / cm^3
# Si number density = 24.300593 Si / 1000 Ang^3
#
#
#
# Elastic Constant Matrix: (Units=GPa)
#
#
# Indices 1 2 3 4 5 6 
#
# 1 57.4068 -5.6241 47.5456 0.0000 -1.1290 0.0001
# 2 -5.6241 111.3597 0.8180 0.0000 -0.6488 0.0002
# 3 47.5456 0.8180 200.3675 0.0000 23.0016 0.0000
# 4 0.0000 0.0000 0.0000 33.1416 0.0000 6.3397
# 5 -1.1290 -0.6488 23.0016 0.0000 41.4488 0.0000
# 6 0.0001 0.0002 0.0000 6.3397 0.0000 5.7173
#
#
#
# Elastic Compliance Matrix: (Units=1/GPa)
#
#
# Indices 1 2 3 4 5 6 
#
# 1 0.022377 0.001195 -0.005753 0.000000 0.003821 0.000000
# 2 0.001195 0.009045 -0.000364 0.000000 0.000376 0.000000
# 3 -0.005753 -0.000364 0.006810 0.000000 -0.003942 0.000000
# 4 0.000000 0.000000 0.000000 0.038297 0.000000 -0.042466
# 5 0.003821 0.000376 -0.003942 0.000000 0.026423 0.000000
# 6 0.000000 0.000000 0.000000 -0.042466 0.000000 0.221996
#
#
# Mechanical properties :
#
#
# Convention : Reuss Voigt Hill
#
# Bulk Modulus (GPa) = 35.22695 50.51256 42.86975
# Shear Modulus (GPa) = 14.52412 37.82117 26.17265
#
# Velocity S-wave (km/s) = 2.44741 3.94939 3.28539
# Velocity P-wave (km/s) = 4.74492 6.45202 5.66316
#
# Compressibility (1/GPa) = 0.02838736
#
# Stress axis : x y z
#
# Youngs Moduli (GPa) = 44.68925 110.55705 146.84263
#
# Poissons Ratio (x) = -0.13208 0.84483
# Poissons Ratio (y) = -0.05339 0.05339
# Poissons Ratio (z) = 0.25711 0.04019
#
# Static dielectric constant tensor:
#      x y z
#    x 2.100010 0.000000 -0.011650 
#    y 0.000000 1.926280 0.000000 
#    z -0.011650 0.000000 1.999970 
# 
# From -- ./inp_files/267563.got.cif
#   From: 2010.05.17/outbox.cif.g08.bks.cpg/sg12_134_cif.got.tgz:267563.got - 2010.06.03 13:09:07.
