data_PCOD9203358
_publ_section_title
;
Structure prediction by ZEFSAII (Michael W. Deem and Ramdas Pophale) SiO2 
 PCOD9203358
Probable space group: C 2/M
;
_chemical_formula_sum "Si O2"
_cell_formula_units_Z 64
_cell_length_a 32.958688
_cell_length_b 14.401003
_cell_length_c 22.869693
_cell_angle_alpha 90.000000
_cell_angle_beta 18.549918
_cell_angle_gamma 90.000000
_cell_volume 3453.254897
_symmetry_space_group_name_H-M "C 2/M"
_symmetry_group_IT_number 12
_symmetry_cell_setting 'monoclinic'
loop_
_space_group_symop_operation_xyz
x,y,z
-x,y,-z
-x,-y,-z
x,-y,z
1/2+x,1/2+y,z
1/2-x,1/2+y,-z
1/2-x,1/2-y,-z
1/2+x,1/2-y,z
loop_
_atom_site_type_symbol
_atom_site_label
_atom_site_fract_x
_atom_site_fract_y
_atom_site_fract_z
Si Si1 0.786162 0.109193 0.025734
Si Si2 0.470503 0.388506 0.974583
Si Si3 0.497972 0.108480 0.634988
Si Si4 0.965916 0.212562 0.342098
Si Si5 0.601864 0.729725 0.697677
Si Si6 0.779804 0.388174 0.753159
Si Si7 0.284423 0.889722 0.286714
Si Si8 0.485957 0.890900 0.113680
O O1 0.649926 0.114231 0.180216
O O2 0.761855 0.145569 0.125586
O O3 0.823640 0.000000 0.978224
O O4 0.896146 0.164218 0.841344
O O5 0.483776 0.500000 0.955429
O O6 0.562174 0.342976 0.801677
O O7 0.500000 0.355830 0.000000
O O8 0.328425 0.365161 0.146646
O O9 0.527203 0.181143 0.646276
O O10 0.584360 0.136522 0.460597
O O11 0.528081 0.000000 0.607600
O O12 0.932629 0.198337 0.319628
O O13 0.847458 0.164470 0.536785
O O14 0.750000 0.750000 0.500000
O O15 0.527592 0.824566 0.813220
O O16 0.782982 0.500000 0.755182
O O17 0.368662 0.868576 0.229656
O O18 0.258795 0.000000 0.323343
O O19 0.382944 0.871944 0.099579
O O20 0.479549 0.000000 0.135470
#
# Coordination Sequence:
#
# PCOD9203358 Si02
#       8
#     8   8   8   8   8   8   8   8
#     4  10  20  39  62  86 114 144 192 253 295 338
#     4  10  23  39  58  83 118 154 190 233 279 339
#     4  10  23  39  58  84 117 155 190 232 297 359
#     4  12  23  35  58  87 118 149 191 237 292 346
#     4  12  25  35  54  85 118 155 189 230 284 341
#     4   9  18  36  60  84 108 148 194 235 281 337
#     4   9  19  36  58  79 102 144 195 239 276 324
#     4   9  20  38  55  74 108 153 197 233 270 322
#
# _framework density 18.533239999999999
#
# number of rings (size 3 to 8) (size 9 to 14) (size 15 to 20)
#    0.000    1.875    2.500    1.875    5.250    3.000 
#    0.000    0.000    0.000    0.000    0.000    0.000 
#    0.000   11.000    0.000    0.000    0.000    0.000 
#
# Total GULP energy -178583.012137 kJ/mol
# GULP energy per Si atom -5580.719129 kJ/mol
# Density = 1.849106 g / cm^3
# Si number density = 18.533240 Si / 1000 Ang^3
#
#
#
# Elastic Constant Matrix: (Units=GPa)
#
#
# Indices 1 2 3 4 5 6 
#
# 1 40.6061 16.4627 11.1545 0.0000 4.2693 0.0000
# 2 16.4627 66.5731 45.2018 0.0000 3.4884 0.0000
# 3 11.1545 45.2018 115.2338 -0.0001 -7.6407 -0.0002
# 4 0.0000 0.0000 -0.0001 29.9986 0.0000 -15.7589
# 5 4.2693 3.4884 -7.6407 0.0000 17.3889 0.0000
# 6 0.0000 0.0000 -0.0002 -15.7589 0.0000 -91.4650
#
#
#
# Elastic Compliance Matrix: (Units=1/GPa)
#
#
# Indices 1 2 3 4 5 6 
#
# 1 0.027924 -0.006123 -0.000695 0.000000 -0.005933 0.000000
# 2 -0.006123 0.022917 -0.008860 0.000000 -0.006987 0.000000
# 3 -0.000695 -0.008860 0.012721 0.000000 0.007537 0.000000
# 4 0.000000 0.000000 0.000000 0.030568 0.000000 -0.005267
# 5 -0.005933 -0.006987 0.007537 0.000000 0.063678 0.000000
# 6 0.000000 0.000000 0.000000 -0.005267 0.000000 -0.010026
#
#
# Mechanical properties :
#
#
# Convention : Reuss Voigt Hill
#
# Bulk Modulus (GPa) = 31.04973 40.89457 35.97215
# Shear Modulus (GPa) = 26.33346 1.15744 13.74545
#
# Velocity S-wave (km/s) = 3.77354 0.79112 2.72631
# Velocity P-wave (km/s) = 5.98131 4.79040 5.41867
#
# Compressibility (1/GPa) = 0.03220640
#
# Stress axis : x y z
#
# Youngs Moduli (GPa) = 35.81192 43.63544 78.61307
#
# Poissons Ratio (x) = 0.26716 0.05461
# Poissons Ratio (y) = 0.21926 0.69652
# Poissons Ratio (z) = 0.02488 0.38662
#
# Static dielectric constant tensor:
#      x y z
#    x 1.642490 0.000000 0.001550 
#    y 0.000000 1.644530 0.000000 
#    z 0.001550 0.000000 1.648570 
# 
# From -- ./inp_files/330363.got.cif
#   From: 2010.05.17/outbox.cif.g08.bks.cpg/sg12_166_cif.got.tgz:330363.got - 2010.06.03 13:09:07.
