data_PCOD9203663
_publ_section_title
;
Structure prediction by ZEFSAII (Michael W. Deem and Ramdas Pophale) SiO2 
 PCOD9203663
Probable space group: C 2/M
;
_chemical_formula_sum "Si O2"
_cell_formula_units_Z 56
_cell_length_a 14.530655
_cell_length_b 12.649457
_cell_length_c 25.751413
_cell_angle_alpha 90.000000
_cell_angle_beta 39.446463
_cell_angle_gamma 90.000000
_cell_volume 3007.294196
_symmetry_space_group_name_H-M "C 2/M"
_symmetry_group_IT_number 12
_symmetry_cell_setting 'monoclinic'
loop_
_space_group_symop_operation_xyz
x,y,z
-x,y,-z
-x,-y,-z
x,-y,z
1/2+x,1/2+y,z
1/2-x,1/2+y,-z
1/2-x,1/2-y,-z
1/2+x,1/2-y,z
loop_
_atom_site_type_symbol
_atom_site_label
_atom_site_fract_x
_atom_site_fract_y
_atom_site_fract_z
Si Si1 0.616324 0.225641 0.700882
Si Si2 0.196597 0.710794 0.111189
Si Si3 0.362118 0.375636 0.136458
Si Si4 0.324384 0.618309 0.961019
Si Si5 0.325707 0.125652 0.676865
Si Si6 0.409774 0.271937 0.408621
Si Si7 0.763637 0.000000 0.619466
Si Si8 0.445200 0.500000 0.440460
O O1 0.465843 0.220273 0.797294
O O2 0.725247 0.308710 0.680671
O O3 0.588401 0.259440 0.653956
O O4 0.680846 0.107302 0.669742
O O5 0.300164 0.686078 0.114259
O O6 0.231725 0.815252 0.062846
O O7 0.219259 0.623943 0.056301
O O8 0.373862 0.500000 0.116828
O O9 0.520212 0.339208 0.086407
O O10 0.253343 0.367999 0.232539
O O11 0.351355 0.500000 0.932107
O O12 0.477026 0.188210 0.616155
O O13 0.340616 0.000000 0.657789
O O14 0.250000 0.250000 0.500000
O O15 0.447200 0.392053 0.407441
O O16 0.807276 0.000000 0.539580
O O17 0.912456 0.000000 0.586220
#
# Coordination Sequence:
#
# PCOD9203663 Si02
#       8
#     8   8   8   8   8   8   4   4
#     4  12  25  42  66  96 128 172 216 266 321 381
#     4  11  22  36  65  96 123 163 215 257 312 372
#     4  10  20  39  65  91 124 163 211 261 310 373
#     4  10  22  40  61  92 131 165 205 261 316 373
#     4  11  25  44  65  97 130 165 214 270 320 382
#     4  12  26  44  68  95 129 166 215 264 324 383
#     4  11  24  42  68  87 128 170 215 273 317 379
#     4  11  24  46  64  94 128 167 214 268 328 382
#
# _framework density 18.621390000000002
#
# number of rings (size 3 to 8) (size 9 to 14) (size 15 to 20)
#    0.000    1.000    5.714    0.857    5.000    1.714 
#    0.000    0.714    1.571    7.714    0.000    0.000 
#    0.000    0.000    0.000    0.000    0.000    0.000 
#
# Total GULP energy -156360.871356 kJ/mol
# GULP energy per Si atom -5584.316834 kJ/mol
# Density = 1.857901 g / cm^3
# Si number density = 18.621390 Si / 1000 Ang^3
#
#
#
# Elastic Constant Matrix: (Units=GPa)
#
#
# Indices 1 2 3 4 5 6 
#
# 1 101.6469 69.2447 21.1582 0.0000 1.5128 0.0000
# 2 69.2447 149.9313 31.6341 0.0000 2.0940 0.0000
# 3 21.1582 31.6341 94.8734 0.0000 -5.5980 0.0000
# 4 0.0000 0.0000 0.0000 -8.3798 0.0000 -25.1009
# 5 1.5128 2.0940 -5.5980 0.0000 22.9908 0.0000
# 6 0.0000 0.0000 0.0000 -25.1009 0.0000 36.1683
#
#
#
# Elastic Compliance Matrix: (Units=1/GPa)
#
#
# Indices 1 2 3 4 5 6 
#
# 1 0.014464 -0.006435 -0.001118 0.000000 -0.000638 0.000000
# 2 -0.006435 0.010074 -0.001981 0.000000 -0.000976 0.000000
# 3 -0.001118 -0.001981 0.011632 0.000000 0.003086 0.000000
# 4 0.000000 0.000000 0.000000 -0.038760 0.000000 -0.026899
# 5 -0.000638 -0.000976 0.003086 0.000000 0.044378 0.000000
# 6 0.000000 0.000000 0.000000 -0.026899 0.000000 0.008980
#
#
# Mechanical properties :
#
#
# Convention : Reuss Voigt Hill
#
# Bulk Modulus (GPa) = 58.47463 65.61396 62.04430
# Shear Modulus (GPa) = 66.19228 25.11683 45.65455
#
# Velocity S-wave (km/s) = 5.96855 3.67661 4.95686
# Velocity P-wave (km/s) = 8.88640 7.30312 8.13338
#
# Compressibility (1/GPa) = 0.01710143
#
# Stress axis : x y z
#
# Youngs Moduli (GPa) = 69.13676 99.26991 85.96734
#
# Poissons Ratio (x) = 0.63884 0.09607
# Poissons Ratio (y) = 0.44492 0.17033
# Poissons Ratio (z) = 0.07726 0.19668
#
# Static dielectric constant tensor:
#      x y z
#    x 1.621860 0.000000 -0.007830 
#    y 0.000000 1.657460 0.000000 
#    z -0.007830 0.000000 1.650670 
# 
# From -- ./inp_files/360808.got.cif
#   From: 2010.05.17/outbox.cif.g08.bks.cpg/sg12_181_cif.got.tgz:360808.got - 2010.06.03 13:09:07.
