data_PCOD9203855
_publ_section_title
;
Structure prediction by ZEFSAII (Michael W. Deem and Ramdas Pophale) SiO2 
 PCOD9203855
Probable space group: C 2/M
;
_chemical_formula_sum "Si O2"
_cell_formula_units_Z 34
_cell_length_a 8.795639
_cell_length_b 12.431994
_cell_length_c 22.214900
_cell_angle_alpha 90.000000
_cell_angle_beta 38.264764
_cell_angle_gamma 90.000000
_cell_volume 1504.357407
_symmetry_space_group_name_H-M "C 2/M"
_symmetry_group_IT_number 12
_symmetry_cell_setting 'monoclinic'
loop_
_space_group_symop_operation_xyz
x,y,z
-x,y,-z
-x,-y,-z
x,-y,z
1/2+x,1/2+y,z
1/2-x,1/2+y,-z
1/2-x,1/2-y,-z
1/2+x,1/2-y,z
loop_
_atom_site_type_symbol
_atom_site_label
_atom_site_fract_x
_atom_site_fract_y
_atom_site_fract_z
Si Si1 0.400406 0.117570 0.405152
Si Si2 0.381450 0.335510 0.627279
Si Si3 0.500000 0.000000 0.000000
Si Si4 0.806787 0.376309 0.184345
Si Si5 0.234698 0.217728 0.087386
O O1 0.573562 0.209088 0.377135
O O2 0.317889 0.139474 0.361969
O O3 0.143469 0.122314 0.521541
O O4 0.511785 0.000000 0.375579
O O5 0.317026 0.382232 0.712295
O O6 0.698031 0.098665 0.957651
O O7 0.857132 0.500000 0.145156
O O8 0.658615 0.313278 0.179182
O O9 0.038921 0.298163 0.121252
O O10 0.500000 0.274739 0.000000
#
# Coordination Sequence:
#
# PCOD9203855 Si02
#       5
#     8   8   2   8   8
#     4  10  20  40  56  80 117 155 184 231 284 332
#     4  10  21  36  60  84 114 149 192 231 282 333
#     4   8  20  44  58  82 116 156 180 234 292 342
#     4  12  22  39  60  90 114 147 195 238 279 340
#     4  10  22  41  61  82 117 153 184 233 294 336
#
# _framework density 22.601011
#
# number of rings (size 3 to 8) (size 9 to 14) (size 15 to 20)
#    0.706    0.941    1.176    4.941    0.000    0.471 
#    4.235   11.765    0.000    0.000    0.000    0.000 
#    0.000    0.000    0.000    0.000    0.000    0.000 
#
# Total GULP energy -94661.778151 kJ/mol
# GULP energy per Si atom -5568.339891 kJ/mol
# Density = 2.254957 g / cm^3
# Si number density = 22.601011 Si / 1000 Ang^3
#
#
#
# Elastic Constant Matrix: (Units=GPa)
#
#
# Indices 1 2 3 4 5 6 
#
# 1 50.0715 41.2885 23.7484 -0.0010 21.7154 -0.0017
# 2 41.2885 186.5585 11.2946 -0.0014 -6.4469 -0.0010
# 3 23.7484 11.2946 73.1022 -0.0045 22.8554 -0.0024
# 4 -0.0010 -0.0014 -0.0045 13.3469 0.0016 15.4731
# 5 21.7154 -6.4469 22.8554 0.0016 35.7681 0.0023
# 6 -0.0017 -0.0010 -0.0024 15.4731 0.0023 14.5077
#
#
#
# Elastic Compliance Matrix: (Units=1/GPa)
#
#
# Indices 1 2 3 4 5 6 
#
# 1 0.039662 -0.009318 -0.004238 0.000019 -0.023050 -0.000014
# 2 -0.009318 0.007704 -0.000457 -0.000005 0.007338 0.000003
# 3 -0.004238 -0.000457 0.017930 -0.000009 -0.008967 0.000014
# 4 0.000019 -0.000005 -0.000009 -0.316871 -0.000014 0.337958
# 5 -0.023050 0.007338 -0.008967 -0.000014 0.049004 0.000003
# 6 -0.000014 0.000003 0.000014 0.337958 0.000003 -0.291519
#
#
# Mechanical properties :
#
#
# Convention : Reuss Voigt Hill
#
# Bulk Modulus (GPa) = 26.83207 51.37724 39.10466
# Shear Modulus (GPa) = -11.02194 28.28458 8.63132
#
# Velocity S-wave (km/s) = -2.21073 3.54146 1.95635
# Velocity P-wave (km/s) = 2.31978 6.28523 4.73738
#
# Compressibility (1/GPa) = 0.03726883
#
# Stress axis : x y z
#
# Youngs Moduli (GPa) = 25.21324 129.80802 55.77108
#
# Poissons Ratio (x) = 1.20952 0.23638
# Poissons Ratio (y) = 0.23493 0.02551
# Poissons Ratio (z) = 0.10686 0.05937
#
# Static dielectric constant tensor:
#      x y z
#    x 1.780180 0.000000 -0.034810 
#    y 0.000000 1.819300 0.000000 
#    z -0.034810 0.000000 1.797480 
# 
# From -- ./inp_files/332372.got.cif
#   From: 2010.05.17/outbox.cif.g08.bks.cpg/sg12_167_cif.got.tgz:332372.got - 2010.06.03 13:09:07.
