data_PCOD9203972
_publ_section_title
;
Structure prediction by ZEFSAII (Michael W. Deem and Ramdas Pophale) SiO2 
 PCOD9203972
Probable space group: C 2/M
;
_chemical_formula_sum "Si O2"
_cell_formula_units_Z 48
_cell_length_a 9.854497
_cell_length_b 22.397699
_cell_length_c 11.946220
_cell_angle_alpha 90.000000
_cell_angle_beta 101.269546
_cell_angle_gamma 90.000000
_cell_volume 2585.906495
_symmetry_space_group_name_H-M "C 2/M"
_symmetry_group_IT_number 12
_symmetry_cell_setting 'monoclinic'
loop_
_space_group_symop_operation_xyz
x,y,z
-x,y,-z
-x,-y,-z
x,-y,z
1/2+x,1/2+y,z
1/2-x,1/2+y,-z
1/2-x,1/2-y,-z
1/2+x,1/2-y,z
loop_
_atom_site_type_symbol
_atom_site_label
_atom_site_fract_x
_atom_site_fract_y
_atom_site_fract_z
Si Si1 0.876996 0.889100 0.693181
Si Si2 0.802978 0.106209 0.277615
Si Si3 0.133381 0.197927 0.098473
Si Si4 0.183132 0.500000 0.648248
Si Si5 0.341297 0.305249 0.478725
Si Si6 0.347491 0.834460 0.946397
Si Si7 0.857713 0.500000 0.626687
O O1 0.875039 0.838648 0.788775
O O2 0.835617 0.857411 0.570438
O O3 0.035435 0.911665 0.706949
O O4 0.769653 0.941940 0.699308
O O5 0.802233 0.165519 0.354471
O O6 0.738183 0.122431 0.147770
O O7 0.712131 0.056887 0.325565
O O8 0.137643 0.269610 0.111432
O O9 0.265724 0.178434 0.047604
O O10 0.000000 0.184762 0.000000
O O11 0.176971 0.500000 0.511294
O O12 0.024482 0.500000 0.663777
O O13 0.500000 0.285112 0.500000
O O14 0.250000 0.250000 0.500000
O O15 0.500000 0.857009 0.000000
#
# Coordination Sequence:
#
# PCOD9203972 Si02
#       7
#     8   8   8   4   8   8   4
#     4  11  22  40  65  89 121 164 208 247 303 370
#     4  11  22  41  63  90 122 161 208 251 304 367
#     4  10  20  40  62  91 127 163 206 244 297 372
#     4  11  25  43  63  91 117 165 206 256 315 362
#     4  10  22  37  59  92 124 155 197 250 309 365
#     4  10  22  38  64  93 126 166 200 249 308 355
#     4  11  25  43  63  89 123 158 208 259 313 362
#
# _framework density 18.562156000000002
#
# number of rings (size 3 to 8) (size 9 to 14) (size 15 to 20)
#    0.000    1.500    3.333    1.500    2.333    2.000 
#    0.000    1.667    0.000    0.000    0.000    0.000 
#    0.000    0.000    0.000    0.000    0.000    0.000 
#
# Total GULP energy -134059.098382 kJ/mol
# GULP energy per Si atom -5585.795766 kJ/mol
# Density = 1.851991 g / cm^3
# Si number density = 18.562156 Si / 1000 Ang^3
#
#
#
# Elastic Constant Matrix: (Units=GPa)
#
#
# Indices 1 2 3 4 5 6 
#
# 1 113.4185 43.4452 10.0101 0.0000 7.6276 0.0000
# 2 43.4452 49.4281 0.5722 0.0000 6.0950 0.0000
# 3 10.0101 0.5722 56.6449 0.0000 7.0512 0.0000
# 4 0.0000 0.0000 0.0000 20.2083 0.0000 -4.8045
# 5 7.6276 6.0950 7.0512 0.0000 26.0468 0.0000
# 6 0.0000 0.0000 0.0000 -4.8045 0.0000 16.1032
#
#
#
# Elastic Compliance Matrix: (Units=1/GPa)
#
#
# Indices 1 2 3 4 5 6 
#
# 1 0.013589 -0.011844 -0.002206 0.000000 -0.000611 0.000000
# 2 -0.011844 0.031164 0.002333 0.000000 -0.004456 0.000000
# 3 -0.002206 0.002333 0.018636 0.000000 -0.004945 0.000000
# 4 0.000000 0.000000 0.000000 0.053263 0.000000 0.015891
# 5 -0.000611 -0.004456 -0.004945 0.000000 0.040953 0.000000
# 6 0.000000 0.000000 0.000000 0.015891 0.000000 0.066841
#
#
# Mechanical properties :
#
#
# Convention : Reuss Voigt Hill
#
# Bulk Modulus (GPa) = 25.02772 36.39404 30.71088
# Shear Modulus (GPa) = 19.14265 23.50259 21.32262
#
# Velocity S-wave (km/s) = 3.21483 3.56217 3.39295
# Velocity P-wave (km/s) = 5.22423 6.04714 5.65069
#
# Compressibility (1/GPa) = 0.03995569
#
# Stress axis : x y z
#
# Youngs Moduli (GPa) = 73.58667 32.08839 53.66073
#
# Poissons Ratio (x) = 0.38004 0.11836
# Poissons Ratio (y) = 0.87154 -0.12518
# Poissons Ratio (z) = 0.16232 -0.07486
#
# Static dielectric constant tensor:
#      x y z
#    x 1.641560 0.000000 -0.006690 
#    y 0.000000 1.619470 0.000000 
#    z -0.006690 0.000000 1.638460 
# 
# From -- ./inp_files/122594.got.cif
#   From: 2010.05.17/outbox.cif.g08.bks.cpg/sg12_62_cif.got.tgz:122594.got - 2010.06.03 13:09:07.
