data_PCOD9203619
_publ_section_title
;
Structure prediction by ZEFSAII (Michael W. Deem and Ramdas Pophale) SiO2 
 PCOD9203619
Probable space group: C 2/M
;
_chemical_formula_sum "Si O2"
_cell_formula_units_Z 58
_cell_length_a 22.152296
_cell_length_b 14.273099
_cell_length_c 28.536108
_cell_angle_alpha 90.000000
_cell_angle_beta 161.228603
_cell_angle_gamma 90.000000
_cell_volume 2903.410572
_symmetry_space_group_name_H-M "C 2/M"
_symmetry_group_IT_number 12
_symmetry_cell_setting 'monoclinic'
loop_
_space_group_symop_operation_xyz
x,y,z
-x,y,-z
-x,-y,-z
x,-y,z
1/2+x,1/2+y,z
1/2-x,1/2+y,-z
1/2-x,1/2-y,-z
1/2+x,1/2-y,z
loop_
_atom_site_type_symbol
_atom_site_label
_atom_site_fract_x
_atom_site_fract_y
_atom_site_fract_z
Si Si1 0.418132 0.896171 0.008579
Si Si2 0.042728 0.325707 0.602670
Si Si3 0.171144 0.895833 0.921394
Si Si4 0.686363 0.301318 0.112314
Si Si5 0.601766 0.106704 0.815173
Si Si6 0.000000 0.500000 0.500000
Si Si7 0.357600 0.761363 0.684524
Si Si8 0.702872 0.650081 0.663232
O O1 0.637595 0.892155 0.185467
O O2 0.380442 0.000000 0.960764
O O3 0.294917 0.887477 0.965556
O O4 0.355021 0.807929 0.930773
O O5 0.153915 0.322740 0.732793
O O6 0.040422 0.418201 0.569736
O O7 0.140051 0.245731 0.642386
O O8 0.832183 0.296052 0.460719
O O9 0.021840 0.813074 0.814768
O O10 0.080971 0.000000 0.854933
O O11 0.303561 0.891953 0.063955
O O12 0.747116 0.352150 0.109527
O O13 0.500000 0.338850 0.000000
O O14 0.423677 0.174673 0.689844
O O15 0.552625 0.000000 0.767103
O O16 0.311955 0.827065 0.695443
O O17 0.500000 0.605093 0.500000
#
# Coordination Sequence:
#
# PCOD9203619 Si02
#       8
#     8   8   8   8   8   2   8   8
#     4  11  22  42  71 102 135 181 236 286 341 418
#     4  11  26  43  68 102 133 179 229 287 347 421
#     4  10  21  36  65 100 128 169 228 283 341 404
#     4  12  26  46  67  94 144 181 225 291 363 420
#     4  11  24  41  64  98 134 182 230 283 349 415
#     4  12  24  48  74 104 138 176 244 280 348 424
#     4  11  20  40  68  90 135 177 222 289 340 398
#     4  10  20  39  65 101 137 178 226 287 345 388
#
# _framework density 19.976506000000001
#
# number of rings (size 3 to 8) (size 9 to 14) (size 15 to 20)
#    0.000    1.103    6.207    1.241    1.931    1.379 
#    2.483    2.759    0.000    0.000    0.000    0.000 
#    0.000    0.000    0.000    0.000    0.000    0.000 
#
# Total GULP energy -161585.443551 kJ/mol
# GULP energy per Si atom -5571.911847 kJ/mol
# Density = 1.993104 g / cm^3
# Si number density = 19.976506 Si / 1000 Ang^3
#
#
#
# Elastic Constant Matrix: (Units=GPa)
#
#
# Indices 1 2 3 4 5 6 
#
# 1 110.0827 37.5047 16.6312 0.0210 14.0995 0.0033
# 2 37.5047 130.5573 41.4054 0.0451 5.8361 0.0105
# 3 16.6312 41.4054 82.7672 0.0460 3.0137 0.0561
# 4 0.0210 0.0451 0.0460 0.6617 -0.0134 -12.5082
# 5 14.0995 5.8361 3.0137 -0.0134 37.5635 -0.0107
# 6 0.0033 0.0105 0.0561 -12.5082 -0.0107 17.8296
#
#
#
# Elastic Compliance Matrix: (Units=1/GPa)
#
#
# Indices 1 2 3 4 5 6 
#
# 1 0.010537 -0.002662 -0.000659 0.000015 -0.003489 0.000010
# 2 -0.002662 0.009818 -0.004370 0.000010 -0.000175 0.000016
# 3 -0.000659 -0.004370 0.014409 0.000122 -0.000230 0.000043
# 4 0.000015 0.000010 0.000122 -0.123253 -0.000086 -0.086467
# 5 -0.003489 -0.000175 -0.000230 -0.000086 0.027977 -0.000042
# 6 0.000010 0.000016 0.000043 -0.086467 -0.000042 -0.004574
#
#
# Mechanical properties :
#
#
# Convention : Reuss Voigt Hill
#
# Bulk Modulus (GPa) = 51.59342 57.16551 54.37947
# Shear Modulus (GPa) = -115.62713 26.40203 -44.61255
#
# Velocity S-wave (km/s) = -7.61625 3.63940 -4.73086
# Velocity P-wave (km/s) = 7.17355 6.80726 1.60016
#
# Compressibility (1/GPa) = 0.01938232
#
# Stress axis : x y z
#
# Youngs Moduli (GPa) = 94.89976 101.85270 69.40116
#
# Poissons Ratio (x) = 0.27116 0.04570
# Poissons Ratio (y) = 0.25265 0.30330
# Poissons Ratio (z) = 0.06250 0.44513
#
# Static dielectric constant tensor:
#      x y z
#    x 1.719810 0.000000 0.014730 
#    y 0.000000 1.726960 -0.000040 
#    z 0.014730 -0.000040 1.782780 
# 
# From -- ./inp_files/366576.got.cif
#   From: 2010.05.17/outbox.cif.g08.bks.cpg/sg12_184_cif.got.tgz:366576.got - 2010.06.03 13:09:07.
