data_PCOD9203402
_publ_section_title
;
Structure prediction by ZEFSAII (Michael W. Deem and Ramdas Pophale) SiO2 
 PCOD9203402
Probable space group: C 2/M
;
_chemical_formula_sum "Si O2"
_cell_formula_units_Z 64
_cell_length_a 12.238927
_cell_length_b 27.483220
_cell_length_c 14.294377
_cell_angle_alpha 90.000000
_cell_angle_beta 140.126485
_cell_angle_gamma 90.000000
_cell_volume 3082.467741
_symmetry_space_group_name_H-M "C 2/M"
_symmetry_group_IT_number 12
_symmetry_cell_setting 'monoclinic'
loop_
_space_group_symop_operation_xyz
x,y,z
-x,y,-z
-x,-y,-z
x,-y,z
1/2+x,1/2+y,z
1/2-x,1/2+y,-z
1/2-x,1/2-y,-z
1/2+x,1/2-y,z
loop_
_atom_site_type_symbol
_atom_site_label
_atom_site_fract_x
_atom_site_fract_y
_atom_site_fract_z
Si Si1 0.795697 0.556768 0.381778
Si Si2 0.723166 0.641623 0.470070
Si Si3 0.614473 0.302747 0.781185
Si Si4 0.330947 0.134651 0.046393
Si Si5 0.547969 0.207477 0.632645
Si Si6 0.264055 0.865313 0.712367
Si Si7 0.808578 0.870773 0.842568
Si Si8 0.793286 0.554664 0.871662
O O1 0.753202 0.500000 0.362070
O O2 0.746579 0.588830 0.439477
O O3 0.706598 0.583078 0.235213
O O4 0.000000 0.561087 0.500000
O O5 0.562952 0.669398 0.321187
O O6 0.694654 0.639143 0.562582
O O7 0.892688 0.672604 0.560211
O O8 0.579108 0.247134 0.732921
O O9 0.699392 0.325445 0.743279
O O10 0.735954 0.317152 0.946805
O O11 0.531236 0.139099 0.159749
O O12 0.296198 0.122857 0.130582
O O13 0.258854 0.090465 0.935654
O O14 0.500000 0.229676 0.500000
O O15 0.715176 0.174247 0.731016
O O16 0.227495 0.917305 0.736872
O O17 0.000000 0.860696 0.000000
O O18 0.728958 0.500000 0.840316
O O19 0.000000 0.552445 0.000000
#
# Coordination Sequence:
#
# PCOD9203402 Si02
#       8
#     8   8   8   8   8   8   8   8
#     4  11  23  44  71  96 131 177 220 267 327 391
#     4  12  21  43  64  93 129 166 214 268 318 381
#     4  11  25  39  64  95 124 169 215 261 326 384
#     4  10  21  40  62  87 129 169 203 264 321 382
#     4  12  24  44  65  90 126 172 217 268 324 388
#     4  10  20  39  62  89 132 161 205 265 317 382
#     4  12  24  43  65  95 132 168 215 281 320 381
#     4   8  16  32  58  88 117 157 202 245 303 376
#
# _framework density 20.762585000000001
#
# number of rings (size 3 to 8) (size 9 to 14) (size 15 to 20)
#    0.000    1.250    3.750    3.375    0.000    2.750 
#    0.000    7.500    0.000    3.750    0.000    0.000 
#    0.000    0.000    0.000    0.000    0.000    0.000 
#
# Total GULP energy -178923.491572 kJ/mol
# GULP energy per Si atom -5591.359112 kJ/mol
# Density = 2.071533 g / cm^3
# Si number density = 20.762585 Si / 1000 Ang^3
#
#
#
# Elastic Constant Matrix: (Units=GPa)
#
#
# Indices 1 2 3 4 5 6 
#
# 1 56.4544 -0.0030 9.6736 0.0000 -3.5926 0.0000
# 2 -0.0030 97.9074 12.0753 0.0000 3.8975 0.0000
# 3 9.6736 12.0753 50.7057 0.0000 1.3369 0.0000
# 4 0.0000 0.0000 0.0000 19.6403 0.0000 -5.6368
# 5 -3.5926 3.8975 1.3369 0.0000 42.7083 0.0000
# 6 0.0000 0.0000 0.0000 -5.6368 0.0000 10.0703
#
#
#
# Elastic Compliance Matrix: (Units=1/GPa)
#
#
# Indices 1 2 3 4 5 6 
#
# 1 0.018443 0.000386 -0.003654 0.000000 0.001631 0.000000
# 2 0.000386 0.010564 -0.002567 0.000000 -0.000851 0.000000
# 3 -0.003654 -0.002567 0.021049 0.000000 -0.000732 0.000000
# 4 0.000000 0.000000 0.000000 0.060661 0.000000 0.033955
# 5 0.001631 -0.000851 -0.000732 0.000000 0.023652 0.000000
# 6 0.000000 0.000000 0.000000 0.033955 0.000000 0.118308
#
#
# Mechanical properties :
#
#
# Convention : Reuss Voigt Hill
#
# Bulk Modulus (GPa) = 26.04979 27.61771 26.83375
# Shear Modulus (GPa) = 18.04122 26.70523 22.37322
#
# Velocity S-wave (km/s) = 2.95096 3.59028 3.28620
# Velocity P-wave (km/s) = 4.91779 5.52425 5.22982
#
# Compressibility (1/GPa) = 0.03838802
#
# Stress axis : x y z
#
# Youngs Moduli (GPa) = 54.22042 94.65903 47.50751
#
# Poissons Ratio (x) = -0.03656 0.17357
# Poissons Ratio (y) = -0.02094 0.12195
# Poissons Ratio (z) = 0.19810 0.24300
#
# Static dielectric constant tensor:
#      x y z
#    x 1.755190 0.000000 -0.001020 
#    y 0.000000 1.729190 0.000000 
#    z -0.001020 0.000000 1.760520 
# 
# From -- ./inp_files/209427.got.cif
#   From: 2010.05.17/outbox.cif.g08.bks.cpg/sg12_105_cif.got.tgz:209427.got - 2010.06.03 13:09:07.
