data_PCOD9203980
_publ_section_title
;
Structure prediction by ZEFSAII (Michael W. Deem and Ramdas Pophale) SiO2 
 PCOD9203980
Probable space group: C 2/M
;
_chemical_formula_sum "Si O2"
_cell_formula_units_Z 48
_cell_length_a 12.178941
_cell_length_b 17.704482
_cell_length_c 10.955159
_cell_angle_alpha 90.000000
_cell_angle_beta 74.678649
_cell_angle_gamma 90.000000
_cell_volume 2278.217669
_symmetry_space_group_name_H-M "C 2/M"
_symmetry_group_IT_number 12
_symmetry_cell_setting 'monoclinic'
loop_
_space_group_symop_operation_xyz
x,y,z
-x,y,-z
-x,-y,-z
x,-y,z
1/2+x,1/2+y,z
1/2-x,1/2+y,-z
1/2-x,1/2-y,-z
1/2+x,1/2-y,z
loop_
_atom_site_type_symbol
_atom_site_label
_atom_site_fract_x
_atom_site_fract_y
_atom_site_fract_z
Si Si1 0.867755 0.341036 0.504709
Si Si2 0.368655 0.162336 0.077329
Si Si3 0.093379 0.500000 0.579000
Si Si4 0.690614 0.585481 0.987826
Si Si5 0.668894 0.277797 0.698984
Si Si6 0.036165 0.915279 0.791020
Si Si7 0.582423 0.000000 0.856661
O O1 0.837052 0.424079 0.464655
O O2 0.789619 0.317915 0.641199
O O3 0.846677 0.283669 0.401559
O O4 0.000000 0.339596 0.500000
O O5 0.285684 0.147694 0.987146
O O6 0.339850 0.232478 0.171920
O O7 0.356120 0.081318 0.150824
O O8 0.500000 0.170329 0.000000
O O9 0.037022 0.500000 0.730378
O O10 0.000000 0.500000 0.500000
O O11 0.739626 0.500000 0.978985
O O12 0.590815 0.591771 0.118115
O O13 0.623508 0.589881 0.880350
O O14 0.572983 0.341939 0.706748
O O15 0.047929 0.000000 0.734879
O O16 0.500000 0.000000 0.000000
#
# Coordination Sequence:
#
# PCOD9203980 Si02
#       7
#     8   8   4   8   8   8   4
#     4  10  24  43  63  89 124 166 214 276 324 390
#     4  11  23  37  62  98 135 171 207 267 343 399
#     4  10  20  44  70  91 125 181 223 259 329 399
#     4   9  19  39  61  88 127 172 209 261 317 396
#     4  11  24  40  61  92 125 162 218 274 325 387
#     4   9  21  40  61  85 123 170 221 257 314 392
#     4  10  20  40  62  98 140 165 209 268 333 402
#
# _framework density 21.069102000000001
#
# number of rings (size 3 to 8) (size 9 to 14) (size 15 to 20)
#    0.000    2.000    2.500    1.000    5.833    2.000 
#    3.000    0.000    0.000    0.500    0.000    0.000 
#    0.000    0.000    0.000    0.000    0.000    0.000 
#
# Total GULP energy -133874.283594 kJ/mol
# GULP energy per Si atom -5578.095150 kJ/mol
# Density = 2.102115 g / cm^3
# Si number density = 21.069102 Si / 1000 Ang^3
#
#
#
# Elastic Constant Matrix: (Units=GPa)
#
#
# Indices 1 2 3 4 5 6 
#
# 1 74.5052 16.4531 23.0811 0.0000 -9.8737 0.0000
# 2 16.4531 152.1739 42.3802 0.0000 -18.4906 0.0000
# 3 23.0811 42.3802 66.5710 0.0000 -4.8503 0.0000
# 4 0.0000 0.0000 0.0000 18.8230 0.0000 -6.8577
# 5 -9.8737 -18.4906 -4.8503 0.0000 23.6761 0.0000
# 6 0.0000 0.0000 0.0000 -6.8577 0.0000 16.1197
#
#
#
# Elastic Compliance Matrix: (Units=1/GPa)
#
#
# Indices 1 2 3 4 5 6 
#
# 1 0.015746 0.000500 -0.005350 0.000000 0.005861 0.000000
# 2 0.000500 0.008710 -0.005286 0.000000 0.005928 0.000000
# 3 -0.005350 -0.005286 0.020078 0.000000 -0.002247 0.000000
# 4 0.000000 0.000000 0.000000 0.062871 0.000000 0.026747
# 5 0.005861 0.005928 -0.002247 0.000000 0.048850 0.000000
# 6 0.000000 0.000000 0.000000 0.026747 0.000000 0.073415
#
#
# Mechanical properties :
#
#
# Convention : Reuss Voigt Hill
#
# Bulk Modulus (GPa) = 41.22000 50.78655 46.00327
# Shear Modulus (GPa) = 19.37754 25.81278 22.59516
#
# Velocity S-wave (km/s) = 3.03597 3.50401 3.27835
# Velocity P-wave (km/s) = 5.64767 6.36615 6.01764
#
# Compressibility (1/GPa) = 0.02426007
#
# Stress axis : x y z
#
# Youngs Moduli (GPa) = 63.50935 114.81203 49.80505
#
# Poissons Ratio (x) = -0.05738 0.26648
# Poissons Ratio (y) = -0.03174 0.26328
# Poissons Ratio (z) = 0.33980 0.60693
#
# Static dielectric constant tensor:
#      x y z
#    x 1.779930 0.000000 0.010150 
#    y 0.000000 1.819190 0.000000 
#    z 0.010150 0.000000 1.776990 
# 
# From -- ./inp_files/131700.got.cif
#   From: 2010.05.17/outbox.cif.g08.bks.cpg/sg12_66_cif.got.tgz:131700.got - 2010.06.03 13:09:07.
