data_PCOD9203971
_publ_section_title
;
Structure prediction by ZEFSAII (Michael W. Deem and Ramdas Pophale) SiO2 
 PCOD9203971
Probable space group: C 2/M
;
_chemical_formula_sum "Si O2"
_cell_formula_units_Z 42
_cell_length_a 15.228958
_cell_length_b 9.737892
_cell_length_c 15.914547
_cell_angle_alpha 90.000000
_cell_angle_beta 116.320505
_cell_angle_gamma 90.000000
_cell_volume 2115.418477
_symmetry_space_group_name_H-M "C 2/M"
_symmetry_group_IT_number 12
_symmetry_cell_setting 'monoclinic'
loop_
_space_group_symop_operation_xyz
x,y,z
-x,y,-z
-x,-y,-z
x,-y,z
1/2+x,1/2+y,z
1/2-x,1/2+y,-z
1/2-x,1/2-y,-z
1/2+x,1/2-y,z
loop_
_atom_site_type_symbol
_atom_site_label
_atom_site_fract_x
_atom_site_fract_y
_atom_site_fract_z
Si Si1 0.827417 0.223371 0.908758
Si Si2 0.878800 0.351680 0.096103
Si Si3 0.794489 0.837218 0.713543
Si Si4 0.995560 0.162993 0.263320
Si Si5 0.073342 0.662366 0.607296
Si Si6 0.500000 0.500000 0.000000
O O1 0.725616 0.162641 0.901597
O O2 0.808126 0.252994 0.803140
O O3 0.915642 0.117332 0.950147
O O4 0.857024 0.339010 0.988169
O O5 0.922739 0.500000 0.135132
O O6 0.945517 0.228656 0.159361
O O7 0.887656 0.816053 0.693892
O O8 0.686796 0.813552 0.631281
O O9 0.797736 0.000000 0.739964
O O10 0.952602 0.244324 0.324035
O O11 0.975801 0.000000 0.257702
O O12 0.063566 0.500000 0.624651
O O13 0.000000 0.691965 0.500000
#
# Coordination Sequence:
#
# PCOD9203971 Si02
#       6
#     8   8   8   8   8   2
#     4  11  22  35  63  85 126 168 211 247 302 374
#     4  11  23  40  59  91 127 165 210 261 303 357
#     4  10  20  40  62  91 125 168 209 246 309 381
#     4  11  24  39  66  95 124 166 209 255 307 377
#     4  10  22  44  71  93 122 161 204 257 321 377
#     4  12  20  36  58  92 110 178 204 244 302 380
#
# _framework density 19.854227999999999
#
# number of rings (size 3 to 8) (size 9 to 14) (size 15 to 20)
#    0.000    1.333    3.810    1.714    4.000    1.905 
#    0.000    7.143    0.000    0.000    0.000    0.000 
#    0.000    0.000    0.000    0.000    0.000    0.000 
#
# Total GULP energy -116985.016657 kJ/mol
# GULP energy per Si atom -5570.715079 kJ/mol
# Density = 1.980904 g / cm^3
# Si number density = 19.854228 Si / 1000 Ang^3
#
#
#
# Elastic Constant Matrix: (Units=GPa)
#
#
# Indices 1 2 3 4 5 6 
#
# 1 87.2294 21.6593 31.5062 0.0000 37.9085 0.0000
# 2 21.6593 76.7002 29.9799 0.0000 7.5509 0.0000
# 3 31.5062 29.9799 71.9540 0.0000 26.7631 0.0000
# 4 0.0000 0.0000 0.0000 -10.0554 0.0000 -111.4885
# 5 37.9085 7.5509 26.7631 0.0000 32.7361 0.0000
# 6 0.0000 0.0000 0.0000 -111.4885 0.0000 -363.8988
#
#
#
# Elastic Compliance Matrix: (Units=1/GPa)
#
#
# Indices 1 2 3 4 5 6 
#
# 1 0.024508 -0.004880 0.002068 0.000000 -0.028945 0.000000
# 2 -0.004880 0.016685 -0.007882 0.000000 0.008246 0.000000
# 3 0.002068 -0.007882 0.023697 0.000000 -0.019950 0.000000
# 4 0.000000 0.000000 0.000000 0.041491 0.000000 -0.012712
# 5 -0.028945 0.008246 -0.019950 0.000000 0.078474 0.000000
# 6 0.000000 0.000000 0.000000 -0.012712 0.000000 0.001146
#
#
# Mechanical properties :
#
#
# Convention : Reuss Voigt Hill
#
# Bulk Modulus (GPa) = 22.98752 44.68605 33.83678
# Shear Modulus (GPa) = 22.53375 -58.06107 -17.76366
#
# Velocity S-wave (km/s) = 3.37257 -5.41361 -2.99441
# Velocity P-wave (km/s) = 5.17387 4.06452 2.26370
#
# Compressibility (1/GPa) = 0.04350187
#
# Stress axis : x y z
#
# Youngs Moduli (GPa) = 40.80318 59.93435 42.19990
#
# Poissons Ratio (x) = 0.29245 -0.08728
# Poissons Ratio (y) = 0.19910 0.33264
# Poissons Ratio (z) = -0.08439 0.47243
#
# Static dielectric constant tensor:
#      x y z
#    x 1.701780 0.000000 -0.011980 
#    y 0.000000 1.675470 0.000000 
#    z -0.011980 0.000000 1.710760 
# 
# From -- ./inp_files/267787.got.cif
#   From: 2010.05.17/outbox.cif.g08.bks.cpg/sg12_134_cif.got.tgz:267787.got - 2010.06.03 13:09:07.
