data_PCOD9203500
_publ_section_title
;
Structure prediction by ZEFSAII (Michael W. Deem and Ramdas Pophale) SiO2 
 PCOD9203500
Probable space group: C 2/M
;
_chemical_formula_sum "Si O2"
_cell_formula_units_Z 40
_cell_length_a 9.469711
_cell_length_b 17.435822
_cell_length_c 12.003658
_cell_angle_alpha 90.000000
_cell_angle_beta 77.494452
_cell_angle_gamma 90.000000
_cell_volume 1934.928642
_symmetry_space_group_name_H-M "C 2/M"
_symmetry_group_IT_number 12
_symmetry_cell_setting 'monoclinic'
loop_
_space_group_symop_operation_xyz
x,y,z
-x,y,-z
-x,-y,-z
x,-y,z
1/2+x,1/2+y,z
1/2-x,1/2+y,-z
1/2-x,1/2-y,-z
1/2+x,1/2-y,z
loop_
_atom_site_type_symbol
_atom_site_label
_atom_site_fract_x
_atom_site_fract_y
_atom_site_fract_z
Si Si1 0.282046 0.911310 0.199441
Si Si2 0.152762 0.857257 0.443620
Si Si3 0.109211 0.591012 0.174553
Si Si4 0.337024 0.670299 0.981041
Si Si5 0.365432 0.820297 0.599204
O O1 0.244926 0.901525 0.336040
O O2 0.450089 0.888382 0.153464
O O3 0.174800 0.861153 0.142682
O O4 0.267173 0.000000 0.170285
O O5 0.229442 0.843628 0.548202
O O6 0.130085 0.772035 0.395221
O O7 0.000000 0.893820 0.500000
O O8 0.106541 0.500000 0.197544
O O9 0.130049 0.639379 0.283378
O O10 0.239723 0.612197 0.070671
O O11 0.500000 0.676484 0.000000
O O12 0.250000 0.750000 0.000000
O O13 0.500000 0.844436 0.500000
#
# Coordination Sequence:
#
# PCOD9203500 Si02
#       5
#     8   8   8   8   8
#     4  11  24  43  65  94 135 174 212 262 324 384
#     4  10  22  37  62  94 129 173 217 271 318 368
#     4  11  24  42  67  95 131 174 214 263 321 384
#     4  12  27  46  71  96 124 164 214 269 321 384
#     4  10  20  39  63  91 128 170 220 265 316 378
#
# _framework density 20.672598000000001
#
# number of rings (size 3 to 8) (size 9 to 14) (size 15 to 20)
#    0.000    1.200    2.000    3.600    2.800    4.800 
#    0.000    0.000    0.000    0.000    0.000    0.000 
#    0.000    0.000    0.000    0.000    0.000    0.000 
#
# Total GULP energy -111789.125581 kJ/mol
# GULP energy per Si atom -5589.456279 kJ/mol
# Density = 2.062555 g / cm^3
# Si number density = 20.672598 Si / 1000 Ang^3
#
#
#
# Elastic Constant Matrix: (Units=GPa)
#
#
# Indices 1 2 3 4 5 6 
#
# 1 134.4441 28.8924 19.4390 0.0000 0.6020 0.0000
# 2 28.8924 59.8181 9.3973 0.0000 22.4089 0.0000
# 3 19.4390 9.3973 62.4206 0.0000 14.2759 0.0000
# 4 0.0000 0.0000 0.0000 -11.2378 0.0000 -18.9795
# 5 0.6020 22.4089 14.2759 0.0000 34.8604 0.0000
# 6 0.0000 0.0000 0.0000 -18.9795 0.0000 12.1800
#
#
#
# Elastic Compliance Matrix: (Units=1/GPa)
#
#
# Indices 1 2 3 4 5 6 
#
# 1 0.009081 -0.005685 -0.003058 0.000000 0.004750 0.000000
# 2 -0.005685 0.025580 0.001829 0.000000 -0.017094 0.000000
# 3 -0.003058 0.001829 0.018706 0.000000 -0.008783 0.000000
# 4 0.000000 0.000000 0.000000 -0.024502 0.000000 -0.038181
# 5 0.004750 -0.017094 -0.008783 0.000000 0.043189 0.000000
# 6 0.000000 0.000000 0.000000 -0.038181 0.000000 0.022607
#
#
# Mechanical properties :
#
#
# Convention : Reuss Voigt Hill
#
# Bulk Modulus (GPa) = 25.29243 41.34890 33.32067
# Shear Modulus (GPa) = 41.09540 20.42413 30.75977
#
# Velocity S-wave (km/s) = 4.46344 3.14663 3.86158
# Velocity P-wave (km/s) = 6.23092 5.76601 6.00297
#
# Compressibility (1/GPa) = 0.03953752
#
# Stress axis : x y z
#
# Youngs Moduli (GPa) = 110.12370 39.09374 53.45803
#
# Poissons Ratio (x) = 0.22225 0.16350
# Poissons Ratio (y) = 0.62605 -0.09777
# Poissons Ratio (z) = 0.33680 -0.07150
#
# Static dielectric constant tensor:
#      x y z
#    x 1.804060 0.000000 0.027730 
#    y 0.000000 1.726980 0.000000 
#    z 0.027730 0.000000 1.752960 
# 
# From -- ./inp_files/118882.got.cif
#   From: 2010.05.17/outbox.cif.g08.bks.cpg/sg12_60_cif.got.tgz:118882.got - 2010.06.03 13:09:07.
