data_PCOD9203806
_publ_section_title
;
Structure prediction by ZEFSAII (Michael W. Deem and Ramdas Pophale) SiO2 
 PCOD9203806
Probable space group: C 2/M
;
_chemical_formula_sum "Si O2"
_cell_formula_units_Z 52
_cell_length_a 11.390945
_cell_length_b 26.879489
_cell_length_c 11.573531
_cell_angle_alpha 90.000000
_cell_angle_beta 135.726520
_cell_angle_gamma 90.000000
_cell_volume 2473.741368
_symmetry_space_group_name_H-M "C 2/M"
_symmetry_group_IT_number 12
_symmetry_cell_setting 'monoclinic'
loop_
_space_group_symop_operation_xyz
x,y,z
-x,y,-z
-x,-y,-z
x,-y,z
1/2+x,1/2+y,z
1/2-x,1/2+y,-z
1/2-x,1/2-y,-z
1/2+x,1/2-y,z
loop_
_atom_site_type_symbol
_atom_site_label
_atom_site_fract_x
_atom_site_fract_y
_atom_site_fract_z
Si Si1 0.104121 0.837489 0.199017
Si Si2 0.840201 0.414269 0.963850
Si Si3 0.979774 0.053482 0.125739
Si Si4 0.000000 0.354714 0.500000
Si Si5 0.318274 0.339928 0.323739
Si Si6 0.478875 0.152267 0.721943
Si Si7 0.889614 0.760816 0.193560
O O1 0.307768 0.831923 0.348914
O O2 0.064155 0.893607 0.214180
O O3 0.022012 0.797842 0.227317
O O4 0.000000 0.832392 0.000000
O O5 0.709677 0.444052 0.953452
O O6 0.731147 0.385264 0.792866
O O7 0.000000 0.435313 0.000000
O O8 0.911475 0.371767 0.099903
O O9 0.051607 0.000000 0.216853
O O10 0.000000 0.052703 0.000000
O O11 0.984699 0.381420 0.612478
O O12 0.500000 0.345121 0.500000
O O13 0.200248 0.340767 0.349940
O O14 0.307000 0.289116 0.242912
O O15 0.532149 0.207650 0.722884
O O16 0.750000 0.750000 0.000000
#
# Coordination Sequence:
#
# PCOD9203806 Si02
#       7
#     8   8   8   4   8   8   8
#     4  11  24  41  66  94 129 172 216 269 328 389
#     4  10  21  43  66  95 130 171 218 271 339 397
#     4  10  20  39  68 100 130 166 216 273 336 407
#     4  12  26  44  63  98 134 172 227 272 322 398
#     4  11  24  40  59  88 126 172 217 266 322 386
#     4  11  25  39  59  91 128 169 216 265 320 384
#     4  12  23  39  62  87 127 175 221 267 321 385
#
# _framework density 21.020790000000002
#
# number of rings (size 3 to 8) (size 9 to 14) (size 15 to 20)
#    0.000    1.077    3.077    3.692    5.385    1.538 
#    0.000    0.385    0.000    1.385    0.000    0.000 
#    0.000    0.000    0.000    0.000    0.000    0.000 
#
# Total GULP energy -144800.282551 kJ/mol
# GULP energy per Si atom -5569.241637 kJ/mol
# Density = 2.097295 g / cm^3
# Si number density = 21.020790 Si / 1000 Ang^3
#
#
#
# Elastic Constant Matrix: (Units=GPa)
#
#
# Indices 1 2 3 4 5 6 
#
# 1 147.0116 35.7234 23.9312 0.0000 -8.3081 0.0000
# 2 35.7234 96.5511 5.0507 0.0000 11.5734 0.0000
# 3 23.9312 5.0507 95.8679 0.0000 5.7156 0.0000
# 4 0.0000 0.0000 0.0000 -1.7143 0.0000 0.2590
# 5 -8.3081 11.5734 5.7156 0.0000 29.2184 0.0000
# 6 0.0000 0.0000 0.0000 0.2590 0.0000 -79.4776
#
#
#
# Elastic Compliance Matrix: (Units=1/GPa)
#
#
# Indices 1 2 3 4 5 6 
#
# 1 0.008209 -0.003418 -0.002114 0.000000 0.004102 0.000000
# 2 -0.003418 0.012307 0.000560 0.000000 -0.005956 0.000000
# 3 -0.002114 0.000560 0.011108 0.000000 -0.002996 0.000000
# 4 0.000000 0.000000 0.000000 -0.583600 0.000000 -0.001902
# 5 0.004102 -0.005956 -0.002996 0.000000 0.038337 0.000000
# 6 0.000000 0.000000 0.000000 -0.001902 0.000000 -0.012588
#
#
# Mechanical properties :
#
#
# Convention : Reuss Voigt Hill
#
# Bulk Modulus (GPa) = 46.12662 52.09346 49.11004
# Shear Modulus (GPa) = -9.82205 7.92031 -0.95087
#
# Velocity S-wave (km/s) = -2.16395 1.94320 -0.67330
# Velocity P-wave (km/s) = 3.96830 5.46538 4.77586
#
# Compressibility (1/GPa) = 0.02167945
#
# Stress axis : x y z
#
# Youngs Moduli (GPa) = 121.82283 81.25726 90.02754
#
# Poissons Ratio (x) = 0.27776 0.19028
# Poissons Ratio (y) = 0.41642 -0.05042
# Poissons Ratio (z) = 0.25748 -0.04551
#
# Static dielectric constant tensor:
#      x y z
#    x 1.891320 0.000000 -0.082470 
#    y 0.000000 1.868750 0.000000 
#    z -0.082470 0.000000 1.900930 
# 
# From -- ./inp_files/137659.got.cif
#   From: 2010.05.17/outbox.cif.g08.bks.cpg/sg12_69_cif.got.tgz:137659.got - 2010.06.03 13:09:07.
