data_PCOD9203979
_publ_section_title
;
Structure prediction by ZEFSAII (Michael W. Deem and Ramdas Pophale) SiO2 
 PCOD9203979
Probable space group: C 2/M
;
_chemical_formula_sum "Si O2"
_cell_formula_units_Z 38
_cell_length_a 18.018247
_cell_length_b 18.930980
_cell_length_c 15.070716
_cell_angle_alpha 90.000000
_cell_angle_beta 160.657478
_cell_angle_gamma 90.000000
_cell_volume 1702.664878
_symmetry_space_group_name_H-M "C 2/M"
_symmetry_group_IT_number 12
_symmetry_cell_setting 'monoclinic'
loop_
_space_group_symop_operation_xyz
x,y,z
-x,y,-z
-x,-y,-z
x,-y,z
1/2+x,1/2+y,z
1/2-x,1/2+y,-z
1/2-x,1/2-y,-z
1/2+x,1/2-y,z
loop_
_atom_site_type_symbol
_atom_site_label
_atom_site_fract_x
_atom_site_fract_y
_atom_site_fract_z
Si Si1 0.635768 0.629324 0.068033
Si Si2 0.782843 0.667974 0.524275
Si Si3 0.500000 0.500000 0.500000
Si Si4 0.843593 0.422539 0.134396
Si Si5 0.081742 0.120317 0.464658
Si Si6 0.500000 0.250740 0.500000
O O1 0.790199 0.581470 0.178936
O O2 0.783959 0.698870 0.257457
O O3 0.500000 0.601060 0.000000
O O4 0.437009 0.646811 0.776794
O O5 0.750000 0.750000 0.500000
O O6 0.778382 0.632787 0.616087
O O7 0.992546 0.640944 0.705662
O O8 0.634790 0.562872 0.598312
O O9 0.941152 0.500000 0.224129
O O10 0.626888 0.411782 0.827111
O O11 0.013238 0.195367 0.431490
#
# Coordination Sequence:
#
# PCOD9203979 Si02
#       6
#     8   8   2   8   8   4
#     4  11  23  40  64  93 128 166 221 276 324 379
#     4  11  23  40  66  95 129 177 225 269 323 388
#     4  10  20  40  62  96 132 170 202 262 332 390
#     4  11  24  42  65  95 132 174 216 264 331 398
#     4  10  22  40  66  93 135 169 215 268 327 393
#     4  11  22  41  67  96 129 170 218 278 321 382
#
# _framework density 22.317957
#
# number of rings (size 3 to 8) (size 9 to 14) (size 15 to 20)
#    0.000    1.263    1.053    5.053    1.474    4.632 
#    0.000    7.895    0.000    0.000    0.000    0.000 
#    0.000    0.000    0.000    0.000    0.000    0.000 
#
# Total GULP energy -105826.541221 kJ/mol
# GULP energy per Si atom -5569.817959 kJ/mol
# Density = 2.226716 g / cm^3
# Si number density = 22.317957 Si / 1000 Ang^3
#
#
#
# Elastic Constant Matrix: (Units=GPa)
#
#
# Indices 1 2 3 4 5 6 
#
# 1 134.3747 23.4127 -12.6592 0.0002 18.9714 0.0005
# 2 23.4127 85.3552 -18.3126 0.0010 10.3350 -0.0002
# 3 -12.6592 -18.3126 -1.6116 0.0016 10.7251 0.0007
# 4 0.0002 0.0010 0.0016 15.7471 0.0009 -10.2437
# 5 18.9714 10.3350 10.7251 0.0009 29.4496 -0.0005
# 6 0.0005 -0.0002 0.0007 -10.2437 -0.0005 44.9429
#
#
#
# Elastic Compliance Matrix: (Units=1/GPa)
#
#
# Indices 1 2 3 4 5 6 
#
# 1 0.007224 -0.004038 -0.009465 0.000001 0.000210 0.000000
# 2 -0.004038 0.008137 -0.018238 0.000001 0.006387 0.000001
# 3 -0.009465 -0.018238 -0.074701 0.000009 0.039703 0.000004
# 4 0.000001 0.000001 0.000009 0.074559 -0.000007 0.016994
# 5 0.000210 0.006387 0.039703 -0.000007 0.017120 -0.000002
# 6 0.000000 0.000001 0.000004 0.016994 -0.000002 0.026124
#
#
# Mechanical properties :
#
#
# Convention : Reuss Voigt Hill
#
# Bulk Modulus (GPa) = -8.14195 22.55557 7.20681
# Shear Modulus (GPa) = 61.72546 33.07308 47.39927
#
# Velocity S-wave (km/s) = 5.26473 3.85373 4.61349
# Velocity P-wave (km/s) = 5.77065 5.47083 5.62274
#
# Compressibility (1/GPa) = -0.12282068
#
# Stress axis : x y z
#
# Youngs Moduli (GPa) = 138.42745 122.89488 -13.38676
#
# Poissons Ratio (x) = 0.49621 -0.12671
# Poissons Ratio (y) = 0.55893 -0.24414
# Poissons Ratio (z) = 1.31023 2.24133
#
# Static dielectric constant tensor:
#      x y z
#    x 1.917290 0.000000 -0.002720 
#    y 0.000000 1.815900 0.000000 
#    z -0.002720 0.000000 1.815130 
# 
# From -- ./inp_files/227547.got.cif
#   From: 2010.05.17/outbox.cif.g08.bks.cpg/sg12_114_cif.got.tgz:227547.got - 2010.06.03 13:09:07.
