data_PCOD9203478
_publ_section_title
;
Structure prediction by ZEFSAII (Michael W. Deem and Ramdas Pophale) SiO2 
 PCOD9203478
Probable space group: C 2/M
;
_chemical_formula_sum "Si O2"
_cell_formula_units_Z 56
_cell_length_a 15.473832
_cell_length_b 8.819200
_cell_length_c 23.990769
_cell_angle_alpha 90.000000
_cell_angle_beta 63.981303
_cell_angle_gamma 90.000000
_cell_volume 2942.132819
_symmetry_space_group_name_H-M "C 2/M"
_symmetry_group_IT_number 12
_symmetry_cell_setting 'monoclinic'
loop_
_space_group_symop_operation_xyz
x,y,z
-x,y,-z
-x,-y,-z
x,-y,z
1/2+x,1/2+y,z
1/2-x,1/2+y,-z
1/2-x,1/2-y,-z
1/2+x,1/2-y,z
loop_
_atom_site_type_symbol
_atom_site_label
_atom_site_fract_x
_atom_site_fract_y
_atom_site_fract_z
Si Si1 0.812032 0.819424 0.639974
Si Si2 0.017687 0.317425 0.158003
Si Si3 0.608401 0.681317 0.709142
Si Si4 0.580750 0.182323 0.931261
Si Si5 0.338002 0.819127 0.510375
Si Si6 0.520651 0.681322 0.614698
Si Si7 0.265863 0.818243 0.934086
O O1 0.713478 0.749823 0.690268
O O2 0.832401 0.749050 0.573544
O O3 0.906884 0.789238 0.649747
O O4 0.800965 0.000000 0.637677
O O5 0.013972 0.500000 0.165121
O O6 0.967395 0.241241 0.224706
O O7 0.959768 0.278009 0.118005
O O8 0.128868 0.273354 0.118043
O O9 0.613258 0.500000 0.709594
O O10 0.574476 0.724928 0.656326
O O11 0.680310 0.260402 0.919112
O O12 0.593142 0.000000 0.930417
O O13 0.500000 0.222982 0.000000
O O14 0.250000 0.750000 0.500000
O O15 0.432891 0.768215 0.450357
O O16 0.330150 0.000000 0.514958
O O17 0.533985 0.500000 0.602302
O O18 0.263865 0.000000 0.938814
O O19 0.250000 0.750000 0.000000
#
# Coordination Sequence:
#
# PCOD9203478 Si02
#       7
#     8   8   8   8   8   8   8
#     4  11  23  41  65  91 123 164 206 254 311 366
#     4  10  23  42  62  86 124 164 201 248 309 369
#     4  11  24  42  63  88 122 163 209 256 300 362
#     4  10  20  39  63  89 122 160 198 245 305 364
#     4  12  23  37  62  94 125 161 204 256 313 363
#     4  10  23  42  63  89 124 163 205 254 308 364
#     4  11  22  38  62  93 124 158 200 250 303 362
#
# _framework density 19.033812000000001
#
# number of rings (size 3 to 8) (size 9 to 14) (size 15 to 20)
#    0.000    1.286    2.857    3.000    0.000    6.571 
#    0.000    4.286    0.000    0.000    0.000    0.000 
#    0.000    0.000    0.000    0.000    0.000    0.000 
#
# Total GULP energy -156567.415720 kJ/mol
# GULP energy per Si atom -5591.693419 kJ/mol
# Density = 1.899049 g / cm^3
# Si number density = 19.033812 Si / 1000 Ang^3
#
#
#
# Elastic Constant Matrix: (Units=GPa)
#
#
# Indices 1 2 3 4 5 6 
#
# 1 115.7558 37.1631 28.2982 0.0000 -32.0735 0.0000
# 2 37.1631 45.7271 31.8727 0.0000 -14.4099 0.0000
# 3 28.2982 31.8727 99.0208 0.0000 -30.2523 0.0000
# 4 0.0000 0.0000 0.0000 34.6881 0.0000 -3.2137
# 5 -32.0735 -14.4099 -30.2523 0.0000 30.6999 0.0000
# 6 0.0000 0.0000 0.0000 -3.2137 0.0000 31.9707
#
#
#
# Elastic Compliance Matrix: (Units=1/GPa)
#
#
# Indices 1 2 3 4 5 6 
#
# 1 0.014971 -0.009975 0.003263 0.000000 0.014174 0.000000
# 2 -0.009975 0.035673 -0.009586 0.000000 -0.003123 0.000000
# 3 0.003263 -0.009586 0.017053 0.000000 0.015713 0.000000
# 4 0.000000 0.000000 0.000000 0.029099 0.000000 0.002925
# 5 0.014174 -0.003123 0.015713 0.000000 0.061400 0.000000
# 6 0.000000 0.000000 0.000000 0.002925 0.000000 0.031573
#
#
# Mechanical properties :
#
#
# Convention : Reuss Voigt Hill
#
# Bulk Modulus (GPa) = 28.48958 50.57465 39.53211
# Shear Modulus (GPa) = 21.36167 30.34969 25.85568
#
# Velocity S-wave (km/s) = 3.35371 3.99747 3.68966
# Velocity P-wave (km/s) = 5.47694 6.92351 6.24227
#
# Compressibility (1/GPa) = 0.03510055
#
# Stress axis : x y z
#
# Youngs Moduli (GPa) = 66.79628 28.03259 58.64205
#
# Poissons Ratio (x) = 0.27961 -0.19132
# Poissons Ratio (y) = 0.66626 0.56213
# Poissons Ratio (z) = -0.21793 0.26872
#
# Static dielectric constant tensor:
#      x y z
#    x 1.667230 0.000000 -0.009840 
#    y 0.000000 1.636920 0.000000 
#    z -0.009840 0.000000 1.629750 
# 
# From -- ./inp_files/338439.got.cif
#   From: 2010.05.17/outbox.cif.g08.bks.cpg/sg12_170_cif.got.tgz:338439.got - 2010.06.03 13:09:07.
