data_PCOD9203267
_publ_section_title
;
Structure prediction by ZEFSAII (Michael W. Deem and Ramdas Pophale) SiO2 
 PCOD9203267
Probable space group: C 2/M
;
_chemical_formula_sum "Si O2"
_cell_formula_units_Z 40
_cell_length_a 12.960145
_cell_length_b 26.247704
_cell_length_c 10.052802
_cell_angle_alpha 90.000000
_cell_angle_beta 143.860650
_cell_angle_gamma 90.000000
_cell_volume 2016.773354
_symmetry_space_group_name_H-M "C 2/M"
_symmetry_group_IT_number 12
_symmetry_cell_setting 'monoclinic'
loop_
_space_group_symop_operation_xyz
x,y,z
-x,y,-z
-x,-y,-z
x,-y,z
1/2+x,1/2+y,z
1/2-x,1/2+y,-z
1/2-x,1/2-y,-z
1/2+x,1/2-y,z
loop_
_atom_site_type_symbol
_atom_site_label
_atom_site_fract_x
_atom_site_fract_y
_atom_site_fract_z
Si Si1 0.506455 0.789342 0.161064
Si Si2 0.500000 0.378148 0.000000
Si Si3 0.090706 0.186860 0.349483
Si Si4 0.833964 0.560098 0.239587
Si Si5 0.000000 0.883822 0.500000
Si Si6 0.136519 0.599353 0.022891
O O1 0.705750 0.803550 0.405958
O O2 0.478794 0.739057 0.220916
O O3 0.500000 0.773219 0.000000
O O4 0.389805 0.840460 0.044493
O O5 0.574660 0.343118 0.195173
O O6 0.658140 0.411111 0.102173
O O7 0.026524 0.151666 0.400617
O O8 0.809710 0.500000 0.236441
O O9 0.000000 0.577614 0.500000
O O10 0.878351 0.570097 0.131206
O O11 0.823536 0.913025 0.282530
O O12 0.000000 0.589996 0.000000
#
# Coordination Sequence:
#
# PCOD9203267 Si02
#       6
#     8   4   8   8   4   8
#     4  10  20  39  60  92 132 172 212 258 307 382
#     4  12  23  44  70  96 130 172 213 268 322 384
#     4  11  22  38  64  92 132 172 215 254 315 381
#     4  11  26  46  69  97 125 165 218 273 331 383
#     4  12  22  40  63  92 126 174 213 258 316 380
#     4  11  23  43  66  92 130 169 212 265 317 380
#
# _framework density 19.833660999999999
#
# number of rings (size 3 to 8) (size 9 to 14) (size 15 to 20)
#    0.000    1.000    7.000    1.500    0.000    1.200 
#    9.000    0.500    0.000    0.000    0.000    0.000 
#    0.000    0.000    0.000    0.000    0.000    0.000 
#
# Total GULP energy -111633.233652 kJ/mol
# GULP energy per Si atom -5581.661683 kJ/mol
# Density = 1.978852 g / cm^3
# Si number density = 19.833661 Si / 1000 Ang^3
#
#
#
# Elastic Constant Matrix: (Units=GPa)
#
#
# Indices 1 2 3 4 5 6 
#
# 1 91.2428 15.3128 57.3855 0.0000 -15.0490 0.0000
# 2 15.3128 26.3556 23.5636 0.0000 8.2433 0.0000
# 3 57.3855 23.5636 174.3334 0.0000 -3.9173 0.0000
# 4 0.0000 0.0000 0.0000 -13.0632 0.0000 -43.3677
# 5 -15.0490 8.2433 -3.9173 0.0000 34.7041 0.0000
# 6 0.0000 0.0000 0.0000 -43.3677 0.0000 -25.5857
#
#
#
# Elastic Compliance Matrix: (Units=1/GPa)
#
#
# Indices 1 2 3 4 5 6 
#
# 1 0.016377 -0.008634 -0.004028 0.000000 0.008698 0.000000
# 2 -0.008634 0.052290 -0.004601 0.000000 -0.016684 0.000000
# 3 -0.004028 -0.004601 0.007689 0.000000 0.000214 0.000000
# 4 0.000000 0.000000 0.000000 0.016544 0.000000 -0.028042
# 5 0.008698 -0.016684 0.000214 0.000000 0.036574 0.000000
# 6 0.000000 0.000000 0.000000 -0.028042 0.000000 0.008447
#
#
# Mechanical properties :
#
#
# Convention : Reuss Voigt Hill
#
# Bulk Modulus (GPa) = 23.90609 53.82839 38.86724
# Shear Modulus (GPa) = 26.82552 12.25570 19.54061
#
# Velocity S-wave (km/s) = 3.68166 2.48851 3.14223
# Velocity P-wave (km/s) = 5.49111 5.95447 5.72748
#
# Compressibility (1/GPa) = 0.04183035
#
# Stress axis : x y z
#
# Youngs Moduli (GPa) = 61.06183 19.12398 130.05921
#
# Poissons Ratio (x) = 0.16511 0.52393
# Poissons Ratio (y) = 0.52720 0.59836
# Poissons Ratio (z) = 0.24598 0.08798
#
# Static dielectric constant tensor:
#      x y z
#    x 1.688190 0.000000 0.021000 
#    y 0.000000 1.705070 0.000000 
#    z 0.021000 0.000000 1.703950 
# 
# From -- ./inp_files/54496.got.cif
#   From: 2010.05.17/outbox.cif.g08.bks.cpg/sg12_28_cif.got.tgz:54496.got - 2010.06.03 13:09:07.
