data_PCOD9203271
_publ_section_title
;
Structure prediction by ZEFSAII (Michael W. Deem and Ramdas Pophale) SiO2 
 PCOD9203271
Probable space group: C 2/M
;
_chemical_formula_sum "Si O2"
_cell_formula_units_Z 64
_cell_length_a 19.747608
_cell_length_b 13.990154
_cell_length_c 14.642707
_cell_angle_alpha 90.000000
_cell_angle_beta 125.770404
_cell_angle_gamma 90.000000
_cell_volume 3282.276020
_symmetry_space_group_name_H-M "C 2/M"
_symmetry_group_IT_number 12
_symmetry_cell_setting 'monoclinic'
loop_
_space_group_symop_operation_xyz
x,y,z
-x,y,-z
-x,-y,-z
x,-y,z
1/2+x,1/2+y,z
1/2-x,1/2+y,-z
1/2-x,1/2-y,-z
1/2+x,1/2-y,z
loop_
_atom_site_type_symbol
_atom_site_label
_atom_site_fract_x
_atom_site_fract_y
_atom_site_fract_z
Si Si1 0.592799 0.889325 0.081860
Si Si2 0.699158 0.610678 0.318064
Si Si3 0.763634 0.197405 0.159350
Si Si4 0.310026 0.292171 0.403956
Si Si5 0.311657 0.390208 0.903058
Si Si6 0.067776 0.207652 0.349882
Si Si7 0.854290 0.608150 0.664415
Si Si8 0.095159 0.111104 0.847242
O O1 0.667635 0.836369 0.089881
O O2 0.615989 0.889001 0.206894
O O3 0.590594 0.000000 0.048702
O O4 0.500000 0.848139 0.000000
O O5 0.719275 0.500000 0.349937
O O6 0.777036 0.683039 0.388276
O O7 0.668424 0.620687 0.188658
O O8 0.627445 0.647463 0.328650
O O9 0.802636 0.184068 0.291341
O O10 0.757834 0.309861 0.132092
O O11 0.817456 0.137748 0.131236
O O12 0.398217 0.309010 0.521205
O O13 0.240651 0.353681 0.404300
O O14 0.283748 0.500000 0.895435
O O15 0.388934 0.374720 0.032346
O O16 0.088591 0.317552 0.344057
O O17 0.975015 0.176776 0.253014
O O18 0.858058 0.500000 0.634092
O O19 0.074238 0.000000 0.815312
#
# Coordination Sequence:
#
# PCOD9203271 Si02
#       8
#     8   8   8   8   8   8   8   8
#     4   9  18  32  54  84 109 133 177 227 272 327
#     4   9  17  34  59  84 110 146 183 230 287 326
#     4  10  20  39  61  77 108 151 181 221 283 323
#     4   9  20  35  54  83 109 143 189 235 273 325
#     4   9  20  38  59  83 108 140 186 228 271 334
#     4  11  22  34  51  82 118 146 187 230 270 325
#     4   9  18  33  52  77 109 142 180 228 279 322
#     4  11  24  39  55  81 113 147 187 226 271 335
#
# _framework density 19.498664999999999
#
# number of rings (size 3 to 8) (size 9 to 14) (size 15 to 20)
#    0.000    2.375    0.000    3.375    1.750    4.000 
#    0.000    3.125    0.000    0.000    0.000    4.375 
#    0.000    0.000    0.000    0.000    0.000    0.000 
#
# Total GULP energy -178580.246533 kJ/mol
# GULP energy per Si atom -5580.632704 kJ/mol
# Density = 1.945429 g / cm^3
# Si number density = 19.498665 Si / 1000 Ang^3
#
#
#
# Elastic Constant Matrix: (Units=GPa)
#
#
# Indices 1 2 3 4 5 6 
#
# 1 37.9522 12.8577 36.0679 0.0000 4.5055 0.0000
# 2 12.8577 97.9875 39.5252 0.0000 1.6450 0.0000
# 3 36.0679 39.5252 114.5767 0.0000 12.0060 0.0000
# 4 0.0000 0.0000 0.0000 12.1209 0.0000 -5.0473
# 5 4.5055 1.6450 12.0060 0.0000 17.6767 0.0000
# 6 0.0000 0.0000 0.0000 -5.0473 0.0000 16.5299
#
#
#
# Elastic Compliance Matrix: (Units=1/GPa)
#
#
# Indices 1 2 3 4 5 6 
#
# 1 0.037647 -0.000236 -0.011591 0.000000 -0.001701 0.000000
# 2 -0.000236 0.011910 -0.004225 0.000000 0.001822 0.000000
# 3 -0.011591 -0.004225 0.014517 0.000000 -0.006512 0.000000
# 4 0.000000 0.000000 0.000000 0.094520 0.000000 0.028861
# 5 -0.001701 0.001822 -0.006512 0.000000 0.061259 0.000000
# 6 0.000000 0.000000 0.000000 0.028861 0.000000 0.069309
#
#
# Mechanical properties :
#
#
# Convention : Reuss Voigt Hill
#
# Bulk Modulus (GPa) = 31.28071 47.49088 39.38580
# Shear Modulus (GPa) = 15.06381 20.06987 17.56684
#
# Velocity S-wave (km/s) = 2.78250 3.21174 3.00480
# Velocity P-wave (km/s) = 5.13813 6.17759 5.68168
#
# Compressibility (1/GPa) = 0.03196858
#
# Stress axis : x y z
#
# Youngs Moduli (GPa) = 26.56285 83.96254 68.88682
#
# Poissons Ratio (x) = 0.01980 0.79849
# Poissons Ratio (y) = 0.00626 0.29106
# Poissons Ratio (z) = 0.30790 0.35476
#
# Static dielectric constant tensor:
#      x y z
#    x 1.648590 0.000000 -0.019030 
#    y 0.000000 1.710260 0.000000 
#    z -0.019030 0.000000 1.718960 
# 
# From -- ./inp_files/225768.got.cif
#   From: 2010.05.17/outbox.cif.g08.bks.cpg/sg12_113_cif.got.tgz:225768.got - 2010.06.03 13:09:07.
