data_PCOD9203024
_publ_section_title
;
Structure prediction by ZEFSAII (Michael W. Deem and Ramdas Pophale) SiO2 
 PCOD9203024
Probable space group: C 2/M
;
_chemical_formula_sum "Si O2"
_cell_formula_units_Z 64
_cell_length_a 15.428408
_cell_length_b 22.091727
_cell_length_c 15.015353
_cell_angle_alpha 90.000000
_cell_angle_beta 39.652281
_cell_angle_gamma 90.000000
_cell_volume 3265.828037
_symmetry_space_group_name_H-M "C 2/M"
_symmetry_group_IT_number 12
_symmetry_cell_setting 'monoclinic'
loop_
_space_group_symop_operation_xyz
x,y,z
-x,y,-z
-x,-y,-z
x,-y,z
1/2+x,1/2+y,z
1/2-x,1/2+y,-z
1/2-x,1/2-y,-z
1/2+x,1/2-y,z
loop_
_atom_site_type_symbol
_atom_site_label
_atom_site_fract_x
_atom_site_fract_y
_atom_site_fract_z
Si Si1 0.189748 0.287120 0.666394
Si Si2 0.450672 0.857042 0.947373
Si Si3 0.857056 0.302121 0.650664
Si Si4 0.574128 0.319602 0.642022
Si Si5 0.954968 0.070314 0.206674
Si Si6 0.227222 0.569677 0.054231
Si Si7 0.788254 0.567121 0.724373
Si Si8 0.283489 0.731777 0.871833
O O1 0.243441 0.237077 0.692255
O O2 0.321102 0.321216 0.522706
O O3 0.112861 0.245305 0.655086
O O4 0.082611 0.332296 0.793050
O O5 0.360641 0.892707 0.946229
O O6 0.500000 0.888231 0.000000
O O7 0.352949 0.801152 0.052963
O O8 0.850675 0.372768 0.633570
O O9 0.827850 0.289181 0.777487
O O10 0.000000 0.278890 0.500000
O O11 0.600298 0.377985 0.683340
O O12 0.412145 0.313227 0.756627
O O13 0.869063 0.071469 0.183029
O O14 0.944448 0.000000 0.247170
O O15 0.113175 0.085611 0.070686
O O16 0.217131 0.500000 0.033850
O O17 0.186890 0.571747 0.189955
O O18 0.834249 0.500000 0.658434
O O19 0.250000 0.750000 0.000000
#
# Coordination Sequence:
#
# PCOD9203024 Si02
#       8
#     8   8   8   8   8   8   8   8
#     4  11  24  39  58  91 127 168 207 258 321 385
#     4  12  24  40  63  94 126 161 215 270 316 376
#     4  12  24  40  62  91 128 173 214 257 325 389
#     4  11  22  39  61  89 128 165 208 260 320 380
#     4  10  20  38  65  95 125 164 213 262 318 382
#     4  10  22  41  65  92 125 168 213 264 320 380
#     4  10  22  39  61  92 129 167 211 263 315 380
#     4  12  23  38  62  94 124 166 212 263 322 378
#
# _framework density 19.596869000000002
#
# number of rings (size 3 to 8) (size 9 to 14) (size 15 to 20)
#    0.000    1.000    6.250    1.125    0.000    2.000 
#    2.250    0.625    0.000    0.000    0.000    2.625 
#    0.000    0.000    0.000    0.000    0.000    0.000 
#
# Total GULP energy -178403.675948 kJ/mol
# GULP energy per Si atom -5575.114873 kJ/mol
# Density = 1.955227 g / cm^3
# Si number density = 19.596869 Si / 1000 Ang^3
#
#
#
# Elastic Constant Matrix: (Units=GPa)
#
#
# Indices 1 2 3 4 5 6 
#
# 1 98.9791 18.7517 33.7781 0.0004 -10.8066 -0.0002
# 2 18.7517 46.4498 14.2486 0.0008 -4.9839 -0.0005
# 3 33.7781 14.2486 107.2480 -0.0011 -13.9538 0.0000
# 4 0.0004 0.0008 -0.0011 18.9741 0.0006 0.0982
# 5 -10.8066 -4.9839 -13.9538 0.0006 20.9674 0.0003
# 6 -0.0002 -0.0005 0.0000 0.0982 0.0003 36.0652
#
#
#
# Elastic Compliance Matrix: (Units=1/GPa)
#
#
# Indices 1 2 3 4 5 6 
#
# 1 0.012161 -0.003649 -0.002893 0.000000 0.003475 0.000000
# 2 -0.003649 0.023799 -0.001665 -0.000001 0.002668 0.000000
# 3 -0.002893 -0.001665 0.011179 0.000001 0.005553 0.000000
# 4 0.000000 -0.000001 0.000001 0.052704 -0.000001 -0.000144
# 5 0.003475 0.002668 0.005553 -0.000001 0.053813 0.000000
# 6 0.000000 0.000000 0.000000 -0.000144 0.000000 0.027728
#
#
# Mechanical properties :
#
#
# Convention : Reuss Voigt Hill
#
# Bulk Modulus (GPa) = 32.54827 42.91487 37.73157
# Shear Modulus (GPa) = 24.03366 27.59459 25.81413
#
# Velocity S-wave (km/s) = 3.50580 3.75655 3.63334
# Velocity P-wave (km/s) = 5.74739 6.38451 6.07431
#
# Compressibility (1/GPa) = 0.03072360
#
# Stress axis : x y z
#
# Youngs Moduli (GPa) = 82.22833 42.01882 89.45236
#
# Poissons Ratio (x) = 0.15333 0.25881
# Poissons Ratio (y) = 0.30006 0.14898
# Poissons Ratio (z) = 0.23791 0.06998
#
# Static dielectric constant tensor:
#      x y z
#    x 1.751140 0.000000 0.015710 
#    y 0.000000 1.700600 0.000000 
#    z 0.015710 0.000000 1.699760 
# 
# From -- ./inp_files/218502.got.cif
#   From: 2010.05.17/outbox.cif.g08.bks.cpg/sg12_110_cif.got.tgz:218502.got - 2010.06.03 13:09:07.
