data_PCOD9203773
_publ_section_title
;
Structure prediction by ZEFSAII (Michael W. Deem and Ramdas Pophale) SiO2 
 PCOD9203773
Probable space group: C 2/M
;
_chemical_formula_sum "Si O2"
_cell_formula_units_Z 56
_cell_length_a 26.572930
_cell_length_b 17.972855
_cell_length_c 5.136207
_cell_angle_alpha 90.000000
_cell_angle_beta 88.064325
_cell_angle_gamma 90.000000
_cell_volume 2451.608643
_symmetry_space_group_name_H-M "C 2/M"
_symmetry_group_IT_number 12
_symmetry_cell_setting 'monoclinic'
loop_
_space_group_symop_operation_xyz
x,y,z
-x,y,-z
-x,-y,-z
x,-y,z
1/2+x,1/2+y,z
1/2-x,1/2+y,-z
1/2-x,1/2-y,-z
1/2+x,1/2-y,z
loop_
_atom_site_type_symbol
_atom_site_label
_atom_site_fract_x
_atom_site_fract_y
_atom_site_fract_z
Si Si1 0.052414 0.856199 0.619342
Si Si2 0.616747 0.630338 0.088725
Si Si3 0.866957 0.584167 0.169977
Si Si4 0.778938 0.639776 0.495495
Si Si5 0.273771 0.583482 0.982022
Si Si6 0.553298 0.183955 0.590276
Si Si7 0.353010 0.212162 0.791940
O O1 0.074679 0.889086 0.881516
O O2 0.044649 0.768289 0.692458
O O3 0.000000 0.882363 0.500000
O O4 0.093268 0.867339 0.381998
O O5 0.666136 0.581693 0.049641
O O6 0.638804 0.714181 0.041945
O O7 0.873959 0.500000 0.083574
O O8 0.827833 0.588596 0.417059
O O9 0.919210 0.625048 0.230678
O O10 0.842659 0.639987 0.966697
O O11 0.746455 0.637698 0.239876
O O12 0.807896 0.714008 0.589161
O O13 0.744263 0.609317 0.732003
O O14 0.253675 0.500000 0.935404
O O15 0.500000 0.155759 0.500000
O O16 0.593955 0.197315 0.356783
#
# Coordination Sequence:
#
# PCOD9203773 Si02
#       7
#     8   8   8   8   8   8   8
#     4  10  20  39  67  93 121 160 200 240 298 369
#     4  11  23  40  64  94 126 154 200 256 300 350
#     4  11  21  37  58  82 119 162 205 251 295 355
#     4  11  24  41  63  85 120 165 208 242 296 366
#     4  12  25  42  64  90 122 161 202 250 306 365
#     4   9  20  36  56  84 119 157 202 251 298 352
#     4  10  22  39  60  87 122 156 210 251 300 350
#
# _framework density 22.842147000000001
#
# number of rings (size 3 to 8) (size 9 to 14) (size 15 to 20)
#    0.000    1.429    2.857    2.571    0.000    4.857 
#    0.000    0.714    0.000    2.571    0.000    0.000 
#    0.000    0.000    0.000    0.000    0.000    0.000 
#
# Total GULP energy -156367.569623 kJ/mol
# GULP energy per Si atom -5584.556058 kJ/mol
# Density = 2.279016 g / cm^3
# Si number density = 22.842147 Si / 1000 Ang^3
#
#
#
# Elastic Constant Matrix: (Units=GPa)
#
#
# Indices 1 2 3 4 5 6 
#
# 1 82.0592 4.8663 6.7431 0.0000 15.7674 0.0000
# 2 4.8663 22.6239 8.6870 0.0000 -3.6032 0.0000
# 3 6.7431 8.6870 90.7218 0.0000 10.5620 0.0000
# 4 0.0000 0.0000 0.0000 6.9130 0.0000 1.9073
# 5 15.7674 -3.6032 10.5620 0.0000 37.0774 0.0000
# 6 0.0000 0.0000 0.0000 1.9073 0.0000 1.8200
#
#
#
# Elastic Compliance Matrix: (Units=1/GPa)
#
#
# Indices 1 2 3 4 5 6 
#
# 1 0.013603 -0.003946 0.000088 0.000000 -0.006193 0.000000
# 2 -0.003946 0.048319 -0.005250 0.000000 0.007869 0.000000
# 3 0.000088 -0.005250 0.011980 0.000000 -0.003960 0.000000
# 4 0.000000 0.000000 0.000000 0.203493 0.000000 -0.213258
# 5 -0.006193 0.007869 -0.003960 0.000000 0.031497 0.000000
# 6 0.000000 0.000000 0.000000 -0.213258 0.000000 0.772945
#
#
# Mechanical properties :
#
#
# Convention : Reuss Voigt Hill
#
# Bulk Modulus (GPa) = 17.95779 26.22197 22.08988
# Shear Modulus (GPa) = 4.46981 20.83599 12.65290
#
# Velocity S-wave (km/s) = 1.40038 3.02350 2.35612
# Velocity P-wave (km/s) = 3.23937 4.86757 4.13442
#
# Compressibility (1/GPa) = 0.05568613
#
# Stress axis : x y z
#
# Youngs Moduli (GPa) = 73.51236 20.69591 83.47327
#
# Poissons Ratio (x) = 0.08167 -0.00733
# Poissons Ratio (y) = 0.29009 0.43820
# Poissons Ratio (z) = -0.00645 0.10864
#
# Static dielectric constant tensor:
#      x y z
#    x 1.842950 0.000000 0.034970 
#    y 0.000000 1.862810 0.000000 
#    z 0.034970 0.000000 1.899280 
# 
# From -- ./inp_files/25433.got.cif
#   From: 2010.05.17/outbox.cif.g08.bks.cpg/sg12_13_cif.got.tgz:25433.got - 2010.06.03 13:09:07.
