data_PCOD9203543
_publ_section_title
;
Structure prediction by ZEFSAII (Michael W. Deem and Ramdas Pophale) SiO2 
 PCOD9203543
Probable space group: C 2/M
;
_chemical_formula_sum "Si O2"
_cell_formula_units_Z 52
_cell_length_a 16.216904
_cell_length_b 23.652717
_cell_length_c 11.866644
_cell_angle_alpha 90.000000
_cell_angle_beta 33.245221
_cell_angle_gamma 90.000000
_cell_volume 2495.367544
_symmetry_space_group_name_H-M "C 2/M"
_symmetry_group_IT_number 12
_symmetry_cell_setting 'monoclinic'
loop_
_space_group_symop_operation_xyz
x,y,z
-x,y,-z
-x,-y,-z
x,-y,z
1/2+x,1/2+y,z
1/2-x,1/2+y,-z
1/2-x,1/2-y,-z
1/2+x,1/2-y,z
loop_
_atom_site_type_symbol
_atom_site_label
_atom_site_fract_x
_atom_site_fract_y
_atom_site_fract_z
Si Si1 0.000000 0.856618 0.000000
Si Si2 0.419337 0.817590 0.254791
Si Si3 0.803471 0.435082 0.314333
Si Si4 0.247679 0.779342 0.123105
Si Si5 0.518198 0.563315 0.189907
Si Si6 0.721820 0.223654 0.369372
Si Si7 0.654472 0.593602 0.258302
O O1 0.862790 0.818088 0.197593
O O2 0.043587 0.893851 0.058909
O O3 0.404698 0.883305 0.241726
O O4 0.579589 0.792023 0.038033
O O5 0.397409 0.804584 0.411878
O O6 0.282967 0.782596 0.353299
O O7 0.852535 0.500000 0.277800
O O8 0.643931 0.427012 0.563468
O O9 0.775257 0.426498 0.212544
O O10 0.250000 0.750000 0.000000
O O11 0.174314 0.738801 0.298540
O O12 0.168101 0.839763 0.218856
O O13 0.516332 0.500000 0.146130
O O14 0.640276 0.567186 0.150874
O O15 0.500000 0.580754 0.500000
#
# Coordination Sequence:
#
# PCOD9203543 Si02
#       7
#     4   8   8   8   8   8   8
#     4  12  19  36  60  92 117 160 196 248 300 360
#     4  11  23  40  61  89 122 159 197 255 300 363
#     4  10  20  39  64  88 118 161 201 249 306 359
#     4  12  25  38  60  88 123 162 203 244 305 373
#     4  10  21  37  59  91 122 156 204 249 299 357
#     4  11  23  38  62  88 123 151 200 250 307 356
#     4  10  22  37  59  87 124 154 200 252 303 352
#
# _framework density 20.838614
#
# number of rings (size 3 to 8) (size 9 to 14) (size 15 to 20)
#    0.000    1.231    4.615    1.615    2.154    1.846 
#    0.000    2.308    0.000    0.000    0.000    2.154 
#    0.000    0.000    0.000    0.000    0.000    0.000 
#
# Total GULP energy -145309.410935 kJ/mol
# GULP energy per Si atom -5588.823497 kJ/mol
# Density = 2.079118 g / cm^3
# Si number density = 20.838614 Si / 1000 Ang^3
#
#
#
# Elastic Constant Matrix: (Units=GPa)
#
#
# Indices 1 2 3 4 5 6 
#
# 1 68.9312 39.3283 23.2849 0.0024 26.8651 -0.0003
# 2 39.3283 121.5347 25.8828 0.0041 19.8291 -0.0022
# 3 23.2849 25.8828 78.2528 0.0010 17.4647 0.0009
# 4 0.0024 0.0041 0.0010 21.0876 -0.0038 -2.7926
# 5 26.8651 19.8291 17.4647 -0.0038 37.6626 0.0003
# 6 -0.0003 -0.0022 0.0009 -2.7926 0.0003 33.2296
#
#
#
# Elastic Compliance Matrix: (Units=1/GPa)
#
#
# Indices 1 2 3 4 5 6 
#
# 1 0.023081 -0.004871 -0.002403 -0.000004 -0.012785 0.000000
# 2 -0.004871 0.010363 -0.001713 -0.000001 -0.001187 0.000001
# 3 -0.002403 -0.001713 0.015033 -0.000001 -0.004354 -0.000001
# 4 -0.000004 -0.000001 -0.000001 0.047955 0.000009 0.004030
# 5 -0.012785 -0.001187 -0.004354 0.000009 0.038315 0.000000
# 6 0.000000 0.000001 -0.000001 0.004030 0.000000 0.030432
#
#
# Mechanical properties :
#
#
# Convention : Reuss Voigt Hill
#
# Bulk Modulus (GPa) = 32.78589 49.52340 41.15464
# Shear Modulus (GPa) = 25.86358 30.41081 28.13719
#
# Velocity S-wave (km/s) = 3.52680 3.82429 3.67855
# Velocity P-wave (km/s) = 5.68787 6.58157 6.15097
#
# Compressibility (1/GPa) = 0.03050093
#
# Stress axis : x y z
#
# Youngs Moduli (GPa) = 43.32559 96.49783 66.52122
#
# Poissons Ratio (x) = 0.47006 0.15988
# Poissons Ratio (y) = 0.21105 0.11397
# Poissons Ratio (z) = 0.10413 0.16533
#
# Static dielectric constant tensor:
#      x y z
#    x 1.803510 0.000000 -0.047710 
#    y 0.000000 1.723110 0.000000 
#    z -0.047710 0.000000 1.797970 
# 
# From -- ./inp_files/159475.got.cif
#   From: 2010.05.17/outbox.cif.g08.bks.cpg/sg12_80_cif.got.tgz:159475.got - 2010.06.03 13:09:07.
