data_PCOD9203795
_publ_section_title
;
Structure prediction by ZEFSAII (Michael W. Deem and Ramdas Pophale) SiO2 
 PCOD9203795
Probable space group: C 2/M
;
_chemical_formula_sum "Si O2"
_cell_formula_units_Z 44
_cell_length_a 8.783447
_cell_length_b 19.993479
_cell_length_c 12.741996
_cell_angle_alpha 90.000000
_cell_angle_beta 105.479876
_cell_angle_gamma 90.000000
_cell_volume 2156.470941
_symmetry_space_group_name_H-M "C 2/M"
_symmetry_group_IT_number 12
_symmetry_cell_setting 'monoclinic'
loop_
_space_group_symop_operation_xyz
x,y,z
-x,y,-z
-x,-y,-z
x,-y,z
1/2+x,1/2+y,z
1/2-x,1/2+y,-z
1/2-x,1/2-y,-z
1/2+x,1/2-y,z
loop_
_atom_site_type_symbol
_atom_site_label
_atom_site_fract_x
_atom_site_fract_y
_atom_site_fract_z
Si Si1 0.113571 0.171518 0.740561
Si Si2 0.135603 0.423000 0.826627
Si Si3 0.817257 0.577386 0.652872
Si Si4 0.353189 0.423289 0.054247
Si Si5 0.500000 0.850912 0.500000
Si Si6 0.244757 0.195342 0.296771
O O1 0.173556 0.124440 0.657855
O O2 0.129451 0.128782 0.849550
O O3 0.221223 0.237468 0.761171
O O4 0.932842 0.193381 0.695682
O O5 0.178136 0.500000 0.806067
O O6 0.222378 0.369810 0.768466
O O7 0.949677 0.416074 0.769599
O O8 0.196341 0.412869 0.955568
O O9 0.773700 0.500000 0.634824
O O10 0.905544 0.603434 0.565513
O O11 0.353257 0.500000 0.094268
O O12 0.500000 0.417297 0.000000
O O13 0.627719 0.808030 0.586730
#
# Coordination Sequence:
#
# PCOD9203795 Si02
#       6
#     8   8   8   8   4   8
#     4  12  25  41  62  94 130 167 213 260 311 374
#     4   9  19  39  65  93 128 167 207 255 312 369
#     4  10  22  41  66  97 127 162 211 264 312 372
#     4  10  20  39  67  97 128 169 209 253 312 376
#     4  10  23  46  70  90 121 164 208 262 327 382
#     4  11  24  41  64  92 126 168 209 263 313 373
#
# _framework density 20.403704999999999
#
# number of rings (size 3 to 8) (size 9 to 14) (size 15 to 20)
#    0.000    1.636    1.818    3.000    0.000    6.545 
#    0.000    3.636    0.000    0.000    0.000    0.000 
#    0.000    0.000    0.000    0.000    0.000    0.000 
#
# Total GULP energy -122993.322742 kJ/mol
# GULP energy per Si atom -5590.605579 kJ/mol
# Density = 2.035726 g / cm^3
# Si number density = 20.403705 Si / 1000 Ang^3
#
#
#
# Elastic Constant Matrix: (Units=GPa)
#
#
# Indices 1 2 3 4 5 6 
#
# 1 120.4159 67.9718 36.5350 0.0000 -16.8830 0.0000
# 2 67.9718 116.9879 50.0683 0.0000 -13.3998 0.0000
# 3 36.5350 50.0683 89.0872 0.0000 6.2134 0.0000
# 4 0.0000 0.0000 0.0000 21.5013 0.0000 -11.8562
# 5 -16.8830 -13.3998 6.2134 0.0000 21.7722 0.0000
# 6 0.0000 0.0000 0.0000 -11.8562 0.0000 17.2647
#
#
#
# Elastic Compliance Matrix: (Units=1/GPa)
#
#
# Indices 1 2 3 4 5 6 
#
# 1 0.013491 -0.005730 -0.002853 0.000000 0.007749 0.000000
# 2 -0.005730 0.015683 -0.006966 0.000000 0.007197 0.000000
# 3 -0.002853 -0.006966 0.017104 0.000000 -0.011381 0.000000
# 4 0.000000 0.000000 0.000000 0.074854 0.000000 0.051404
# 5 0.007749 0.007197 -0.011381 0.000000 0.059616 0.000000
# 6 0.000000 0.000000 0.000000 0.051404 0.000000 0.093223
#
#
# Mechanical properties :
#
#
# Convention : Reuss Voigt Hill
#
# Bulk Modulus (GPa) = 65.87703 70.62678 68.25191
# Shear Modulus (GPa) = 16.12240 23.56870 19.84555
#
# Velocity S-wave (km/s) = 2.81405 3.40239 3.12211
# Velocity P-wave (km/s) = 6.55098 7.07989 6.82056
#
# Compressibility (1/GPa) = 0.01517980
#
# Stress axis : x y z
#
# Youngs Moduli (GPa) = 74.12343 63.76472 58.46716
#
# Poissons Ratio (x) = 0.36537 0.16680
# Poissons Ratio (y) = 0.42472 0.40728
# Poissons Ratio (z) = 0.21146 0.44418
#
# Static dielectric constant tensor:
#      x y z
#    x 1.737940 0.000000 0.016030 
#    y 0.000000 1.699410 0.000000 
#    z 0.016030 0.000000 1.722730 
# 
# From -- ./inp_files/120817.got.cif
#   From: 2010.05.17/outbox.cif.g08.bks.cpg/sg12_61_cif.got.tgz:120817.got - 2010.06.03 13:09:07.
