data_PCOD9203174
_publ_section_title
;
Structure prediction by ZEFSAII (Michael W. Deem and Ramdas Pophale) SiO2 
 PCOD9203174
Probable space group: C 2/M
;
_chemical_formula_sum "Si O2"
_cell_formula_units_Z 42
_cell_length_a 13.964666
_cell_length_b 22.745842
_cell_length_c 5.324355
_cell_angle_alpha 90.000000
_cell_angle_beta 103.895964
_cell_angle_gamma 90.000000
_cell_volume 1641.721737
_symmetry_space_group_name_H-M "C 2/M"
_symmetry_group_IT_number 12
_symmetry_cell_setting 'monoclinic'
loop_
_space_group_symop_operation_xyz
x,y,z
-x,y,-z
-x,-y,-z
x,-y,z
1/2+x,1/2+y,z
1/2-x,1/2+y,-z
1/2-x,1/2-y,-z
1/2+x,1/2-y,z
loop_
_atom_site_type_symbol
_atom_site_label
_atom_site_fract_x
_atom_site_fract_y
_atom_site_fract_z
Si Si1 0.280931 0.310156 0.883634
Si Si2 0.500000 0.500000 0.500000
Si Si3 0.837170 0.094493 0.248174
Si Si4 0.384182 0.000000 0.683869
Si Si5 0.857074 0.375910 0.554483
Si Si6 0.939021 0.249853 0.711120
Si Si7 0.762347 0.500000 0.112084
O O1 0.187202 0.350530 0.739247
O O2 0.341845 0.290314 0.676868
O O3 0.250000 0.250000 0.000000
O O4 0.354379 0.344721 0.116468
O O5 0.415197 0.553042 0.435120
O O6 0.741123 0.106887 0.354094
O O7 0.805724 0.054487 0.991675
O O8 0.424385 0.065559 0.644421
O O9 0.348486 0.000000 0.951773
O O10 0.300019 0.000000 0.414828
O O11 0.908924 0.318343 0.692419
O O12 0.000000 0.238410 0.500000
O O13 0.000000 0.239797 0.000000
#
# Coordination Sequence:
#
# PCOD9203174 Si02
#       7
#     8   2   8   4   8   8   4
#     4  12  24  45  77 109 147 213 269 307 388 485
#     4  10  24  48  74 124 162 190 254 342 408 456
#     4  10  22  42  74 105 153 200 251 317 385 481
#     4  10  20  38  74 102 125 182 246 304 362 447
#     4  11  24  46  76 103 150 198 264 307 400 471
#     4  12  29  47  70 112 161 199 262 336 385 449
#     4   9  18  37  62 103 136 173 238 302 365 433
#
# _framework density 25.582899000000001
#
# number of rings (size 3 to 8) (size 9 to 14) (size 15 to 20)
#    0.000    1.143    3.810    2.286    2.667    1.524 
#    0.000    1.905    0.000    0.000    0.000    0.000 
#    0.000    0.000    0.000    0.000    0.000    0.000 
#
# Total GULP energy -116981.111578 kJ/mol
# GULP energy per Si atom -5570.529123 kJ/mol
# Density = 2.552467 g / cm^3
# Si number density = 25.582899 Si / 1000 Ang^3
#
#
#
# Elastic Constant Matrix: (Units=GPa)
#
#
# Indices 1 2 3 4 5 6 
#
# 1 73.2887 33.8049 35.0819 0.0000 -30.1058 0.0000
# 2 33.8049 171.3200 26.5887 0.0000 -19.7270 0.0000
# 3 35.0819 26.5887 97.7362 0.0000 -18.7293 0.0000
# 4 0.0000 0.0000 0.0000 51.4961 0.0000 15.0187
# 5 -30.1058 -19.7270 -18.7293 0.0000 31.8770 0.0000
# 6 0.0000 0.0000 0.0000 15.0187 0.0000 44.5374
#
#
#
# Elastic Compliance Matrix: (Units=1/GPa)
#
#
# Indices 1 2 3 4 5 6 
#
# 1 0.024739 -0.001923 -0.004629 0.000000 0.019455 0.000000
# 2 -0.001923 0.006538 -0.000745 0.000000 0.001792 0.000000
# 3 -0.004629 -0.000745 0.012587 0.000000 0.002563 0.000000
# 4 0.000000 0.000000 0.000000 0.021537 0.000000 -0.007263
# 5 0.019455 0.001792 0.002563 0.000000 0.052359 0.000000
# 6 0.000000 0.000000 0.000000 -0.007263 0.000000 0.024902
#
#
# Mechanical properties :
#
#
# Convention : Reuss Voigt Hill
#
# Bulk Modulus (GPa) = 34.16349 59.25511 46.70930
# Shear Modulus (GPa) = 29.93774 42.04006 35.98890
#
# Velocity S-wave (km/s) = 3.42457 4.05815 3.75474
# Velocity P-wave (km/s) = 5.38701 6.72089 6.09058
#
# Compressibility (1/GPa) = 0.02927102
#
# Stress axis : x y z
#
# Youngs Moduli (GPa) = 40.42201 152.94033 79.44793
#
# Poissons Ratio (x) = 0.29410 0.36774
# Poissons Ratio (y) = 0.07773 0.05919
# Poissons Ratio (z) = 0.18710 0.11395
#
# Static dielectric constant tensor:
#      x y z
#    x 2.053240 0.000000 0.027170 
#    y 0.000000 2.115600 0.000000 
#    z 0.027170 0.000000 2.008240 
# 
# From -- ./inp_files/11632.got.cif
#   From: 2010.05.17/outbox.cif.g08.bks.cpg/sg12_6_cif.got.tgz:11632.got - 2010.06.03 13:09:07.
