data_PCOD9203310
_publ_section_title
;
Structure prediction by ZEFSAII (Michael W. Deem and Ramdas Pophale) SiO2 
 PCOD9203310
Probable space group: C 2/M
;
_chemical_formula_sum "Si O2"
_cell_formula_units_Z 32
_cell_length_a 17.693358
_cell_length_b 16.092559
_cell_length_c 11.413142
_cell_angle_alpha 90.000000
_cell_angle_beta 27.307043
_cell_angle_gamma 90.000000
_cell_volume 1490.819235
_symmetry_space_group_name_H-M "C 2/M"
_symmetry_group_IT_number 12
_symmetry_cell_setting 'monoclinic'
loop_
_space_group_symop_operation_xyz
x,y,z
-x,y,-z
-x,-y,-z
x,-y,z
1/2+x,1/2+y,z
1/2-x,1/2+y,-z
1/2-x,1/2-y,-z
1/2+x,1/2-y,z
loop_
_atom_site_type_symbol
_atom_site_label
_atom_site_fract_x
_atom_site_fract_y
_atom_site_fract_z
Si Si1 0.787626 0.340587 0.535144
Si Si2 0.184698 0.667287 0.754990
Si Si3 0.677075 0.500000 0.813054
Si Si4 0.329630 0.826810 0.963663
Si Si5 0.658987 0.000000 0.192358
O O1 0.731614 0.364126 0.480312
O O2 0.682908 0.265741 0.731518
O O3 0.771381 0.419407 0.638239
O O4 0.976904 0.308943 0.276374
O O5 0.249190 0.658866 0.798210
O O6 0.000000 0.631338 0.000000
O O7 0.680499 0.500000 0.946768
O O8 0.500000 0.500000 0.000000
O O9 0.333242 0.914639 0.891157
O O10 0.250000 0.750000 0.000000
O O11 0.500000 0.000000 0.500000
#
# Coordination Sequence:
#
# PCOD9203310 Si02
#       5
#     8   8   4   8   4
#     4  10  20  39  61  88 126 165 215 268 321 388
#     4   9  20  36  58  88 120 163 212 260 321 386
#     4  12  24  39  65  91 125 171 217 265 328 387
#     4  11  23  38  65  93 126 174 218 266 326 390
#     4  12  24  43  63  95 131 168 220 269 322 394
#
# _framework density 21.464708000000002
#
# number of rings (size 3 to 8) (size 9 to 14) (size 15 to 20)
#    0.000    1.500    2.500    2.250    0.000    5.000 
#    0.000    3.750    0.000    4.500    0.000    0.000 
#    0.000    0.000    0.000    0.000    0.000    0.000 
#
# Total GULP energy -89181.402434 kJ/mol
# GULP energy per Si atom -5573.837652 kJ/mol
# Density = 2.141585 g / cm^3
# Si number density = 21.464708 Si / 1000 Ang^3
#
#
#
# Elastic Constant Matrix: (Units=GPa)
#
#
# Indices 1 2 3 4 5 6 
#
# 1 179.3554 48.4643 35.0170 0.0002 27.7831 0.0000
# 2 48.4643 88.5478 14.1887 0.0009 17.5262 -0.0008
# 3 35.0170 14.1887 41.3483 0.0020 4.9190 -0.0035
# 4 0.0002 0.0009 0.0020 18.3275 -0.0007 10.8783
# 5 27.7831 17.5262 4.9190 -0.0007 43.6207 0.0011
# 6 0.0000 -0.0008 -0.0035 10.8783 0.0011 -59.6017
#
#
#
# Elastic Compliance Matrix: (Units=1/GPa)
#
#
# Indices 1 2 3 4 5 6 
#
# 1 0.007884 -0.002811 -0.005320 0.000000 -0.003292 0.000000
# 2 -0.002811 0.013847 -0.001949 0.000000 -0.003554 0.000000
# 3 -0.005320 -0.001949 0.029255 -0.000002 0.000873 -0.000002
# 4 0.000000 0.000000 -0.000002 0.049230 0.000001 0.008985
# 5 -0.003292 -0.003554 0.000873 0.000001 0.026351 0.000001
# 6 0.000000 0.000000 -0.000002 0.008985 0.000001 -0.015138
#
#
# Mechanical properties :
#
#
# Convention : Reuss Voigt Hill
#
# Bulk Modulus (GPa) = 32.43913 56.06573 44.25243
# Shear Modulus (GPa) = 35.24492 14.57473 24.90982
#
# Velocity S-wave (km/s) = 4.05655 2.60861 3.41031
# Velocity P-wave (km/s) = 6.08986 5.93715 6.01399
#
# Compressibility (1/GPa) = 0.03082697
#
# Stress axis : x y z
#
# Youngs Moduli (GPa) = 126.84306 72.21586 34.18171
#
# Poissons Ratio (x) = 0.20299 0.18186
# Poissons Ratio (y) = 0.35654 0.06660
# Poissons Ratio (z) = 0.67486 0.14071
#
# Static dielectric constant tensor:
#      x y z
#    x 1.867600 0.000000 -0.004320 
#    y 0.000000 1.765650 0.000000 
#    z -0.004320 0.000000 1.851080 
# 
# From -- ./inp_files/130769.got.cif
#   From: 2010.05.17/outbox.cif.g08.bks.cpg/sg12_66_cif.got.tgz:130769.got - 2010.06.03 13:09:07.
