data_PCOD9203985
_publ_section_title
;
Structure prediction by ZEFSAII (Michael W. Deem and Ramdas Pophale) SiO2 
 PCOD9203985
Probable space group: C 2/M
;
_chemical_formula_sum "Si O2"
_cell_formula_units_Z 42
_cell_length_a 9.455864
_cell_length_b 15.232466
_cell_length_c 13.583654
_cell_angle_alpha 90.000000
_cell_angle_beta 63.327533
_cell_angle_gamma 90.000000
_cell_volume 1748.336343
_symmetry_space_group_name_H-M "C 2/M"
_symmetry_group_IT_number 12
_symmetry_cell_setting 'monoclinic'
loop_
_space_group_symop_operation_xyz
x,y,z
-x,y,-z
-x,-y,-z
x,-y,z
1/2+x,1/2+y,z
1/2-x,1/2+y,-z
1/2-x,1/2-y,-z
1/2+x,1/2-y,z
loop_
_atom_site_type_symbol
_atom_site_label
_atom_site_fract_x
_atom_site_fract_y
_atom_site_fract_z
Si Si1 0.277543 0.000000 0.151117
Si Si2 0.847423 0.600439 0.431717
Si Si3 0.136803 0.857880 0.319811
Si Si4 0.177429 0.665933 0.346295
Si Si5 0.622853 0.000000 0.105038
Si Si6 0.500000 0.500000 0.500000
Si Si7 0.884523 0.100132 0.120732
O O1 0.188397 0.910025 0.206534
O O2 0.435614 0.000000 0.169702
O O3 0.330539 0.000000 0.023321
O O4 0.778637 0.500000 0.454230
O O5 0.782787 0.641157 0.352300
O O6 0.801923 0.655802 0.542899
O O7 0.037219 0.595856 0.371784
O O8 0.099799 0.755890 0.330964
O O9 0.015562 0.922034 0.410530
O O10 0.337726 0.648706 0.235365
O O11 0.713244 0.082654 0.124092
O O12 0.943881 0.000000 0.123773
O O13 0.000000 0.137518 0.000000
#
# Coordination Sequence:
#
# PCOD9203985 Si02
#       7
#     4   8   8   8   4   2   8
#     4  10  20  40  63  81 117 169 209 238 312 378
#     4  11  21  40  65  89 122 168 204 240 312 383
#     4  11  23  40  58  94 124 163 198 257 310 370
#     4  11  22  37  63  96 123 154 212 261 304 361
#     4   9  19  40  66  80 109 169 214 251 287 381
#     4  10  20  42  58  78 132 156 198 234 308 382
#     4   9  19  39  60  89 120 156 204 267 310 360
#
# _framework density 24.022836000000002
#
# number of rings (size 3 to 8) (size 9 to 14) (size 15 to 20)
#    0.571    1.143    1.905    5.143    0.000    0.000 
#   13.714    0.952    0.000    0.000    0.000    0.000 
#    0.000    0.000    0.000    0.000    0.000    0.000 
#
# Total GULP energy -117067.175972 kJ/mol
# GULP energy per Si atom -5574.627427 kJ/mol
# Density = 2.396816 g / cm^3
# Si number density = 24.022836 Si / 1000 Ang^3
#
#
#
# Elastic Constant Matrix: (Units=GPa)
#
#
# Indices 1 2 3 4 5 6 
#
# 1 57.1263 -8.7150 -11.4825 0.0000 -4.7049 0.0000
# 2 -8.7150 128.3685 33.0565 0.0000 -9.3829 0.0000
# 3 -11.4825 33.0565 163.1670 0.0000 -17.3418 0.0000
# 4 0.0000 0.0000 0.0000 201.5164 0.0000 -80.6777
# 5 -4.7049 -9.3829 -17.3418 0.0000 34.0536 0.0000
# 6 0.0000 0.0000 0.0000 -80.6777 0.0000 64.9245
#
#
#
# Elastic Compliance Matrix: (Units=1/GPa)
#
#
# Indices 1 2 3 4 5 6 
#
# 1 0.018260 0.001131 0.001435 0.000000 0.003565 0.000000
# 2 0.001131 0.008362 -0.001430 0.000000 0.001732 0.000000
# 3 0.001435 -0.001430 0.006870 0.000000 0.003303 0.000000
# 4 0.000000 0.000000 0.000000 0.009875 0.000000 0.012271
# 5 0.003565 0.001732 0.003303 0.000000 0.032017 0.000000
# 6 0.000000 0.000000 0.000000 0.012271 0.000000 0.030651
#
#
# Mechanical properties :
#
#
# Convention : Reuss Voigt Hill
#
# Bulk Modulus (GPa) = 27.96252 41.59775 34.78014
# Shear Modulus (GPa) = 43.22041 82.48577 62.85309
#
# Velocity S-wave (km/s) = 4.24623 5.86608 5.12061
# Velocity P-wave (km/s) = 5.97544 7.95203 7.03351
#
# Compressibility (1/GPa) = 0.03576216
#
# Stress axis : x y z
#
# Youngs Moduli (GPa) = 54.76570 119.59195 145.55002
#
# Poissons Ratio (x) = -0.13523 -0.20883
# Poissons Ratio (y) = -0.06193 0.20820
# Poissons Ratio (z) = -0.07858 0.17107
#
# Static dielectric constant tensor:
#      x y z
#    x 1.944780 0.000000 0.034380 
#    y 0.000000 1.837090 0.000000 
#    z 0.034380 0.000000 1.843840 
# 
# From -- ./inp_files/204241.got.cif
#   From: 2010.05.17/outbox.cif.g08.bks.cpg/sg12_103_cif.got.tgz:204241.got - 2010.06.03 13:09:07.
