data_PCOD9203530
_publ_section_title
;
Structure prediction by ZEFSAII (Michael W. Deem and Ramdas Pophale) SiO2 
 PCOD9203530
Probable space group: C 2/M
;
_chemical_formula_sum "Si O2"
_cell_formula_units_Z 64
_cell_length_a 16.068309
_cell_length_b 7.778841
_cell_length_c 33.768014
_cell_angle_alpha 90.000000
_cell_angle_beta 45.193490
_cell_angle_gamma 90.000000
_cell_volume 2994.589364
_symmetry_space_group_name_H-M "C 2/M"
_symmetry_group_IT_number 12
_symmetry_cell_setting 'monoclinic'
loop_
_space_group_symop_operation_xyz
x,y,z
-x,y,-z
-x,-y,-z
x,-y,z
1/2+x,1/2+y,z
1/2-x,1/2+y,-z
1/2-x,1/2-y,-z
1/2+x,1/2-y,z
loop_
_atom_site_type_symbol
_atom_site_label
_atom_site_fract_x
_atom_site_fract_y
_atom_site_fract_z
Si Si1 0.685661 0.295074 0.062243
Si Si2 0.620395 0.789902 0.939444
Si Si3 0.541584 0.801424 0.820884
Si Si4 0.038736 0.698363 0.235332
Si Si5 0.560548 0.210021 0.438284
Si Si6 0.828157 0.202511 0.360653
Si Si7 0.370989 0.205579 0.437154
Si Si8 0.791365 0.297465 0.173753
O O1 0.668855 0.500000 0.069516
O O2 0.771715 0.241112 0.068826
O O3 0.561313 0.208133 0.112009
O O4 0.750000 0.250000 0.000000
O O5 0.646175 0.726636 0.886642
O O6 0.617191 0.000000 0.939689
O O7 0.500000 0.731677 0.000000
O O8 0.494278 0.721763 0.796195
O O9 0.654722 0.722812 0.804139
O O10 0.567163 0.000000 0.801868
O O11 0.072934 0.500000 0.218002
O O12 0.152979 0.782603 0.215785
O O13 0.926946 0.710222 0.300993
O O14 0.500000 0.262496 0.500000
O O15 0.696407 0.265284 0.394636
O O16 0.480554 0.266179 0.427779
O O17 0.560368 0.000000 0.437956
O O18 0.859190 0.225309 0.396565
O O19 0.831175 0.000000 0.350712
O O20 0.250000 0.250000 0.500000
O O21 0.380543 0.000000 0.431183
O O22 0.820311 0.500000 0.164770
#
# Coordination Sequence:
#
# PCOD9203530 Si02
#       8
#     8   8   8   8   8   8   8   8
#     4  11  21  34  56  86 120 157 197 245 301 364
#     4   9  17  31  54  83 114 149 193 239 289 355
#     4  10  22  40  63  87 118 156 198 251 306 357
#     4  11  24  42  61  88 125 158 197 255 307 351
#     4   9  18  36  61  89 124 163 200 241 298 359
#     4  11  23  41  64  89 120 164 210 249 294 359
#     4  11  21  37  62  93 128 163 202 249 303 355
#     4  10  20  39  64  87 115 159 204 242 296 367
#
# _framework density 21.371879
#
# number of rings (size 3 to 8) (size 9 to 14) (size 15 to 20)
#    0.000    1.750    2.500    2.250    0.000    4.000 
#    0.000    5.625    0.000    1.875    0.000    0.000 
#    0.000    0.000    0.000    0.000    0.000    0.000 
#
# Total GULP energy -178755.673974 kJ/mol
# GULP energy per Si atom -5586.114812 kJ/mol
# Density = 2.132324 g / cm^3
# Si number density = 21.371879 Si / 1000 Ang^3
#
#
#
# Elastic Constant Matrix: (Units=GPa)
#
#
# Indices 1 2 3 4 5 6 
#
# 1 186.1483 -0.0961 43.2164 -0.0009 -8.9867 0.0009
# 2 -0.0961 36.9597 -16.8067 0.0094 1.6101 0.0147
# 3 43.2164 -16.8067 88.8291 -0.0026 -10.7793 -0.0018
# 4 -0.0009 0.0094 -0.0026 18.5641 -0.0020 0.7939
# 5 -8.9867 1.6101 -10.7793 -0.0020 30.3599 -0.0007
# 6 0.0009 0.0147 -0.0018 0.7939 -0.0007 13.5785
#
#
#
# Elastic Compliance Matrix: (Units=1/GPa)
#
#
# Indices 1 2 3 4 5 6 
#
# 1 0.006145 -0.001460 -0.003172 0.000001 0.000770 0.000001
# 2 -0.001460 0.029956 0.006409 -0.000013 0.000255 -0.000031
# 3 -0.003172 0.006409 0.014482 -0.000001 0.003863 -0.000005
# 4 0.000001 -0.000013 -0.000001 0.054003 0.000004 -0.003157
# 5 0.000770 0.000255 0.003863 0.000004 0.034524 0.000002
# 6 0.000001 -0.000031 -0.000005 -0.003157 0.000002 0.073831
#
#
# Mechanical properties :
#
#
# Convention : Reuss Voigt Hill
#
# Bulk Modulus (GPa) = 18.47193 40.50714 29.48953
# Shear Modulus (GPa) = 21.98449 31.54207 26.76328
#
# Velocity S-wave (km/s) = 3.21076 3.84587 3.54258
# Velocity P-wave (km/s) = 4.73362 6.22218 5.52823
#
# Compressibility (1/GPa) = 0.05413618
#
# Stress axis : x y z
#
# Youngs Moduli (GPa) = 162.73399 33.38234 69.04944
#
# Poissons Ratio (x) = 0.04874 0.21905
# Poissons Ratio (y) = 0.23762 -0.44254
# Poissons Ratio (z) = 0.51626 -0.21395
#
# Static dielectric constant tensor:
#      x y z
#    x 1.799880 -0.000010 0.021480 
#    y -0.000010 1.736720 0.000000 
#    z 0.021480 0.000000 1.731440 
# 
# From -- ./inp_files/375428.got.cif
#   From: 2010.05.17/outbox.cif.g08.bks.cpg/sg12_188_cif.got.tgz:375428.got - 2010.06.03 13:09:07.
