data_PCOD9203962
_publ_section_title
;
Structure prediction by ZEFSAII (Michael W. Deem and Ramdas Pophale) SiO2 
 PCOD9203962
Probable space group: C 2/M
;
_chemical_formula_sum "Si O2"
_cell_formula_units_Z 40
_cell_length_a 18.509524
_cell_length_b 13.766517
_cell_length_c 7.270687
_cell_angle_alpha 90.000000
_cell_angle_beta 62.563229
_cell_angle_gamma 90.000000
_cell_volume 1644.268941
_symmetry_space_group_name_H-M "C 2/M"
_symmetry_group_IT_number 12
_symmetry_cell_setting 'monoclinic'
loop_
_space_group_symop_operation_xyz
x,y,z
-x,y,-z
-x,-y,-z
x,-y,z
1/2+x,1/2+y,z
1/2-x,1/2+y,-z
1/2-x,1/2-y,-z
1/2+x,1/2-y,z
loop_
_atom_site_type_symbol
_atom_site_label
_atom_site_fract_x
_atom_site_fract_y
_atom_site_fract_z
Si Si1 0.880791 0.392287 0.628319
Si Si2 0.059612 0.310553 0.085791
Si Si3 0.989505 0.889978 0.290098
Si Si4 0.270697 0.886260 0.085783
Si Si5 0.830903 0.788479 0.505910
O O1 0.886644 0.500000 0.548320
O O2 0.942652 0.372015 0.722800
O O3 0.883944 0.306867 0.481577
O O4 0.793245 0.382210 0.842427
O O5 0.042521 0.197534 0.144980
O O6 0.151875 0.331488 0.917968
O O7 0.000000 0.346423 0.000000
O O8 0.895205 0.865201 0.348965
O O9 0.000000 0.884249 0.500000
O O10 0.011177 0.000000 0.210499
O O11 0.194476 0.834290 0.266028
O O12 0.269530 0.000000 0.136007
O O13 0.750000 0.750000 0.500000
#
# Coordination Sequence:
#
# PCOD9203962 Si02
#       5
#     8   8   8   8   8
#     4   9  21  39  61  90 121 160 212 257 306 371
#     4  10  20  40  62  89 123 162 207 257 312 377
#     4  11  23  41  64  93 128 167 209 261 325 380
#     4   9  20  39  63  88 119 163 211 253 307 373
#     4  12  23  40  64  92 132 166 208 263 323 380
#
# _framework density 24.326920000000001
#
# number of rings (size 3 to 8) (size 9 to 14) (size 15 to 20)
#    1.200    0.600    2.000    2.400    0.000    3.600 
#    0.000    4.000    0.000    0.000    0.000    0.000 
#    0.000    0.000    0.000    0.000    0.000    0.000 
#
# Total GULP energy -111685.908888 kJ/mol
# GULP energy per Si atom -5584.295444 kJ/mol
# Density = 2.427155 g / cm^3
# Si number density = 24.326920 Si / 1000 Ang^3
#
#
#
# Elastic Constant Matrix: (Units=GPa)
#
#
# Indices 1 2 3 4 5 6 
#
# 1 70.9506 -2.5004 -6.9287 0.0000 1.0217 0.0000
# 2 -2.5004 159.5245 12.4250 0.0000 -14.0981 0.0000
# 3 -6.9287 12.4250 50.4906 0.0000 -3.4008 0.0000
# 4 0.0000 0.0000 0.0000 5.1191 0.0000 -18.4592
# 5 1.0217 -14.0981 -3.4008 0.0000 31.2570 0.0000
# 6 0.0000 0.0000 0.0000 -18.4592 0.0000 19.9380
#
#
#
# Elastic Compliance Matrix: (Units=1/GPa)
#
#
# Indices 1 2 3 4 5 6 
#
# 1 0.014288 0.000053 0.001932 0.000000 -0.000233 0.000000
# 2 0.000053 0.006632 -0.001434 0.000000 0.002833 0.000000
# 3 0.001932 -0.001434 0.020526 0.000000 0.001523 0.000000
# 4 0.000000 0.000000 0.000000 -0.083536 0.000000 -0.077340
# 5 -0.000233 0.002833 0.001523 0.000000 0.033444 0.000000
# 6 0.000000 0.000000 0.000000 -0.077340 0.000000 -0.021448
#
#
# Mechanical properties :
#
#
# Convention : Reuss Voigt Hill
#
# Bulk Modulus (GPa) = 23.50277 31.88415 27.69346
# Shear Modulus (GPa) = -293.89337 29.79415 -132.04961
#
# Velocity S-wave (km/s) = -11.00328 3.50343 -7.37558
# Velocity P-wave (km/s) = 12.31858 5.43142 7.81816
#
# Compressibility (1/GPa) = 0.04254818
#
# Stress axis : x y z
#
# Youngs Moduli (GPa) = 69.98776 150.79462 48.71815
#
# Poissons Ratio (x) = -0.00797 -0.09413
# Poissons Ratio (y) = -0.00370 0.06985
# Poissons Ratio (z) = -0.13522 0.21621
#
# Static dielectric constant tensor:
#      x y z
#    x 1.955000 0.000000 -0.034790 
#    y 0.000000 1.853620 0.000000 
#    z -0.034790 0.000000 2.048320 
# 
# From -- ./inp_files/95597.got.cif
#   From: 2010.05.17/outbox.cif.g08.bks.cpg/sg12_48_cif.got.tgz:95597.got - 2010.06.03 13:09:07.
