data_PCOD9203448
_publ_section_title
;
Structure prediction by ZEFSAII (Michael W. Deem and Ramdas Pophale) SiO2 
 PCOD9203448
Probable space group: C 2/M
;
_chemical_formula_sum "Si O2"
_cell_formula_units_Z 48
_cell_length_a 15.138155
_cell_length_b 9.018445
_cell_length_c 17.998105
_cell_angle_alpha 90.000000
_cell_angle_beta 82.752943
_cell_angle_gamma 90.000000
_cell_volume 2437.519318
_symmetry_space_group_name_H-M "C 2/M"
_symmetry_group_IT_number 12
_symmetry_cell_setting 'monoclinic'
loop_
_space_group_symop_operation_xyz
x,y,z
-x,y,-z
-x,-y,-z
x,-y,z
1/2+x,1/2+y,z
1/2-x,1/2+y,-z
1/2-x,1/2-y,-z
1/2+x,1/2-y,z
loop_
_atom_site_type_symbol
_atom_site_label
_atom_site_fract_x
_atom_site_fract_y
_atom_site_fract_z
Si Si1 0.094728 0.674617 0.194070
Si Si2 0.448696 0.174152 0.081093
Si Si3 0.328952 0.826611 0.393016
Si Si4 0.855060 0.673110 0.568158
Si Si5 0.989921 0.824202 0.657598
Si Si6 0.234684 0.823120 0.921212
O O1 0.099837 0.500000 0.214663
O O2 0.070165 0.772532 0.267046
O O3 0.186007 0.717335 0.143457
O O4 0.016370 0.689781 0.141801
O O5 0.360011 0.268713 0.098509
O O6 0.424503 0.000000 0.076349
O O7 0.500000 0.216507 0.000000
O O8 0.235787 0.743520 0.389974
O O9 0.347619 0.816644 0.479797
O O10 0.413155 0.750398 0.345682
O O11 0.322102 0.000000 0.374081
O O12 0.862465 0.500000 0.587143
O O13 0.939163 0.760423 0.591001
O O14 0.998420 0.000000 0.652381
O O15 0.236868 0.000000 0.929740
O O16 0.250000 0.750000 0.000000
#
# Coordination Sequence:
#
# PCOD9203448 Si02
#       6
#     8   8   8   8   8   8
#     4  10  23  42  60  82 120 162 198 245 304 359
#     4  10  20  39  63  87 115 150 191 240 298 354
#     4  10  21  39  64  92 122 159 203 250 302 357
#     4  10  21  39  64  92 122 159 204 251 299 356
#     4  12  25  39  59  88 125 164 204 249 300 359
#     4  11  22  38  62  89 116 150 192 243 296 353
#
# _framework density 19.692152
#
# number of rings (size 3 to 8) (size 9 to 14) (size 15 to 20)
#    0.000    1.500    1.667    3.500    0.000    7.667 
#    0.000    3.333    0.000    0.000    0.000    0.000 
#    0.000    0.000    0.000    0.000    0.000    0.000 
#
# Total GULP energy -134219.994507 kJ/mol
# GULP energy per Si atom -5592.499771 kJ/mol
# Density = 1.964733 g / cm^3
# Si number density = 19.692152 Si / 1000 Ang^3
#
#
#
# Elastic Constant Matrix: (Units=GPa)
#
#
# Indices 1 2 3 4 5 6 
#
# 1 105.4942 37.3962 11.4932 0.0000 -30.6257 0.0000
# 2 37.3962 96.3075 27.2667 0.0000 -23.8837 0.0000
# 3 11.4932 27.2667 35.2028 0.0000 -14.8385 0.0000
# 4 0.0000 0.0000 0.0000 25.6732 0.0000 -0.0530
# 5 -30.6257 -23.8837 -14.8385 0.0000 28.1926 0.0000
# 6 0.0000 0.0000 0.0000 -0.0530 0.0000 38.0098
#
#
#
# Elastic Compliance Matrix: (Units=1/GPa)
#
#
# Indices 1 2 3 4 5 6 
#
# 1 0.014578 -0.002979 0.004060 0.000000 0.015449 0.000000
# 2 -0.002979 0.015274 -0.008697 0.000000 0.005126 0.000000
# 3 0.004060 -0.008697 0.041858 0.000000 0.019073 0.000000
# 4 0.000000 0.000000 0.000000 0.038951 0.000000 0.000054
# 5 0.015449 0.005126 0.019073 0.000000 0.066634 0.000000
# 6 0.000000 0.000000 0.000000 0.000054 0.000000 0.026309
#
#
# Mechanical properties :
#
#
# Convention : Reuss Voigt Hill
#
# Bulk Modulus (GPa) = 17.70633 43.25739 30.48186
# Shear Modulus (GPa) = 21.03837 29.09833 25.06835
#
# Velocity S-wave (km/s) = 3.27213 3.84821 3.57180
# Velocity P-wave (km/s) = 4.82564 6.46215 5.70291
#
# Compressibility (1/GPa) = 0.05647698
#
# Stress axis : x y z
#
# Youngs Moduli (GPa) = 68.59731 65.47253 23.89058
#
# Poissons Ratio (x) = 0.19502 -0.09699
# Poissons Ratio (y) = 0.20433 0.20778
# Poissons Ratio (z) = -0.27850 0.56943
#
# Static dielectric constant tensor:
#      x y z
#    x 1.670070 0.000000 0.002070 
#    y 0.000000 1.657430 0.000000 
#    z 0.002070 0.000000 1.697390 
# 
# From -- ./inp_files/267634.got.cif
#   From: 2010.05.17/outbox.cif.g08.bks.cpg/sg12_134_cif.got.tgz:267634.got - 2010.06.03 13:09:07.
