data_PCOD9203058
_publ_section_title
;
Structure prediction by ZEFSAII (Michael W. Deem and Ramdas Pophale) SiO2 
 PCOD9203058
Probable space group: C 2/M
;
_chemical_formula_sum "Si O2"
_cell_formula_units_Z 44
_cell_length_a 7.807122
_cell_length_b 20.670595
_cell_length_c 13.111569
_cell_angle_alpha 90.000000
_cell_angle_beta 75.798694
_cell_angle_gamma 90.000000
_cell_volume 2051.253974
_symmetry_space_group_name_H-M "C 2/M"
_symmetry_group_IT_number 12
_symmetry_cell_setting 'monoclinic'
loop_
_space_group_symop_operation_xyz
x,y,z
-x,y,-z
-x,-y,-z
x,-y,z
1/2+x,1/2+y,z
1/2-x,1/2+y,-z
1/2-x,1/2-y,-z
1/2+x,1/2-y,z
loop_
_atom_site_type_symbol
_atom_site_label
_atom_site_fract_x
_atom_site_fract_y
_atom_site_fract_z
Si Si1 0.844677 0.567186 0.102761
Si Si2 0.905829 0.427276 0.743236
Si Si3 0.371351 0.333328 0.116730
Si Si4 0.133177 0.681255 0.627708
Si Si5 0.702553 0.299163 0.172782
Si Si6 0.000000 0.208402 0.500000
O O1 0.734827 0.500000 0.107303
O O2 0.933745 0.565922 0.200206
O O3 0.770689 0.638438 0.101142
O O4 0.000000 0.563086 0.000000
O O5 0.860835 0.500000 0.713776
O O6 0.746397 0.393712 0.829824
O O7 0.987957 0.375859 0.651723
O O8 0.495329 0.313036 0.194022
O O9 0.246216 0.270709 0.119633
O O10 0.500000 0.341965 0.000000
O O11 0.203401 0.695615 0.731644
O O12 0.041836 0.742724 0.587488
O O13 0.319510 0.668870 0.542990
#
# Coordination Sequence:
#
# PCOD9203058 Si02
#       6
#     8   8   8   8   8   4
#     4   9  17  32  54  78 109 149 187 224 268 325
#     4  10  22  39  56  79 116 155 191 232 283 335
#     4  12  23  34  54  83 118 158 197 236 271 319
#     4  10  21  38  62  89 113 144 180 232 293 348
#     4  11  21  35  55  82 115 148 189 235 281 331
#     4  10  20  38  66  92 112 134 180 236 296 362
#
# _framework density 21.450295000000001
#
# number of rings (size 3 to 8) (size 9 to 14) (size 15 to 20)
#    0.000    1.636    0.000    6.545    0.000    2.545 
#    0.000    0.909    0.000    0.000    0.000    0.000 
#    0.000    0.000    0.000    0.000    0.000    0.000 
#
# Total GULP energy -122562.494227 kJ/mol
# GULP energy per Si atom -5571.022465 kJ/mol
# Density = 2.140147 g / cm^3
# Si number density = 21.450295 Si / 1000 Ang^3
#
#
#
# Elastic Constant Matrix: (Units=GPa)
#
#
# Indices 1 2 3 4 5 6 
#
# 1 65.0580 37.0610 12.4726 0.0000 -4.8435 0.0000
# 2 37.0610 141.4947 54.3464 0.0000 -37.4207 0.0000
# 3 12.4726 54.3464 68.2725 0.0000 -9.2536 0.0000
# 4 0.0000 0.0000 0.0000 37.5545 0.0000 -17.0948
# 5 -4.8435 -37.4207 -9.2536 0.0000 45.0367 0.0000
# 6 0.0000 0.0000 0.0000 -17.0948 0.0000 10.6165
#
#
#
# Elastic Compliance Matrix: (Units=1/GPa)
#
#
# Indices 1 2 3 4 5 6 
#
# 1 0.018342 -0.005901 0.000977 0.000000 -0.002730 0.000000
# 2 -0.005901 0.014785 -0.009373 0.000000 0.009724 0.000000
# 3 0.000977 -0.009373 0.021487 0.000000 -0.003268 0.000000
# 4 0.000000 0.000000 0.000000 0.099718 0.000000 0.160566
# 5 -0.002730 0.009724 -0.003268 0.000000 0.029319 0.000000
# 6 0.000000 0.000000 0.000000 0.160566 0.000000 0.352737
#
#
# Mechanical properties :
#
#
# Convention : Reuss Voigt Hill
#
# Bulk Modulus (GPa) = 38.43401 53.62056 46.02728
# Shear Modulus (GPa) = 8.71602 30.03790 19.37696
#
# Velocity S-wave (km/s) = 2.01796 3.74618 3.00883
# Velocity P-wave (km/s) = 4.83593 6.61541 5.79439
#
# Compressibility (1/GPa) = 0.02601862
#
# Stress axis : x y z
#
# Youngs Moduli (GPa) = 54.51901 67.63653 46.54001
#
# Poissons Ratio (x) = 0.39916 -0.04546
# Poissons Ratio (y) = 0.32174 0.43622
# Poissons Ratio (z) = -0.05325 0.63396
#
# Static dielectric constant tensor:
#      x y z
#    x 1.885420 0.000000 0.027400 
#    y 0.000000 1.937700 0.000000 
#    z 0.027400 0.000000 1.849950 
# 
# From -- ./inp_files/195381.got.cif
#   From: 2010.05.17/outbox.cif.g08.bks.cpg/sg12_98_cif.got.tgz:195381.got - 2010.06.03 13:09:07.
