data_PCOD9203306
_publ_section_title
;
Structure prediction by ZEFSAII (Michael W. Deem and Ramdas Pophale) SiO2 
 PCOD9203306
Probable space group: C 2/M
;
_chemical_formula_sum "Si O2"
_cell_formula_units_Z 42
_cell_length_a 12.149753
_cell_length_b 14.221273
_cell_length_c 12.132336
_cell_angle_alpha 90.000000
_cell_angle_beta 112.357954
_cell_angle_gamma 90.000000
_cell_volume 1938.697788
_symmetry_space_group_name_H-M "C 2/M"
_symmetry_group_IT_number 12
_symmetry_cell_setting 'monoclinic'
loop_
_space_group_symop_operation_xyz
x,y,z
-x,y,-z
-x,-y,-z
x,-y,z
1/2+x,1/2+y,z
1/2-x,1/2+y,-z
1/2-x,1/2-y,-z
1/2+x,1/2-y,z
loop_
_atom_site_type_symbol
_atom_site_label
_atom_site_fract_x
_atom_site_fract_y
_atom_site_fract_z
Si Si1 0.006714 0.394406 0.660935
Si Si2 0.326665 0.333932 0.933890
Si Si3 0.719949 0.767167 0.670021
Si Si4 0.729790 0.392184 0.506746
Si Si5 0.075373 0.345322 0.925161
Si Si6 0.000000 0.000000 0.000000
O O1 0.056687 0.500000 0.665375
O O2 0.095285 0.319755 0.642448
O O3 0.003261 0.369588 0.788609
O O4 0.873687 0.394707 0.566240
O O5 0.282792 0.271455 0.813180
O O6 0.210879 0.376894 0.951782
O O7 0.406774 0.418185 0.925191
O O8 0.398673 0.265089 0.042763
O O9 0.696694 0.667372 0.603033
O O10 0.796268 0.829030 0.611067
O O11 0.686781 0.500000 0.486738
O O12 0.000000 0.381079 0.000000
#
# Coordination Sequence:
#
# PCOD9203306 Si02
#       6
#     8   8   8   8   8   2
#     4  10  21  37  63  90 118 159 202 249 306 370
#     4  10  23  38  62  89 127 168 206 252 309 377
#     4  10  21  38  63  88 123 160 200 252 306 363
#     4  10  21  37  63  93 119 154 203 257 304 361
#     4  10  20  39  61  87 126 160 204 262 309 357
#     4  12  24  40  62  92 120 174 216 246 300 410
#
# _framework density 21.664027000000001
#
# number of rings (size 3 to 8) (size 9 to 14) (size 15 to 20)
#    0.000    1.905    0.952    2.286    6.667    1.905 
#    0.000    0.952   12.571   10.286    0.000    0.000 
#    0.000    0.000    0.000    0.000    0.000    0.000 
#
# Total GULP energy -116951.542423 kJ/mol
# GULP energy per Si atom -5569.121068 kJ/mol
# Density = 2.161472 g / cm^3
# Si number density = 21.664027 Si / 1000 Ang^3
#
#
#
# Elastic Constant Matrix: (Units=GPa)
#
#
# Indices 1 2 3 4 5 6 
#
# 1 46.4091 -1.0108 14.4633 0.0000 -18.4250 0.0000
# 2 -1.0108 105.0198 15.3858 0.0000 -10.3466 0.0000
# 3 14.4633 15.3858 79.5586 0.0000 -22.5299 0.0000
# 4 0.0000 0.0000 0.0000 8.9434 0.0000 10.6062
# 5 -18.4250 -10.3466 -22.5299 0.0000 30.1913 0.0000
# 6 0.0000 0.0000 0.0000 10.6062 0.0000 1.4773
#
#
#
# Elastic Compliance Matrix: (Units=1/GPa)
#
#
# Indices 1 2 3 4 5 6 
#
# 1 0.028893 0.002130 -0.000589 0.000000 0.017923 0.000000
# 2 0.002130 0.010104 -0.001258 0.000000 0.003823 0.000000
# 3 -0.000589 -0.001258 0.016098 0.000000 0.011222 0.000000
# 4 0.000000 0.000000 0.000000 -0.014880 0.000000 0.106832
# 5 0.017923 0.003823 0.011222 0.000000 0.053745 0.000000
# 6 0.000000 0.000000 0.000000 0.106832 0.000000 -0.090084
#
#
# Mechanical properties :
#
#
# Convention : Reuss Voigt Hill
#
# Bulk Modulus (GPa) = 17.96622 32.07379 25.02000
# Shear Modulus (GPa) = 228.69519 21.59901 125.14710
#
# Velocity S-wave (km/s) = 10.28560 3.16095 7.60872
# Velocity P-wave (km/s) = 12.22167 5.30654 9.42148
#
# Compressibility (1/GPa) = 0.05566002
#
# Stress axis : x y z
#
# Youngs Moduli (GPa) = 34.61024 98.97500 62.12071
#
# Poissons Ratio (x) = -0.21083 0.03659
# Poissons Ratio (y) = -0.07373 0.07818
# Poissons Ratio (z) = 0.02038 0.12455
#
# Static dielectric constant tensor:
#      x y z
#    x 1.847500 0.000000 -0.011020 
#    y 0.000000 1.727500 0.000000 
#    z -0.011020 0.000000 1.821550 
# 
# From -- ./inp_files/129766.got.cif
#   From: 2010.05.17/outbox.cif.g08.bks.cpg/sg12_65_cif.got.tgz:129766.got - 2010.06.03 13:09:07.
