data_PCOD9203658
_publ_section_title
;
Structure prediction by ZEFSAII (Michael W. Deem and Ramdas Pophale) SiO2 
 PCOD9203658
Probable space group: C 2/M
;
_chemical_formula_sum "Si O2"
_cell_formula_units_Z 58
_cell_length_a 24.849375
_cell_length_b 9.338196
_cell_length_c 12.132158
_cell_angle_alpha 90.000000
_cell_angle_beta 89.979130
_cell_angle_gamma 90.000000
_cell_volume 2815.246868
_symmetry_space_group_name_H-M "C 2/M"
_symmetry_group_IT_number 12
_symmetry_cell_setting 'monoclinic'
loop_
_space_group_symop_operation_xyz
x,y,z
-x,y,-z
-x,-y,-z
x,-y,z
1/2+x,1/2+y,z
1/2-x,1/2+y,-z
1/2-x,1/2-y,-z
1/2+x,1/2-y,z
loop_
_atom_site_type_symbol
_atom_site_label
_atom_site_fract_x
_atom_site_fract_y
_atom_site_fract_z
Si Si1 0.785314 0.326433 0.275379
Si Si2 0.824593 0.828453 0.822845
Si Si3 0.338909 0.171117 0.041303
Si Si4 0.130260 0.666343 0.554671
Si Si5 0.500000 0.500000 0.500000
Si Si6 0.026202 0.756106 0.680302
Si Si7 0.406362 0.164814 0.684596
Si Si8 0.553344 0.336272 0.928296
O O1 0.787352 0.500000 0.281751
O O2 0.723016 0.287027 0.262284
O O3 0.813964 0.289070 0.159869
O O4 0.819355 0.268380 0.378753
O O5 0.880024 0.765403 0.776281
O O6 0.826128 0.000000 0.832936
O O7 0.812551 0.755569 0.939858
O O8 0.400485 0.223692 0.042753
O O9 0.334358 0.000000 0.027001
O O10 0.142331 0.500000 0.535096
O O11 0.113767 0.723222 0.434632
O O12 0.078625 0.675055 0.634625
O O13 0.514652 0.377423 0.591471
O O14 0.970800 0.668499 0.686951
O O15 0.039048 0.817606 0.800324
O O16 0.388870 0.000000 0.700912
O O17 0.572393 0.500000 0.948535
O O18 0.500000 0.313467 0.000000
#
# Coordination Sequence:
#
# PCOD9203658 Si02
#       8
#     8   8   8   8   2   8   8   8
#     4   9  20  39  64  92 119 159 206 257 311 366
#     4  11  24  41  63  88 125 166 205 255 317 370
#     4  11  22  40  66  90 121 158 208 260 304 369
#     4  10  20  39  65  91 122 158 205 259 312 366
#     4  12  24  36  60  96 128 172 210 258 300 374
#     4  12  22  38  63  88 130 163 211 253 308 370
#     4  11  24  39  62  92 126 165 210 256 307 369
#     4  11  24  39  58  89 127 166 203 249 309 368
#
# _framework density 20.602101999999999
#
# number of rings (size 3 to 8) (size 9 to 14) (size 15 to 20)
#    0.000    1.241    3.448    2.483    0.966    3.586 
#    0.000    2.069    3.034    0.000    0.000    0.000 
#    0.000    0.000    0.000    0.000    0.000    0.000 
#
# Total GULP energy -161704.037948 kJ/mol
# GULP energy per Si atom -5576.001309 kJ/mol
# Density = 2.055521 g / cm^3
# Si number density = 20.602102 Si / 1000 Ang^3
#
#
#
# Elastic Constant Matrix: (Units=GPa)
#
#
# Indices 1 2 3 4 5 6 
#
# 1 57.0323 7.3863 3.2379 0.0000 17.3908 0.0000
# 2 7.3863 64.2242 3.8359 0.0000 3.0244 0.0000
# 3 3.2379 3.8359 62.8988 0.0000 13.8712 0.0000
# 4 0.0000 0.0000 0.0000 32.2181 0.0000 -4.8252
# 5 17.3908 3.0244 13.8712 0.0000 31.3978 0.0000
# 6 0.0000 0.0000 0.0000 -4.8252 0.0000 35.8279
#
#
#
# Elastic Compliance Matrix: (Units=1/GPa)
#
#
# Indices 1 2 3 4 5 6 
#
# 1 0.021503 -0.001990 0.001771 0.000000 -0.012501 0.000000
# 2 -0.001990 0.015853 -0.000854 0.000000 -0.000047 0.000000
# 3 0.001771 -0.000854 0.017791 0.000000 -0.008759 0.000000
# 4 0.000000 0.000000 0.000000 0.031677 0.000000 0.004266
# 5 -0.012501 -0.000047 -0.008759 0.000000 0.042648 0.000000
# 6 0.000000 0.000000 0.000000 0.004266 0.000000 0.028486
#
#
# Mechanical properties :
#
#
# Convention : Reuss Voigt Hill
#
# Bulk Modulus (GPa) = 18.86741 23.67503 21.27122
# Shear Modulus (GPa) = 28.12623 31.20177 29.66400
#
# Velocity S-wave (km/s) = 3.69889 3.89587 3.79866
# Velocity P-wave (km/s) = 5.23643 5.63503 5.43939
#
# Compressibility (1/GPa) = 0.05300145
#
# Stress axis : x y z
#
# Youngs Moduli (GPa) = 46.50498 63.08125 56.20804
#
# Poissons Ratio (x) = 0.12554 -0.09956
# Poissons Ratio (y) = 0.09255 0.04799
# Poissons Ratio (z) = -0.08238 0.05386
#
# Static dielectric constant tensor:
#      x y z
#    x 1.757070 0.000000 0.030510 
#    y 0.000000 1.702190 0.000000 
#    z 0.030510 0.000000 1.738800 
# 
# From -- ./inp_files/180912.got.cif
#   From: 2010.05.17/outbox.cif.g08.bks.cpg/sg12_91_cif.got.tgz:180912.got - 2010.06.03 13:09:07.
