data_PCOD9203281
_publ_section_title
;
Structure prediction by ZEFSAII (Michael W. Deem and Ramdas Pophale) SiO2 
 PCOD9203281
Probable space group: C 2/M
;
_chemical_formula_sum "Si O2"
_cell_formula_units_Z 64
_cell_length_a 22.073725
_cell_length_b 16.033582
_cell_length_c 12.311497
_cell_angle_alpha 90.000000
_cell_angle_beta 134.361615
_cell_angle_gamma 90.000000
_cell_volume 3115.210563
_symmetry_space_group_name_H-M "C 2/M"
_symmetry_group_IT_number 12
_symmetry_cell_setting 'monoclinic'
loop_
_space_group_symop_operation_xyz
x,y,z
-x,y,-z
-x,-y,-z
x,-y,z
1/2+x,1/2+y,z
1/2-x,1/2+y,-z
1/2-x,1/2-y,-z
1/2+x,1/2-y,z
loop_
_atom_site_type_symbol
_atom_site_label
_atom_site_fract_x
_atom_site_fract_y
_atom_site_fract_z
Si Si1 0.735129 0.594367 0.656505
Si Si2 0.257795 0.905813 0.919740
Si Si3 0.597741 0.831608 0.520795
Si Si4 0.887996 0.170957 0.116762
Si Si5 0.454819 0.636345 0.557073
Si Si6 0.902285 0.099370 0.903953
Si Si7 0.253346 0.101258 0.440214
Si Si8 0.914487 0.355963 0.241069
O O1 0.769766 0.500000 0.699800
O O2 0.762349 0.633814 0.805132
O O3 0.633100 0.591332 0.531706
O O4 0.760508 0.632511 0.573131
O O5 0.191879 0.857893 0.912563
O O6 0.224426 0.000000 0.864614
O O7 0.348224 0.909183 0.090666
O O8 0.572806 0.733896 0.484869
O O9 0.677578 0.856103 0.549616
O O10 0.513654 0.878195 0.370450
O O11 0.611615 0.851642 0.664964
O O12 0.904711 0.265891 0.171706
O O13 0.973718 0.124010 0.262591
O O14 0.874300 0.151132 0.974240
O O15 0.500000 0.614637 0.500000
O O16 0.839709 0.117417 0.725569
O O17 0.894996 0.000000 0.919140
O O18 0.000000 0.117480 0.000000
O O19 0.264521 0.000000 0.452640
#
# Coordination Sequence:
#
# PCOD9203281 Si02
#       8
#     8   8   8   8   8   8   8   8
#     4  10  22  38  56  83 117 151 191 235 282 346
#     4  11  22  35  55  85 114 145 191 239 292 345
#     4  10  20  39  61  83 112 151 192 241 286 338
#     4  11  20  35  58  83 115 150 184 236 293 342
#     4  11  19  37  58  85 116 148 187 232 283 341
#     4  10  21  37  57  87 122 152 189 236 282 339
#     4  10  22  40  60  83 115 156 196 234 284 343
#     4  10  21  38  58  83 114 146 189 248 288 334
#
# _framework density 20.544357000000002
#
# number of rings (size 3 to 8) (size 9 to 14) (size 15 to 20)
#    0.000    1.625    3.750    2.250    0.000    5.750 
#    0.000    4.375    0.000    2.250    0.000    0.000 
#    0.000    0.000    0.000    0.000    0.000    0.000 
#
# Total GULP energy -178693.001129 kJ/mol
# GULP energy per Si atom -5584.156285 kJ/mol
# Density = 2.049760 g / cm^3
# Si number density = 20.544357 Si / 1000 Ang^3
#
#
#
# Elastic Constant Matrix: (Units=GPa)
#
#
# Indices 1 2 3 4 5 6 
#
# 1 120.4815 17.1614 45.5493 0.0000 -13.1070 0.0000
# 2 17.1614 24.0631 16.4745 0.0000 -3.9094 0.0000
# 3 45.5493 16.4745 117.3578 0.0000 -11.4597 0.0000
# 4 0.0000 0.0000 0.0000 17.0469 0.0000 12.9015
# 5 -13.1070 -3.9094 -11.4597 0.0000 34.0306 0.0000
# 6 0.0000 0.0000 0.0000 12.9015 0.0000 17.8457
#
#
#
# Elastic Compliance Matrix: (Units=1/GPa)
#
#
# Indices 1 2 3 4 5 6 
#
# 1 0.010445 -0.004916 -0.003129 0.000000 0.002404 0.000000
# 2 -0.004916 0.048633 -0.004713 0.000000 0.002106 0.000000
# 3 -0.003129 -0.004713 0.010574 0.000000 0.001814 0.000000
# 4 0.000000 0.000000 0.000000 0.129537 0.000000 -0.093648
# 5 0.002404 0.002106 0.001814 0.000000 0.031164 0.000000
# 6 0.000000 0.000000 0.000000 -0.093648 0.000000 0.123739
#
#
# Mechanical properties :
#
#
# Convention : Reuss Voigt Hill
#
# Bulk Modulus (GPa) = 22.65785 46.69698 34.67741
# Shear Modulus (GPa) = 12.68005 25.96579 19.32292
#
# Velocity S-wave (km/s) = 2.48705 3.55898 3.07016
# Velocity P-wave (km/s) = 4.39317 6.29822 5.42990
#
# Compressibility (1/GPa) = 0.04413481
#
# Stress axis : x y z
#
# Youngs Moduli (GPa) = 95.74139 20.56234 94.57024
#
# Poissons Ratio (x) = 0.10109 0.29591
# Poissons Ratio (y) = 0.47069 0.44573
# Poissons Ratio (z) = 0.29957 0.09691
#
# Static dielectric constant tensor:
#      x y z
#    x 1.697770 0.000000 -0.007250 
#    y 0.000000 1.792360 0.000000 
#    z -0.007250 0.000000 1.748420 
# 
# From -- ./inp_files/168822.got.cif
#   From: 2010.05.17/outbox.cif.g08.bks.cpg/sg12_85_cif.got.tgz:168822.got - 2010.06.03 13:09:07.
