data_PCOD9203804
_publ_section_title
;
Structure prediction by ZEFSAII (Michael W. Deem and Ramdas Pophale) SiO2 
 PCOD9203804
Probable space group: C 2/M
;
_chemical_formula_sum "Si O2"
_cell_formula_units_Z 56
_cell_length_a 12.762101
_cell_length_b 14.742501
_cell_length_c 14.753173
_cell_angle_alpha 90.000000
_cell_angle_beta 87.054918
_cell_angle_gamma 90.000000
_cell_volume 2772.073878
_symmetry_space_group_name_H-M "C 2/M"
_symmetry_group_IT_number 12
_symmetry_cell_setting 'monoclinic'
loop_
_space_group_symop_operation_xyz
x,y,z
-x,y,-z
-x,-y,-z
x,-y,z
1/2+x,1/2+y,z
1/2-x,1/2+y,-z
1/2-x,1/2-y,-z
1/2+x,1/2-y,z
loop_
_atom_site_type_symbol
_atom_site_label
_atom_site_fract_x
_atom_site_fract_y
_atom_site_fract_z
Si Si1 0.148251 0.000000 0.914501
Si Si2 0.951063 0.399364 0.780099
Si Si3 0.620308 0.107675 0.523125
Si Si4 0.578115 0.500000 0.127001
Si Si5 0.863956 0.282430 0.295971
Si Si6 0.226018 0.836489 0.132408
Si Si7 0.677506 0.141688 0.056356
Si Si8 0.754075 0.896082 0.336880
O O1 0.222439 0.912120 0.905874
O O2 0.046687 0.000000 0.855958
O O3 0.104291 0.000000 0.018457
O O4 0.994510 0.500000 0.755311
O O5 0.923264 0.395817 0.887402
O O6 0.841737 0.389815 0.730662
O O7 0.025207 0.318294 0.746096
O O8 0.500000 0.129713 0.500000
O O9 0.651855 0.165169 0.608962
O O10 0.698216 0.123423 0.435683
O O11 0.622038 0.000000 0.543287
O O12 0.636794 0.409853 0.156702
O O13 0.782630 0.311649 0.222126
O O14 0.843798 0.176438 0.312586
O O15 0.181179 0.746785 0.085318
O O16 0.308290 0.871561 0.051755
O O17 0.790900 0.000000 0.334248
#
# Coordination Sequence:
#
# PCOD9203804 Si02
#       8
#     4   8   8   4   8   8   8   8
#     4   9  18  38  67  83 116 177 213 251 310 374
#     4  11  22  39  65  94 126 166 219 262 311 388
#     4  10  20  39  67  98 128 166 211 261 320 392
#     4   9  20  38  59  91 125 160 213 261 314 373
#     4  12  23  38  66 100 127 166 211 272 325 364
#     4  10  23  37  60  92 133 164 213 263 315 372
#     4  10  20  41  60  89 128 173 214 258 305 382
#     4  10  22  43  66  93 125 163 215 261 315 395
#
# _framework density 20.201481000000001
#
# number of rings (size 3 to 8) (size 9 to 14) (size 15 to 20)
#    0.000    1.714    3.571    0.857    2.000    1.714 
#    0.000    3.571    0.000    2.143    0.000    0.000 
#    0.000    0.000    0.000    0.000    0.000    0.000 
#
# Total GULP energy -156331.302917 kJ/mol
# GULP energy per Si atom -5583.260818 kJ/mol
# Density = 2.015550 g / cm^3
# Si number density = 20.201481 Si / 1000 Ang^3
#
#
#
# Elastic Constant Matrix: (Units=GPa)
#
#
# Indices 1 2 3 4 5 6 
#
# 1 51.6561 54.4456 30.2103 0.0000 -19.4840 0.0000
# 2 54.4456 127.3767 34.1022 0.0000 -11.0415 0.0000
# 3 30.2103 34.1022 91.2345 0.0000 -1.4630 0.0000
# 4 0.0000 0.0000 0.0000 1.1946 0.0000 -10.7725
# 5 -19.4840 -11.0415 -1.4630 0.0000 27.8412 0.0000
# 6 0.0000 0.0000 0.0000 -10.7725 0.0000 6.6114
#
#
#
# Elastic Compliance Matrix: (Units=1/GPa)
#
#
# Indices 1 2 3 4 5 6 
#
# 1 0.058910 -0.019155 -0.011818 0.000000 0.033009 0.000000
# 2 -0.019155 0.015264 0.000520 0.000000 -0.007324 0.000000
# 3 -0.011818 0.000520 0.014563 0.000000 -0.007299 0.000000
# 4 0.000000 0.000000 0.000000 -0.061133 0.000000 -0.099608
# 5 0.033009 -0.007324 -0.007299 0.000000 0.055730 0.000000
# 6 0.000000 0.000000 0.000000 -0.099608 0.000000 -0.011046
#
#
# Mechanical properties :
#
#
# Convention : Reuss Voigt Hill
#
# Bulk Modulus (GPa) = 35.93094 56.42038 46.17566
# Shear Modulus (GPa) = 35.09474 17.23007 26.16241
#
# Velocity S-wave (km/s) = 4.17254 2.92363 3.60262
# Velocity P-wave (km/s) = 6.40612 6.27585 6.34132
#
# Compressibility (1/GPa) = 0.02783117
#
# Stress axis : x y z
#
# Youngs Moduli (GPa) = 16.97498 65.51230 68.66925
#
# Poissons Ratio (x) = 1.25490 0.81150
# Poissons Ratio (y) = 0.32516 -0.03569
# Poissons Ratio (z) = 0.20060 -0.03405
#
# Static dielectric constant tensor:
#      x y z
#    x 1.714390 0.000000 -0.028380 
#    y 0.000000 1.738700 0.000000 
#    z -0.028380 0.000000 1.739670 
# 
# From -- ./inp_files/205049.got.cif
#   From: 2010.05.17/outbox.cif.g08.bks.cpg/sg12_103_cif.got.tgz:205049.got - 2010.06.03 13:09:07.
