data_PCOD9203852
_publ_section_title
;
Structure prediction by ZEFSAII (Michael W. Deem and Ramdas Pophale) SiO2 
 PCOD9203852
Probable space group: C 2/M
;
_chemical_formula_sum "Si O2"
_cell_formula_units_Z 48
_cell_length_a 10.530889
_cell_length_b 26.830389
_cell_length_c 8.999395
_cell_angle_alpha 90.000000
_cell_angle_beta 101.324027
_cell_angle_gamma 90.000000
_cell_volume 2493.258271
_symmetry_space_group_name_H-M "C 2/M"
_symmetry_group_IT_number 12
_symmetry_cell_setting 'monoclinic'
loop_
_space_group_symop_operation_xyz
x,y,z
-x,y,-z
-x,-y,-z
x,-y,z
1/2+x,1/2+y,z
1/2-x,1/2+y,-z
1/2-x,1/2-y,-z
1/2+x,1/2-y,z
loop_
_atom_site_type_symbol
_atom_site_label
_atom_site_fract_x
_atom_site_fract_y
_atom_site_fract_z
Si Si1 0.221931 0.346365 0.268892
Si Si2 0.445256 0.055793 0.821192
Si Si3 0.945024 0.813394 0.150544
Si Si4 0.113785 0.872827 0.428142
Si Si5 0.115865 0.389732 0.648839
Si Si6 0.966983 0.698110 0.165822
O O1 0.156187 0.400673 0.241602
O O2 0.305406 0.338013 0.141339
O O3 0.318394 0.340647 0.427951
O O4 0.109829 0.306790 0.266642
O O5 0.563520 0.064777 0.735296
O O6 0.392371 0.000000 0.794321
O O7 0.500000 0.062318 0.000000
O O8 0.043396 0.839886 0.287334
O O9 0.922542 0.754527 0.169651
O O10 0.000000 0.819779 0.000000
O O11 0.241529 0.898556 0.386220
O O12 0.000000 0.900338 0.500000
O O13 0.000000 0.381189 0.500000
O O14 0.116181 0.342187 0.761862
O O15 0.000000 0.685573 0.000000
#
# Coordination Sequence:
#
# PCOD9203852 Si02
#       6
#     8   8   8   8   8   8
#     4  10  20  40  55  83 123 154 195 251 298 344
#     4  10  22  40  66  95 118 146 191 250 305 354
#     4  10  24  35  56  84 118 168 206 237 294 363
#     4  10  22  39  53  83 123 158 200 243 298 349
#     4  11  20  37  63  88 116 158 201 248 297 349
#     4  10  22  35  54  86 120 156 203 250 294 342
#
# _framework density 19.251916000000001
#
# number of rings (size 3 to 8) (size 9 to 14) (size 15 to 20)
#    0.000    1.833    3.333    2.000    7.000    4.333 
#    0.000    0.000    0.000    9.500    0.000    0.000 
#    0.000    0.000    0.000    0.000    0.000    0.000 
#
# Total GULP energy -133626.833841 kJ/mol
# GULP energy per Si atom -5567.784743 kJ/mol
# Density = 1.920810 g / cm^3
# Si number density = 19.251916 Si / 1000 Ang^3
#
#
#
# Elastic Constant Matrix: (Units=GPa)
#
#
# Indices 1 2 3 4 5 6 
#
# 1 121.1900 26.0522 18.6041 0.0000 -21.6718 0.0000
# 2 26.0522 79.4149 25.8135 0.0000 -10.6041 0.0000
# 3 18.6041 25.8135 81.7162 0.0000 -7.9088 0.0000
# 4 0.0000 0.0000 0.0000 631.5089 0.0000 -216.7151
# 5 -21.6718 -10.6041 -7.9088 0.0000 28.8752 0.0000
# 6 0.0000 0.0000 0.0000 -216.7151 0.0000 85.9675
#
#
#
# Elastic Compliance Matrix: (Units=1/GPa)
#
#
# Indices 1 2 3 4 5 6 
#
# 1 0.010012 -0.002098 -0.000990 0.000000 0.006473 0.000000
# 2 -0.002098 0.014949 -0.003971 0.000000 0.002827 0.000000
# 3 -0.000990 -0.003971 0.013872 0.000000 0.001598 0.000000
# 4 0.000000 0.000000 0.000000 0.011738 0.000000 0.029591
# 5 0.006473 0.002827 0.001598 0.000000 0.040966 0.000000
# 6 0.000000 0.000000 0.000000 0.029591 0.000000 0.086227
#
#
# Mechanical properties :
#
#
# Convention : Reuss Voigt Hill
#
# Bulk Modulus (GPa) = 40.46282 47.02898 43.74590
# Shear Modulus (GPa) = 24.98501 163.39373 94.18937
#
# Velocity S-wave (km/s) = 3.60640 9.22256 7.00221
# Velocity P-wave (km/s) = 6.19715 11.74261 9.38865
#
# Compressibility (1/GPa) = 0.02471405
#
# Stress axis : x y z
#
# Youngs Moduli (GPa) = 99.87965 66.89550 72.08813
#
# Poissons Ratio (x) = 0.14037 0.07138
# Poissons Ratio (y) = 0.20958 0.28625
# Poissons Ratio (z) = 0.09889 0.26563
#
# Static dielectric constant tensor:
#      x y z
#    x 1.735720 0.000000 -0.023880 
#    y 0.000000 1.625810 0.000000 
#    z -0.023880 0.000000 1.742860 
# 
# From -- ./inp_files/52042.got.cif
#   From: 2010.05.17/outbox.cif.g08.bks.cpg/sg12_27_cif.got.tgz:52042.got - 2010.06.03 13:09:07.
