data_PCOD9203925
_publ_section_title
;
Structure prediction by ZEFSAII (Michael W. Deem and Ramdas Pophale) SiO2 
 PCOD9203925
Probable space group: C 2/M
;
_chemical_formula_sum "Si O2"
_cell_formula_units_Z 56
_cell_length_a 17.930819
_cell_length_b 24.329049
_cell_length_c 8.623433
_cell_angle_alpha 90.000000
_cell_angle_beta 48.874010
_cell_angle_gamma 90.000000
_cell_volume 2833.696360
_symmetry_space_group_name_H-M "C 2/M"
_symmetry_group_IT_number 12
_symmetry_cell_setting 'monoclinic'
loop_
_space_group_symop_operation_xyz
x,y,z
-x,y,-z
-x,-y,-z
x,-y,z
1/2+x,1/2+y,z
1/2-x,1/2+y,-z
1/2-x,1/2-y,-z
1/2+x,1/2-y,z
loop_
_atom_site_type_symbol
_atom_site_label
_atom_site_fract_x
_atom_site_fract_y
_atom_site_fract_z
Si Si1 0.731572 0.616060 0.983612
Si Si2 0.610033 0.686057 0.912402
Si Si3 0.109551 0.938415 0.418024
Si Si4 0.711949 0.648985 0.462876
Si Si5 0.706017 0.213977 0.919296
Si Si6 0.393226 0.937042 0.217730
Si Si7 0.099124 0.438354 0.426035
O O1 0.645932 0.649121 0.008949
O O2 0.798889 0.587716 0.764844
O O3 0.682987 0.576188 0.176031
O O4 0.805851 0.656088 0.977461
O O5 0.685722 0.672926 0.666972
O O6 0.621827 0.748945 0.956041
O O7 0.500000 0.675757 0.000000
O O8 0.126355 0.892709 0.525341
O O9 0.000000 0.935536 0.500000
O O10 0.127450 0.000000 0.452372
O O11 0.721842 0.697312 0.321786
O O12 0.809981 0.610239 0.313061
O O13 0.750000 0.250000 0.000000
O O14 0.407061 0.940784 0.382416
O O15 0.366573 0.000000 0.199488
O O16 0.500000 0.922837 0.000000
O O17 0.100024 0.500000 0.357086
O O18 0.000000 0.409707 0.500000
#
# Coordination Sequence:
#
# PCOD9203925 Si02
#       7
#     8   8   8   8   8   8   8
#     4  10  20  40  61  85 120 160 195 242 298 354
#     4  11  22  40  62  88 117 154 202 251 303 352
#     4  10  21  36  57  88 121 158 200 234 280 354
#     4  11  21  39  64  85 119 157 194 247 306 353
#     4   9  22  40  59  82 112 151 201 248 295 350
#     4  10  22  38  59  90 124 153 192 241 296 359
#     4  10  21  37  59  89 122 158 197 236 292 359
#
# _framework density 19.762174000000002
#
# number of rings (size 3 to 8) (size 9 to 14) (size 15 to 20)
#    0.000    1.857    1.429    2.143    4.000    0.571 
#    0.000    0.000    0.000    4.286    0.000    0.000 
#    0.000    0.000    0.000    0.000    0.000    0.000 
#
# Total GULP energy -155991.219458 kJ/mol
# GULP energy per Si atom -5571.114981 kJ/mol
# Density = 1.971719 g / cm^3
# Si number density = 19.762174 Si / 1000 Ang^3
#
#
#
# Elastic Constant Matrix: (Units=GPa)
#
#
# Indices 1 2 3 4 5 6 
#
# 1 83.2289 25.9772 10.0948 0.0000 -6.8841 0.0000
# 2 25.9772 56.3601 18.5378 0.0000 -8.2751 0.0000
# 3 10.0948 18.5378 81.6113 0.0000 0.2080 0.0000
# 4 0.0000 0.0000 0.0000 19.5151 0.0000 -11.9777
# 5 -6.8841 -8.2751 0.2080 0.0000 36.8393 0.0000
# 6 0.0000 0.0000 0.0000 -11.9777 0.0000 45.8243
#
#
#
# Elastic Compliance Matrix: (Units=1/GPa)
#
#
# Indices 1 2 3 4 5 6 
#
# 1 0.014095 -0.006203 -0.000338 0.000000 0.001242 0.000000
# 2 -0.006203 0.022623 -0.004382 0.000000 0.003947 0.000000
# 3 -0.000338 -0.004382 0.013293 0.000000 -0.001122 0.000000
# 4 0.000000 0.000000 0.000000 0.061034 0.000000 0.015953
# 5 0.001242 0.003947 -0.001122 0.000000 0.028270 0.000000
# 6 0.000000 0.000000 0.000000 0.015953 0.000000 0.025992
#
#
# Mechanical properties :
#
#
# Convention : Reuss Voigt Hill
#
# Bulk Modulus (GPa) = 35.50327 36.71333 36.10830
# Shear Modulus (GPa) = 25.44008 31.54177 28.49093
#
# Velocity S-wave (km/s) = 3.59181 3.99942 3.80108
# Velocity P-wave (km/s) = 5.93344 6.32021 6.12987
#
# Compressibility (1/GPa) = 0.02816642
#
# Stress axis : x y z
#
# Youngs Moduli (GPa) = 70.94785 44.20314 75.22712
#
# Poissons Ratio (x) = 0.27420 0.02540
# Poissons Ratio (y) = 0.44009 0.32961
# Poissons Ratio (z) = 0.02395 0.19368
#
# Static dielectric constant tensor:
#      x y z
#    x 1.715330 0.000000 -0.003480 
#    y 0.000000 1.735910 0.000000 
#    z -0.003480 0.000000 1.672690 
# 
# From -- ./inp_files/79084.got.cif
#   From: 2010.05.17/outbox.cif.g08.bks.cpg/sg12_40_cif.got.tgz:79084.got - 2010.06.03 13:09:07.
