data_PCOD9203320
_publ_section_title
;
Structure prediction by ZEFSAII (Michael W. Deem and Ramdas Pophale) SiO2 
 PCOD9203320
Probable space group: C 2/M
;
_chemical_formula_sum "Si O2"
_cell_formula_units_Z 40
_cell_length_a 26.603020
_cell_length_b 12.911633
_cell_length_c 9.912753
_cell_angle_alpha 90.000000
_cell_angle_beta 29.806576
_cell_angle_gamma 90.000000
_cell_volume 1692.493683
_symmetry_space_group_name_H-M "C 2/M"
_symmetry_group_IT_number 12
_symmetry_cell_setting 'monoclinic'
loop_
_space_group_symop_operation_xyz
x,y,z
-x,y,-z
-x,-y,-z
x,-y,z
1/2+x,1/2+y,z
1/2-x,1/2+y,-z
1/2-x,1/2-y,-z
1/2+x,1/2-y,z
loop_
_atom_site_type_symbol
_atom_site_label
_atom_site_fract_x
_atom_site_fract_y
_atom_site_fract_z
Si Si1 0.253024 0.881173 0.125815
Si Si2 0.091410 0.172521 0.883552
Si Si3 0.543390 0.772539 0.253806
Si Si4 0.185311 0.609575 0.605620
Si Si5 0.660776 0.166464 0.363021
O O1 0.173608 0.791400 0.345880
O O2 0.230610 0.000000 0.212024
O O3 0.355192 0.838114 0.957523
O O4 0.274640 0.871242 0.914818
O O5 0.063286 0.176722 0.107106
O O6 0.115779 0.293998 0.803065
O O7 0.200388 0.121224 0.605336
O O8 0.000000 0.138902 0.000000
O O9 0.500000 0.738215 0.500000
O O10 0.456756 0.846746 0.395297
O O11 0.142285 0.500000 0.748781
O O12 0.193733 0.615946 0.424379
#
# Coordination Sequence:
#
# PCOD9203320 Si02
#       5
#     8   8   8   8   8
#     4  10  21  37  63  91 125 168 209 250 306 370
#     4  11  23  44  63  90 127 164 205 259 311 364
#     4  10  21  39  64  90 128 160 200 257 310 361
#     4  11  24  41  65  92 122 164 211 255 311 370
#     4  10  20  39  61  91 130 159 205 262 307 359
#
# _framework density 23.633765
#
# number of rings (size 3 to 8) (size 9 to 14) (size 15 to 20)
#    0.000    1.600    4.000    0.600    0.000    6.000 
#    0.000    1.000    0.000    3.600    0.000    0.000 
#    0.000    0.000    0.000    0.000    0.000    0.000 
#
# Total GULP energy -111866.914500 kJ/mol
# GULP energy per Si atom -5593.345725 kJ/mol
# Density = 2.357997 g / cm^3
# Si number density = 23.633765 Si / 1000 Ang^3
#
#
#
# Elastic Constant Matrix: (Units=GPa)
#
#
# Indices 1 2 3 4 5 6 
#
# 1 122.0583 1.6557 19.9843 0.0000 -8.8884 0.0000
# 2 1.6557 98.2078 -1.3566 0.0000 4.8667 0.0000
# 3 19.9843 -1.3566 49.6590 0.0000 -9.9721 0.0000
# 4 0.0000 0.0000 0.0000 -8.3884 0.0000 4.8915
# 5 -8.8884 4.8667 -9.9721 0.0000 38.4735 0.0000
# 6 0.0000 0.0000 0.0000 4.8915 0.0000 3.6777
#
#
#
# Elastic Compliance Matrix: (Units=1/GPa)
#
#
# Indices 1 2 3 4 5 6 
#
# 1 0.008827 -0.000255 -0.003316 0.000000 0.001212 0.000000
# 2 -0.000255 0.010254 0.000116 0.000000 -0.001326 0.000000
# 3 -0.003316 0.000116 0.022489 0.000000 0.005048 0.000000
# 4 0.000000 0.000000 0.000000 -0.067140 0.000000 0.089299
# 5 0.001212 -0.001326 0.005048 0.000000 0.027748 0.000000
# 6 0.000000 0.000000 0.000000 0.089299 0.000000 0.153137
#
#
# Mechanical properties :
#
#
# Convention : Reuss Voigt Hill
#
# Bulk Modulus (GPa) = 28.85032 34.49910 31.67471
# Shear Modulus (GPa) = 28.77233 23.39534 26.08383
#
# Velocity S-wave (km/s) = 3.49295 3.14970 3.32575
# Velocity P-wave (km/s) = 5.33866 5.27793 5.30838
#
# Compressibility (1/GPa) = 0.03466166
#
# Stress axis : x y z
#
# Youngs Moduli (GPa) = 113.28302 97.52201 44.46678
#
# Poissons Ratio (x) = 0.02484 0.14745
# Poissons Ratio (y) = 0.02885 -0.00518
# Poissons Ratio (z) = 0.37565 -0.01135
#
# Static dielectric constant tensor:
#      x y z
#    x 1.955120 0.000000 0.052380 
#    y 0.000000 1.865480 0.000000 
#    z 0.052380 0.000000 1.905210 
# 
# From -- ./inp_files/188555.got.cif
#   From: 2010.05.17/outbox.cif.g08.bks.cpg/sg12_95_cif.got.tgz:188555.got - 2010.06.03 13:09:07.
