data_PCOD9203975
_publ_section_title
;
Structure prediction by ZEFSAII (Michael W. Deem and Ramdas Pophale) SiO2 
 PCOD9203975
Probable space group: C 2/M
;
_chemical_formula_sum "Si O2"
_cell_formula_units_Z 34
_cell_length_a 10.433603
_cell_length_b 14.633774
_cell_length_c 15.336854
_cell_angle_alpha 90.000000
_cell_angle_beta 136.619281
_cell_angle_gamma 90.000000
_cell_volume 1608.364173
_symmetry_space_group_name_H-M "C 2/M"
_symmetry_group_IT_number 12
_symmetry_cell_setting 'monoclinic'
loop_
_space_group_symop_operation_xyz
x,y,z
-x,y,-z
-x,-y,-z
x,-y,z
1/2+x,1/2+y,z
1/2-x,1/2+y,-z
1/2-x,1/2-y,-z
1/2+x,1/2-y,z
loop_
_atom_site_type_symbol
_atom_site_label
_atom_site_fract_x
_atom_site_fract_y
_atom_site_fract_z
Si Si1 0.255773 0.644179 0.198311
Si Si2 0.032928 0.500000 0.413115
Si Si3 0.000000 0.000000 0.000000
Si Si4 0.659808 0.102502 0.956051
Si Si5 0.229380 0.648116 0.802378
Si Si6 0.468727 0.500000 0.587444
O O1 0.250345 0.750127 0.223102
O O2 0.427205 0.588195 0.321405
O O3 0.060617 0.601055 0.133861
O O4 0.252784 0.631123 0.092134
O O5 0.251370 0.500000 0.501298
O O6 0.000000 0.500000 0.500000
O O7 0.935285 0.588980 0.321984
O O8 0.092571 0.918129 0.109189
O O9 0.689891 0.161856 0.885982
O O10 0.727148 0.000000 0.960743
O O11 0.500000 0.500000 0.500000
#
# Coordination Sequence:
#
# PCOD9203975 Si02
#       6
#     8   4   2   8   8   4
#     4  11  23  38  68 101 123 167 222 273 326 396
#     4  11  27  44  61  88 136 182 219 275 323 386
#     4  10  20  40  62  92 124 164 198 248 342 396
#     4  11  19  41  66  97 132 159 202 280 340 390
#     4  11  24  41  65  94 133 169 213 269 335 399
#     4  12  25  44  69  90 127 186 233 271 321 381
#
# _framework density 21.139489999999999
#
# number of rings (size 3 to 8) (size 9 to 14) (size 15 to 20)
#    0.000    0.941    4.706    4.235    0.000    7.529 
#    0.000    0.000    0.000    0.000    0.000    0.000 
#    0.000    0.000    0.000    0.000    0.000    0.000 
#
# Total GULP energy -94839.940212 kJ/mol
# GULP energy per Si atom -5578.820012 kJ/mol
# Density = 2.109138 g / cm^3
# Si number density = 21.139490 Si / 1000 Ang^3
#
#
#
# Elastic Constant Matrix: (Units=GPa)
#
#
# Indices 1 2 3 4 5 6 
#
# 1 76.5977 9.8054 49.5225 0.0000 1.4228 0.0000
# 2 9.8054 187.5878 58.8150 0.0000 27.9339 0.0000
# 3 49.5225 58.8150 150.5738 0.0000 24.8898 0.0000
# 4 0.0000 0.0000 0.0000 -3.6558 0.0000 -13.7589
# 5 1.4228 27.9339 24.8898 0.0000 40.7012 0.0000
# 6 0.0000 0.0000 0.0000 -13.7589 0.0000 19.2405
#
#
#
# Elastic Compliance Matrix: (Units=1/GPa)
#
#
# Indices 1 2 3 4 5 6 
#
# 1 0.017002 0.000675 -0.006320 0.000000 0.002807 0.000000
# 2 0.000675 0.006456 -0.002233 0.000000 -0.003089 0.000000
# 3 -0.006320 -0.002233 0.010348 0.000000 -0.004575 0.000000
# 4 0.000000 0.000000 0.000000 -0.074103 0.000000 -0.052991
# 5 0.002807 -0.003089 -0.004575 0.000000 0.029389 0.000000
# 6 0.000000 0.000000 0.000000 -0.052991 0.000000 0.014080
#
#
# Mechanical properties :
#
#
# Convention : Reuss Voigt Hill
#
# Bulk Modulus (GPa) = 55.39999 72.33836 63.86918
# Shear Modulus (GPa) = 200.44810 31.03162 115.73986
#
# Velocity S-wave (km/s) = 9.74820 3.83553 7.40739
# Velocity P-wave (km/s) = 12.36799 7.34227 10.17045
#
# Compressibility (1/GPa) = 0.01805054
#
# Stress axis : x y z
#
# Youngs Moduli (GPa) = 58.81509 154.90407 96.63625
#
# Poissons Ratio (x) = -0.10450 0.61069
# Poissons Ratio (y) = -0.03968 0.21578
# Poissons Ratio (z) = 0.37168 0.34589
#
# Static dielectric constant tensor:
#      x y z
#    x 1.562370 0.000000 -0.064520 
#    y 0.000000 1.821800 0.000000 
#    z -0.064520 0.000000 1.686850 
# 
# From -- ./inp_files/204143.got.cif
#   From: 2010.05.17/outbox.cif.g08.bks.cpg/sg12_103_cif.got.tgz:204143.got - 2010.06.03 13:09:07.
