data_PCOD9203231
_publ_section_title
;
Structure prediction by ZEFSAII (Michael W. Deem and Ramdas Pophale) SiO2 
 PCOD9203231
Probable space group: C 2/M
;
_chemical_formula_sum "Si O2"
_cell_formula_units_Z 56
_cell_length_a 19.902015
_cell_length_b 9.227475
_cell_length_c 18.874830
_cell_angle_alpha 90.000000
_cell_angle_beta 115.053930
_cell_angle_gamma 90.000000
_cell_volume 3140.131490
_symmetry_space_group_name_H-M "C 2/M"
_symmetry_group_IT_number 12
_symmetry_cell_setting 'monoclinic'
loop_
_space_group_symop_operation_xyz
x,y,z
-x,y,-z
-x,-y,-z
x,-y,z
1/2+x,1/2+y,z
1/2-x,1/2+y,-z
1/2-x,1/2-y,-z
1/2+x,1/2-y,z
loop_
_atom_site_type_symbol
_atom_site_label
_atom_site_fract_x
_atom_site_fract_y
_atom_site_fract_z
Si Si1 0.549562 0.173708 0.862472
Si Si2 0.599079 0.826342 0.726359
Si Si3 0.480726 0.327866 0.574018
Si Si4 0.188246 0.173824 0.519085
Si Si5 0.224559 0.826289 0.696596
Si Si6 0.881969 0.673007 0.827464
Si Si7 0.912492 0.165949 0.981531
O O1 0.581345 0.211503 0.799884
O O2 0.461785 0.212227 0.829383
O O3 0.591254 0.252259 0.945468
O O4 0.554904 0.000000 0.874243
O O5 0.533794 0.763278 0.647931
O O6 0.674361 0.755584 0.731122
O O7 0.601978 0.000000 0.721836
O O8 0.500000 0.304720 0.500000
O O9 0.491283 0.500000 0.592579
O O10 0.394354 0.290359 0.543962
O O11 0.250000 0.250000 0.500000
O O12 0.198157 0.214312 0.605999
O O13 0.196609 0.000000 0.518941
O O14 0.311274 0.793823 0.747268
O O15 0.214118 0.000000 0.699554
O O16 0.883333 0.500000 0.840070
O O17 0.874185 0.752142 0.899332
O O18 0.887787 0.000000 0.976009
O O19 0.000000 0.166491 0.000000
#
# Coordination Sequence:
#
# PCOD9203231 Si02
#       7
#     8   8   8   8   8   8   8
#     4   9  19  35  55  81 109 140 181 223 266 322
#     4  11  23  36  56  84 112 142 182 234 274 313
#     4  10  20  39  60  77 106 149 188 220 267 329
#     4  10  22  38  58  82 110 144 182 228 272 321
#     4  10  21  39  58  77 110 151 184 218 272 334
#     4   9  18  34  58  80 104 144 183 219 267 324
#     4   9  17  31  53  82 112 139 172 221 273 319
#
# _framework density 17.833648
#
# number of rings (size 3 to 8) (size 9 to 14) (size 15 to 20)
#    0.000    2.286    1.429    0.857    2.000    4.857 
#    0.000    0.714    0.000    0.000    0.000    0.000 
#    0.000    0.000    0.000    0.000    0.000    0.000 
#
# Total GULP energy -156246.788530 kJ/mol
# GULP energy per Si atom -5580.242447 kJ/mol
# Density = 1.779306 g / cm^3
# Si number density = 17.833648 Si / 1000 Ang^3
#
#
#
# Elastic Constant Matrix: (Units=GPa)
#
#
# Indices 1 2 3 4 5 6 
#
# 1 74.3738 18.7959 3.1142 0.0000 -16.9386 0.0000
# 2 18.7959 18.6366 11.3177 0.0000 -10.1508 0.0000
# 3 3.1142 11.3177 38.0374 0.0000 -15.2759 0.0000
# 4 0.0000 0.0000 0.0000 19.9134 0.0000 -4.4549
# 5 -16.9386 -10.1508 -15.2759 0.0000 30.1848 0.0000
# 6 0.0000 0.0000 0.0000 -4.4549 0.0000 29.9104
#
#
#
# Elastic Compliance Matrix: (Units=1/GPa)
#
#
# Indices 1 2 3 4 5 6 
#
# 1 0.020236 -0.020598 0.007845 0.000000 0.008399 0.000000
# 2 -0.020598 0.092587 -0.022591 0.000000 0.008144 0.000000
# 3 0.007845 -0.022591 0.039016 0.000000 0.016550 0.000000
# 4 0.000000 0.000000 0.000000 0.051948 0.000000 0.007737
# 5 0.008399 0.008144 0.016550 0.000000 0.048957 0.000000
# 6 0.000000 0.000000 0.000000 0.007737 0.000000 0.034586
#
#
# Mechanical properties :
#
#
# Convention : Reuss Voigt Hill
#
# Bulk Modulus (GPa) = 12.32289 21.94483 17.13386
# Shear Modulus (GPa) = 12.98469 22.52304 17.75386
#
# Velocity S-wave (km/s) = 2.70126 3.55766 3.15862
# Velocity P-wave (km/s) = 4.08093 5.40444 4.78863
#
# Compressibility (1/GPa) = 0.08114982
#
# Stress axis : x y z
#
# Youngs Moduli (GPa) = 49.41805 10.80063 25.63039
#
# Poissons Ratio (x) = 0.22247 -0.20107
# Poissons Ratio (y) = 1.01792 0.57903
# Poissons Ratio (z) = -0.38769 0.24400
#
# Static dielectric constant tensor:
#      x y z
#    x 1.601190 0.000000 0.008800 
#    y 0.000000 1.595770 0.000000 
#    z 0.008800 0.000000 1.586380 
# 
# From -- ./inp_files/281655.got.cif
#   From: 2010.05.17/outbox.cif.g08.bks.cpg/sg12_141_cif.got.tgz:281655.got - 2010.06.03 13:09:07.
