data_PCOD9203210
_publ_section_title
;
Structure prediction by ZEFSAII (Michael W. Deem and Ramdas Pophale) SiO2 
 PCOD9203210
Probable space group: C 2/M
;
_chemical_formula_sum "Si O2"
_cell_formula_units_Z 52
_cell_length_a 32.617927
_cell_length_b 15.022848
_cell_length_c 9.133403
_cell_angle_alpha 90.000000
_cell_angle_beta 142.953006
_cell_angle_gamma 90.000000
_cell_volume 2696.351933
_symmetry_space_group_name_H-M "C 2/M"
_symmetry_group_IT_number 12
_symmetry_cell_setting 'monoclinic'
loop_
_space_group_symop_operation_xyz
x,y,z
-x,y,-z
-x,-y,-z
x,-y,z
1/2+x,1/2+y,z
1/2-x,1/2+y,-z
1/2-x,1/2-y,-z
1/2+x,1/2-y,z
loop_
_atom_site_type_symbol
_atom_site_label
_atom_site_fract_x
_atom_site_fract_y
_atom_site_fract_z
Si Si1 0.246830 0.598878 0.385909
Si Si2 0.358369 0.286229 0.550409
Si Si3 0.991363 0.396647 0.700782
Si Si4 0.187288 0.808894 0.887326
Si Si5 0.613343 0.151912 0.832584
Si Si6 0.209159 0.400380 0.620523
Si Si7 0.500000 0.768363 0.000000
O O1 0.275505 0.500000 0.446353
O O2 0.300766 0.671409 0.487911
O O3 0.227551 0.608247 0.501271
O O4 0.179505 0.607981 0.094079
O O5 0.353072 0.331610 0.375528
O O6 0.340915 0.180957 0.487502
O O7 0.433107 0.290737 0.828436
O O8 0.006455 0.500000 0.776844
O O9 0.921303 0.391956 0.408733
O O10 0.052765 0.357022 0.777062
O O11 0.988573 0.333130 0.830827
O O12 0.139939 0.748335 0.856005
O O13 0.250000 0.750000 0.000000
O O14 0.224484 0.883610 0.089242
O O15 0.181811 0.500000 0.567257
#
# Coordination Sequence:
#
# PCOD9203210 Si02
#       7
#     8   8   8   8   8   8   4
#     4  11  22  38  65  92 117 158 205 255 307 357
#     4  11  23  41  58  90 121 162 205 250 304 365
#     4  11  24  38  57  91 127 162 200 242 305 374
#     4  10  20  39  58  87 120 155 205 242 300 352
#     4  11  20  39  61  87 124 162 195 241 294 374
#     4  10  22  38  62  94 123 151 198 257 309 363
#     4  12  25  40  59  84 122 168 202 254 306 354
#
# _framework density 19.285316999999999
#
# number of rings (size 3 to 8) (size 9 to 14) (size 15 to 20)
#    0.000    1.231    4.615    3.462    2.154    3.077 
#    0.000    0.385    0.000    0.000    0.000    4.308 
#    0.000    0.000    0.000    0.000    0.000    0.000 
#
# Total GULP energy -145126.143385 kJ/mol
# GULP energy per Si atom -5581.774746 kJ/mol
# Density = 1.924142 g / cm^3
# Si number density = 19.285317 Si / 1000 Ang^3
#
#
#
# Elastic Constant Matrix: (Units=GPa)
#
#
# Indices 1 2 3 4 5 6 
#
# 1 50.5024 12.3496 40.3153 0.0000 1.7434 0.0000
# 2 12.3496 35.2003 25.7755 0.0000 10.3728 0.0000
# 3 40.3153 25.7755 123.1640 0.0000 5.2704 0.0000
# 4 0.0000 0.0000 0.0000 20.5338 0.0000 -0.2044
# 5 1.7434 10.3728 5.2704 0.0000 35.7903 0.0000
# 6 0.0000 0.0000 0.0000 -0.2044 0.0000 -40.2276
#
#
#
# Elastic Compliance Matrix: (Units=1/GPa)
#
#
# Indices 1 2 3 4 5 6 
#
# 1 0.027212 -0.003882 -0.008138 0.000000 0.000998 0.000000
# 2 -0.003882 0.037064 -0.006072 0.000000 -0.009658 0.000000
# 3 -0.008138 -0.006072 0.012037 0.000000 0.000384 0.000000
# 4 0.000000 0.000000 0.000000 0.048698 0.000000 -0.000247
# 5 0.000998 -0.009658 0.000384 0.000000 0.030635 0.000000
# 6 0.000000 0.000000 0.000000 -0.000247 0.000000 -0.024857
#
#
# Mechanical properties :
#
#
# Convention : Reuss Voigt Hill
#
# Bulk Modulus (GPa) = 24.92007 40.63862 32.77935
# Shear Modulus (GPa) = 27.72404 11.91440 19.81922
#
# Velocity S-wave (km/s) = 3.79565 2.48825 3.20923
# Velocity P-wave (km/s) = 5.67090 5.41971 5.54672
#
# Compressibility (1/GPa) = 0.04012829
#
# Stress axis : x y z
#
# Youngs Moduli (GPa) = 36.74848 26.98058 83.07484
#
# Poissons Ratio (x) = 0.10475 0.67602
# Poissons Ratio (y) = 0.14267 0.50447
# Poissons Ratio (z) = 0.29904 0.16384
#
# Static dielectric constant tensor:
#      x y z
#    x 1.670230 0.000000 -0.020230 
#    y 0.000000 1.660630 0.000000 
#    z -0.020230 0.000000 1.715790 
# 
# From -- ./inp_files/112087.got.cif
#   From: 2010.05.17/outbox.cif.g08.bks.cpg/sg12_57_cif.got.tgz:112087.got - 2010.06.03 13:09:07.
