data_PCOD9203393
_publ_section_title
;
Structure prediction by ZEFSAII (Michael W. Deem and Ramdas Pophale) SiO2 
 PCOD9203393
Probable space group: C 2/M
;
_chemical_formula_sum "Si O2"
_cell_formula_units_Z 64
_cell_length_a 28.127099
_cell_length_b 13.783068
_cell_length_c 7.849965
_cell_angle_alpha 90.000000
_cell_angle_beta 82.296649
_cell_angle_gamma 90.000000
_cell_volume 3015.792230
_symmetry_space_group_name_H-M "C 2/M"
_symmetry_group_IT_number 12
_symmetry_cell_setting 'monoclinic'
loop_
_space_group_symop_operation_xyz
x,y,z
-x,y,-z
-x,-y,-z
x,-y,z
1/2+x,1/2+y,z
1/2-x,1/2+y,-z
1/2-x,1/2-y,-z
1/2+x,1/2-y,z
loop_
_atom_site_type_symbol
_atom_site_label
_atom_site_fract_x
_atom_site_fract_y
_atom_site_fract_z
Si Si1 0.886369 0.111958 0.372495
Si Si2 0.555657 0.893680 0.910537
Si Si3 0.065786 0.750411 0.189908
Si Si4 0.534559 0.767512 0.634568
Si Si5 0.357247 0.885595 0.697615
Si Si6 0.694988 0.227189 0.575980
Si Si7 0.802654 0.284373 0.027134
Si Si8 0.127224 0.893863 0.019010
O O1 0.930433 0.178165 0.417090
O O2 0.837906 0.175081 0.423204
O O3 0.892621 0.107202 0.164043
O O4 0.884216 0.000000 0.434208
O O5 0.559180 0.857570 0.715929
O O6 0.577003 0.000000 0.927007
O O7 0.500000 0.901148 0.000000
O O8 0.577800 0.808356 0.011034
O O9 0.094105 0.679986 0.308102
O O10 0.008876 0.763705 0.219676
O O11 0.088242 0.856010 0.170560
O O12 0.500000 0.799683 0.500000
O O13 0.328179 0.847995 0.546776
O O14 0.367751 0.000000 0.686027
O O15 0.324772 0.859914 0.880233
O O16 0.750000 0.250000 0.500000
O O17 0.693770 0.190851 0.773344
O O18 0.832517 0.186152 0.990045
O O19 0.750000 0.250000 0.000000
O O20 0.145332 0.000000 0.049407
#
# Coordination Sequence:
#
# PCOD9203393 Si02
#       8
#     8   8   8   8   8   8   8   8
#     4  10  22  41  64  95 129 167 212 267 332 391
#     4   9  18  34  57  82 112 161 213 256 310 369
#     4  10  20  39  62  88 128 168 217 267 314 386
#     4  11  22  37  58  88 127 167 210 266 322 383
#     4  11  24  42  67  98 134 177 223 274 330 396
#     4  11  23  44  70  96 135 173 220 276 334 394
#     4  10  21  41  66  97 135 169 214 277 331 393
#     4   9  19  36  63  93 123 164 213 263 320 384
#
# _framework density 21.221622
#
# number of rings (size 3 to 8) (size 9 to 14) (size 15 to 20)
#    0.000    1.875    2.500    1.125    0.000    3.000 
#    0.000    8.125    0.000    0.000    0.000    0.000 
#    0.000    0.000    0.000    0.000    0.000    0.000 
#
# Total GULP energy -178437.557896 kJ/mol
# GULP energy per Si atom -5576.173684 kJ/mol
# Density = 2.117332 g / cm^3
# Si number density = 21.221622 Si / 1000 Ang^3
#
#
#
# Elastic Constant Matrix: (Units=GPa)
#
#
# Indices 1 2 3 4 5 6 
#
# 1 101.2955 20.9869 19.8377 0.0000 -2.9187 0.0000
# 2 20.9869 96.7424 48.1194 0.0000 -5.2990 0.0000
# 3 19.8377 48.1194 88.9488 0.0000 7.8786 0.0000
# 4 0.0000 0.0000 0.0000 22.7015 0.0000 0.8344
# 5 -2.9187 -5.2990 7.8786 0.0000 31.4015 0.0000
# 6 0.0000 0.0000 0.0000 0.8344 0.0000 9.4796
#
#
#
# Elastic Compliance Matrix: (Units=1/GPa)
#
#
# Indices 1 2 3 4 5 6 
#
# 1 0.010525 -0.001367 -0.001712 0.000000 0.001177 0.000000
# 2 -0.001367 0.014941 -0.008172 0.000000 0.004445 0.000000
# 3 -0.001712 -0.008172 0.016549 0.000000 -0.005690 0.000000
# 4 0.000000 0.000000 0.000000 0.044193 0.000000 -0.003890
# 5 0.001177 0.004445 -0.005690 0.000000 0.034133 0.000000
# 6 0.000000 0.000000 0.000000 -0.003890 0.000000 0.105833
#
#
# Mechanical properties :
#
#
# Convention : Reuss Voigt Hill
#
# Bulk Modulus (GPa) = 51.24712 51.65276 51.44994
# Shear Modulus (GPa) = 19.59409 25.91935 22.75672
#
# Velocity S-wave (km/s) = 3.04189 3.49860 3.27821
# Velocity P-wave (km/s) = 6.04471 6.38065 6.21495
#
# Compressibility (1/GPa) = 0.01951329
#
# Stress axis : x y z
#
# Youngs Moduli (GPa) = 95.01606 66.92831 60.42685
#
# Poissons Ratio (x) = 0.09151 0.10344
# Poissons Ratio (y) = 0.12991 0.49379
# Poissons Ratio (z) = 0.16265 0.54692
#
# Static dielectric constant tensor:
#      x y z
#    x 1.802760 0.000000 -0.049000 
#    y 0.000000 1.734910 0.000000 
#    z -0.049000 0.000000 1.963450 
# 
# From -- ./inp_files/110456.got.cif
#   From: 2010.05.17/outbox.cif.g08.bks.cpg/sg12_56_cif.got.tgz:110456.got - 2010.06.03 13:09:07.
