data_PCOD9203082
_publ_section_title
;
Structure prediction by ZEFSAII (Michael W. Deem and Ramdas Pophale) SiO2 
 PCOD9203082
Probable space group: C 2/M
;
_chemical_formula_sum "Si O2"
_cell_formula_units_Z 56
_cell_length_a 22.415912
_cell_length_b 19.922556
_cell_length_c 18.463670
_cell_angle_alpha 90.000000
_cell_angle_beta 160.386933
_cell_angle_gamma 90.000000
_cell_volume 2767.753322
_symmetry_space_group_name_H-M "C 2/M"
_symmetry_group_IT_number 12
_symmetry_cell_setting 'monoclinic'
loop_
_space_group_symop_operation_xyz
x,y,z
-x,y,-z
-x,-y,-z
x,-y,z
1/2+x,1/2+y,z
1/2-x,1/2+y,-z
1/2-x,1/2-y,-z
1/2+x,1/2-y,z
loop_
_atom_site_type_symbol
_atom_site_label
_atom_site_fract_x
_atom_site_fract_y
_atom_site_fract_z
Si Si1 0.743127 0.335147 0.400588
Si Si2 0.047530 0.923937 0.701600
Si Si3 0.044226 0.649223 0.634037
Si Si4 0.647737 0.928496 0.230187
Si Si5 0.285316 0.721248 0.121506
Si Si6 0.406332 0.797666 0.744149
Si Si7 0.423234 0.421866 0.092983
O O1 0.689136 0.259288 0.317294
O O2 0.823413 0.317185 0.571449
O O3 0.570859 0.381245 0.216526
O O4 0.885527 0.367083 0.508907
O O5 0.159504 0.856958 0.813037
O O6 0.021115 0.919593 0.758540
O O7 0.853482 0.919309 0.442521
O O8 0.119423 0.000000 0.768708
O O9 0.076359 0.728554 0.683704
O O10 0.000000 0.635378 0.500000
O O11 0.228435 0.611608 0.864031
O O12 0.593330 0.866793 0.215193
O O13 0.646131 0.000000 0.268692
O O14 0.500000 0.931938 0.000000
O O15 0.250000 0.750000 0.000000
O O16 0.100667 0.729547 0.951012
O O17 0.415526 0.500000 0.062658
#
# Coordination Sequence:
#
# PCOD9203082 Si02
#       7
#     8   8   8   8   8   8   8
#     4  11  22  41  68  99 127 170 226 275 329 392
#     4  10  20  38  66  95 132 177 221 269 328 401
#     4  12  27  44  66 100 138 175 221 279 338 395
#     4  10  22  39  60  95 137 173 214 270 329 388
#     4  12  21  40  65  95 134 170 220 277 330 390
#     4  11  21  36  68  96 127 172 222 274 322 390
#     4  11  23  44  70  98 129 171 226 275 333 401
#
# _framework density 20.233017
#
# number of rings (size 3 to 8) (size 9 to 14) (size 15 to 20)
#    0.000    1.000    5.714    0.857    0.000    4.286 
#    0.000    0.714    0.000    3.000    0.000    0.000 
#    0.000    0.000    0.000    0.000    0.000    0.000 
#
# Total GULP energy -156197.659235 kJ/mol
# GULP energy per Si atom -5578.487830 kJ/mol
# Density = 2.018697 g / cm^3
# Si number density = 20.233017 Si / 1000 Ang^3
#
#
#
# Elastic Constant Matrix: (Units=GPa)
#
#
# Indices 1 2 3 4 5 6 
#
# 1 46.4842 32.4600 41.6338 -0.0001 21.6643 0.0000
# 2 32.4600 124.1990 42.7750 0.0000 13.6741 0.0001
# 3 41.6338 42.7750 111.7096 -0.0003 17.5323 -0.0004
# 4 -0.0001 0.0000 -0.0003 28.2778 -0.0002 -0.4813
# 5 21.6643 13.6741 17.5323 -0.0002 34.6294 -0.0001
# 6 0.0000 0.0001 -0.0004 -0.4813 -0.0001 28.4871
#
#
#
# Elastic Compliance Matrix: (Units=1/GPa)
#
#
# Indices 1 2 3 4 5 6 
#
# 1 0.045160 -0.005614 -0.011510 0.000000 -0.020208 0.000000
# 2 -0.005614 0.010105 -0.001849 0.000000 0.000458 0.000000
# 3 -0.011510 -0.001849 0.013801 0.000000 0.000943 0.000000
# 4 0.000000 0.000000 0.000000 0.035374 0.000000 0.000598
# 5 -0.020208 0.000458 0.000943 0.000000 0.040861 0.000000
# 6 0.000000 0.000000 0.000000 0.000598 0.000000 0.035114
#
#
# Mechanical properties :
#
#
# Convention : Reuss Voigt Hill
#
# Bulk Modulus (GPa) = 32.13246 57.34783 44.74015
# Shear Modulus (GPa) = 21.85951 29.31379 25.58665
#
# Velocity S-wave (km/s) = 3.29049 3.81045 3.55998
# Velocity P-wave (km/s) = 5.50928 6.91120 6.24967
#
# Compressibility (1/GPa) = 0.03112118
#
# Stress axis : x y z
#
# Youngs Moduli (GPa) = 22.14368 98.95899 72.45653
#
# Poissons Ratio (x) = 0.55554 0.83395
# Poissons Ratio (y) = 0.12431 0.13397
# Poissons Ratio (z) = 0.25487 0.18298
#
# Static dielectric constant tensor:
#      x y z
#    x 1.683780 0.000000 -0.034120 
#    y 0.000000 1.722960 0.000000 
#    z -0.034120 0.000000 1.740510 
# 
# From -- ./inp_files/285994.got.cif
#   From: 2010.05.17/outbox.cif.g08.bks.cpg/sg12_143_cif.got.tgz:285994.got - 2010.06.03 13:09:07.
