data_PCOD9203209
_publ_section_title
;
Structure prediction by ZEFSAII (Michael W. Deem and Ramdas Pophale) SiO2 
 PCOD9203209
Probable space group: C 2/M
;
_chemical_formula_sum "Si O2"
_cell_formula_units_Z 48
_cell_length_a 25.632019
_cell_length_b 15.122968
_cell_length_c 9.399434
_cell_angle_alpha 90.000000
_cell_angle_beta 40.665821
_cell_angle_gamma 90.000000
_cell_volume 2374.287512
_symmetry_space_group_name_H-M "C 2/M"
_symmetry_group_IT_number 12
_symmetry_cell_setting 'monoclinic'
loop_
_space_group_symop_operation_xyz
x,y,z
-x,y,-z
-x,-y,-z
x,-y,z
1/2+x,1/2+y,z
1/2-x,1/2+y,-z
1/2-x,1/2-y,-z
1/2+x,1/2-y,z
loop_
_atom_site_type_symbol
_atom_site_label
_atom_site_fract_x
_atom_site_fract_y
_atom_site_fract_z
Si Si1 0.554571 0.231297 0.139442
Si Si2 0.586646 0.596462 0.892474
Si Si3 0.803600 0.669066 0.948020
Si Si4 0.122630 0.674361 0.486738
Si Si5 0.874941 0.601836 0.218999
Si Si6 0.715663 0.653861 0.398609
O O1 0.619120 0.204293 0.124729
O O2 0.461549 0.223539 0.376321
O O3 0.583013 0.324310 0.013255
O O4 0.562067 0.159590 0.997869
O O5 0.603011 0.500000 0.923888
O O6 0.647085 0.610277 0.635823
O O7 0.500000 0.596616 0.000000
O O8 0.839433 0.628317 0.729980
O O9 0.750000 0.750000 0.000000
O O10 0.749366 0.617867 0.176792
O O11 0.113000 0.609179 0.638480
O O12 0.181918 0.750278 0.425362
O O13 0.874439 0.500000 0.174941
O O14 0.791958 0.647971 0.343490
#
# Coordination Sequence:
#
# PCOD9203209 Si02
#       6
#     8   8   8   8   8   8
#     4  11  21  39  63  88 125 158 200 254 302 361
#     4  11  21  35  61  94 121 156 203 254 305 356
#     4   9  22  36  62  86 117 163 200 242 306 364
#     4  11  20  38  61  91 118 162 201 247 303 361
#     4  11  23  37  62  93 123 159 201 251 304 355
#     4  10  20  39  58  86 120 154 199 249 296 355
#
# _framework density 20.21659
#
# number of rings (size 3 to 8) (size 9 to 14) (size 15 to 20)
#    0.000    1.500    3.333    2.000    4.667    1.333 
#    0.000    4.167    0.000   20.000    0.000    0.000 
#    0.000    0.000    0.000    0.000    0.000    0.000 
#
# Total GULP energy -133741.111676 kJ/mol
# GULP energy per Si atom -5572.546320 kJ/mol
# Density = 2.017058 g / cm^3
# Si number density = 20.216590 Si / 1000 Ang^3
#
#
#
# Elastic Constant Matrix: (Units=GPa)
#
#
# Indices 1 2 3 4 5 6 
#
# 1 68.1230 0.6402 23.1765 0.0000 6.1828 0.0000
# 2 0.6402 58.0580 3.3777 0.0000 -4.6923 0.0000
# 3 23.1765 3.3777 129.8268 0.0000 -1.0053 0.0000
# 4 0.0000 0.0000 0.0000 41.1509 0.0000 -65.5654
# 5 6.1828 -4.6923 -1.0053 0.0000 30.4163 0.0000
# 6 0.0000 0.0000 0.0000 -65.5654 0.0000 70.2569
#
#
#
# Elastic Compliance Matrix: (Units=1/GPa)
#
#
# Indices 1 2 3 4 5 6 
#
# 1 0.015965 -0.000283 -0.002869 0.000000 -0.003384 0.000000
# 2 -0.000283 0.017471 -0.000383 0.000000 0.002740 0.000000
# 3 -0.002869 -0.000383 0.008231 0.000000 0.000796 0.000000
# 4 0.000000 0.000000 0.000000 -0.049910 0.000000 -0.046577
# 5 -0.003384 0.002740 0.000796 0.000000 0.034014 0.000000
# 6 0.000000 0.000000 0.000000 -0.046577 0.000000 -0.029233
#
#
# Mechanical properties :
#
#
# Convention : Reuss Voigt Hill
#
# Bulk Modulus (GPa) = 28.90327 34.48851 31.69589
# Shear Modulus (GPa) = 330.25857 43.61904 186.93881
#
# Velocity S-wave (km/s) = 12.79511 4.65002 9.62646
# Velocity P-wave (km/s) = 15.25170 6.77693 11.80129
#
# Compressibility (1/GPa) = 0.03459816
#
# Stress axis : x y z
#
# Youngs Moduli (GPa) = 62.63644 57.23775 121.49406
#
# Poissons Ratio (x) = 0.01618 0.34856
# Poissons Ratio (y) = 0.01770 0.04652
# Poissons Ratio (z) = 0.17970 0.02191
#
# Static dielectric constant tensor:
#      x y z
#    x 1.719110 0.000000 -0.022910 
#    y 0.000000 1.729220 0.000000 
#    z -0.022910 0.000000 1.809830 
# 
# From -- ./inp_files/104943.got.cif
#   From: 2010.05.17/outbox.cif.g08.bks.cpg/sg12_53_cif.got.tgz:104943.got - 2010.06.03 13:09:07.
