data_PCOD9203609
_publ_section_title
;
Structure prediction by ZEFSAII (Michael W. Deem and Ramdas Pophale) SiO2 
 PCOD9203609
Probable space group: C 2/M
;
_chemical_formula_sum "Si O2"
_cell_formula_units_Z 42
_cell_length_a 10.139103
_cell_length_b 27.864919
_cell_length_c 8.878293
_cell_angle_alpha 90.000000
_cell_angle_beta 121.949417
_cell_angle_gamma 90.000000
_cell_volume 2128.367528
_symmetry_space_group_name_H-M "C 2/M"
_symmetry_group_IT_number 12
_symmetry_cell_setting 'monoclinic'
loop_
_space_group_symop_operation_xyz
x,y,z
-x,y,-z
-x,-y,-z
x,-y,z
1/2+x,1/2+y,z
1/2-x,1/2+y,-z
1/2-x,1/2-y,-z
1/2+x,1/2-y,z
loop_
_atom_site_type_symbol
_atom_site_label
_atom_site_fract_x
_atom_site_fract_y
_atom_site_fract_z
Si Si1 0.650839 0.794782 0.996242
Si Si2 0.694252 0.056911 0.326357
Si Si3 0.426844 0.123295 0.287618
Si Si4 0.391818 0.364640 0.290682
Si Si5 0.000000 0.000000 0.000000
Si Si6 0.629374 0.584645 0.260106
O O1 0.763280 0.826131 0.171199
O O2 0.500000 0.780004 0.000000
O O3 0.750000 0.750000 0.000000
O O4 0.595910 0.829155 0.825329
O O5 0.533400 0.085614 0.258774
O O6 0.798429 0.085877 0.269090
O O7 0.784781 0.066101 0.537648
O O8 0.675182 0.000000 0.286427
O O9 0.500000 0.131915 0.500000
O O10 0.260764 0.099624 0.221531
O O11 0.500000 0.352961 0.500000
O O12 0.514885 0.372269 0.232159
O O13 0.970677 0.958537 0.858105
#
# Coordination Sequence:
#
# PCOD9203609 Si02
#       6
#     8   8   8   8   2   8
#     4  12  27  48  71 100 129 169 224 287 344 410
#     4  10  20  39  64  94 134 181 220 266 321 388
#     4  10  23  44  67  97 135 175 220 275 335 400
#     4  10  23  44  67  97 135 175 220 275 335 400
#     4  12  20  32  48  94 128 178 228 262 304 372
#     4  10  22  34  61  89 135 172 220 263 315 383
#
# _framework density 19.733433000000002
#
# number of rings (size 3 to 8) (size 9 to 14) (size 15 to 20)
#    0.000    1.524    2.857    1.143    5.333    3.048 
#    0.000    2.857    0.000    0.000    0.000    0.000 
#    0.000    0.000    0.000    0.000    0.000    0.000 
#
# Total GULP energy -116976.958931 kJ/mol
# GULP energy per Si atom -5570.331378 kJ/mol
# Density = 1.968852 g / cm^3
# Si number density = 19.733433 Si / 1000 Ang^3
#
#
#
# Elastic Constant Matrix: (Units=GPa)
#
#
# Indices 1 2 3 4 5 6 
#
# 1 120.5147 51.9378 38.9575 0.0000 13.8838 0.0000
# 2 51.9378 128.9156 44.1852 0.0000 6.9974 0.0000
# 3 38.9575 44.1852 54.8527 0.0000 11.0268 0.0000
# 4 0.0000 0.0000 0.0000 13.7499 0.0000 -13.2586
# 5 13.8838 6.9974 11.0268 0.0000 17.5217 0.0000
# 6 0.0000 0.0000 0.0000 -13.2586 0.0000 -27.1635
#
#
#
# Elastic Compliance Matrix: (Units=1/GPa)
#
#
# Indices 1 2 3 4 5 6 
#
# 1 0.011685 -0.002674 -0.005150 0.000000 -0.004950 0.000000
# 2 -0.002674 0.011354 -0.007741 0.000000 0.002456 0.000000
# 3 -0.005150 -0.007741 0.030546 0.000000 -0.012051 0.000000
# 4 0.000000 0.000000 0.000000 0.049452 0.000000 -0.024138
# 5 -0.004950 0.002456 -0.012051 0.000000 0.067598 0.000000
# 6 0.000000 0.000000 0.000000 -0.024138 0.000000 -0.025032
#
#
# Mechanical properties :
#
#
# Convention : Reuss Voigt Hill
#
# Bulk Modulus (GPa) = 44.53080 63.82709 54.17895
# Shear Modulus (GPa) = 27.14176 12.10178 19.62177
#
# Velocity S-wave (km/s) = 3.71269 2.47910 3.15674
# Velocity P-wave (km/s) = 6.40265 6.37255 6.38762
#
# Compressibility (1/GPa) = 0.02245637
#
# Stress axis : x y z
#
# Youngs Moduli (GPa) = 85.57846 88.07446 32.73733
#
# Poissons Ratio (x) = 0.23550 0.16860
# Poissons Ratio (y) = 0.22883 0.25341
# Poissons Ratio (z) = 0.44073 0.68174
#
# Static dielectric constant tensor:
#      x y z
#    x 1.698380 0.000000 0.004660 
#    y 0.000000 1.623830 0.000000 
#    z 0.004660 0.000000 1.739950 
# 
# From -- ./inp_files/42053.got.cif
#   From: 2010.05.17/outbox.cif.g08.bks.cpg/sg12_22_cif.got.tgz:42053.got - 2010.06.03 13:09:07.
