data_PCOD9203341
_publ_section_title
;
Structure prediction by ZEFSAII (Michael W. Deem and Ramdas Pophale) SiO2 
 PCOD9203341
Probable space group: C 2/M
;
_chemical_formula_sum "Si O2"
_cell_formula_units_Z 60
_cell_length_a 9.658836
_cell_length_b 16.012801
_cell_length_c 20.833113
_cell_angle_alpha 90.000000
_cell_angle_beta 119.268715
_cell_angle_gamma 90.000000
_cell_volume 2810.801922
_symmetry_space_group_name_H-M "C 2/M"
_symmetry_group_IT_number 12
_symmetry_cell_setting 'monoclinic'
loop_
_space_group_symop_operation_xyz
x,y,z
-x,y,-z
-x,-y,-z
x,-y,z
1/2+x,1/2+y,z
1/2-x,1/2+y,-z
1/2-x,1/2-y,-z
1/2+x,1/2-y,z
loop_
_atom_site_type_symbol
_atom_site_label
_atom_site_fract_x
_atom_site_fract_y
_atom_site_fract_z
Si Si1 0.417560 0.128645 0.683896
Si Si2 0.382913 0.681440 0.707781
Si Si3 0.500000 0.252572 0.000000
Si Si4 0.061665 0.599756 0.583453
Si Si5 0.221418 0.906394 0.193818
Si Si6 0.792778 0.904817 0.961967
Si Si7 0.917957 0.403513 0.902545
Si Si8 0.183053 0.910678 0.731573
O O1 0.382902 0.221163 0.699085
O O2 0.438475 0.120152 0.612617
O O3 0.589282 0.101482 0.750730
O O4 0.269046 0.084658 0.682990
O O5 0.228419 0.641047 0.640115
O O6 0.370641 0.655495 0.779748
O O7 0.544147 0.653757 0.710234
O O8 0.616697 0.321659 0.992468
O O9 0.604112 0.184166 0.063973
O O10 0.083108 0.500000 0.587556
O O11 0.000000 0.626962 0.500000
O O12 0.191703 0.897255 0.111753
O O13 0.173920 0.000000 0.202207
O O14 0.606601 0.902713 0.934387
O O15 0.845579 0.000000 0.993391
O O16 0.879608 0.500000 0.918670
O O17 0.820904 0.396554 0.815070
O O18 0.107402 0.000000 0.729492
#
# Coordination Sequence:
#
# PCOD9203341 Si02
#       8
#     8   8   4   8   8   8   8   8
#     4  11  21  36  62  92 120 157 199 246 302 359
#     4  11  23  36  60  96 127 148 199 259 299 344
#     4  12  24  38  62  86 120 158 202 266 310 376
#     4  10  22  43  66  87 122 172 207 232 290 369
#     4  10  20  39  62  84 119 163 204 248 301 368
#     4  10  22  41  62  86 115 158 211 258 309 370
#     4  10  23  41  60  85 120 164 204 251 319 381
#     4  11  21  37  61  89 120 155 201 256 304 355
#
# _framework density 21.346222999999998
#
# number of rings (size 3 to 8) (size 9 to 14) (size 15 to 20)
#    0.000    1.467    1.333    5.600    3.733    0.533 
#    2.400    0.667    0.000    2.400    0.000    0.000 
#    0.000    0.000    0.000    0.000    0.000    0.000 
#
# Total GULP energy -167363.305861 kJ/mol
# GULP energy per Si atom -5578.776862 kJ/mol
# Density = 2.129764 g / cm^3
# Si number density = 21.346223 Si / 1000 Ang^3
#
#
#
# Elastic Constant Matrix: (Units=GPa)
#
#
# Indices 1 2 3 4 5 6 
#
# 1 98.8039 28.9631 17.4103 0.0000 -6.8546 0.0000
# 2 28.9631 162.5679 18.7831 0.0000 -7.3985 0.0000
# 3 17.4103 18.7831 60.0341 0.0000 -24.5609 0.0000
# 4 0.0000 0.0000 0.0000 -1.0041 0.0000 -22.4969
# 5 -6.8546 -7.3985 -24.5609 0.0000 20.9431 0.0000
# 6 0.0000 0.0000 0.0000 -22.4969 0.0000 22.2164
#
#
#
# Elastic Compliance Matrix: (Units=1/GPa)
#
#
# Indices 1 2 3 4 5 6 
#
# 1 0.011084 -0.001663 -0.002788 0.000000 -0.000229 0.000000
# 2 -0.001663 0.006632 -0.001647 0.000000 -0.000133 0.000000
# 3 -0.002788 -0.001647 0.033390 0.000000 0.037663 0.000000
# 4 0.000000 0.000000 0.000000 -0.042043 0.000000 -0.042574
# 5 -0.000229 -0.000133 0.037663 0.000000 0.091796 0.000000
# 6 0.000000 0.000000 0.000000 -0.042574 0.000000 0.001900
#
#
# Mechanical properties :
#
#
# Convention : Reuss Voigt Hill
#
# Bulk Modulus (GPa) = 25.70074 50.19100 37.94587
# Shear Modulus (GPa) = 39.08574 25.51438 32.30006
#
# Velocity S-wave (km/s) = 4.28370 3.46101 3.89414
# Velocity P-wave (km/s) = 6.04425 6.28771 6.16718
#
# Compressibility (1/GPa) = 0.03890939
#
# Stress axis : x y z
#
# Youngs Moduli (GPa) = 90.22085 150.78839 29.94933
#
# Poissons Ratio (x) = 0.25077 0.08350
# Poissons Ratio (y) = 0.15004 0.04933
# Poissons Ratio (z) = 0.25153 0.24836
#
# Static dielectric constant tensor:
#      x y z
#    x 1.780480 0.000000 -0.031940 
#    y 0.000000 1.777700 0.000000 
#    z -0.031940 0.000000 1.770450 
# 
# From -- ./inp_files/332985.got.cif
#   From: 2010.05.17/outbox.cif.g08.bks.cpg/sg12_167_cif.got.tgz:332985.got - 2010.06.03 13:09:07.
