data_PCOD9203065
_publ_section_title
;
Structure prediction by ZEFSAII (Michael W. Deem and Ramdas Pophale) SiO2 
 PCOD9203065
Probable space group: C 2/M
;
_chemical_formula_sum "Si O2"
_cell_formula_units_Z 56
_cell_length_a 15.105622
_cell_length_b 22.793033
_cell_length_c 9.018237
_cell_angle_alpha 90.000000
_cell_angle_beta 62.367416
_cell_angle_gamma 90.000000
_cell_volume 2750.848467
_symmetry_space_group_name_H-M "C 2/M"
_symmetry_group_IT_number 12
_symmetry_cell_setting 'monoclinic'
loop_
_space_group_symop_operation_xyz
x,y,z
-x,y,-z
-x,-y,-z
x,-y,z
1/2+x,1/2+y,z
1/2-x,1/2+y,-z
1/2-x,1/2-y,-z
1/2+x,1/2-y,z
loop_
_atom_site_type_symbol
_atom_site_label
_atom_site_fract_x
_atom_site_fract_y
_atom_site_fract_z
Si Si1 0.383101 0.227522 0.555214
Si Si2 0.033562 0.430758 0.301620
Si Si3 0.727727 0.852552 0.125893
Si Si4 0.525575 0.564689 0.306024
Si Si5 0.336200 0.127309 0.376370
Si Si6 0.190660 0.841735 0.241681
Si Si7 0.176445 0.930388 0.722056
O O1 0.500000 0.218384 0.500000
O O2 0.314123 0.195018 0.727980
O O3 0.356299 0.193506 0.423805
O O4 0.358292 0.295273 0.606132
O O5 0.044046 0.500000 0.274445
O O6 0.942088 0.404155 0.281123
O O7 0.000000 0.420113 0.500000
O O8 0.135578 0.398048 0.182583
O O9 0.814650 0.890252 0.139155
O O10 0.757549 0.821674 0.950311
O O11 0.500000 0.560351 0.500000
O O12 0.561959 0.500000 0.228877
O O13 0.607739 0.614463 0.243318
O O14 0.426562 0.578261 0.287786
O O15 0.274989 0.127219 0.273467
O O16 0.268211 0.091891 0.547981
O O17 0.187224 0.000000 0.743442
#
# Coordination Sequence:
#
# PCOD9203065 Si02
#       7
#     8   8   8   8   8   8   8
#     4  11  22  45  68  86 119 166 216 259 302 376
#     4  11  20  38  67  94 123 167 214 252 299 374
#     4  11  23  42  61  95 130 161 202 263 319 374
#     4  10  21  39  62  93 125 162 212 262 302 366
#     4  11  21  39  65  96 121 162 214 259 305 372
#     4  12  26  39  64  93 131 161 202 262 330 365
#     4  10  20  38  66  92 123 166 213 251 304 376
#
# _framework density 20.357355999999999
#
# number of rings (size 3 to 8) (size 9 to 14) (size 15 to 20)
#    0.000    1.143    5.714    2.143    0.000    2.857 
#    0.000    2.143    3.143    0.000    0.000    0.000 
#    0.000    0.000    0.000    0.000    0.000    0.000 
#
# Total GULP energy -156305.472706 kJ/mol
# GULP energy per Si atom -5582.338311 kJ/mol
# Density = 2.031102 g / cm^3
# Si number density = 20.357356 Si / 1000 Ang^3
#
#
#
# Elastic Constant Matrix: (Units=GPa)
#
#
# Indices 1 2 3 4 5 6 
#
# 1 101.4907 32.5382 -4.1569 0.0000 -11.6356 0.0000
# 2 32.5382 71.1268 -9.4346 0.0000 -11.7088 0.0000
# 3 -4.1569 -9.4346 30.8304 0.0000 6.3069 0.0000
# 4 0.0000 0.0000 0.0000 -14.1539 0.0000 0.0366
# 5 -11.6356 -11.7088 6.3069 0.0000 13.0444 0.0000
# 6 0.0000 0.0000 0.0000 0.0366 0.0000 26.8162
#
#
#
# Elastic Compliance Matrix: (Units=1/GPa)
#
#
# Indices 1 2 3 4 5 6 
#
# 1 0.012082 -0.004482 -0.001248 0.000000 0.007358 0.000000
# 2 -0.004482 0.018300 0.002723 0.000000 0.011112 0.000000
# 3 -0.001248 0.002723 0.036431 0.000000 -0.016283 0.000000
# 4 0.000000 0.000000 0.000000 -0.070652 0.000000 0.000096
# 5 0.007358 0.011112 -0.016283 0.000000 0.101072 0.000000
# 6 0.000000 0.000000 0.000000 0.000096 0.000000 0.037291
#
#
# Mechanical properties :
#
#
# Convention : Reuss Voigt Hill
#
# Bulk Modulus (GPa) = 16.44712 26.81572 21.63142
# Shear Modulus (GPa) = 31.09374 17.44144 24.26759
#
# Velocity S-wave (km/s) = 3.91243 2.93023 3.45640
# Velocity P-wave (km/s) = 5.33912 4.96482 5.15537
#
# Compressibility (1/GPa) = 0.06080091
#
# Stress axis : x y z
#
# Youngs Moduli (GPa) = 82.76518 54.64491 27.44884
#
# Poissons Ratio (x) = 0.24489 0.03424
# Poissons Ratio (y) = 0.37091 -0.07473
# Poissons Ratio (z) = 0.10325 -0.14878
#
# Static dielectric constant tensor:
#      x y z
#    x 1.705500 0.000000 0.007040 
#    y 0.000000 1.769630 0.000000 
#    z 0.007040 0.000000 1.737160 
# 
# From -- ./inp_files/65764.got.cif
#   From: 2010.05.17/outbox.cif.g08.bks.cpg/sg12_33_cif.got.tgz:65764.got - 2010.06.03 13:09:07.
