data_PCOD9203324
_publ_section_title
;
Structure prediction by ZEFSAII (Michael W. Deem and Ramdas Pophale) SiO2 
 PCOD9203324
Probable space group: C 2/M
;
_chemical_formula_sum "Si O2"
_cell_formula_units_Z 56
_cell_length_a 27.848959
_cell_length_b 15.566595
_cell_length_c 8.746494
_cell_angle_alpha 90.000000
_cell_angle_beta 140.522607
_cell_angle_gamma 90.000000
_cell_volume 2410.677767
_symmetry_space_group_name_H-M "C 2/M"
_symmetry_group_IT_number 12
_symmetry_cell_setting 'monoclinic'
loop_
_space_group_symop_operation_xyz
x,y,z
-x,y,-z
-x,-y,-z
x,-y,z
1/2+x,1/2+y,z
1/2-x,1/2+y,-z
1/2-x,1/2-y,-z
1/2+x,1/2-y,z
loop_
_atom_site_type_symbol
_atom_site_label
_atom_site_fract_x
_atom_site_fract_y
_atom_site_fract_z
Si Si1 0.217128 0.842023 0.359153
Si Si2 0.085496 0.601629 0.734773
Si Si3 0.113601 0.856430 0.820032
Si Si4 0.530678 0.595385 0.332042
Si Si5 0.401758 0.272680 0.720693
Si Si6 0.331414 0.784557 0.239505
Si Si7 0.378027 0.901593 0.828617
O O1 0.250000 0.750000 0.500000
O O2 0.142021 0.841198 0.280066
O O3 0.289251 0.901021 0.566277
O O4 0.185648 0.858288 0.110249
O O5 0.078478 0.500000 0.722019
O O6 0.145226 0.620501 0.745777
O O7 0.000000 0.634035 0.500000
O O8 0.116315 0.622567 0.979154
O O9 0.101331 0.904350 0.626914
O O10 0.113442 0.760929 0.750159
O O11 0.043067 0.884918 0.748196
O O12 0.525662 0.500000 0.252906
O O13 0.538416 0.672725 0.231121
O O14 0.347334 0.240860 0.450029
O O15 0.416829 0.181501 0.841872
O O16 0.250000 0.750000 0.000000
O O17 0.407234 0.000000 0.874736
#
# Coordination Sequence:
#
# PCOD9203324 Si02
#       7
#     8   8   8   8   8   8   8
#     4  10  20  39  61  92 130 174 219 271 335 401
#     4  10  23  43  67  94 132 182 229 276 336 410
#     4  10  21  39  66  90 129 177 223 268 327 404
#     4  10  23  43  63  95 135 177 230 282 330 400
#     4  10  22  38  61  96 137 167 216 279 338 398
#     4  11  21  38  65  97 129 168 221 276 332 399
#     4  10  21  40  65  94 133 174 223 279 336 405
#
# _framework density 23.229980000000001
#
# number of rings (size 3 to 8) (size 9 to 14) (size 15 to 20)
#    0.000    1.857    0.000    5.143    4.000    2.857 
#    2.571    5.714    0.000    2.571    0.000    0.000 
#    0.000    0.000    0.000    0.000    0.000    0.000 
#
# Total GULP energy -155923.569678 kJ/mol
# GULP energy per Si atom -5568.698917 kJ/mol
# Density = 2.317711 g / cm^3
# Si number density = 23.229980 Si / 1000 Ang^3
#
#
#
# Elastic Constant Matrix: (Units=GPa)
#
#
# Indices 1 2 3 4 5 6 
#
# 1 78.2405 39.6349 22.0304 0.0000 -9.4923 0.0000
# 2 39.6349 93.8457 3.6865 0.0000 -7.1646 0.0000
# 3 22.0304 3.6865 135.8567 0.0000 -23.5627 0.0000
# 4 0.0000 0.0000 0.0000 23.4829 0.0000 -0.9801
# 5 -9.4923 -7.1646 -23.5627 0.0000 37.1869 0.0000
# 6 0.0000 0.0000 0.0000 -0.9801 0.0000 20.4957
#
#
#
# Elastic Compliance Matrix: (Units=1/GPa)
#
#
# Indices 1 2 3 4 5 6 
#
# 1 0.017198 -0.007053 -0.002328 0.000000 0.001556 0.000000
# 2 -0.007053 0.013708 0.001031 0.000000 0.001494 0.000000
# 3 -0.002328 0.001031 0.008585 0.000000 0.005044 0.000000
# 4 0.000000 0.000000 0.000000 0.042669 0.000000 0.002041
# 5 0.001556 0.001494 0.005044 0.000000 0.030772 0.000000
# 6 0.000000 0.000000 0.000000 0.002041 0.000000 0.048888
#
#
# Mechanical properties :
#
#
# Convention : Reuss Voigt Hill
#
# Bulk Modulus (GPa) = 43.87579 48.73849 46.30714
# Shear Modulus (GPa) = 26.86455 32.40585 29.63520
#
# Velocity S-wave (km/s) = 3.40437 3.73902 3.57561
# Velocity P-wave (km/s) = 5.86358 6.29816 6.08475
#
# Compressibility (1/GPa) = 0.02279161
#
# Stress axis : x y z
#
# Youngs Moduli (GPa) = 58.14508 72.94873 116.48207
#
# Poissons Ratio (x) = 0.51453 0.27112
# Poissons Ratio (y) = 0.41012 -0.12008
# Poissons Ratio (z) = 0.13534 -0.07520
#
# Static dielectric constant tensor:
#      x y z
#    x 1.935770 0.000000 0.069760 
#    y 0.000000 2.204990 0.000000 
#    z 0.069760 0.000000 1.942720 
# 
# From -- ./inp_files/106059.got.cif
#   From: 2010.05.17/outbox.cif.g08.bks.cpg/sg12_54_cif.got.tgz:106059.got - 2010.06.03 13:09:07.
