data_PCOD9203112
_publ_section_title
;
Structure prediction by ZEFSAII (Michael W. Deem and Ramdas Pophale) SiO2 
 PCOD9203112
Probable space group: C 2/M
;
_chemical_formula_sum "Si O2"
_cell_formula_units_Z 46
_cell_length_a 25.274142
_cell_length_b 15.479107
_cell_length_c 7.537107
_cell_angle_alpha 90.000000
_cell_angle_beta 44.091844
_cell_angle_gamma 90.000000
_cell_volume 2051.719674
_symmetry_space_group_name_H-M "C 2/M"
_symmetry_group_IT_number 12
_symmetry_cell_setting 'monoclinic'
loop_
_space_group_symop_operation_xyz
x,y,z
-x,y,-z
-x,-y,-z
x,-y,z
1/2+x,1/2+y,z
1/2-x,1/2+y,-z
1/2-x,1/2-y,-z
1/2+x,1/2-y,z
loop_
_atom_site_type_symbol
_atom_site_label
_atom_site_fract_x
_atom_site_fract_y
_atom_site_fract_z
Si Si1 0.738805 0.403076 0.385560
Si Si2 0.411479 0.868665 0.397490
Si Si3 0.415579 0.683156 0.225662
Si Si4 0.259760 0.403710 0.186798
Si Si5 0.144672 0.254753 0.005987
Si Si6 0.500000 0.000000 0.000000
Si Si7 0.500000 0.149554 0.500000
O O1 0.758750 0.500000 0.279479
O O2 0.651306 0.380001 0.551157
O O3 0.744153 0.399738 0.587928
O O4 0.793354 0.329153 0.178753
O O5 0.421691 0.767922 0.333749
O O6 0.326464 0.887346 0.664665
O O7 0.472877 0.901399 0.393069
O O8 0.433451 0.924382 0.174211
O O9 0.386527 0.720256 0.107175
O O10 0.500000 0.645205 0.000000
O O11 0.284843 0.500000 0.076011
O O12 0.314513 0.326236 0.998552
O O13 0.072986 0.293295 0.278777
#
# Coordination Sequence:
#
# PCOD9203112 Si02
#       7
#     8   8   8   8   8   2   4
#     4  10  21  36  64  97 120 158 215 267 305 363
#     4  12  22  39  61  93 124 167 199 252 311 377
#     4  11  19  39  67  87 120 164 211 251 313 371
#     4  10  20  38  67  91 117 164 216 255 308 373
#     4  11  21  41  62  90 126 163 208 262 310 374
#     4  12  24  38  68  92 126 156 206 260 304 374
#     4  12  28  39  59  94 128 168 202 252 326 374
#
# _framework density 22.420217000000001
#
# number of rings (size 3 to 8) (size 9 to 14) (size 15 to 20)
#    0.000    1.043    6.957    1.043    0.000    1.391 
#    1.565    0.435    0.000    0.000    0.000    0.000 
#    0.000    0.000    0.000    0.000    0.000    0.000 
#
# Total GULP energy -128405.982790 kJ/mol
# GULP energy per Si atom -5582.868817 kJ/mol
# Density = 2.236919 g / cm^3
# Si number density = 22.420217 Si / 1000 Ang^3
#
#
#
# Elastic Constant Matrix: (Units=GPa)
#
#
# Indices 1 2 3 4 5 6 
#
# 1 97.8452 23.6968 28.2585 0.0000 -26.2936 0.0000
# 2 23.6968 99.1484 40.2652 0.0000 -26.7776 0.0000
# 3 28.2585 40.2652 86.7130 0.0000 -37.9277 0.0000
# 4 0.0000 0.0000 0.0000 36.7143 0.0000 38.4434
# 5 -26.2936 -26.7776 -37.9277 0.0000 48.3465 0.0000
# 6 0.0000 0.0000 0.0000 38.4434 0.0000 76.4864
#
#
#
# Elastic Compliance Matrix: (Units=1/GPa)
#
#
# Indices 1 2 3 4 5 6 
#
# 1 0.012199 -0.001028 -0.001287 0.000000 0.005056 0.000000
# 2 -0.001028 0.012939 -0.004237 0.000000 0.003284 0.000000
# 3 -0.001287 -0.004237 0.019162 0.000000 0.011985 0.000000
# 4 0.000000 0.000000 0.000000 0.057498 0.000000 -0.028900
# 5 0.005056 0.003284 0.011985 0.000000 0.034655 0.000000
# 6 0.000000 0.000000 0.000000 -0.028900 0.000000 0.027600
#
#
# Mechanical properties :
#
#
# Convention : Reuss Voigt Hill
#
# Bulk Modulus (GPa) = 32.05470 52.01640 42.03555
# Shear Modulus (GPa) = 26.65883 45.07517 35.86700
#
# Velocity S-wave (km/s) = 3.45201 4.48869 4.00404
# Velocity P-wave (km/s) = 5.49697 7.07923 6.33767
#
# Compressibility (1/GPa) = 0.03119667
#
# Stress axis : x y z
#
# Youngs Moduli (GPa) = 81.97080 77.28536 52.18774
#
# Poissons Ratio (x) = 0.07941 0.06717
# Poissons Ratio (y) = 0.08423 0.22113
# Poissons Ratio (z) = 0.10550 0.32747
#
# Static dielectric constant tensor:
#      x y z
#    x 1.940040 0.000000 0.087780 
#    y 0.000000 1.829830 0.000000 
#    z 0.087780 0.000000 1.898320 
# 
# From -- ./inp_files/111518.got.cif
#   From: 2010.05.17/outbox.cif.g08.bks.cpg/sg12_56_cif.got.tgz:111518.got - 2010.06.03 13:09:07.
