data_PCOD9203479
_publ_section_title
;
Structure prediction by ZEFSAII (Michael W. Deem and Ramdas Pophale) SiO2 
 PCOD9203479
Probable space group: C 2/M
;
_chemical_formula_sum "Si O2"
_cell_formula_units_Z 56
_cell_length_a 17.344490
_cell_length_b 27.368014
_cell_length_c 5.323712
_cell_angle_alpha 90.000000
_cell_angle_beta 64.972679
_cell_angle_gamma 90.000000
_cell_volume 2289.804765
_symmetry_space_group_name_H-M "C 2/M"
_symmetry_group_IT_number 12
_symmetry_cell_setting 'monoclinic'
loop_
_space_group_symop_operation_xyz
x,y,z
-x,y,-z
-x,-y,-z
x,-y,z
1/2+x,1/2+y,z
1/2-x,1/2+y,-z
1/2-x,1/2-y,-z
1/2+x,1/2-y,z
loop_
_atom_site_type_symbol
_atom_site_label
_atom_site_fract_x
_atom_site_fract_y
_atom_site_fract_z
Si Si1 0.918915 0.051971 0.296532
Si Si2 0.266319 0.055051 0.399672
Si Si3 0.927208 0.304278 0.261089
Si Si4 0.549150 0.656738 0.670769
Si Si5 0.685789 0.728385 0.384829
Si Si6 0.918353 0.401732 0.496082
Si Si7 0.206460 0.651160 0.946306
O O1 0.822398 0.055481 0.317925
O O2 0.929828 0.101252 0.432874
O O3 0.919702 0.000000 0.435074
O O4 0.000000 0.050969 0.000000
O O5 0.355445 0.065133 0.418065
O O6 0.256993 0.101416 0.227816
O O7 0.271206 0.000000 0.281694
O O8 0.885554 0.270969 0.536564
O O9 0.964585 0.355784 0.299449
O O10 0.854087 0.323027 0.174548
O O11 0.000000 0.277281 0.000000
O O12 0.500000 0.678705 0.500000
O O13 0.635336 0.685458 0.594435
O O14 0.500000 0.656619 0.000000
O O15 0.750000 0.750000 0.500000
O O16 0.727960 0.696794 0.098653
O O17 0.000000 0.429069 0.500000
O O18 0.850237 0.371679 0.757431
#
# Coordination Sequence:
#
# PCOD9203479 Si02
#       7
#     8   8   8   8   8   8   8
#     4   9  19  40  68  97 133 177 224 279 349 428
#     4  10  22  41  66  96 132 174 226 282 344 416
#     4  10  20  39  63  89 125 171 223 271 338 407
#     4  11  24  44  68 100 140 179 229 289 350 417
#     4  10  22  42  64  96 132 179 226 284 345 415
#     4  11  23  39  66  94 130 180 225 283 345 416
#     4  10  21  40  61  90 130 168 221 278 342 402
#
# _framework density 24.456235
#
# number of rings (size 3 to 8) (size 9 to 14) (size 15 to 20)
#    0.000    1.857    2.857    0.429    0.000    4.571 
#    5.143    0.714    0.000    0.000    0.000    0.000 
#    0.000    0.000    0.000    0.000    0.000    0.000 
#
# Total GULP energy -155880.715514 kJ/mol
# GULP energy per Si atom -5567.168411 kJ/mol
# Density = 2.440057 g / cm^3
# Si number density = 24.456235 Si / 1000 Ang^3
#
#
#
# Elastic Constant Matrix: (Units=GPa)
#
#
# Indices 1 2 3 4 5 6 
#
# 1 98.1648 37.4857 20.9853 0.0000 -17.1085 0.0000
# 2 37.4857 154.0274 21.7147 0.0000 -13.7220 0.0000
# 3 20.9853 21.7147 90.4515 0.0000 -22.8045 0.0000
# 4 0.0000 0.0000 0.0000 18.3629 0.0000 -22.1565
# 5 -17.1085 -13.7220 -22.8045 0.0000 33.5383 0.0000
# 6 0.0000 0.0000 0.0000 -22.1565 0.0000 28.1260
#
#
#
# Elastic Compliance Matrix: (Units=1/GPa)
#
#
# Indices 1 2 3 4 5 6 
#
# 1 0.012114 -0.002395 -0.001116 0.000000 0.004441 0.000000
# 2 -0.002395 0.007306 -0.000908 0.000000 0.001150 0.000000
# 3 -0.001116 -0.000908 0.013632 0.000000 0.008329 0.000000
# 4 0.000000 0.000000 0.000000 1.100240 0.000000 0.866725
# 5 0.004441 0.001150 0.008329 0.000000 0.038215 0.000000
# 6 0.000000 0.000000 0.000000 0.866725 0.000000 0.718325
#
#
# Mechanical properties :
#
#
# Convention : Reuss Voigt Hill
#
# Bulk Modulus (GPa) = 41.29968 55.89057 48.59512
# Shear Modulus (GPa) = 2.62227 33.50264 18.06245
#
# Velocity S-wave (km/s) = 1.03661 3.70523 2.72060
# Velocity P-wave (km/s) = 4.28446 6.41934 5.45731
#
# Compressibility (1/GPa) = 0.02421326
#
# Stress axis : x y z
#
# Youngs Moduli (GPa) = 82.54815 136.87825 73.35474
#
# Poissons Ratio (x) = 0.32786 0.08186
# Poissons Ratio (y) = 0.19773 0.06663
# Poissons Ratio (z) = 0.09212 0.12433
#
# Static dielectric constant tensor:
#      x y z
#    x 2.035490 0.000000 -0.040730 
#    y 0.000000 1.961210 0.000000 
#    z -0.040730 0.000000 2.024140 
# 
# From -- ./inp_files/18254.got.cif
#   From: 2010.05.17/outbox.cif.g08.bks.cpg/sg12_10_cif.got.tgz:18254.got - 2010.06.03 13:09:07.
