data_PCOD9203071
_publ_section_title
;
Structure prediction by ZEFSAII (Michael W. Deem and Ramdas Pophale) SiO2 
 PCOD9203071
Probable space group: C 2/M
;
_chemical_formula_sum "Si O2"
_cell_formula_units_Z 44
_cell_length_a 18.261241
_cell_length_b 9.210895
_cell_length_c 13.755855
_cell_angle_alpha 90.000000
_cell_angle_beta 129.044393
_cell_angle_gamma 90.000000
_cell_volume 1797.006304
_symmetry_space_group_name_H-M "C 2/M"
_symmetry_group_IT_number 12
_symmetry_cell_setting 'monoclinic'
loop_
_space_group_symop_operation_xyz
x,y,z
-x,y,-z
-x,-y,-z
x,-y,z
1/2+x,1/2+y,z
1/2-x,1/2+y,-z
1/2-x,1/2-y,-z
1/2+x,1/2-y,z
loop_
_atom_site_type_symbol
_atom_site_label
_atom_site_fract_x
_atom_site_fract_y
_atom_site_fract_z
Si Si1 0.918275 0.174413 0.801242
Si Si2 0.740878 0.500000 0.951856
Si Si3 0.737817 0.326848 0.700753
Si Si4 0.875811 0.263467 0.055257
Si Si5 0.123282 0.328118 0.439375
Si Si6 0.088289 0.659261 0.693611
O O1 0.835501 0.240429 0.797635
O O2 0.896566 0.243527 0.676956
O O3 0.025231 0.225161 0.911071
O O4 0.914739 0.000000 0.797018
O O5 0.681094 0.622981 0.961191
O O6 0.804028 0.375482 0.949290
O O7 0.748168 0.500000 0.700926
O O8 0.698310 0.257875 0.566242
O O9 0.652909 0.283122 0.702571
O O10 0.898649 0.340294 0.178904
O O11 0.145676 0.500000 0.443281
O O12 0.023203 0.323345 0.412917
O O13 0.119434 0.500000 0.682810
#
# Coordination Sequence:
#
# PCOD9203071 Si02
#       6
#     8   4   8   8   8   8
#     4  11  22  38  59  85 120 153 194 236 284 338
#     4  10  20  38  66  94 112 138 190 242 288 352
#     4  12  25  36  55  83 121 162 193 235 282 335
#     4  10  21  38  66  93 113 144 189 239 290 343
#     4  10  21  38  60  84 115 157 201 237 273 331
#     4  10  21  38  59  85 120 153 191 235 285 337
#
# _framework density 24.485168000000002
#
# number of rings (size 3 to 8) (size 9 to 14) (size 15 to 20)
#    0.000    1.455    1.818    3.818    3.818    3.636 
#    0.000    0.000    0.000    6.545    0.000    0.000 
#    0.000    0.000    0.000    0.000    0.000    0.000 
#
# Total GULP energy -122672.193619 kJ/mol
# GULP energy per Si atom -5576.008801 kJ/mol
# Density = 2.442944 g / cm^3
# Si number density = 24.485168 Si / 1000 Ang^3
#
#
#
# Elastic Constant Matrix: (Units=GPa)
#
#
# Indices 1 2 3 4 5 6 
#
# 1 136.2635 63.3271 25.8694 0.0000 29.0375 0.0000
# 2 63.3271 237.2190 52.2312 0.0000 39.8721 0.0000
# 3 25.8694 52.2312 83.8748 0.0000 28.7740 0.0000
# 4 0.0000 0.0000 0.0000 -54.0376 0.0000 0.2617
# 5 29.0375 39.8721 28.7740 0.0000 47.8593 0.0000
# 6 0.0000 0.0000 0.0000 0.2617 0.0000 34.3848
#
#
#
# Elastic Compliance Matrix: (Units=1/GPa)
#
#
# Indices 1 2 3 4 5 6 
#
# 1 0.009009 -0.001669 -0.000430 0.000000 -0.003817 0.000000
# 2 -0.001669 0.005517 -0.002131 0.000000 -0.002303 0.000000
# 3 -0.000430 -0.002131 0.015980 0.000000 -0.007571 0.000000
# 4 0.000000 0.000000 0.000000 -0.018505 0.000000 0.000141
# 5 -0.003817 -0.002303 -0.007571 0.000000 0.029681 0.000000
# 6 0.000000 0.000000 0.000000 0.000141 0.000000 0.029082
#
#
# Mechanical properties :
#
#
# Convention : Reuss Voigt Hill
#
# Bulk Modulus (GPa) = 45.35860 82.24587 63.80223
# Shear Modulus (GPa) = 57.75519 26.70326 42.22922
#
# Velocity S-wave (km/s) = 4.86200 3.30599 4.15744
# Velocity P-wave (km/s) = 7.07699 6.94520 7.01141
#
# Compressibility (1/GPa) = 0.02204654
#
# Stress axis : x y z
#
# Youngs Moduli (GPa) = 110.99520 181.24851 62.58017
#
# Poissons Ratio (x) = 0.30247 0.02691
# Poissons Ratio (y) = 0.18523 0.13336
# Poissons Ratio (z) = 0.04772 0.38626
#
# Static dielectric constant tensor:
#      x y z
#    x 1.954010 0.000000 -0.059580 
#    y 0.000000 1.820300 0.000000 
#    z -0.059580 0.000000 2.121100 
# 
# From -- ./inp_files/220704.got.cif
#   From: 2010.05.17/outbox.cif.g08.bks.cpg/sg12_111_cif.got.tgz:220704.got - 2010.06.03 13:09:07.
