data_PCOD9203999
_publ_section_title
;
Structure prediction by ZEFSAII (Michael W. Deem and Ramdas Pophale) SiO2 
 PCOD9203999
Probable space group: C 2/M
;
_chemical_formula_sum "Si O2"
_cell_formula_units_Z 30
_cell_length_a 7.234969
_cell_length_b 27.993818
_cell_length_c 6.852803
_cell_angle_alpha 90.000000
_cell_angle_beta 119.408916
_cell_angle_gamma 90.000000
_cell_volume 1209.076334
_symmetry_space_group_name_H-M "C 2/M"
_symmetry_group_IT_number 12
_symmetry_cell_setting 'monoclinic'
loop_
_space_group_symop_operation_xyz
x,y,z
-x,y,-z
-x,-y,-z
x,-y,z
1/2+x,1/2+y,z
1/2-x,1/2+y,-z
1/2-x,1/2-y,-z
1/2+x,1/2-y,z
loop_
_atom_site_type_symbol
_atom_site_label
_atom_site_fract_x
_atom_site_fract_y
_atom_site_fract_z
Si Si1 0.733908 0.442164 0.199427
Si Si2 0.809511 0.583710 0.681391
Si Si3 0.000000 0.265877 0.500000
Si Si4 0.000000 0.000000 0.500000
Si Si5 0.199853 0.310417 0.241650
O O1 0.742791 0.500000 0.243625
O O2 0.768769 0.417411 0.426053
O O3 0.937318 0.427306 0.175167
O O4 0.500000 0.431176 0.000000
O O5 0.659665 0.541129 0.671786
O O6 0.742666 0.634153 0.735531
O O7 0.139385 0.298923 0.434591
O O8 0.125311 0.229619 0.706872
O O9 0.000000 0.303755 0.000000
#
# Coordination Sequence:
#
# PCOD9203999 Si02
#       5
#     8   8   4   2   8
#     4  10  20  40  63  86 123 187 230 260 322 395
#     4  11  22  40  62  93 135 171 221 276 325 394
#     4  10  23  46  72  96 136 172 213 288 342 398
#     4  12  22  38  58  88 140 172 202 288 328 366
#     4  11  24  44  69 102 132 174 224 274 341 408
#
# _framework density 24.812328999999998
#
# number of rings (size 3 to 8) (size 9 to 14) (size 15 to 20)
#    0.000    1.333    2.667    4.000    0.000    4.267 
#    0.000    8.667    0.000    0.000    0.000    0.000 
#    0.000    0.000    0.000    0.000    0.000    0.000 
#
# Total GULP energy -83736.782806 kJ/mol
# GULP energy per Si atom -5582.452187 kJ/mol
# Density = 2.475586 g / cm^3
# Si number density = 24.812329 Si / 1000 Ang^3
#
#
#
# Elastic Constant Matrix: (Units=GPa)
#
#
# Indices 1 2 3 4 5 6 
#
# 1 80.1393 18.4295 26.5223 0.0000 21.0399 0.0000
# 2 18.4295 172.1367 39.3240 0.0000 17.4174 0.0000
# 3 26.5223 39.3240 119.0210 0.0000 36.4295 0.0000
# 4 0.0000 0.0000 0.0000 18.3612 0.0000 4.3884
# 5 21.0399 17.4174 36.4295 0.0000 44.7375 0.0000
# 6 0.0000 0.0000 0.0000 4.3884 0.0000 1.9127
#
#
#
# Elastic Compliance Matrix: (Units=1/GPa)
#
#
# Indices 1 2 3 4 5 6 
#
# 1 0.014515 -0.000697 -0.001329 0.000000 -0.005473 0.000000
# 2 -0.000697 0.006351 -0.001714 0.000000 -0.000750 0.000000
# 3 -0.001329 -0.001714 0.011813 0.000000 -0.008327 0.000000
# 4 0.000000 0.000000 0.000000 0.120590 0.000000 -0.276677
# 5 -0.005473 -0.000750 -0.008327 0.000000 0.031999 0.000000
# 6 0.000000 0.000000 0.000000 -0.276677 0.000000 1.157621
#
#
# Mechanical properties :
#
#
# Convention : Reuss Voigt Hill
#
# Bulk Modulus (GPa) = 39.68226 59.98319 49.83272
# Shear Modulus (GPa) = 3.67980 32.13703 17.90842
#
# Velocity S-wave (km/s) = 1.21913 3.60280 2.68946
# Velocity P-wave (km/s) = 4.24375 6.44470 5.45635
#
# Compressibility (1/GPa) = 0.02520018
#
# Stress axis : x y z
#
# Youngs Moduli (GPa) = 68.89311 157.44892 84.65272
#
# Poissons Ratio (x) = 0.10968 0.11252
# Poissons Ratio (y) = 0.04799 0.14508
# Poissons Ratio (z) = 0.09158 0.26983
#
# Static dielectric constant tensor:
#      x y z
#    x 1.753750 0.000000 0.050720 
#    y 0.000000 1.872160 0.000000 
#    z 0.050720 0.000000 2.015270 
# 
# From -- ./inp_files/40720.got.cif
#   From: 2010.05.17/outbox.cif.g08.bks.cpg/sg12_21_cif.got.tgz:40720.got - 2010.06.03 13:09:07.
