data_PCOD9203861
_publ_section_title
;
Structure prediction by ZEFSAII (Michael W. Deem and Ramdas Pophale) SiO2 
 PCOD9203861
Probable space group: C 2/M
;
_chemical_formula_sum "Si O2"
_cell_formula_units_Z 34
_cell_length_a 10.212743
_cell_length_b 14.529210
_cell_length_c 11.902155
_cell_angle_alpha 90.000000
_cell_angle_beta 60.539304
_cell_angle_gamma 90.000000
_cell_volume 1537.712701
_symmetry_space_group_name_H-M "C 2/M"
_symmetry_group_IT_number 12
_symmetry_cell_setting 'monoclinic'
loop_
_space_group_symop_operation_xyz
x,y,z
-x,y,-z
-x,-y,-z
x,-y,z
1/2+x,1/2+y,z
1/2-x,1/2+y,-z
1/2-x,1/2-y,-z
1/2+x,1/2-y,z
loop_
_atom_site_type_symbol
_atom_site_label
_atom_site_fract_x
_atom_site_fract_y
_atom_site_fract_z
Si Si1 0.329851 0.500000 0.611208
Si Si2 0.321038 0.000000 0.563602
Si Si3 0.327505 0.846502 0.187296
Si Si4 0.299240 0.397572 0.975178
Si Si5 0.851894 0.860973 0.207687
Si Si6 0.000000 0.500000 0.000000
O O1 0.500000 0.500000 0.500000
O O2 0.223899 0.500000 0.547271
O O3 0.295474 0.408082 0.696958
O O4 0.500000 0.000000 0.500000
O O5 0.243746 0.086633 0.658771
O O6 0.268909 0.827954 0.085261
O O7 0.360263 0.748125 0.225406
O O8 0.462418 0.917162 0.111263
O O9 0.234361 0.500000 0.966816
O O10 0.477665 0.397468 0.875162
O O11 0.281439 0.381735 0.114269
#
# Coordination Sequence:
#
# PCOD9203861 Si02
#       6
#     4   4   8   8   8   2
#     4  11  25  46  67  86 127 188 229 271 311 392
#     4  12  27  42  63  92 136 180 225 277 329 375
#     4  11  24  39  68  97 128 166 217 272 332 393
#     4  11  19  41  69  93 126 172 205 264 338 407
#     4  11  23  40  65  98 129 170 216 269 332 402
#     4  10  20  40  58 100 128 144 198 272 334 376
#
# _framework density 22.110764
#
# number of rings (size 3 to 8) (size 9 to 14) (size 15 to 20)
#    0.000    0.941    4.706    4.235    0.000    7.529 
#    0.000    0.000    0.000    0.000    0.000    0.000 
#    0.000    0.000    0.000    0.000    0.000    0.000 
#
# Total GULP energy -94872.977048 kJ/mol
# GULP energy per Si atom -5580.763356 kJ/mol
# Density = 2.206044 g / cm^3
# Si number density = 22.110764 Si / 1000 Ang^3
#
#
#
# Elastic Constant Matrix: (Units=GPa)
#
#
# Indices 1 2 3 4 5 6 
#
# 1 52.9910 -6.9957 3.4538 0.0000 8.3285 0.0000
# 2 -6.9957 179.5589 25.8167 0.0000 -14.8676 0.0000
# 3 3.4538 25.8167 85.1599 0.0000 -7.0066 0.0000
# 4 0.0000 0.0000 0.0000 -4.3189 0.0000 17.5741
# 5 8.3285 -14.8676 -7.0066 0.0000 46.3926 0.0000
# 6 0.0000 0.0000 0.0000 17.5741 0.0000 18.4509
#
#
#
# Elastic Compliance Matrix: (Units=1/GPa)
#
#
# Indices 1 2 3 4 5 6 
#
# 1 0.019592 0.000658 -0.001282 0.000000 -0.003500 0.000000
# 2 0.000658 0.005968 -0.001709 0.000000 0.001536 0.000000
# 3 -0.001282 -0.001709 0.012441 0.000000 0.001561 0.000000
# 4 0.000000 0.000000 0.000000 -0.047488 0.000000 0.045231
# 5 -0.003500 0.001536 0.001561 0.000000 0.022912 0.000000
# 6 0.000000 0.000000 0.000000 0.045231 0.000000 0.011116
#
#
# Mechanical properties :
#
#
# Convention : Reuss Voigt Hill
#
# Bulk Modulus (GPa) = 29.99983 40.25105 35.12544
# Shear Modulus (GPa) = 124.01298 31.80059 77.90678
#
# Velocity S-wave (km/s) = 7.49726 3.79653 5.94233
# Velocity P-wave (km/s) = 9.40971 6.12062 7.93740
#
# Compressibility (1/GPa) = 0.03333352
#
# Stress axis : x y z
#
# Youngs Moduli (GPa) = 51.04227 167.56547 80.37752
#
# Poissons Ratio (x) = -0.11023 0.10304
# Poissons Ratio (y) = -0.03358 0.13740
# Poissons Ratio (z) = 0.06543 0.28645
#
# Static dielectric constant tensor:
#      x y z
#    x 1.627980 0.000000 0.068910 
#    y 0.000000 1.797720 0.000000 
#    z 0.068910 0.000000 1.830620 
# 
# From -- ./inp_files/128987.got.cif
#   From: 2010.05.17/outbox.cif.g08.bks.cpg/sg12_65_cif.got.tgz:128987.got - 2010.06.03 13:09:07.
