data_PCOD9203760
_publ_section_title
;
Structure prediction by ZEFSAII (Michael W. Deem and Ramdas Pophale) SiO2 
 PCOD9203760
Probable space group: C 2/M
;
_chemical_formula_sum "Si O2"
_cell_formula_units_Z 64
_cell_length_a 31.333614
_cell_length_b 8.756056
_cell_length_c 19.939758
_cell_angle_alpha 90.000000
_cell_angle_beta 38.344525
_cell_angle_gamma 90.000000
_cell_volume 3393.929227
_symmetry_space_group_name_H-M "C 2/M"
_symmetry_group_IT_number 12
_symmetry_cell_setting 'monoclinic'
loop_
_space_group_symop_operation_xyz
x,y,z
-x,y,-z
-x,-y,-z
x,-y,z
1/2+x,1/2+y,z
1/2-x,1/2+y,-z
1/2-x,1/2-y,-z
1/2+x,1/2-y,z
loop_
_atom_site_type_symbol
_atom_site_label
_atom_site_fract_x
_atom_site_fract_y
_atom_site_fract_z
Si Si1 0.191160 0.680981 0.767567
Si Si2 0.309532 0.816125 0.878992
Si Si3 0.944696 0.824312 0.008882
Si Si4 0.189742 0.183587 0.620810
Si Si5 0.547321 0.325294 0.507109
Si Si6 0.035022 0.184220 0.772010
Si Si7 0.193109 0.815293 0.267301
Si Si8 0.035560 0.680943 0.271977
O O1 0.197463 0.500000 0.748468
O O2 0.118138 0.722933 0.889703
O O3 0.198414 0.763205 0.687025
O O4 0.247321 0.726519 0.753929
O O5 0.300547 0.758100 0.813801
O O6 0.385641 0.767981 0.811361
O O7 0.306719 0.000000 0.883386
O O8 0.250000 0.750000 0.000000
O O9 0.921002 0.000000 0.026687
O O10 0.000000 0.829035 0.000000
O O11 0.984875 0.766973 0.894173
O O12 0.250000 0.250000 0.500000
O O13 0.113753 0.233985 0.688617
O O14 0.191901 0.000000 0.615647
O O15 0.500000 0.329960 0.500000
O O16 0.553783 0.500000 0.525339
O O17 0.621498 0.271678 0.390828
O O18 0.510290 0.222794 0.607344
O O19 0.001322 0.241661 0.745455
O O20 0.036203 0.000000 0.771194
O O21 0.192853 0.000000 0.259155
O O22 0.037213 0.500000 0.259535
#
# Coordination Sequence:
#
# PCOD9203760 Si02
#       8
#     8   8   8   8   8   8   8   8
#     4  11  24  40  62  94 128 162 201 255 310 362
#     4  11  25  43  63  89 125 164 204 253 307 364
#     4  10  20  41  66  89 118 158 208 257 304 364
#     4  11  24  44  65  90 125 165 208 254 304 365
#     4  10  20  39  67  90 116 161 206 246 298 364
#     4  10  23  42  65  89 122 166 207 248 302 369
#     4  10  23  42  63  91 125 161 205 250 299 363
#     4  11  25  41  61  93 127 157 200 258 309 356
#
# _framework density 18.857199000000001
#
# number of rings (size 3 to 8) (size 9 to 14) (size 15 to 20)
#    0.000    1.500    2.500    1.500    3.500    5.000 
#    0.000    0.000    0.000    0.000    0.000    0.000 
#    0.000    0.000    0.000    0.000    0.000    0.000 
#
# Total GULP energy -178772.470348 kJ/mol
# GULP energy per Si atom -5586.639698 kJ/mol
# Density = 1.881428 g / cm^3
# Si number density = 18.857199 Si / 1000 Ang^3
#
#
#
# Elastic Constant Matrix: (Units=GPa)
#
#
# Indices 1 2 3 4 5 6 
#
# 1 153.7651 36.7234 91.2250 0.0083 -1.8303 -0.0359
# 2 36.7234 30.3978 36.9731 -0.0048 -3.2793 0.0034
# 3 91.2250 36.9731 168.9789 -0.0138 -3.1744 -0.0025
# 4 0.0083 -0.0048 -0.0138 49.7710 0.0070 -30.7671
# 5 -1.8303 -3.2793 -3.1744 0.0070 30.7785 -0.0017
# 6 -0.0359 0.0034 -0.0025 -30.7671 -0.0017 121.2759
#
#
#
# Elastic Compliance Matrix: (Units=1/GPa)
#
#
# Indices 1 2 3 4 5 6 
#
# 1 0.010892 -0.008260 -0.004085 -0.000002 -0.000654 0.000003
# 2 -0.008260 0.051533 -0.006735 0.000002 0.004305 -0.000004
# 3 -0.004085 -0.006735 0.009597 0.000003 0.000029 0.000000
# 4 -0.000002 0.000002 0.000003 0.023829 -0.000005 0.006045
# 5 -0.000654 0.004305 0.000029 -0.000005 0.032913 -0.000001
# 6 0.000003 -0.000004 0.000000 0.006045 -0.000001 0.009779
#
#
# Mechanical properties :
#
#
# Convention : Reuss Voigt Hill
#
# Bulk Modulus (GPa) = 29.53247 75.88719 52.70983
# Shear Modulus (GPa) = 26.59685 52.91309 39.75497
#
# Velocity S-wave (km/s) = 3.75965 5.30291 4.59651
# Velocity P-wave (km/s) = 5.87722 8.82184 7.49555
#
# Compressibility (1/GPa) = 0.03386104
#
# Stress axis : x y z
#
# Youngs Moduli (GPa) = 91.81033 19.40509 104.19390
#
# Poissons Ratio (x) = 0.16029 0.42564
# Poissons Ratio (y) = 0.75839 0.70177
# Poissons Ratio (z) = 0.37505 0.13070
#
# Static dielectric constant tensor:
#      x y z
#    x 1.678830 -0.000010 0.003930 
#    y -0.000010 1.659630 0.000000 
#    z 0.003930 0.000000 1.613760 
# 
# From -- ./inp_files/295453.got.cif
#   From: 2010.05.17/outbox.cif.g08.bks.cpg/sg12_148_cif.got.tgz:295453.got - 2010.06.03 13:09:07.
