data_PCOD9203037
_publ_section_title
;
Structure prediction by ZEFSAII (Michael W. Deem and Ramdas Pophale) SiO2 
 PCOD9203037
Probable space group: C 2/M
;
_chemical_formula_sum "Si O2"
_cell_formula_units_Z 40
_cell_length_a 11.441093
_cell_length_b 25.447533
_cell_length_c 12.045603
_cell_angle_alpha 90.000000
_cell_angle_beta 29.066105
_cell_angle_gamma 90.000000
_cell_volume 1703.788560
_symmetry_space_group_name_H-M "C 2/M"
_symmetry_group_IT_number 12
_symmetry_cell_setting 'monoclinic'
loop_
_space_group_symop_operation_xyz
x,y,z
-x,y,-z
-x,-y,-z
x,-y,z
1/2+x,1/2+y,z
1/2-x,1/2+y,-z
1/2-x,1/2-y,-z
1/2+x,1/2-y,z
loop_
_atom_site_type_symbol
_atom_site_label
_atom_site_fract_x
_atom_site_fract_y
_atom_site_fract_z
Si Si1 0.281321 0.199045 0.890736
Si Si2 0.085805 0.101979 0.191804
Si Si3 0.778602 0.060349 0.262059
Si Si4 0.500000 0.114521 0.000000
Si Si5 0.238528 0.172858 0.405567
Si Si6 0.500000 0.231618 0.500000
O O1 0.552550 0.178085 0.679752
O O2 0.284302 0.206649 0.753878
O O3 0.250000 0.250000 0.000000
O O4 0.133388 0.151930 0.070560
O O5 0.333071 0.084587 0.047900
O O6 0.911645 0.063269 0.270265
O O7 0.933320 0.126877 0.416067
O O8 0.500000 0.082651 0.500000
O O9 0.742702 0.000000 0.254699
O O10 0.000000 0.081051 0.000000
O O11 0.348437 0.155065 0.198960
O O12 0.117185 0.228694 0.491022
#
# Coordination Sequence:
#
# PCOD9203037 Si02
#       6
#     8   8   8   4   8   4
#     4  11  24  38  55  90 129 179 234 283 344 408
#     4  11  23  41  68  96 131 180 236 285 350 429
#     4  10  25  50  77 107 142 178 225 297 374 435
#     4  10  20  38  65  96 128 180 222 284 349 414
#     4  11  21  40  57  84 130 177 229 281 347 408
#     4  12  20  38  56  78 132 188 230 288 344 394
#
# _framework density 23.477091000000001
#
# number of rings (size 3 to 8) (size 9 to 14) (size 15 to 20)
#    0.000    1.200    4.000    1.800    5.600    1.600 
#    0.000    0.500    0.000    2.400    0.000    0.000 
#    0.000    0.000    0.000    0.000    0.000    0.000 
#
# Total GULP energy -111338.601678 kJ/mol
# GULP energy per Si atom -5566.930084 kJ/mol
# Density = 2.342366 g / cm^3
# Si number density = 23.477091 Si / 1000 Ang^3
#
#
#
# Elastic Constant Matrix: (Units=GPa)
#
#
# Indices 1 2 3 4 5 6 
#
# 1 93.6885 11.5248 24.1946 0.0000 -6.7405 0.0000
# 2 11.5248 22.4612 12.8308 0.0000 0.0042 0.0000
# 3 24.1946 12.8308 145.9617 0.0000 14.2440 0.0000
# 4 0.0000 0.0000 0.0000 -0.5458 0.0000 -3.9212
# 5 -6.7405 0.0042 14.2440 0.0000 51.3660 0.0000
# 6 0.0000 0.0000 0.0000 -3.9212 0.0000 27.0741
#
#
#
# Elastic Compliance Matrix: (Units=1/GPa)
#
#
# Indices 1 2 3 4 5 6 
#
# 1 0.011895 -0.005121 -0.001720 0.000000 0.002038 0.000000
# 2 -0.005121 0.049148 -0.003500 0.000000 0.000295 0.000000
# 3 -0.001720 -0.003500 0.007674 0.000000 -0.002353 0.000000
# 4 0.000000 0.000000 0.000000 -0.897893 0.000000 -0.130043
# 5 0.002038 0.000295 -0.002353 0.000000 0.020388 0.000000
# 6 0.000000 0.000000 0.000000 -0.130043 0.000000 0.018101
#
#
# Mechanical properties :
#
#
# Convention : Reuss Voigt Hill
#
# Bulk Modulus (GPa) = 20.81886 39.91242 30.36564
# Shear Modulus (GPa) = -6.63136 29.81627 11.59245
#
# Velocity S-wave (km/s) = -1.68248 3.56759 2.22452
# Velocity P-wave (km/s) = 2.26112 5.83162 4.42269
#
# Compressibility (1/GPa) = 0.04803338
#
# Stress axis : x y z
#
# Youngs Moduli (GPa) = 84.07239 20.34670 130.31610
#
# Poissons Ratio (x) = 0.10419 0.22420
# Poissons Ratio (y) = 0.43051 0.45615
# Poissons Ratio (z) = 0.14464 0.07122
#
# Static dielectric constant tensor:
#      x y z
#    x 2.148250 0.000000 0.094520 
#    y 0.000000 1.912410 0.000000 
#    z 0.094520 0.000000 2.058910 
# 
# From -- ./inp_files/137519.got.cif
#   From: 2010.05.17/outbox.cif.g08.bks.cpg/sg12_69_cif.got.tgz:137519.got - 2010.06.03 13:09:07.
