data_PCOD9203532
_publ_section_title
;
Structure prediction by ZEFSAII (Michael W. Deem and Ramdas Pophale) SiO2 
 PCOD9203532
Probable space group: C 2/M
;
_chemical_formula_sum "Si O2"
_cell_formula_units_Z 48
_cell_length_a 31.004747
_cell_length_b 8.564616
_cell_length_c 15.117147
_cell_angle_alpha 90.000000
_cell_angle_beta 40.041192
_cell_angle_gamma 90.000000
_cell_volume 2582.529257
_symmetry_space_group_name_H-M "C 2/M"
_symmetry_group_IT_number 12
_symmetry_cell_setting 'monoclinic'
loop_
_space_group_symop_operation_xyz
x,y,z
-x,y,-z
-x,-y,-z
x,-y,z
1/2+x,1/2+y,z
1/2-x,1/2+y,-z
1/2-x,1/2-y,-z
1/2+x,1/2-y,z
loop_
_atom_site_type_symbol
_atom_site_label
_atom_site_fract_x
_atom_site_fract_y
_atom_site_fract_z
Si Si1 0.429098 0.186821 0.655723
Si Si2 0.319484 0.687545 0.350592
Si Si3 0.579199 0.689886 0.657660
Si Si4 0.337006 0.688888 0.647736
Si Si5 0.314393 0.813022 0.161480
Si Si6 0.429016 0.312759 0.853741
O O1 0.500000 0.234694 0.500000
O O2 0.370515 0.240002 0.681890
O O3 0.422387 0.262118 0.762414
O O4 0.429013 0.000000 0.664707
O O5 0.317591 0.500000 0.354659
O O6 0.250000 0.750000 0.500000
O O7 0.379806 0.740101 0.320274
O O8 0.327209 0.745630 0.238761
O O9 0.578941 0.500000 0.658141
O O10 0.619608 0.737691 0.506177
O O11 0.502360 0.741288 0.772311
O O12 0.339968 0.500000 0.648853
O O13 0.260032 0.735281 0.753407
O O14 0.314572 0.000000 0.166765
O O15 0.370376 0.756962 0.005407
O O16 0.426690 0.500000 0.862993
#
# Coordination Sequence:
#
# PCOD9203532 Si02
#       6
#     8   8   8   8   8   8
#     4  11  23  38  60  93 125 153 194 251 305 353
#     4  11  21  38  63  92 122 158 204 249 297 354
#     4   9  19  37  62  89 117 155 204 247 289 352
#     4  10  20  39  64  87 116 160 204 243 291 357
#     4  11  24  42  61  89 127 159 196 251 305 353
#     4  11  23  41  64  88 119 161 203 245 298 359
#
# _framework density 18.58643
#
# number of rings (size 3 to 8) (size 9 to 14) (size 15 to 20)
#    0.000    1.500    3.333    2.000    0.000    3.333 
#    0.000    6.667    0.000    0.000    0.000    0.000 
#    0.000    0.000    0.000    0.000    0.000    0.000 
#
# Total GULP energy -134130.361637 kJ/mol
# GULP energy per Si atom -5588.765068 kJ/mol
# Density = 1.854413 g / cm^3
# Si number density = 18.586430 Si / 1000 Ang^3
#
#
#
# Elastic Constant Matrix: (Units=GPa)
#
#
# Indices 1 2 3 4 5 6 
#
# 1 164.2217 27.1555 64.1552 0.0000 -6.8441 -0.0001
# 2 27.1555 36.8763 24.4684 0.0014 -1.0906 0.0002
# 3 64.1552 24.4684 136.5108 0.0008 -4.2066 0.0000
# 4 0.0000 0.0014 0.0008 32.3989 0.0001 5.0706
# 5 -6.8441 -1.0906 -4.2066 0.0001 33.9846 -0.0001
# 6 -0.0001 0.0002 0.0000 5.0706 -0.0001 26.8191
#
#
#
# Elastic Compliance Matrix: (Units=1/GPa)
#
#
# Indices 1 2 3 4 5 6 
#
# 1 0.007945 -0.003817 -0.003015 0.000000 0.001104 0.000000
# 2 -0.003817 0.032615 -0.004059 -0.000001 -0.000224 0.000000
# 3 -0.003015 -0.004059 0.009484 0.000000 0.000436 0.000000
# 4 0.000000 -0.000001 0.000000 0.031806 0.000000 -0.006013
# 5 0.001104 -0.000224 0.000436 0.000000 0.029694 0.000000
# 6 0.000000 0.000000 0.000000 -0.006013 0.000000 0.038424
#
#
# Mechanical properties :
#
#
# Convention : Reuss Voigt Hill
#
# Bulk Modulus (GPa) = 35.38526 63.24079 49.31302
# Shear Modulus (GPa) = 27.59831 33.42918 30.51374
#
# Velocity S-wave (km/s) = 3.85757 4.24557 4.05621
# Velocity P-wave (km/s) = 6.23865 7.62445 6.96609
#
# Compressibility (1/GPa) = 0.02826036
#
# Stress axis : x y z
#
# Youngs Moduli (GPa) = 125.87291 30.66067 105.44507
#
# Poissons Ratio (x) = 0.11703 0.31797
# Poissons Ratio (y) = 0.48043 0.42802
# Poissons Ratio (z) = 0.37957 0.12446
#
# Static dielectric constant tensor:
#      x y z
#    x 1.622710 0.000000 -0.017380 
#    y 0.000000 1.633400 0.000000 
#    z -0.017380 0.000000 1.608840 
# 
# From -- ./inp_files/229937.got.cif
#   From: 2010.05.17/outbox.cif.g08.bks.cpg/sg12_115_cif.got.tgz:229937.got - 2010.06.03 13:09:07.
