data_PCOD9203319
_publ_section_title
;
Structure prediction by ZEFSAII (Michael W. Deem and Ramdas Pophale) SiO2 
 PCOD9203319
Probable space group: C 2/M
;
_chemical_formula_sum "Si O2"
_cell_formula_units_Z 58
_cell_length_a 21.918865
_cell_length_b 17.116354
_cell_length_c 7.916395
_cell_angle_alpha 90.000000
_cell_angle_beta 74.200233
_cell_angle_gamma 90.000000
_cell_volume 2857.792890
_symmetry_space_group_name_H-M "C 2/M"
_symmetry_group_IT_number 12
_symmetry_cell_setting 'monoclinic'
loop_
_space_group_symop_operation_xyz
x,y,z
-x,y,-z
-x,-y,-z
x,-y,z
1/2+x,1/2+y,z
1/2-x,1/2+y,-z
1/2-x,1/2-y,-z
1/2+x,1/2-y,z
loop_
_atom_site_type_symbol
_atom_site_label
_atom_site_fract_x
_atom_site_fract_y
_atom_site_fract_z
Si Si1 0.290960 0.338267 0.603680
Si Si2 0.323076 0.591629 0.213917
Si Si3 0.599620 0.876757 0.072874
Si Si4 0.427159 0.283645 0.051330
Si Si5 0.649532 0.797798 0.597573
Si Si6 0.431888 0.086444 0.530167
Si Si7 0.000000 0.500000 0.000000
Si Si8 0.244197 0.344760 0.982008
O O1 0.310621 0.385902 0.420474
O O2 0.336223 0.262842 0.563026
O O3 0.218165 0.310463 0.629333
O O4 0.290063 0.371182 0.793343
O O5 0.334397 0.500000 0.193167
O O6 0.379809 0.642827 0.088851
O O7 0.263282 0.617273 0.145338
O O8 0.593646 0.912897 0.262505
O O9 0.578781 0.785460 0.082476
O O10 0.554599 0.930653 0.991974
O O11 0.674255 0.871992 0.981002
O O12 0.401167 0.238557 0.236747
O O13 0.500000 0.308042 0.000000
O O14 0.618983 0.874970 0.550009
O O15 0.500000 0.127706 0.500000
O O16 0.445662 0.000000 0.449928
O O17 0.250000 0.250000 0.000000
#
# Coordination Sequence:
#
# PCOD9203319 Si02
#       8
#     8   8   8   8   8   8   2   8
#     4  10  21  41  65  94 128 174 210 283 348 399
#     4  11  26  44  66 101 137 172 238 299 342 418
#     4  12  23  40  61  92 132 179 222 271 328 423
#     4  11  22  42  69  91 125 181 224 274 351 410
#     4  10  20  39  61  91 125 160 224 266 330 419
#     4  11  24  37  54  86 128 172 216 265 321 389
#     4  12  28  40  58  92 150 176 220 270 326 438
#     4  12  22  41  71 102 132 176 231 288 352 412
#
# _framework density 20.295382
#
# number of rings (size 3 to 8) (size 9 to 14) (size 15 to 20)
#    0.000    0.966    4.138    4.138    0.966    2.483 
#    0.000    0.000    0.000    0.000    0.000    2.897 
#    0.000    0.000    0.000    0.000    0.000    0.000 
#
# Total GULP energy -161541.435983 kJ/mol
# GULP energy per Si atom -5570.394344 kJ/mol
# Density = 2.024919 g / cm^3
# Si number density = 20.295382 Si / 1000 Ang^3
#
#
#
# Elastic Constant Matrix: (Units=GPa)
#
#
# Indices 1 2 3 4 5 6 
#
# 1 104.2276 40.6532 18.8475 0.0000 -15.7282 0.0000
# 2 40.6532 111.8681 21.9813 0.0000 0.4923 0.0000
# 3 18.8475 21.9813 47.3065 0.0000 3.0684 0.0000
# 4 0.0000 0.0000 0.0000 37.7734 0.0000 -14.0112
# 5 -15.7282 0.4923 3.0684 0.0000 24.9591 0.0000
# 6 0.0000 0.0000 0.0000 -14.0112 0.0000 34.7398
#
#
#
# Elastic Compliance Matrix: (Units=1/GPa)
#
#
# Indices 1 2 3 4 5 6 
#
# 1 0.013245 -0.004074 -0.003962 0.000000 0.008914 0.000000
# 2 -0.004074 0.011094 -0.003378 0.000000 -0.002371 0.000000
# 3 -0.003962 -0.003378 0.024641 0.000000 -0.005459 0.000000
# 4 0.000000 0.000000 0.000000 0.031131 0.000000 0.012556
# 5 0.008914 -0.002371 -0.005459 0.000000 0.046401 0.000000
# 6 0.000000 0.000000 0.000000 0.012556 0.000000 0.033849
#
#
# Mechanical properties :
#
#
# Convention : Reuss Voigt Hill
#
# Bulk Modulus (GPa) = 38.23840 47.37400 42.80620
# Shear Modulus (GPa) = 26.05443 31.62247 28.83845
#
# Velocity S-wave (km/s) = 3.58685 3.95157 3.77362
# Velocity P-wave (km/s) = 6.00298 6.64927 6.33438
#
# Compressibility (1/GPa) = 0.02615172
#
# Stress axis : x y z
#
# Youngs Moduli (GPa) = 75.50007 90.14076 40.58285
#
# Poissons Ratio (x) = 0.36723 0.16079
# Poissons Ratio (y) = 0.30759 0.13708
# Poissons Ratio (z) = 0.29914 0.30449
#
# Static dielectric constant tensor:
#      x y z
#    x 1.762010 0.000000 -0.030340 
#    y 0.000000 1.752620 0.000000 
#    z -0.030340 0.000000 1.828280 
# 
# From -- ./inp_files/87888.got.cif
#   From: 2010.05.17/outbox.cif.g08.bks.cpg/sg12_44_cif.got.tgz:87888.got - 2010.06.03 13:09:07.
