data_PCOD9203866
_publ_section_title
;
Structure prediction by ZEFSAII (Michael W. Deem and Ramdas Pophale) SiO2 
 PCOD9203866
Probable space group: C 2/M
;
_chemical_formula_sum "Si O2"
_cell_formula_units_Z 52
_cell_length_a 10.074293
_cell_length_b 27.232359
_cell_length_c 16.283086
_cell_angle_alpha 90.000000
_cell_angle_beta 141.083091
_cell_angle_gamma 90.000000
_cell_volume 2806.269950
_symmetry_space_group_name_H-M "C 2/M"
_symmetry_group_IT_number 12
_symmetry_cell_setting 'monoclinic'
loop_
_space_group_symop_operation_xyz
x,y,z
-x,y,-z
-x,-y,-z
x,-y,z
1/2+x,1/2+y,z
1/2-x,1/2+y,-z
1/2-x,1/2-y,-z
1/2+x,1/2-y,z
loop_
_atom_site_type_symbol
_atom_site_label
_atom_site_fract_x
_atom_site_fract_y
_atom_site_fract_z
Si Si1 0.955072 0.588945 0.068267
Si Si2 0.826298 0.443714 0.344200
Si Si3 0.508248 0.737687 0.907794
Si Si4 0.399021 0.055402 0.686494
Si Si5 0.515355 0.640737 0.823739
Si Si6 0.203607 0.823944 0.749134
Si Si7 0.000000 0.126916 0.500000
O O1 0.997266 0.559994 0.172898
O O2 0.117949 0.634337 0.152347
O O3 0.722289 0.611592 0.953325
O O4 0.000000 0.564870 0.000000
O O5 0.739250 0.500000 0.303808
O O6 0.657114 0.400895 0.276551
O O7 0.000000 0.441163 0.500000
O O8 0.936208 0.436239 0.308253
O O9 0.453415 0.681773 0.859784
O O10 0.331926 0.774957 0.788905
O O11 0.500000 0.746128 0.000000
O O12 0.750000 0.750000 0.000000
O O13 0.205304 0.092916 0.586098
O O14 0.317703 0.000000 0.637217
O O15 0.576196 0.673132 0.772986
O O16 0.049923 0.840269 0.602759
#
# Coordination Sequence:
#
# PCOD9203866 Si02
#       7
#     8   8   8   8   8   8   4
#     4   9  19  35  57  84 120 155 195 253 302 357
#     4  10  23  42  61  85 121 162 207 255 302 363
#     4  12  22  38  63  91 122 160 198 248 310 363
#     4  10  21  37  59  89 118 155 208 253 303 370
#     4  11  22  38  64  88 122 164 203 248 311 364
#     4  10  20  40  58  91 122 158 204 251 291 369
#     4  10  21  38  66  80 122 164 195 252 312 348
#
# _framework density 18.529934999999998
#
# number of rings (size 3 to 8) (size 9 to 14) (size 15 to 20)
#    0.000    1.692    3.077    1.615    2.154    0.923 
#    1.385   10.000    0.000    0.000    0.000    0.000 
#    0.000    0.000    0.000    0.000    0.000    0.000 
#
# Total GULP energy -145010.978287 kJ/mol
# GULP energy per Si atom -5577.345319 kJ/mol
# Density = 1.848776 g / cm^3
# Si number density = 18.529935 Si / 1000 Ang^3
#
#
#
# Elastic Constant Matrix: (Units=GPa)
#
#
# Indices 1 2 3 4 5 6 
#
# 1 74.0732 20.2597 29.3567 0.0000 -8.2290 0.0000
# 2 20.2597 74.9770 32.8171 0.0000 7.2727 0.0000
# 3 29.3567 32.8171 106.2825 0.0000 -9.5834 0.0000
# 4 0.0000 0.0000 0.0000 21.3141 0.0000 -2.2453
# 5 -8.2290 7.2727 -9.5834 0.0000 19.8042 0.0000
# 6 0.0000 0.0000 0.0000 -2.2453 0.0000 16.4839
#
#
#
# Elastic Compliance Matrix: (Units=1/GPa)
#
#
# Indices 1 2 3 4 5 6 
#
# 1 0.016416 -0.003933 -0.002692 0.000000 0.006963 0.000000
# 2 -0.003933 0.017801 -0.005382 0.000000 -0.010775 0.000000
# 3 -0.002692 -0.005382 0.012434 0.000000 0.006875 0.000000
# 4 0.000000 0.000000 0.000000 0.047600 0.000000 0.006484
# 5 0.006963 -0.010775 0.006875 0.000000 0.060671 0.000000
# 6 0.000000 0.000000 0.000000 0.006484 0.000000 0.061549
#
#
# Mechanical properties :
#
#
# Convention : Reuss Voigt Hill
#
# Bulk Modulus (GPa) = 44.17413 46.68884 45.43148
# Shear Modulus (GPa) = 20.15879 23.04706 21.60293
#
# Velocity S-wave (km/s) = 3.30192 3.53055 3.41814
# Velocity P-wave (km/s) = 6.19903 6.47077 6.33635
#
# Compressibility (1/GPa) = 0.02263768
#
# Stress axis : x y z
#
# Youngs Moduli (GPa) = 60.91495 56.17698 80.42398
#
# Poissons Ratio (x) = 0.22094 0.21652
# Poissons Ratio (y) = 0.23957 0.43282
# Poissons Ratio (z) = 0.16400 0.30233
#
# Static dielectric constant tensor:
#      x y z
#    x 1.668490 0.000000 -0.008090 
#    y 0.000000 1.633070 0.000000 
#    z -0.008090 0.000000 1.673450 
# 
# From -- ./inp_files/201361.got.cif
#   From: 2010.05.17/outbox.cif.g08.bks.cpg/sg12_101_cif.got.tgz:201361.got - 2010.06.03 13:09:07.
