data_PCOD9203436
_publ_section_title
;
Structure prediction by ZEFSAII (Michael W. Deem and Ramdas Pophale) SiO2 
 PCOD9203436
Probable space group: C 2/M
;
_chemical_formula_sum "Si O2"
_cell_formula_units_Z 64
_cell_length_a 30.520960
_cell_length_b 7.838978
_cell_length_c 16.670586
_cell_angle_alpha 90.000000
_cell_angle_beta 47.550073
_cell_angle_gamma 90.000000
_cell_volume 2942.977024
_symmetry_space_group_name_H-M "C 2/M"
_symmetry_group_IT_number 12
_symmetry_cell_setting 'monoclinic'
loop_
_space_group_symop_operation_xyz
x,y,z
-x,y,-z
-x,-y,-z
x,-y,z
1/2+x,1/2+y,z
1/2-x,1/2+y,-z
1/2-x,1/2-y,-z
1/2+x,1/2-y,z
loop_
_atom_site_type_symbol
_atom_site_label
_atom_site_fract_x
_atom_site_fract_y
_atom_site_fract_z
Si Si1 0.505772 0.292683 0.250429
Si Si2 0.673962 0.798138 0.288096
Si Si3 0.279785 0.194235 0.046092
Si Si4 0.708875 0.207980 0.418571
Si Si5 0.606028 0.303401 0.009570
Si Si6 0.841121 0.799752 0.218901
Si Si7 0.379155 0.797722 0.339561
Si Si8 0.047089 0.206323 0.374986
O O1 0.507696 0.500000 0.248516
O O2 0.439335 0.237328 0.313059
O O3 0.528056 0.234727 0.310184
O O4 0.550521 0.228419 0.126068
O O5 0.729144 0.710782 0.176017
O O6 0.672275 0.746949 0.383543
O O7 0.612817 0.761270 0.318848
O O8 0.686027 0.000000 0.270257
O O9 0.337110 0.299391 0.002000
O O10 0.299630 0.000000 0.014107
O O11 0.250000 0.250000 0.000000
O O12 0.775891 0.270439 0.321405
O O13 0.675881 0.269511 0.539027
O O14 0.709924 0.000000 0.422596
O O15 0.589826 0.500000 0.012399
O O16 0.628026 0.224479 0.898375
O O17 0.879803 0.782815 0.250852
O O18 0.831097 0.000000 0.213195
O O19 0.372253 0.000000 0.337563
O O20 0.000000 0.265224 0.500000
O O21 0.046420 0.000000 0.375446
#
# Coordination Sequence:
#
# PCOD9203436 Si02
#       8
#     8   8   8   8   8   8   8   8
#     4  10  22  40  60  83 115 158 202 242 294 360
#     4  11  21  37  61  88 119 156 200 245 299 360
#     4  12  24  38  59  88 121 156 196 241 296 356
#     4   9  19  37  60  87 120 155 195 244 298 360
#     4  10  21  40  64  86 116 157 202 249 295 355
#     4  10  20  39  63  85 116 155 198 248 304 361
#     4  11  23  38  59  88 119 153 199 252 302 355
#     4  10  21  37  57  86 124 161 202 251 301 359
#
# _framework density 21.746687000000001
#
# number of rings (size 3 to 8) (size 9 to 14) (size 15 to 20)
#    0.000    1.625    1.250    3.750    0.000    3.250 
#    0.000    5.000    0.000    0.000    0.000    0.000 
#    0.000    0.000    0.000    0.000    0.000    0.000 
#
# Total GULP energy -178894.773947 kJ/mol
# GULP energy per Si atom -5590.461686 kJ/mol
# Density = 2.169719 g / cm^3
# Si number density = 21.746687 Si / 1000 Ang^3
#
#
#
# Elastic Constant Matrix: (Units=GPa)
#
#
# Indices 1 2 3 4 5 6 
#
# 1 59.6427 -5.7926 1.1914 0.0000 11.3326 -0.0001
# 2 -5.7926 32.8909 12.7732 -0.0003 2.0194 -0.0005
# 3 1.1914 12.7732 114.0734 -0.0001 9.7176 -0.0003
# 4 0.0000 -0.0003 -0.0001 -3.6947 0.0000 3.9356
# 5 11.3326 2.0194 9.7176 0.0000 39.6583 0.0001
# 6 -0.0001 -0.0005 -0.0003 3.9356 0.0001 23.5033
#
#
#
# Elastic Compliance Matrix: (Units=1/GPa)
#
#
# Indices 1 2 3 4 5 6 
#
# 1 0.018129 0.003573 -0.000135 0.000000 -0.005329 0.000000
# 2 0.003573 0.032512 -0.003523 -0.000002 -0.001813 0.000001
# 3 -0.000135 -0.003523 0.009339 0.000000 -0.002070 0.000000
# 4 0.000000 -0.000002 0.000000 -0.229688 0.000000 0.038462
# 5 -0.005329 -0.001813 -0.002070 0.000000 0.027338 0.000000
# 6 0.000000 0.000001 0.000000 0.038462 0.000000 0.036107
#
#
# Mechanical properties :
#
#
# Convention : Reuss Voigt Hill
#
# Bulk Modulus (GPa) = 16.72039 24.77233 20.74636
# Shear Modulus (GPa) = -58.03430 25.12238 -16.45596
#
# Velocity S-wave (km/s) = -5.17150 3.40255 -2.75382
# Velocity P-wave (km/s) = 5.28714 5.18194 0.74207
#
# Compressibility (1/GPa) = 0.05980722
#
# Stress axis : x y z
#
# Youngs Moduli (GPa) = 55.16094 30.75756 107.08270
#
# Poissons Ratio (x) = -0.10988 0.01450
# Poissons Ratio (y) = -0.19706 0.37729
# Poissons Ratio (z) = 0.00747 0.10837
#
# Static dielectric constant tensor:
#      x y z
#    x 1.755040 0.000000 0.010790 
#    y 0.000000 1.820400 0.000000 
#    z 0.010790 0.000000 1.804240 
# 
# From -- ./inp_files/249876.got.cif
#   From: 2010.05.17/outbox.cif.g08.bks.cpg/sg12_125_cif.got.tgz:249876.got - 2010.06.03 13:09:07.
