data_PCOD9203369
_publ_section_title
;
Structure prediction by ZEFSAII (Michael W. Deem and Ramdas Pophale) SiO2 
 PCOD9203369
Probable space group: C 2/M
;
_chemical_formula_sum "Si O2"
_cell_formula_units_Z 48
_cell_length_a 10.238997
_cell_length_b 17.858117
_cell_length_c 31.762149
_cell_angle_alpha 90.000000
_cell_angle_beta 153.932987
_cell_angle_gamma 90.000000
_cell_volume 2552.024433
_symmetry_space_group_name_H-M "C 2/M"
_symmetry_group_IT_number 12
_symmetry_cell_setting 'monoclinic'
loop_
_space_group_symop_operation_xyz
x,y,z
-x,y,-z
-x,-y,-z
x,-y,z
1/2+x,1/2+y,z
1/2-x,1/2+y,-z
1/2-x,1/2-y,-z
1/2+x,1/2-y,z
loop_
_atom_site_type_symbol
_atom_site_label
_atom_site_fract_x
_atom_site_fract_y
_atom_site_fract_z
Si Si1 0.705164 0.665209 0.284722
Si Si2 0.651656 0.589199 0.409860
Si Si3 0.304875 0.589811 0.482763
Si Si4 0.146850 0.084163 0.887835
Si Si5 0.310056 0.734574 0.065293
Si Si6 0.643901 0.705884 0.735693
O O1 0.454078 0.617083 0.186878
O O2 0.564253 0.708500 0.283431
O O3 0.851926 0.723257 0.294410
O O4 0.965186 0.612310 0.376762
O O5 0.599616 0.500000 0.391804
O O6 0.598469 0.615102 0.442649
O O7 0.454105 0.634940 0.319973
O O8 0.000000 0.602106 0.500000
O O9 0.500000 0.618203 0.500000
O O10 0.326814 0.500000 0.489573
O O11 0.043358 0.151767 0.887995
O O12 0.025143 0.000000 0.857822
O O13 0.500000 0.078949 0.000000
O O14 0.525275 0.793937 0.149470
O O15 0.250000 0.750000 0.000000
O O16 0.000000 0.733549 0.000000
#
# Coordination Sequence:
#
# PCOD9203369 Si02
#       6
#     8   8   8   8   8   8
#     4  11  23  37  58  86 118 154 199 248 297 360
#     4  10  21  40  62  85 118 156 201 252 300 358
#     4  10  22  40  60  84 116 155 195 245 306 357
#     4   9  18  34  59  88 113 146 196 246 292 350
#     4  10  20  39  62  86 123 158 194 247 303 359
#     4  11  23  37  60  89 116 157 202 242 304 361
#
# _framework density 18.808599000000001
#
# number of rings (size 3 to 8) (size 9 to 14) (size 15 to 20)
#    0.000    1.833    1.667    3.500    2.333    2.000 
#    0.000    0.833    0.000    1.000    0.000    0.000 
#    0.000    0.000    0.000    0.000    0.000    0.000 
#
# Total GULP energy -133750.375682 kJ/mol
# GULP energy per Si atom -5572.932320 kJ/mol
# Density = 1.876579 g / cm^3
# Si number density = 18.808599 Si / 1000 Ang^3
#
#
#
# Elastic Constant Matrix: (Units=GPa)
#
#
# Indices 1 2 3 4 5 6 
#
# 1 131.5995 52.6853 38.8462 -0.0005 -21.2021 -0.0006
# 2 52.6853 73.2873 47.7753 0.0003 -16.8592 -0.0008
# 3 38.8462 47.7753 100.1435 0.0037 -23.5130 -0.0051
# 4 -0.0005 0.0003 0.0037 38.4916 -0.0027 -5.9823
# 5 -21.2021 -16.8592 -23.5130 -0.0027 35.8130 -0.0003
# 6 -0.0006 -0.0008 -0.0051 -5.9823 -0.0003 17.8140
#
#
#
# Elastic Compliance Matrix: (Units=1/GPa)
#
#
# Indices 1 2 3 4 5 6 
#
# 1 0.010974 -0.007080 -0.000161 0.000000 0.003058 0.000000
# 2 -0.007080 0.024793 -0.008660 0.000000 0.001794 -0.000001
# 3 -0.000161 -0.008660 0.015606 0.000000 0.006074 0.000004
# 4 0.000000 0.000000 0.000000 0.027410 0.000002 0.009205
# 5 0.003058 0.001794 0.006074 0.000002 0.034565 0.000003
# 6 0.000000 -0.000001 0.000004 0.009205 0.000003 0.059227
#
#
# Mechanical properties :
#
#
# Convention : Reuss Voigt Hill
#
# Bulk Modulus (GPa) = 51.10080 64.84929 57.97505
# Shear Modulus (GPa) = 23.70778 29.47197 26.58988
#
# Velocity S-wave (km/s) = 3.55417 3.96276 3.76401
# Velocity P-wave (km/s) = 6.63857 7.44925 7.05556
#
# Compressibility (1/GPa) = 0.01956917
#
# Stress axis : x y z
#
# Youngs Moduli (GPa) = 91.12799 40.33364 64.07900
#
# Poissons Ratio (x) = 0.28558 0.01031
# Poissons Ratio (y) = 0.64523 0.55495
# Poissons Ratio (z) = 0.01466 0.34930
#
# Static dielectric constant tensor:
#      x y z
#    x 1.670570 0.000000 0.008360 
#    y 0.000000 1.669980 0.000000 
#    z 0.008360 0.000000 1.665650 
# 
# From -- ./inp_files/373030.got.cif
#   From: 2010.05.17/outbox.cif.g08.bks.cpg/sg12_187_cif.got.tgz:373030.got - 2010.06.03 13:09:07.
