data_PCOD9203352
_publ_section_title
;
Structure prediction by ZEFSAII (Michael W. Deem and Ramdas Pophale) SiO2 
 PCOD9203352
Probable space group: C 2/M
;
_chemical_formula_sum "Si O2"
_cell_formula_units_Z 48
_cell_length_a 30.847352
_cell_length_b 8.747451
_cell_length_c 15.094269
_cell_angle_alpha 90.000000
_cell_angle_beta 40.059741
_cell_angle_gamma 90.000000
_cell_volume 2621.308160
_symmetry_space_group_name_H-M "C 2/M"
_symmetry_group_IT_number 12
_symmetry_cell_setting 'monoclinic'
loop_
_space_group_symop_operation_xyz
x,y,z
-x,y,-z
-x,-y,-z
x,-y,z
1/2+x,1/2+y,z
1/2-x,1/2+y,-z
1/2-x,1/2-y,-z
1/2+x,1/2-y,z
loop_
_atom_site_type_symbol
_atom_site_label
_atom_site_fract_x
_atom_site_fract_y
_atom_site_fract_z
Si Si1 0.802368 0.816390 0.150257
Si Si2 0.437043 0.816105 0.659599
Si Si3 0.959512 0.815705 0.153325
Si Si4 0.558112 0.817493 0.141363
Si Si5 0.192617 0.184274 0.652355
Si Si6 0.708911 0.682227 0.147643
O O1 0.797445 0.770283 0.260761
O O2 0.744670 0.743862 0.179999
O O3 0.798940 0.000000 0.150065
O O4 0.874189 0.761756 0.000273
O O5 0.500000 0.771838 0.500000
O O6 0.450623 0.780318 0.741398
O O7 0.367859 0.737116 0.739105
O O8 0.428201 0.000000 0.666252
O O9 0.882028 0.769014 0.262438
O O10 0.996445 0.739124 0.178083
O O11 0.962546 0.000000 0.158397
O O12 0.000000 0.777452 0.000000
O O13 0.565648 0.000000 0.121563
O O14 0.250000 0.250000 0.500000
O O15 0.194689 0.000000 0.646308
O O16 0.713042 0.500000 0.137913
O O17 0.750000 0.750000 0.000000
#
# Coordination Sequence:
#
# PCOD9203352 Si02
#       6
#     8   8   8   8   8   8
#     4  11  22  40  64  89 122 164 204 250 307 364
#     4  10  23  43  63  88 127 165 201 252 312 368
#     4  10  20  39  62  85 118 159 203 244 297 362
#     4  11  22  36  61  94 121 155 204 254 302 359
#     4  10  23  41  62  89 123 163 200 249 308 361
#     4  12  24  39  63  94 124 160 209 257 306 367
#
# _framework density 18.311468000000001
#
# number of rings (size 3 to 8) (size 9 to 14) (size 15 to 20)
#    0.000    1.333    3.333    2.500    0.000    4.667 
#    0.000    5.000    0.000    0.000    0.000    0.000 
#    0.000    0.000    0.000    0.000    0.000    0.000 
#
# Total GULP energy -134172.848218 kJ/mol
# GULP energy per Si atom -5590.535342 kJ/mol
# Density = 1.826979 g / cm^3
# Si number density = 18.311468 Si / 1000 Ang^3
#
#
#
# Elastic Constant Matrix: (Units=GPa)
#
#
# Indices 1 2 3 4 5 6 
#
# 1 210.2929 73.1739 108.5204 0.0000 -4.0834 0.0000
# 2 73.1739 61.8656 62.8330 -0.0005 0.7390 0.0002
# 3 108.5204 62.8330 180.9652 -0.0001 -1.7645 0.0000
# 4 0.0000 -0.0005 -0.0001 31.1666 0.0001 -3.3735
# 5 -4.0834 0.7390 -1.7645 0.0001 31.9426 0.0000
# 6 0.0000 0.0002 0.0000 -3.3735 0.0000 35.6163
#
#
#
# Elastic Compliance Matrix: (Units=1/GPa)
#
#
# Indices 1 2 3 4 5 6 
#
# 1 0.008834 -0.007869 -0.002554 0.000000 0.001170 0.000000
# 2 -0.007869 0.032014 -0.006417 0.000000 -0.002101 0.000000
# 3 -0.002554 -0.006417 0.009289 0.000000 0.000335 0.000000
# 4 0.000000 0.000000 0.000000 0.032418 0.000000 0.003071
# 5 0.001170 -0.002101 0.000335 0.000000 0.031523 0.000000
# 6 0.000000 0.000000 0.000000 0.003071 0.000000 0.028368
#
#
# Mechanical properties :
#
#
# Convention : Reuss Voigt Hill
#
# Bulk Modulus (GPa) = 60.76570 104.68646 82.72608
# Shear Modulus (GPa) = 27.53127 33.65152 30.59139
#
# Velocity S-wave (km/s) = 3.88170 4.29153 4.09175
# Velocity P-wave (km/s) = 7.30388 9.04711 8.22183
#
# Compressibility (1/GPa) = 0.01645665
#
# Stress axis : x y z
#
# Youngs Moduli (GPa) = 113.19860 31.23626 107.65504
#
# Poissons Ratio (x) = 0.24579 0.27495
# Poissons Ratio (y) = 0.89074 0.69086
# Poissons Ratio (z) = 0.28911 0.20045
#
# Static dielectric constant tensor:
#      x y z
#    x 1.611430 0.000000 0.003900 
#    y 0.000000 1.618330 0.000000 
#    z 0.003900 0.000000 1.597260 
# 
# From -- ./inp_files/248805.got.cif
#   From: 2010.05.17/outbox.cif.g08.bks.cpg/sg12_125_cif.got.tgz:248805.got - 2010.06.03 13:09:07.
