data_PCOD9203096
_publ_section_title
;
Structure prediction by ZEFSAII (Michael W. Deem and Ramdas Pophale) SiO2 
 PCOD9203096
Probable space group: C 2/M
;
_chemical_formula_sum "Si O2"
_cell_formula_units_Z 64
_cell_length_a 11.648211
_cell_length_b 15.170496
_cell_length_c 28.227158
_cell_angle_alpha 90.000000
_cell_angle_beta 141.277522
_cell_angle_gamma 90.000000
_cell_volume 3120.235308
_symmetry_space_group_name_H-M "C 2/M"
_symmetry_group_IT_number 12
_symmetry_cell_setting 'monoclinic'
loop_
_space_group_symop_operation_xyz
x,y,z
-x,y,-z
-x,-y,-z
x,-y,z
1/2+x,1/2+y,z
1/2-x,1/2+y,-z
1/2-x,1/2-y,-z
1/2+x,1/2-y,z
loop_
_atom_site_type_symbol
_atom_site_label
_atom_site_fract_x
_atom_site_fract_y
_atom_site_fract_z
Si Si1 0.078243 0.899894 0.156588
Si Si2 0.185852 0.726392 0.824570
Si Si3 0.244106 0.399418 0.682212
Si Si4 0.415459 0.225528 0.587227
Si Si5 0.543727 0.350339 0.703384
Si Si6 0.206909 0.598469 0.084893
Si Si7 0.696639 0.604735 0.585584
Si Si8 0.137298 0.600014 0.257500
O O1 0.151428 0.836600 0.139669
O O2 0.165022 0.880755 0.236875
O O3 0.859929 0.895963 0.093160
O O4 0.132756 0.000000 0.163177
O O5 0.098671 0.761631 0.748149
O O6 0.253204 0.815547 0.871146
O O7 0.027269 0.670396 0.799498
O O8 0.169073 0.500000 0.659147
O O9 0.403945 0.397046 0.694012
O O10 0.095565 0.322814 0.623854
O O11 0.250000 0.250000 0.500000
O O12 0.450493 0.316336 0.625843
O O13 0.345978 0.153885 0.602572
O O14 0.727937 0.396467 0.744264
O O15 0.237064 0.500000 0.116870
O O16 0.000000 0.601138 0.000000
O O17 0.500000 0.633174 0.500000
O O18 0.707290 0.500000 0.582197
O O19 0.745854 0.620101 0.656729
O O20 0.066445 0.500000 0.240123
#
# Coordination Sequence:
#
# PCOD9203096 Si02
#       8
#     8   8   8   8   8   8   8   8
#     4  10  20  38  66  98 128 167 214 261 314 384
#     4  12  21  38  68  93 130 165 213 265 313 378
#     4  11  23  42  63  88 122 164 211 264 320 379
#     4  12  25  38  60  86 124 161 212 263 322 377
#     4  12  23  37  61  93 124 161 213 264 319 379
#     4  10  23  43  66  96 135 174 213 258 317 388
#     4  10  21  39  61  82 116 164 213 260 314 380
#     4  11  23  40  61  95 129 164 212 268 323 380
#
# _framework density 20.511274
#
# number of rings (size 3 to 8) (size 9 to 14) (size 15 to 20)
#    0.000    1.000    3.750    3.375    1.750    3.000 
#    0.000    2.500    0.000    1.500    0.000    0.000 
#    0.000    0.000    0.000    0.000    0.000    0.000 
#
# Total GULP energy -178599.241495 kJ/mol
# GULP energy per Si atom -5581.226297 kJ/mol
# Density = 2.046459 g / cm^3
# Si number density = 20.511274 Si / 1000 Ang^3
#
#
#
# Elastic Constant Matrix: (Units=GPa)
#
#
# Indices 1 2 3 4 5 6 
#
# 1 121.6841 62.7141 23.3895 0.0000 15.7320 0.0000
# 2 62.7141 123.8020 37.3205 0.0000 12.7061 0.0000
# 3 23.3895 37.3205 53.2901 0.0000 23.1066 0.0000
# 4 0.0000 0.0000 0.0000 29.3080 0.0000 1.5055
# 5 15.7320 12.7061 23.1066 0.0000 21.4201 0.0000
# 6 0.0000 0.0000 0.0000 1.5055 0.0000 34.9248
#
#
#
# Elastic Compliance Matrix: (Units=1/GPa)
#
#
# Indices 1 2 3 4 5 6 
#
# 1 0.011794 -0.005865 0.002213 0.000000 -0.007571 0.000000
# 2 -0.005865 0.013268 -0.009718 0.000000 0.006921 0.000000
# 3 0.002213 -0.009718 0.042846 0.000000 -0.042080 0.000000
# 4 0.000000 0.000000 0.000000 0.034196 0.000000 -0.001474
# 5 -0.007571 0.006921 -0.042080 0.000000 0.093534 0.000000
# 6 0.000000 0.000000 0.000000 -0.001474 0.000000 0.028697
#
#
# Mechanical properties :
#
#
# Convention : Reuss Voigt Hill
#
# Bulk Modulus (GPa) = 24.29074 60.62494 42.45784
# Shear Modulus (GPa) = 18.88252 28.82072 23.85162
#
# Velocity S-wave (km/s) = 3.03742 3.75255 3.41376
# Velocity P-wave (km/s) = 4.91625 6.95677 6.02354
#
# Compressibility (1/GPa) = 0.04116795
#
# Stress axis : x y z
#
# Youngs Moduli (GPa) = 84.78960 75.37152 23.33958
#
# Poissons Ratio (x) = 0.44203 -0.05166
# Poissons Ratio (y) = 0.49726 0.22682
# Poissons Ratio (z) = -0.18768 0.73250
#
# Static dielectric constant tensor:
#      x y z
#    x 1.561050 0.000000 0.205590 
#    y 0.000000 1.769200 0.000000 
#    z 0.205590 0.000000 1.569380 
# 
# From -- ./inp_files/374130.got.cif
#   From: 2010.05.17/outbox.cif.g08.bks.cpg/sg12_188_cif.got.tgz:374130.got - 2010.06.03 13:09:07.
