data_PCOD9203705
_publ_section_title
;
Structure prediction by ZEFSAII (Michael W. Deem and Ramdas Pophale) SiO2 
 PCOD9203705
Probable space group: C 2/M
;
_chemical_formula_sum "Si O2"
_cell_formula_units_Z 56
_cell_length_a 20.508422
_cell_length_b 8.582903
_cell_length_c 16.568454
_cell_angle_alpha 90.000000
_cell_angle_beta 87.615638
_cell_angle_gamma 90.000000
_cell_volume 2913.884080
_symmetry_space_group_name_H-M "C 2/M"
_symmetry_group_IT_number 12
_symmetry_cell_setting 'monoclinic'
loop_
_space_group_symop_operation_xyz
x,y,z
-x,y,-z
-x,-y,-z
x,-y,z
1/2+x,1/2+y,z
1/2-x,1/2+y,-z
1/2-x,1/2-y,-z
1/2+x,1/2-y,z
loop_
_atom_site_type_symbol
_atom_site_label
_atom_site_fract_x
_atom_site_fract_y
_atom_site_fract_z
Si Si1 0.123058 0.688457 0.638258
Si Si2 0.575109 0.313863 0.476895
Si Si3 0.737014 0.186315 0.756531
Si Si4 0.941250 0.311705 0.062742
Si Si5 0.509567 0.189238 0.764936
Si Si6 0.298843 0.684931 0.064840
Si Si7 0.376362 0.813335 0.696060
O O1 0.123206 0.500000 0.629769
O O2 0.118761 0.764841 0.551077
O O3 0.184192 0.733467 0.691108
O O4 0.057980 0.735746 0.690674
O O5 0.500000 0.266471 0.500000
O O6 0.576238 0.500000 0.466167
O O7 0.601598 0.233675 0.394911
O O8 0.719508 0.255329 0.844720
O O9 0.808538 0.237591 0.725082
O O10 0.733228 0.000000 0.763515
O O11 0.934578 0.500000 0.063555
O O12 0.872199 0.240745 0.042756
O O13 0.961309 0.259344 0.151500
O O14 0.000000 0.271362 0.000000
O O15 0.435937 0.238747 0.750848
O O16 0.509514 0.000000 0.766222
O O17 0.295490 0.500000 0.064518
O O18 0.250000 0.750000 0.000000
O O19 0.370305 0.000000 0.701498
#
# Coordination Sequence:
#
# PCOD9203705 Si02
#       7
#     8   8   8   8   8   8   8
#     4  10  20  39  66  88 118 164 208 252 310 376
#     4  11  23  38  59  91 127 160 205 264 318 362
#     4  11  24  44  66  92 127 164 205 258 317 375
#     4  10  21  40  67  97 130 166 206 258 315 375
#     4   9  18  36  61  91 122 161 208 250 303 370
#     4  12  26  44  66  93 128 170 214 260 314 375
#     4  11  23  39  63  93 126 166 211 254 306 378
#
# _framework density 19.218336000000001
#
# number of rings (size 3 to 8) (size 9 to 14) (size 15 to 20)
#    0.000    1.429    2.857    2.571    2.000    2.571 
#    0.000    1.429    0.000    0.000    0.000    0.000 
#    0.000    0.000    0.000    0.000    0.000    0.000 
#
# Total GULP energy -156516.454687 kJ/mol
# GULP energy per Si atom -5589.873382 kJ/mol
# Density = 1.917459 g / cm^3
# Si number density = 19.218336 Si / 1000 Ang^3
#
#
#
# Elastic Constant Matrix: (Units=GPa)
#
#
# Indices 1 2 3 4 5 6 
#
# 1 163.5034 40.2455 56.1218 0.0000 14.9271 0.0000
# 2 40.2455 46.5091 30.1620 0.0000 3.5219 0.0000
# 3 56.1218 30.1620 94.1448 0.0000 19.7545 0.0000
# 4 0.0000 0.0000 0.0000 24.9892 0.0000 -1.1803
# 5 14.9271 3.5219 19.7545 0.0000 38.1347 0.0000
# 6 0.0000 0.0000 0.0000 -1.1803 0.0000 31.8936
#
#
#
# Elastic Compliance Matrix: (Units=1/GPa)
#
#
# Indices 1 2 3 4 5 6 
#
# 1 0.008628 -0.005308 -0.003183 0.000000 -0.001238 0.000000
# 2 -0.005308 0.030578 -0.007265 0.000000 0.003017 0.000000
# 3 -0.003183 -0.007265 0.016206 0.000000 -0.006478 0.000000
# 4 0.000000 0.000000 0.000000 0.040087 0.000000 0.001484
# 5 -0.001238 0.003017 -0.006478 0.000000 0.029785 0.000000
# 6 0.000000 0.000000 0.000000 0.001484 0.000000 0.031409
#
#
# Mechanical properties :
#
#
# Convention : Reuss Voigt Hill
#
# Bulk Modulus (GPa) = 41.84215 61.91288 51.87751
# Shear Modulus (GPa) = 25.48769 30.84537 28.16653
#
# Velocity S-wave (km/s) = 3.64568 4.01059 3.83248
# Velocity P-wave (km/s) = 6.28813 7.33020 6.82907
#
# Compressibility (1/GPa) = 0.02389935
#
# Stress axis : x y z
#
# Youngs Moduli (GPa) = 115.89785 32.70357 61.70399
#
# Poissons Ratio (x) = 0.17360 0.19641
# Poissons Ratio (y) = 0.61521 0.44829
# Poissons Ratio (z) = 0.36891 0.23760
#
# Static dielectric constant tensor:
#      x y z
#    x 1.652730 0.000000 0.011500 
#    y 0.000000 1.654760 0.000000 
#    z 0.011500 0.000000 1.649340 
# 
# From -- ./inp_files/230980.got.cif
#   From: 2010.05.17/outbox.cif.g08.bks.cpg/sg12_116_cif.got.tgz:230980.got - 2010.06.03 13:09:07.
