data_PCOD9203776
_publ_section_title
;
Structure prediction by ZEFSAII (Michael W. Deem and Ramdas Pophale) SiO2 
 PCOD9203776
Probable space group: C 2/M
;
_chemical_formula_sum "Si O2"
_cell_formula_units_Z 56
_cell_length_a 21.823371
_cell_length_b 18.692335
_cell_length_c 9.277063
_cell_angle_alpha 90.000000
_cell_angle_beta 133.089618
_cell_angle_gamma 90.000000
_cell_volume 2763.687386
_symmetry_space_group_name_H-M "C 2/M"
_symmetry_group_IT_number 12
_symmetry_cell_setting 'monoclinic'
loop_
_space_group_symop_operation_xyz
x,y,z
-x,y,-z
-x,-y,-z
x,-y,z
1/2+x,1/2+y,z
1/2-x,1/2+y,-z
1/2-x,1/2-y,-z
1/2+x,1/2-y,z
loop_
_atom_site_type_symbol
_atom_site_label
_atom_site_fract_x
_atom_site_fract_y
_atom_site_fract_z
Si Si1 0.457745 0.916429 0.581124
Si Si2 0.236705 0.187157 0.863598
Si Si3 0.839440 0.348579 0.609389
Si Si4 0.979670 0.919172 0.800352
Si Si5 0.375717 0.082422 0.969927
Si Si6 0.089507 0.917191 0.723177
Si Si7 0.665627 0.307477 0.439254
O O1 0.500000 0.889357 0.500000
O O2 0.378488 0.876404 0.522994
O O3 0.435952 0.000000 0.521838
O O4 0.530612 0.912231 0.818279
O O5 0.317507 0.137158 0.965332
O O6 0.161295 0.136057 0.792434
O O7 0.209516 0.213712 0.660960
O O8 0.250000 0.250000 0.000000
O O9 0.869070 0.396753 0.791260
O O10 0.738319 0.343385 0.459278
O O11 0.867647 0.266415 0.679573
O O12 0.907665 0.863134 0.649840
O O13 0.064298 0.905795 0.848327
O O14 0.951771 0.000000 0.717018
O O15 0.000000 0.916028 0.000000
O O16 0.347889 0.000000 0.944492
O O17 0.000000 0.905457 0.500000
O O18 0.113652 0.000000 0.738335
#
# Coordination Sequence:
#
# PCOD9203776 Si02
#       7
#     8   8   8   8   8   8   8
#     4  10  22  40  62  91 123 160 212 267 318 374
#     4  11  24  39  63  98 133 171 213 269 330 392
#     4  10  22  39  63  90 123 168 209 265 317 391
#     4  10  22  40  63  94 126 164 217 273 326 388
#     4  10  22  42  66  92 122 168 222 263 312 387
#     4  10  20  39  67  93 125 172 224 271 322 388
#     4  10  23  41  61  91 131 168 213 264 327 397
#
# _framework density 20.262784
#
# number of rings (size 3 to 8) (size 9 to 14) (size 15 to 20)
#    0.000    1.857    1.429    1.286    2.000    9.714 
#    0.000    0.000    0.000    0.000    0.000    0.000 
#    0.000    0.000    0.000    0.000    0.000    0.000 
#
# Total GULP energy -156343.974293 kJ/mol
# GULP energy per Si atom -5583.713368 kJ/mol
# Density = 2.021667 g / cm^3
# Si number density = 20.262784 Si / 1000 Ang^3
#
#
#
# Elastic Constant Matrix: (Units=GPa)
#
#
# Indices 1 2 3 4 5 6 
#
# 1 131.7935 55.2984 20.7555 0.0000 -18.7533 0.0000
# 2 55.2984 92.0187 20.4117 0.0000 6.6090 0.0000
# 3 20.7555 20.4117 37.2161 0.0000 -10.6740 0.0000
# 4 0.0000 0.0000 0.0000 23.4429 0.0000 40.4683
# 5 -18.7533 6.6090 -10.6740 0.0000 27.6921 0.0000
# 6 0.0000 0.0000 0.0000 40.4683 0.0000 -295.9129
#
#
#
# Elastic Compliance Matrix: (Units=1/GPa)
#
#
# Indices 1 2 3 4 5 6 
#
# 1 0.012580 -0.008507 0.000760 0.000000 0.010843 0.000000
# 2 -0.008507 0.019173 -0.009822 0.000000 -0.014123 0.000000
# 3 0.000760 -0.009822 0.036712 0.000000 0.017009 0.000000
# 4 0.000000 0.000000 0.000000 0.034510 0.000000 0.004719
# 5 0.010843 -0.014123 0.017009 0.000000 0.053381 0.000000
# 6 0.000000 0.000000 0.000000 0.004719 0.000000 -0.002734
#
#
# Mechanical properties :
#
#
# Convention : Reuss Voigt Hill
#
# Bulk Modulus (GPa) = 30.00640 50.43997 40.22318
# Shear Modulus (GPa) = 25.01635 -37.98473 -6.48419
#
# Velocity S-wave (km/s) = 3.51749 -4.33437 -1.79081
# Velocity P-wave (km/s) = 5.59802 0.31946 3.95194
#
# Compressibility (1/GPa) = 0.03332622
#
# Stress axis : x y z
#
# Youngs Moduli (GPa) = 79.48861 52.15700 27.23936
#
# Poissons Ratio (x) = 0.44372 -0.02070
# Poissons Ratio (y) = 0.67625 0.26754
# Poissons Ratio (z) = -0.06039 0.51227
#
# Static dielectric constant tensor:
#      x y z
#    x 1.734740 0.000000 -0.038740 
#    y 0.000000 1.713420 0.000000 
#    z -0.038740 0.000000 1.739110 
# 
# From -- ./inp_files/88060.got.cif
#   From: 2010.05.17/outbox.cif.g08.bks.cpg/sg12_45_cif.got.tgz:88060.got - 2010.06.03 13:09:07.
