data_PCOD9203995
_publ_section_title
;
Structure prediction by ZEFSAII (Michael W. Deem and Ramdas Pophale) SiO2 
 PCOD9203995
Probable space group: C 2/M
;
_chemical_formula_sum "Si O2"
_cell_formula_units_Z 48
_cell_length_a 25.497618
_cell_length_b 8.698069
_cell_length_c 20.826798
_cell_angle_alpha 90.000000
_cell_angle_beta 35.530343
_cell_angle_gamma 90.000000
_cell_volume 2684.239495
_symmetry_space_group_name_H-M "C 2/M"
_symmetry_group_IT_number 12
_symmetry_cell_setting 'monoclinic'
loop_
_space_group_symop_operation_xyz
x,y,z
-x,y,-z
-x,-y,-z
x,-y,z
1/2+x,1/2+y,z
1/2-x,1/2+y,-z
1/2-x,1/2-y,-z
1/2+x,1/2-y,z
loop_
_atom_site_type_symbol
_atom_site_label
_atom_site_fract_x
_atom_site_fract_y
_atom_site_fract_z
Si Si1 0.933697 0.815161 0.382133
Si Si2 0.256905 0.185015 0.764615
Si Si3 0.555519 0.685264 0.381668
Si Si4 0.558022 0.685433 0.005866
Si Si5 0.250067 0.314959 0.378713
Si Si6 0.559368 0.183112 0.763192
O O1 0.834952 0.751441 0.498402
O O2 0.962681 0.749250 0.284873
O O3 0.001640 0.768472 0.371562
O O4 0.930070 0.000000 0.383210
O O5 0.343661 0.252092 0.713465
O O6 0.258702 0.230034 0.687605
O O7 0.260903 0.000000 0.762484
O O8 0.161307 0.231674 0.890256
O O9 0.500000 0.737532 0.500000
O O10 0.558472 0.500000 0.380183
O O11 0.554252 0.500000 0.017475
O O12 0.512694 0.763212 0.112152
O O13 0.500000 0.722369 0.000000
O O14 0.250732 0.500000 0.382168
O O15 0.343708 0.251091 0.312472
O O16 0.564727 0.000000 0.755612
#
# Coordination Sequence:
#
# PCOD9203995 Si02
#       6
#     8   8   8   8   8   8
#     4  11  23  40  60  85 120 161 196 240 297 351
#     4  10  21  36  61  91 118 152 193 240 290 346
#     4  10  21  38  60  87 119 153 194 243 292 344
#     4  10  20  40  63  86 118 155 196 240 292 351
#     4  11  21  37  60  89 122 156 192 239 295 353
#     4  12  25  39  58  88 121 157 198 244 293 349
#
# _framework density 17.882159999999999
#
# number of rings (size 3 to 8) (size 9 to 14) (size 15 to 20)
#    0.000    1.333    3.333    3.000    0.000    3.333 
#    0.000    0.833    0.000    0.000    0.000    0.000 
#    0.000    0.000    0.000    0.000    0.000    0.000 
#
# Total GULP energy -134161.733075 kJ/mol
# GULP energy per Si atom -5590.072211 kJ/mol
# Density = 1.784146 g / cm^3
# Si number density = 17.882160 Si / 1000 Ang^3
#
#
#
# Elastic Constant Matrix: (Units=GPa)
#
#
# Indices 1 2 3 4 5 6 
#
# 1 92.6547 27.8296 74.3445 -0.0007 10.9923 -0.0008
# 2 27.8296 49.3276 42.1826 -0.0036 9.6802 0.0029
# 3 74.3445 42.1826 148.4834 -0.0072 5.7988 0.0053
# 4 -0.0007 -0.0036 -0.0072 33.9554 0.0029 -5.9918
# 5 10.9923 9.6802 5.7988 0.0029 37.6122 -0.0026
# 6 -0.0008 0.0029 0.0053 -5.9918 -0.0026 18.5247
#
#
#
# Elastic Compliance Matrix: (Units=1/GPa)
#
#
# Indices 1 2 3 4 5 6 
#
# 1 0.018873 -0.002634 -0.008564 -0.000001 -0.003517 0.000003
# 2 -0.002634 0.028443 -0.006545 0.000002 -0.005542 -0.000003
# 3 -0.008564 -0.006545 0.012795 0.000001 0.002215 -0.000002
# 4 -0.000001 0.000002 0.000001 0.031233 -0.000002 0.010102
# 5 -0.003517 -0.005542 0.002215 -0.000002 0.028700 0.000003
# 6 0.000003 -0.000003 -0.000002 0.010102 0.000003 0.057249
#
#
# Mechanical properties :
#
#
# Convention : Reuss Voigt Hill
#
# Bulk Modulus (GPa) = 40.60821 64.35325 52.48073
# Shear Modulus (GPa) = 22.62565 27.75905 25.19235
#
# Velocity S-wave (km/s) = 3.56091 3.94424 3.75747
# Velocity P-wave (km/s) = 6.29801 7.53712 6.94525
#
# Compressibility (1/GPa) = 0.02462556
#
# Stress axis : x y z
#
# Youngs Moduli (GPa) = 52.98702 35.15761 78.15258
#
# Poissons Ratio (x) = 0.09260 0.66927
# Poissons Ratio (y) = 0.13957 0.51153
# Poissons Ratio (z) = 0.45376 0.23011
#
# Static dielectric constant tensor:
#      x y z
#    x 1.594380 0.000000 0.008850 
#    y 0.000000 1.601180 0.000000 
#    z 0.008850 0.000000 1.584570 
# 
# From -- ./inp_files/327143.got.cif
#   From: 2010.05.17/outbox.cif.g08.bks.cpg/sg12_164_cif.got.tgz:327143.got - 2010.06.03 13:09:07.
