data_PCOD9203285
_publ_section_title
;
Structure prediction by ZEFSAII (Michael W. Deem and Ramdas Pophale) SiO2 
 PCOD9203285
Probable space group: C 2/M
;
_chemical_formula_sum "Si O2"
_cell_formula_units_Z 48
_cell_length_a 11.388780
_cell_length_b 23.563374
_cell_length_c 7.931247
_cell_angle_alpha 90.000000
_cell_angle_beta 95.631856
_cell_angle_gamma 90.000000
_cell_volume 2118.140362
_symmetry_space_group_name_H-M "C 2/M"
_symmetry_group_IT_number 12
_symmetry_cell_setting 'monoclinic'
loop_
_space_group_symop_operation_xyz
x,y,z
-x,y,-z
-x,-y,-z
x,-y,z
1/2+x,1/2+y,z
1/2-x,1/2+y,-z
1/2-x,1/2-y,-z
1/2+x,1/2-y,z
loop_
_atom_site_type_symbol
_atom_site_label
_atom_site_fract_x
_atom_site_fract_y
_atom_site_fract_z
Si Si1 0.627866 0.088483 0.960491
Si Si2 0.372369 0.220420 0.956957
Si Si3 0.205017 0.693286 0.411443
Si Si4 0.952169 0.065199 0.810999
Si Si5 0.801010 0.916271 0.293168
Si Si6 0.284343 0.093521 0.375006
O O1 0.649437 0.068280 0.774053
O O2 0.500000 0.069708 0.000000
O O3 0.628169 0.157620 0.959308
O O4 0.726585 0.072339 0.113159
O O5 0.374080 0.209277 0.756806
O O6 0.500000 0.249780 0.000000
O O7 0.250000 0.250000 0.000000
O O8 0.250000 0.750000 0.500000
O O9 0.300440 0.651406 0.334522
O O10 0.157607 0.651916 0.550964
O O11 0.066470 0.064410 0.709575
O O12 0.847265 0.102373 0.720523
O O13 0.908567 0.000000 0.822929
O O14 0.000000 0.084446 0.000000
O O15 0.736695 0.938678 0.452094
#
# Coordination Sequence:
#
# PCOD9203285 Si02
#       6
#     8   8   8   8   8   8
#     4  10  20  39  61  83 129 170 217 268 335 390
#     4  10  21  41  58  87 126 176 227 289 340 400
#     4   9  20  40  56  91 129 176 221 274 337 398
#     4  11  22  41  72 104 139 177 213 285 369 424
#     4   9  21  38  61  94 125 172 220 265 340 410
#     4  10  21  38  64  92 129 169 220 274 328 408
#
# _framework density 22.661390000000001
#
# number of rings (size 3 to 8) (size 9 to 14) (size 15 to 20)
#    1.000    1.167    1.667    1.500    0.000    2.000 
#   15.000    1.667    0.000    2.000    0.000    2.333 
#    0.000    0.667    0.000    0.000    0.000    0.000 
#
# Total GULP energy -133732.152485 kJ/mol
# GULP energy per Si atom -5572.173020 kJ/mol
# Density = 2.260981 g / cm^3
# Si number density = 22.661390 Si / 1000 Ang^3
#
#
#
# Elastic Constant Matrix: (Units=GPa)
#
#
# Indices 1 2 3 4 5 6 
#
# 1 127.8638 14.8670 44.6387 0.0000 -11.4005 0.0000
# 2 14.8670 79.4562 18.5168 0.0000 6.2994 0.0000
# 3 44.6387 18.5168 176.6944 0.0000 -14.8764 0.0000
# 4 0.0000 0.0000 0.0000 -10.0261 0.0000 -42.3555
# 5 -11.4005 6.2994 -14.8764 0.0000 36.8922 0.0000
# 6 0.0000 0.0000 0.0000 -42.3555 0.0000 14.0324
#
#
#
# Elastic Compliance Matrix: (Units=1/GPa)
#
#
# Indices 1 2 3 4 5 6 
#
# 1 0.008843 -0.001386 -0.001903 0.000000 0.002202 0.000000
# 2 -0.001386 0.013413 -0.001330 0.000000 -0.003255 0.000000
# 3 -0.001903 -0.001330 0.006469 0.000000 0.002247 0.000000
# 4 0.000000 0.000000 0.000000 -0.007253 0.000000 -0.021893
# 5 0.002202 -0.003255 0.002247 0.000000 0.029248 0.000000
# 6 0.000000 0.000000 0.000000 -0.021893 0.000000 0.005182
#
#
# Mechanical properties :
#
#
# Convention : Reuss Voigt Hill
#
# Bulk Modulus (GPa) = 51.31548 60.00658 55.66103
# Shear Modulus (GPa) = 69.79878 28.57918 49.18898
#
# Velocity S-wave (km/s) = 5.55586 3.55511 4.66403
# Velocity P-wave (km/s) = 7.99065 6.58702 7.32254
#
# Compressibility (1/GPa) = 0.01948730
#
# Stress axis : x y z
#
# Youngs Moduli (GPa) = 113.08735 74.55634 154.58600
#
# Poissons Ratio (x) = 0.10330 0.29424
# Poissons Ratio (y) = 0.15669 0.20553
# Poissons Ratio (z) = 0.21525 0.09913
#
# Static dielectric constant tensor:
#      x y z
#    x 1.852340 0.000000 0.016140 
#    y 0.000000 1.876640 0.000000 
#    z 0.016140 0.000000 1.930850 
# 
# From -- ./inp_files/42154.got.cif
#   From: 2010.05.17/outbox.cif.g08.bks.cpg/sg12_22_cif.got.tgz:42154.got - 2010.06.03 13:09:07.
