data_PCOD9203155
_publ_section_title
;
Structure prediction by ZEFSAII (Michael W. Deem and Ramdas Pophale) SiO2 
 PCOD9203155
Probable space group: C 2/M
;
_chemical_formula_sum "Si O2"
_cell_formula_units_Z 50
_cell_length_a 15.381672
_cell_length_b 20.244037
_cell_length_c 7.164088
_cell_angle_alpha 90.000000
_cell_angle_beta 105.579847
_cell_angle_gamma 90.000000
_cell_volume 2148.838604
_symmetry_space_group_name_H-M "C 2/M"
_symmetry_group_IT_number 12
_symmetry_cell_setting 'monoclinic'
loop_
_space_group_symop_operation_xyz
x,y,z
-x,y,-z
-x,-y,-z
x,-y,z
1/2+x,1/2+y,z
1/2-x,1/2+y,-z
1/2-x,1/2-y,-z
1/2+x,1/2-y,z
loop_
_atom_site_type_symbol
_atom_site_label
_atom_site_fract_x
_atom_site_fract_y
_atom_site_fract_z
Si Si1 0.639809 0.717653 0.200505
Si Si2 0.000000 0.000000 0.500000
Si Si3 0.294168 0.856649 0.862890
Si Si4 0.621935 0.872728 0.715715
Si Si5 0.073142 0.576526 0.297743
Si Si6 0.941009 0.226574 0.244005
Si Si7 0.363787 0.619376 0.478293
O O1 0.707377 0.779810 0.207740
O O2 0.544428 0.737442 0.242638
O O3 0.667591 0.657104 0.350411
O O4 0.610894 0.702402 0.972118
O O5 0.069591 0.941933 0.459264
O O6 0.392275 0.880022 0.851988
O O7 0.220930 0.896823 0.703938
O O8 0.297974 0.872683 0.085221
O O9 0.532483 0.912348 0.728265
O O10 0.630186 0.898883 0.510904
O O11 0.594014 0.796210 0.702288
O O12 0.089995 0.500000 0.273792
O O13 0.915924 0.172898 0.381381
#
# Coordination Sequence:
#
# PCOD9203155 Si02
#       7
#     8   2   8   8   8   8   8
#     4  10  20  40  67  99 121 154 215 277 337 380
#     4  12  28  48  62  88 134 194 226 236 314 408
#     4  11  24  39  68  99 124 161 219 283 322 370
#     4  10  21  39  65  96 130 160 209 265 335 396
#     4  11  23  38  59  91 134 178 202 245 320 401
#     4  10  20  38  69  92 123 162 207 271 336 392
#     4  12  25  44  66  90 130 173 219 270 315 381
#
# _framework density 23.268384000000001
#
# number of rings (size 3 to 8) (size 9 to 14) (size 15 to 20)
#    0.000    1.280    3.200    2.880    3.360    5.760 
#    0.000    1.600    0.000    0.000    0.000    0.000 
#    0.000    0.000    0.000    0.000    0.000    0.000 
#
# Total GULP energy -139386.734655 kJ/mol
# GULP energy per Si atom -5575.469386 kJ/mol
# Density = 2.321542 g / cm^3
# Si number density = 23.268384 Si / 1000 Ang^3
#
#
#
# Elastic Constant Matrix: (Units=GPa)
#
#
# Indices 1 2 3 4 5 6 
#
# 1 54.6709 -2.0057 9.5030 0.0000 4.2780 0.0000
# 2 -2.0057 99.0656 29.4617 0.0000 -5.6493 0.0000
# 3 9.5030 29.4617 124.7487 0.0000 -2.1731 0.0000
# 4 0.0000 0.0000 0.0000 -5.2894 0.0000 1.3375
# 5 4.2780 -5.6493 -2.1731 0.0000 40.4816 0.0000
# 6 0.0000 0.0000 0.0000 1.3375 0.0000 13.2798
#
#
#
# Elastic Compliance Matrix: (Units=1/GPa)
#
#
# Indices 1 2 3 4 5 6 
#
# 1 0.018758 0.000756 -0.001642 0.000000 -0.001965 0.000000
# 2 0.000756 0.010965 -0.002624 0.000000 0.001309 0.000000
# 3 -0.001642 -0.002624 0.008766 0.000000 0.000278 0.000000
# 4 0.000000 0.000000 0.000000 -0.184362 0.000000 0.018568
# 5 -0.001965 0.001309 0.000278 0.000000 0.025108 0.000000
# 6 0.000000 0.000000 0.000000 0.018568 0.000000 0.073432
#
#
# Mechanical properties :
#
#
# Convention : Reuss Voigt Hill
#
# Bulk Modulus (GPa) = 31.77772 39.15590 35.46681
# Shear Modulus (GPa) = -167.64969 25.79614 -70.92677
#
# Velocity S-wave (km/s) = -8.49746 3.33323 -5.52704
# Velocity P-wave (km/s) = 9.08785 5.62835 5.04533
#
# Compressibility (1/GPa) = 0.03146859
#
# Stress axis : x y z
#
# Youngs Moduli (GPa) = 53.31024 91.20128 114.07976
#
# Poissons Ratio (x) = -0.06894 0.18728
# Poissons Ratio (y) = -0.04030 0.29938
# Poissons Ratio (z) = 0.08752 0.23934
#
# Static dielectric constant tensor:
#      x y z
#    x 1.999000 0.000000 0.046790 
#    y 0.000000 1.793180 0.000000 
#    z 0.046790 0.000000 1.981250 
# 
# From -- ./inp_files/75357.got.cif
#   From: 2010.05.17/outbox.cif.g08.bks.cpg/sg12_38_cif.got.tgz:75357.got - 2010.06.03 13:09:07.
