data_PCOD9203670
_publ_section_title
;
Structure prediction by ZEFSAII (Michael W. Deem and Ramdas Pophale) SiO2 
 PCOD9203670
Probable space group: C 2/M
;
_chemical_formula_sum "Si O2"
_cell_formula_units_Z 56
_cell_length_a 28.530734
_cell_length_b 8.746915
_cell_length_c 19.415003
_cell_angle_alpha 90.000000
_cell_angle_beta 144.641954
_cell_angle_gamma 90.000000
_cell_volume 2803.799161
_symmetry_space_group_name_H-M "C 2/M"
_symmetry_group_IT_number 12
_symmetry_cell_setting 'monoclinic'
loop_
_space_group_symop_operation_xyz
x,y,z
-x,y,-z
-x,-y,-z
x,-y,z
1/2+x,1/2+y,z
1/2-x,1/2+y,-z
1/2-x,1/2-y,-z
1/2+x,1/2-y,z
loop_
_atom_site_type_symbol
_atom_site_label
_atom_site_fract_x
_atom_site_fract_y
_atom_site_fract_z
Si Si1 0.005772 0.180710 0.303996
Si Si2 0.779737 0.818188 0.607839
Si Si3 0.821548 0.179287 0.041389
Si Si4 0.049079 0.683712 0.208620
Si Si5 0.934953 0.683341 0.480691
Si Si6 0.128916 0.316193 0.043643
Si Si7 0.730359 0.683409 0.688433
O O1 0.908500 0.197278 0.182633
O O2 0.040546 0.264759 0.278086
O O3 0.036433 0.251903 0.411510
O O4 0.025789 0.000000 0.324405
O O5 0.750000 0.750000 0.500000
O O6 0.872158 0.763137 0.727612
O O7 0.728784 0.751305 0.610041
O O8 0.773859 0.000000 0.599277
O O9 0.807054 0.000000 0.013933
O O10 0.750000 0.250000 0.000000
O O11 0.831226 0.258337 0.979112
O O12 0.057518 0.500000 0.214830
O O13 0.965218 0.731465 0.070914
O O14 0.929164 0.500000 0.476668
O O15 0.846531 0.754211 0.361981
O O16 0.000000 0.724812 0.500000
O O17 0.128382 0.500000 0.042206
O O18 0.185957 0.267773 0.174669
O O19 0.727381 0.500000 0.681773
#
# Coordination Sequence:
#
# PCOD9203670 Si02
#       7
#     8   8   8   8   8   8   8
#     4  10  21  38  59  86 117 155 201 248 300 359
#     4  12  25  42  65  93 125 162 206 252 305 363
#     4  10  21  35  57  86 118 156 201 250 300 357
#     4  10  20  39  65  92 124 160 200 248 303 360
#     4  11  25  42  60  86 120 160 204 251 309 366
#     4   9  21  40  62  89 123 162 202 248 303 363
#     4  11  24  43  65  91 124 161 205 254 305 364
#
# _framework density 19.972899000000002
#
# number of rings (size 3 to 8) (size 9 to 14) (size 15 to 20)
#    0.000    1.571    0.000    4.286    2.000    5.143 
#    0.000    2.857    0.000    0.000    0.000    0.000 
#    0.000    0.000    0.000    0.000    0.000    0.000 
#
# Total GULP energy -156580.254744 kJ/mol
# GULP energy per Si atom -5592.151955 kJ/mol
# Density = 1.992744 g / cm^3
# Si number density = 19.972899 Si / 1000 Ang^3
#
#
#
# Elastic Constant Matrix: (Units=GPa)
#
#
# Indices 1 2 3 4 5 6 
#
# 1 93.4296 29.0373 38.4130 0.0000 20.3040 0.0000
# 2 29.0373 60.5929 34.6447 0.0000 5.9459 0.0000
# 3 38.4130 34.6447 97.9607 0.0000 -7.6359 0.0000
# 4 0.0000 0.0000 0.0000 24.7950 0.0000 7.7897
# 5 20.3040 5.9459 -7.6359 0.0000 23.5033 0.0000
# 6 0.0000 0.0000 0.0000 7.7897 0.0000 33.8836
#
#
#
# Elastic Compliance Matrix: (Units=1/GPa)
#
#
# Indices 1 2 3 4 5 6 
#
# 1 0.018626 -0.002751 -0.007726 0.000000 -0.017905 0.000000
# 2 -0.002751 0.022591 -0.007357 0.000000 -0.005728 0.000000
# 3 -0.007726 -0.007357 0.016934 0.000000 0.014038 0.000000
# 4 0.000000 0.000000 0.000000 0.043470 0.000000 -0.009994
# 5 -0.017905 -0.005728 0.014038 0.000000 0.064025 0.000000
# 6 0.000000 0.000000 0.000000 -0.009994 0.000000 0.031810
#
#
# Mechanical properties :
#
#
# Convention : Reuss Voigt Hill
#
# Bulk Modulus (GPa) = 44.48167 50.68591 47.58379
# Shear Modulus (GPa) = 20.77971 26.42894 23.60432
#
# Velocity S-wave (km/s) = 3.22902 3.64158 3.44149
# Velocity P-wave (km/s) = 6.01842 6.56612 6.29823
#
# Compressibility (1/GPa) = 0.02248117
#
# Stress axis : x y z
#
# Youngs Moduli (GPa) = 53.68815 44.26608 59.05280
#
# Poissons Ratio (x) = 0.12179 0.45627
# Poissons Ratio (y) = 0.14771 0.43445
# Poissons Ratio (z) = 0.41482 0.32567
#
# Static dielectric constant tensor:
#      x y z
#    x 1.669130 0.000000 0.026670 
#    y 0.000000 1.667540 0.000000 
#    z 0.026670 0.000000 1.731330 
# 
# From -- ./inp_files/292500.got.cif
#   From: 2010.05.17/outbox.cif.g08.bks.cpg/sg12_147_cif.got.tgz:292500.got - 2010.06.03 13:09:07.
