data_PCOD9203481
_publ_section_title
;
Structure prediction by ZEFSAII (Michael W. Deem and Ramdas Pophale) SiO2 
 PCOD9203481
Probable space group: C 2/M
;
_chemical_formula_sum "Si O2"
_cell_formula_units_Z 42
_cell_length_a 24.345424
_cell_length_b 7.503915
_cell_length_c 11.919197
_cell_angle_alpha 90.000000
_cell_angle_beta 131.926895
_cell_angle_gamma 90.000000
_cell_volume 1620.033527
_symmetry_space_group_name_H-M "C 2/M"
_symmetry_group_IT_number 12
_symmetry_cell_setting 'monoclinic'
loop_
_space_group_symop_operation_xyz
x,y,z
-x,y,-z
-x,-y,-z
x,-y,z
1/2+x,1/2+y,z
1/2-x,1/2+y,-z
1/2-x,1/2-y,-z
1/2+x,1/2-y,z
loop_
_atom_site_type_symbol
_atom_site_label
_atom_site_fract_x
_atom_site_fract_y
_atom_site_fract_z
Si Si1 0.667174 0.287086 0.345588
Si Si2 0.370431 0.795432 0.113141
Si Si3 0.105656 0.283369 0.600018
Si Si4 0.491945 0.284478 0.856396
Si Si5 0.233235 0.207709 0.218948
Si Si6 0.000000 0.000000 0.500000
O O1 0.658037 0.500000 0.335542
O O2 0.750000 0.250000 0.500000
O O3 0.590346 0.219197 0.291641
O O4 0.674691 0.219127 0.227535
O O5 0.383597 0.721087 0.254725
O O6 0.442135 0.781175 0.132172
O O7 0.353186 0.000000 0.109845
O O8 0.301039 0.721124 0.950377
O O9 0.094067 0.500000 0.577131
O O10 0.183647 0.226733 0.653078
O O11 0.038935 0.158490 0.474895
O O12 0.497229 0.500000 0.859000
O O13 0.500000 0.238001 0.000000
O O14 0.240072 0.000000 0.253484
#
# Coordination Sequence:
#
# PCOD9203481 Si02
#       6
#     8   8   8   8   8   2
#     4  10  22  40  62  91 125 172 216 265 330 390
#     4  11  23  38  65  99 131 163 215 277 334 390
#     4  10  25  45  66 101 134 170 223 274 327 400
#     4  10  20  39  63  89 126 171 219 267 319 389
#     4  10  21  42  68  90 130 170 211 277 332 388
#     4  12  26  44  72  90 138 186 214 258 336 404
#
# _framework density 25.925388000000002
#
# number of rings (size 3 to 8) (size 9 to 14) (size 15 to 20)
#    0.000    1.714    1.905    1.429    4.000    3.429 
#    3.429    3.810    0.000    0.000    0.000    0.000 
#    0.000    0.000    0.000    0.000    0.000    0.000 
#
# Total GULP energy -117133.678390 kJ/mol
# GULP energy per Si atom -5577.794209 kJ/mol
# Density = 2.586638 g / cm^3
# Si number density = 25.925388 Si / 1000 Ang^3
#
#
#
# Elastic Constant Matrix: (Units=GPa)
#
#
# Indices 1 2 3 4 5 6 
#
# 1 93.8422 10.1991 2.9245 0.0000 29.1494 0.0000
# 2 10.1991 96.8069 -2.5348 0.0000 13.0182 0.0000
# 3 2.9245 -2.5348 79.6246 0.0000 22.0322 0.0000
# 4 0.0000 0.0000 0.0000 8.6654 0.0000 18.5064
# 5 29.1494 13.0182 22.0322 0.0000 53.0799 0.0000
# 6 0.0000 0.0000 0.0000 18.5064 0.0000 16.9039
#
#
#
# Elastic Compliance Matrix: (Units=1/GPa)
#
#
# Indices 1 2 3 4 5 6 
#
# 1 0.013055 -0.000284 0.001668 0.000000 -0.007792 0.000000
# 2 -0.000284 0.010791 0.001179 0.000000 -0.002980 0.000000
# 3 0.001668 0.001179 0.014538 0.000000 -0.007239 0.000000
# 4 0.000000 0.000000 0.000000 -0.086241 0.000000 0.094416
# 5 -0.007792 -0.002980 -0.007239 0.000000 0.026854 0.000000
# 6 0.000000 0.000000 0.000000 0.094416 0.000000 -0.044209
#
#
# Mechanical properties :
#
#
# Convention : Reuss Voigt Hill
#
# Bulk Modulus (GPa) = 22.98363 32.38348 27.68355
# Shear Modulus (GPa) = -89.55512 33.04219 -28.25646
#
# Velocity S-wave (km/s) = -5.88374 3.57390 -3.30497
# Velocity P-wave (km/s) = 6.10519 5.43585 1.96530
#
# Compressibility (1/GPa) = 0.04350923
#
# Stress axis : x y z
#
# Youngs Moduli (GPa) = 76.59639 92.66695 68.78372
#
# Poissons Ratio (x) = 0.02631 -0.11470
# Poissons Ratio (y) = 0.02175 -0.08106
# Poissons Ratio (z) = -0.12773 -0.10921
#
# Static dielectric constant tensor:
#      x y z
#    x 2.119100 0.000000 -0.056400 
#    y 0.000000 1.969170 0.000000 
#    z -0.056400 0.000000 2.320300 
# 
# From -- ./inp_files/244447.got.cif
#   From: 2010.05.17/outbox.cif.g08.bks.cpg/sg12_123_cif.got.tgz:244447.got - 2010.06.03 13:09:07.
