data_PCOD9203121
_publ_section_title
;
Structure prediction by ZEFSAII (Michael W. Deem and Ramdas Pophale) SiO2 
 PCOD9203121
Probable space group: C 2/M
;
_chemical_formula_sum "Si O2"
_cell_formula_units_Z 64
_cell_length_a 14.215319
_cell_length_b 17.850469
_cell_length_c 18.165039
_cell_angle_alpha 90.000000
_cell_angle_beta 138.748946
_cell_angle_gamma 90.000000
_cell_volume 3039.239602
_symmetry_space_group_name_H-M "C 2/M"
_symmetry_group_IT_number 12
_symmetry_cell_setting 'monoclinic'
loop_
_space_group_symop_operation_xyz
x,y,z
-x,y,-z
-x,-y,-z
x,-y,z
1/2+x,1/2+y,z
1/2-x,1/2+y,-z
1/2-x,1/2-y,-z
1/2+x,1/2-y,z
loop_
_atom_site_type_symbol
_atom_site_label
_atom_site_fract_x
_atom_site_fract_y
_atom_site_fract_z
Si Si1 0.855780 0.144991 0.589284
Si Si2 0.831362 0.129575 0.411282
Si Si3 0.444175 0.417206 0.787360
Si Si4 0.833296 0.741947 0.924146
Si Si5 0.747830 0.132137 0.993229
Si Si6 0.462557 0.081752 0.751917
Si Si7 0.730155 0.216066 0.704321
Si Si8 0.551053 0.188381 0.395957
O O1 0.824943 0.108520 0.493168
O O2 0.937993 0.096010 0.695999
O O3 0.696025 0.163816 0.521378
O O4 0.931033 0.223996 0.614898
O O5 0.690392 0.089020 0.296450
O O6 0.795526 0.215669 0.367689
O O7 0.000000 0.116740 0.500000
O O8 0.385257 0.500000 0.771271
O O9 0.355358 0.344337 0.763585
O O10 0.606917 0.413248 0.909559
O O11 0.789011 0.812139 0.949804
O O12 0.757945 0.746305 0.800793
O O13 0.786434 0.674789 0.950377
O O14 0.000000 0.740960 0.000000
O O15 0.601143 0.092495 0.883931
O O16 0.467578 0.144813 0.691784
O O17 0.469878 0.000000 0.721341
O O18 0.581385 0.174926 0.629671
#
# Coordination Sequence:
#
# PCOD9203121 Si02
#       8
#     8   8   8   8   8   8   8   8
#     4  10  22  41  65  96 128 173 228 276 326 401
#     4  11  24  42  73  99 126 170 225 287 336 384
#     4  12  27  43  64  96 143 187 218 267 342 417
#     4  11  22  40  69 104 130 166 231 292 328 391
#     4  11  24  43  69  97 135 184 223 278 339 391
#     4  11  24  42  64  95 135 173 216 264 333 411
#     4  12  22  40  68 106 131 166 228 285 334 395
#     4  10  20  38  67  96 125 169 219 280 332 381
#
# _framework density 21.057898999999999
#
# number of rings (size 3 to 8) (size 9 to 14) (size 15 to 20)
#    0.000    1.000    3.750    4.125    3.500    2.750 
#    0.000    1.250    0.000    1.500    0.000    0.000 
#    0.000    0.000    0.000    0.000    0.000    0.000 
#
# Total GULP energy -178386.776975 kJ/mol
# GULP energy per Si atom -5574.586780 kJ/mol
# Density = 2.100997 g / cm^3
# Si number density = 21.057899 Si / 1000 Ang^3
#
#
#
# Elastic Constant Matrix: (Units=GPa)
#
#
# Indices 1 2 3 4 5 6 
#
# 1 94.7883 8.7285 32.2774 0.0000 25.2773 0.0000
# 2 8.7285 48.4339 14.0375 0.0000 9.8779 0.0000
# 3 32.2774 14.0375 116.0134 0.0001 20.3363 0.0000
# 4 0.0000 0.0000 0.0001 -9.5488 0.0000 13.1014
# 5 25.2773 9.8779 20.3363 0.0000 49.7782 0.0000
# 6 0.0000 0.0000 0.0000 13.1014 0.0000 -12.8379
#
#
#
# Elastic Compliance Matrix: (Units=1/GPa)
#
#
# Indices 1 2 3 4 5 6 
#
# 1 0.012917 -0.000475 -0.002588 0.000000 -0.005408 0.000000
# 2 -0.000475 0.021974 -0.001944 0.000000 -0.003325 0.000000
# 3 -0.002588 -0.001944 0.009993 0.000000 -0.002382 0.000000
# 4 0.000000 0.000000 0.000000 0.261668 0.000000 0.267040
# 5 -0.005408 -0.003325 -0.002382 0.000000 0.024468 0.000000
# 6 0.000000 0.000000 0.000000 0.267040 0.000000 0.194628
#
#
# Mechanical properties :
#
#
# Convention : Reuss Voigt Hill
#
# Bulk Modulus (GPa) = 28.67848 41.03582 34.85715
# Shear Modulus (GPa) = 9.13601 19.09113 14.11357
#
# Velocity S-wave (km/s) = 2.08517 3.01425 2.59168
# Velocity P-wave (km/s) = 4.40973 5.62527 5.05418
#
# Compressibility (1/GPa) = 0.03486936
#
# Stress axis : x y z
#
# Youngs Moduli (GPa) = 77.41739 45.50874 100.07368
#
# Poissons Ratio (x) = 0.02161 0.25903
# Poissons Ratio (y) = 0.03676 0.19453
# Poissons Ratio (z) = 0.20039 0.08846
#
# Static dielectric constant tensor:
#      x y z
#    x 1.826090 0.000000 0.044990 
#    y 0.000000 1.760060 0.000000 
#    z 0.044990 0.000000 1.818400 
# 
# From -- ./inp_files/271750.got.cif
#   From: 2010.05.17/outbox.cif.g08.bks.cpg/sg12_136_cif.got.tgz:271750.got - 2010.06.03 13:09:07.
