data_PCOD9203440
_publ_section_title
;
Structure prediction by ZEFSAII (Michael W. Deem and Ramdas Pophale) SiO2 
 PCOD9203440
Probable space group: C 2/M
;
_chemical_formula_sum "Si O2"
_cell_formula_units_Z 64
_cell_length_a 28.888326
_cell_length_b 8.896508
_cell_length_c 18.867756
_cell_angle_alpha 90.000000
_cell_angle_beta 44.292449
_cell_angle_gamma 90.000000
_cell_volume 3386.236431
_symmetry_space_group_name_H-M "C 2/M"
_symmetry_group_IT_number 12
_symmetry_cell_setting 'monoclinic'
loop_
_space_group_symop_operation_xyz
x,y,z
-x,y,-z
-x,-y,-z
x,-y,z
1/2+x,1/2+y,z
1/2-x,1/2+y,-z
1/2-x,1/2-y,-z
1/2+x,1/2-y,z
loop_
_atom_site_type_symbol
_atom_site_label
_atom_site_fract_x
_atom_site_fract_y
_atom_site_fract_z
Si Si1 0.300123 0.177794 0.613897
Si Si2 0.156217 0.681081 0.792591
Si Si3 0.331983 0.177012 0.741431
Si Si4 0.415903 0.321166 0.400582
Si Si5 0.400962 0.182929 0.991909
Si Si6 0.548910 0.181265 0.789002
Si Si7 0.517807 0.179891 0.399309
Si Si8 0.224080 0.321407 0.956357
O O1 0.226173 0.242371 0.699568
O O2 0.332509 0.199651 0.656348
O O3 0.346185 0.259117 0.506461
O O4 0.298768 0.000000 0.601176
O O5 0.165468 0.500000 0.784926
O O6 0.127143 0.729918 0.900723
O O7 0.102596 0.715020 0.790764
O O8 0.404041 0.210169 0.694725
O O9 0.275256 0.275478 0.838854
O O10 0.317722 0.000000 0.769477
O O11 0.414806 0.500000 0.399965
O O12 0.431560 0.255307 0.306326
O O13 0.472096 0.264062 0.393639
O O14 0.348683 0.230338 0.989050
O O15 0.401534 0.000000 0.992402
O O16 0.475677 0.230999 0.894088
O O17 0.547291 0.000000 0.781832
O O18 0.500000 0.218727 0.500000
O O19 0.506982 0.000000 0.403290
O O20 0.222207 0.500000 0.966406
O O21 0.250000 0.250000 0.000000
#
# Coordination Sequence:
#
# PCOD9203440 Si02
#       8
#     8   8   8   8   8   8   8   8
#     4  11  22  40  65  91 122 162 205 249 307 371
#     4  10  20  39  67  96 119 150 204 262 310 360
#     4  10  21  38  61  87 117 158 203 246 298 364
#     4  12  26  41  59  90 128 161 204 256 305 359
#     4   9  19  38  64  92 120 157 201 249 300 360
#     4  10  22  41  65  89 121 164 205 249 308 371
#     4  10  20  39  63  86 116 156 201 240 290 362
#     4  11  23  38  58  88 127 161 199 247 300 359
#
# _framework density 18.900039
#
# number of rings (size 3 to 8) (size 9 to 14) (size 15 to 20)
#    0.000    1.625    2.500    2.250    1.750    3.750 
#    0.000    1.250    0.000    1.500    0.000    0.000 
#    0.000    0.000    0.000    0.000    0.000    0.000 
#
# Total GULP energy -178827.644576 kJ/mol
# GULP energy per Si atom -5588.363893 kJ/mol
# Density = 1.885702 g / cm^3
# Si number density = 18.900039 Si / 1000 Ang^3
#
#
#
# Elastic Constant Matrix: (Units=GPa)
#
#
# Indices 1 2 3 4 5 6 
#
# 1 153.6283 63.7767 91.6128 0.0012 -5.9180 -0.0001
# 2 63.7767 48.8991 48.7880 0.0000 -3.1912 -0.0032
# 3 91.6128 48.7880 124.5195 0.0036 -14.0899 -0.0037
# 4 0.0012 0.0000 0.0036 28.4004 0.0004 -2.9307
# 5 -5.9180 -3.1912 -14.0899 0.0004 29.3756 -0.0007
# 6 -0.0001 -0.0032 -0.0037 -2.9307 -0.0007 23.5719
#
#
#
# Elastic Compliance Matrix: (Units=1/GPa)
#
#
# Indices 1 2 3 4 5 6 
#
# 1 0.016684 -0.015512 -0.006352 0.000000 -0.001371 -0.000003
# 2 -0.015512 0.048219 -0.007657 0.000002 -0.001559 0.000006
# 3 -0.006352 -0.007657 0.016353 -0.000002 0.005732 0.000001
# 4 0.000000 0.000002 -0.000002 0.035668 -0.000001 0.004435
# 5 -0.001371 -0.001559 0.005732 -0.000001 0.036346 0.000002
# 6 -0.000003 0.000006 0.000001 0.004435 0.000002 0.042975
#
#
# Mechanical properties :
#
#
# Convention : Reuss Voigt Hill
#
# Bulk Modulus (GPa) = 45.01563 81.71130 63.36346
# Shear Modulus (GPa) = 19.03376 24.46086 21.74731
#
# Velocity S-wave (km/s) = 3.17689 3.60143 3.39580
# Velocity P-wave (km/s) = 6.10952 7.78595 6.99812
#
# Compressibility (1/GPa) = 0.02221451
#
# Stress axis : x y z
#
# Youngs Moduli (GPa) = 59.93783 20.73879 61.15028
#
# Poissons Ratio (x) = 0.32169 0.38845
# Poissons Ratio (y) = 0.92973 0.46821
# Poissons Ratio (z) = 0.38075 0.15879
#
# Static dielectric constant tensor:
#      x y z
#    x 1.643620 0.000000 -0.002550 
#    y 0.000000 1.633940 0.000000 
#    z -0.002550 0.000000 1.641350 
# 
# From -- ./inp_files/295534.got.cif
#   From: 2010.05.17/outbox.cif.g08.bks.cpg/sg12_148_cif.got.tgz:295534.got - 2010.06.03 13:09:07.
