data_PCOD9203023
_publ_section_title
;
Structure prediction by ZEFSAII (Michael W. Deem and Ramdas Pophale) SiO2 
 PCOD9203023
Probable space group: C 2/M
;
_chemical_formula_sum "Si O2"
_cell_formula_units_Z 60
_cell_length_a 25.709139
_cell_length_b 20.208337
_cell_length_c 11.774203
_cell_angle_alpha 90.000000
_cell_angle_beta 152.195586
_cell_angle_gamma 90.000000
_cell_volume 2853.377161
_symmetry_space_group_name_H-M "C 2/M"
_symmetry_group_IT_number 12
_symmetry_cell_setting 'monoclinic'
loop_
_space_group_symop_operation_xyz
x,y,z
-x,y,-z
-x,-y,-z
x,-y,z
1/2+x,1/2+y,z
1/2-x,1/2+y,-z
1/2-x,1/2-y,-z
1/2+x,1/2-y,z
loop_
_atom_site_type_symbol
_atom_site_label
_atom_site_fract_x
_atom_site_fract_y
_atom_site_fract_z
Si Si1 0.600363 0.500000 0.864333
Si Si2 0.676252 0.181039 0.491727
Si Si3 0.244304 0.866847 0.111464
Si Si4 0.289922 0.665493 0.492042
Si Si5 0.060009 0.344372 0.912461
Si Si6 0.163895 0.424625 0.922663
Si Si7 0.397715 0.395167 0.497872
Si Si8 0.035224 0.772786 0.687084
O O1 0.499997 0.443536 0.675419
O O2 0.693047 0.439838 0.035003
O O3 0.706801 0.164434 0.679676
O O4 0.669925 0.259326 0.451990
O O5 0.770448 0.154041 0.587599
O O6 0.554288 0.150168 0.239928
O O7 0.330962 0.877744 0.176799
O O8 0.146037 0.816850 0.885215
O O9 0.366236 0.614896 0.569409
O O10 0.167718 0.660556 0.199602
O O11 0.080701 0.401389 0.860146
O O12 0.053384 0.278128 0.823545
O O13 0.142932 0.500000 0.850420
O O14 0.288510 0.418346 0.218610
O O15 0.437147 0.323624 0.531086
O O16 0.000000 0.741781 0.500000
#
# Coordination Sequence:
#
# PCOD9203023 Si02
#       8
#     4   8   8   8   8   8   8   8
#     4  10  22  39  65  93 128 161 208 262 308 379
#     4  11  23  42  63  91 127 165 206 271 319 372
#     4  11  23  39  61  97 131 167 208 252 328 381
#     4  10  22  42  67  90 122 161 216 266 321 375
#     4  11  24  40  64  92 125 167 216 256 317 382
#     4  11  23  40  62  91 129 175 214 246 305 390
#     4  10  20  38  65  95 124 162 208 263 313 374
#     4  11  21  34  60 102 132 158 198 264 329 375
#
# _framework density 21.027715000000001
#
# number of rings (size 3 to 8) (size 9 to 14) (size 15 to 20)
#    0.000    1.333    5.333    0.400    1.867    1.067 
#    1.200    4.667    0.000    1.600    0.000    0.000 
#    0.000    0.000    0.000    0.000    0.000    0.000 
#
# Total GULP energy -167145.559543 kJ/mol
# GULP energy per Si atom -5571.518651 kJ/mol
# Density = 2.097985 g / cm^3
# Si number density = 21.027715 Si / 1000 Ang^3
#
#
#
# Elastic Constant Matrix: (Units=GPa)
#
#
# Indices 1 2 3 4 5 6 
#
# 1 95.5167 8.0606 6.9484 0.0000 1.5080 0.0000
# 2 8.0606 60.5759 1.2067 0.0000 6.2272 0.0000
# 3 6.9484 1.2067 36.1240 0.0000 10.5895 0.0000
# 4 0.0000 0.0000 0.0000 9.9927 0.0000 5.4951
# 5 1.5080 6.2272 10.5895 0.0000 24.3515 0.0000
# 6 0.0000 0.0000 0.0000 5.4951 0.0000 12.0653
#
#
#
# Elastic Compliance Matrix: (Units=1/GPa)
#
#
# Indices 1 2 3 4 5 6 
#
# 1 0.010743 -0.001454 -0.002214 0.000000 0.000669 0.000000
# 2 -0.001454 0.017171 0.001108 0.000000 -0.004783 0.000000
# 3 -0.002214 0.001108 0.032222 0.000000 -0.014158 0.000000
# 4 0.000000 0.000000 0.000000 0.133511 0.000000 -0.060807
# 5 0.000669 -0.004783 -0.014158 0.000000 0.048404 0.000000
# 6 0.000000 0.000000 0.000000 -0.060807 0.000000 0.110577
#
#
# Mechanical properties :
#
#
# Convention : Reuss Voigt Hill
#
# Bulk Modulus (GPa) = 18.17665 24.96089 21.56877
# Shear Modulus (GPa) = 13.29485 21.01529 17.15507
#
# Velocity S-wave (km/s) = 2.51719 3.16477 2.85937
# Velocity P-wave (km/s) = 4.13658 5.02500 4.60228
#
# Compressibility (1/GPa) = 0.05501564
#
# Stress axis : x y z
#
# Youngs Moduli (GPa) = 93.08755 58.23663 31.03500
#
# Poissons Ratio (x) = 0.08469 0.06871
# Poissons Ratio (y) = 0.13537 -0.03439
# Poissons Ratio (z) = 0.20609 -0.06454
#
# Static dielectric constant tensor:
#      x y z
#    x 1.801600 0.000000 0.012340 
#    y 0.000000 1.741120 0.000000 
#    z 0.012340 0.000000 1.764960 
# 
# From -- ./inp_files/178034.got.cif
#   From: 2010.05.17/outbox.cif.g08.bks.cpg/sg12_90_cif.got.tgz:178034.got - 2010.06.03 13:09:07.
