data_PCOD9203085
_publ_section_title
;
Structure prediction by ZEFSAII (Michael W. Deem and Ramdas Pophale) SiO2 
 PCOD9203085
Probable space group: C 2/M
;
_chemical_formula_sum "Si O2"
_cell_formula_units_Z 58
_cell_length_a 23.458332
_cell_length_b 9.088129
_cell_length_c 26.094112
_cell_angle_alpha 90.000000
_cell_angle_beta 28.890551
_cell_angle_gamma 90.000000
_cell_volume 2687.728084
_symmetry_space_group_name_H-M "C 2/M"
_symmetry_group_IT_number 12
_symmetry_cell_setting 'monoclinic'
loop_
_space_group_symop_operation_xyz
x,y,z
-x,y,-z
-x,-y,-z
x,-y,z
1/2+x,1/2+y,z
1/2-x,1/2+y,-z
1/2-x,1/2-y,-z
1/2+x,1/2-y,z
loop_
_atom_site_type_symbol
_atom_site_label
_atom_site_fract_x
_atom_site_fract_y
_atom_site_fract_z
Si Si1 0.732251 0.323910 0.134695
Si Si2 0.496786 0.170126 0.941176
Si Si3 0.587014 0.245274 0.352492
Si Si4 0.782142 0.837333 0.276000
Si Si5 0.180482 0.673275 0.655712
Si Si6 0.482657 0.323502 0.759519
Si Si7 0.384878 0.168189 0.437904
Si Si8 0.500000 0.500000 0.500000
O O1 0.737591 0.500000 0.128766
O O2 0.667812 0.288429 0.239361
O O3 0.650199 0.277548 0.151460
O O4 0.867296 0.274073 0.027082
O O5 0.598791 0.280360 0.844187
O O6 0.516692 0.000000 0.906598
O O7 0.500000 0.161516 0.000000
O O8 0.676016 0.160472 0.319548
O O9 0.474774 0.167425 0.415208
O O10 0.537311 0.374059 0.427529
O O11 0.763210 0.715625 0.334373
O O12 0.796158 0.000000 0.288105
O O13 0.179027 0.500000 0.649684
O O14 0.049616 0.741803 0.752928
O O15 0.264766 0.755518 0.549464
O O16 0.489522 0.500000 0.759560
O O17 0.554002 0.267363 0.653408
O O18 0.367302 0.000000 0.434541
#
# Coordination Sequence:
#
# PCOD9203085 Si02
#       8
#     8   8   8   8   8   8   8   2
#     4   9  18  37  64  94 127 157 208 256 311 366
#     4  10  20  38  66  96 124 164 206 257 308 381
#     4  11  23  37  60  93 129 170 207 255 309 378
#     4  12  26  42  61  91 132 167 210 262 324 380
#     4  12  26  42  62  87 121 167 215 263 321 377
#     4  10  21  40  66  92 124 163 213 264 312 369
#     4  11  23  40  62  90 127 166 213 260 313 375
#     4  12  24  32  62  90 132 160 222 248 308 368
#
# _framework density 21.579564000000001
#
# number of rings (size 3 to 8) (size 9 to 14) (size 15 to 20)
#    0.000    1.241    2.069    4.138    5.793    0.276 
#    0.000    4.138    0.000    0.000    0.000    0.000 
#    0.000    0.000    0.000    0.000    0.000    0.000 
#
# Total GULP energy -161715.735453 kJ/mol
# GULP energy per Si atom -5576.404671 kJ/mol
# Density = 2.153045 g / cm^3
# Si number density = 21.579564 Si / 1000 Ang^3
#
#
#
# Elastic Constant Matrix: (Units=GPa)
#
#
# Indices 1 2 3 4 5 6 
#
# 1 113.1149 22.9736 15.2417 0.0008 -36.8372 -0.0004
# 2 22.9736 97.2663 23.7507 0.0032 -18.8492 -0.0042
# 3 15.2417 23.7507 48.5423 0.0004 -24.4056 -0.0007
# 4 0.0008 0.0032 0.0004 5.4861 -0.0010 -0.5278
# 5 -36.8372 -18.8492 -24.4056 -0.0010 38.8559 0.0003
# 6 -0.0004 -0.0042 -0.0007 -0.5278 0.0003 -36.6806
#
#
#
# Elastic Compliance Matrix: (Units=1/GPa)
#
#
# Indices 1 2 3 4 5 6 
#
# 1 0.013234 -0.001252 0.003595 0.000001 0.014197 0.000000
# 2 -0.001252 0.012044 -0.004617 -0.000006 0.001755 -0.000001
# 3 0.003595 -0.004617 0.032619 0.000004 0.021657 0.000000
# 4 0.000001 -0.000006 0.000004 0.182027 0.000005 -0.002619
# 5 0.014197 0.001755 0.021657 0.000005 0.053650 0.000000
# 6 0.000000 -0.000001 0.000000 -0.002619 0.000000 -0.027225
#
#
# Mechanical properties :
#
#
# Convention : Reuss Voigt Hill
#
# Bulk Modulus (GPa) = 18.74454 42.53950 30.64202
# Shear Modulus (GPa) = 17.32008 14.66278 15.99143
#
# Velocity S-wave (km/s) = 2.83612 2.60950 2.72517
# Velocity P-wave (km/s) = 4.40793 5.36982 4.91248
#
# Compressibility (1/GPa) = 0.05334887
#
# Stress axis : x y z
#
# Youngs Moduli (GPa) = 75.56352 83.02550 30.65665
#
# Poissons Ratio (x) = 0.10398 -0.11022
# Poissons Ratio (y) = 0.09464 0.14155
# Poissons Ratio (z) = -0.27167 0.38336
#
# Static dielectric constant tensor:
#      x y z
#    x 1.849560 0.000000 -0.012260 
#    y 0.000000 1.749610 0.000000 
#    z -0.012260 0.000000 1.788190 
# 
# From -- ./inp_files/367571.got.cif
#   From: 2010.05.17/outbox.cif.g08.bks.cpg/sg12_184_cif.got.tgz:367571.got - 2010.06.03 13:09:07.
