data_PCOD9203998
_publ_section_title
;
Structure prediction by ZEFSAII (Michael W. Deem and Ramdas Pophale) SiO2 
 PCOD9203998
Probable space group: C 2/M
;
_chemical_formula_sum "Si O2"
_cell_formula_units_Z 64
_cell_length_a 30.494265
_cell_length_b 8.465671
_cell_length_c 15.091403
_cell_angle_alpha 90.000000
_cell_angle_beta 52.028777
_cell_angle_gamma 90.000000
_cell_volume 3071.225095
_symmetry_space_group_name_H-M "C 2/M"
_symmetry_group_IT_number 12
_symmetry_cell_setting 'monoclinic'
loop_
_space_group_symop_operation_xyz
x,y,z
-x,y,-z
-x,-y,-z
x,-y,z
1/2+x,1/2+y,z
1/2-x,1/2+y,-z
1/2-x,1/2-y,-z
1/2+x,1/2-y,z
loop_
_atom_site_type_symbol
_atom_site_label
_atom_site_fract_x
_atom_site_fract_y
_atom_site_fract_z
Si Si1 0.811866 0.689004 0.933518
Si Si2 0.162141 0.316208 0.296629
Si Si3 0.392042 0.191662 0.990178
Si Si4 0.486779 0.689067 0.751996
Si Si5 0.283811 0.314841 0.607648
Si Si6 0.390373 0.188527 0.369020
Si Si7 0.941488 0.819681 0.620941
Si Si8 0.843042 0.307363 0.240259
O O1 0.810821 0.500000 0.942240
O O2 0.837597 0.729301 0.806684
O O3 0.846598 0.748553 0.974044
O O4 0.750000 0.750000 0.000000
O O5 0.175948 0.500000 0.290299
O O6 0.202766 0.214097 0.305698
O O7 0.097997 0.280562 0.394790
O O8 0.451524 0.249501 0.879987
O O9 0.392990 0.000000 0.988711
O O10 0.371718 0.243490 0.112701
O O11 0.484441 0.500000 0.752414
O O12 0.551085 0.739426 0.673551
O O13 0.455492 0.746698 0.701436
O O14 0.285178 0.500000 0.584962
O O15 0.335114 0.234481 0.492914
O O16 0.221263 0.253907 0.668728
O O17 0.377723 0.238625 0.283468
O O18 0.395611 0.000000 0.365697
O O19 0.000000 0.829932 0.500000
O O20 0.919159 0.000000 0.655569
O O21 0.840740 0.500000 0.240434
#
# Coordination Sequence:
#
# PCOD9203998 Si02
#       8
#     8   8   8   8   8   8   8   8
#     4  10  21  35  56  85 119 157 198 241 291 349
#     4  11  22  36  56  88 120 153 196 238 289 351
#     4  10  20  40  63  86 121 165 208 251 301 363
#     4  11  23  39  60  90 125 162 206 255 308 364
#     4  11  22  40  64  91 124 161 201 251 310 371
#     4  11  23  41  64  91 120 157 206 260 312 365
#     4  10  21  37  57  81 114 156 199 242 294 355
#     4   9  21  40  65  91 118 160 209 253 308 370
#
# _framework density 20.838591000000001
#
# number of rings (size 3 to 8) (size 9 to 14) (size 15 to 20)
#    0.000    1.625    1.250    3.375    0.000    4.750 
#    0.000    6.875    0.000    0.000    0.000    0.000 
#    0.000    0.000    0.000    0.000    0.000    0.000 
#
# Total GULP energy -178657.091086 kJ/mol
# GULP energy per Si atom -5583.034096 kJ/mol
# Density = 2.079116 g / cm^3
# Si number density = 20.838591 Si / 1000 Ang^3
#
#
#
# Elastic Constant Matrix: (Units=GPa)
#
#
# Indices 1 2 3 4 5 6 
#
# 1 85.6865 -0.7104 21.1294 0.0000 -2.2219 0.0000
# 2 -0.7104 7.3862 5.6993 0.0000 1.5168 0.0003
# 3 21.1294 5.6993 82.0759 0.0000 -2.4274 0.0000
# 4 0.0000 0.0000 0.0000 27.3308 0.0000 -5.7471
# 5 -2.2219 1.5168 -2.4274 0.0000 34.7351 0.0000
# 6 0.0000 0.0003 0.0000 -5.7471 0.0000 25.5272
#
#
#
# Elastic Compliance Matrix: (Units=1/GPa)
#
#
# Indices 1 2 3 4 5 6 
#
# 1 0.012573 0.003822 -0.003491 0.000000 0.000393 0.000000
# 2 0.003822 0.145911 -0.011320 -0.000001 -0.006918 -0.000002
# 3 -0.003491 -0.011320 0.013905 0.000000 0.001243 0.000000
# 4 0.000000 -0.000001 0.000000 0.038407 0.000000 0.008647
# 5 0.000393 -0.006918 0.001243 0.000000 0.029203 0.000000
# 6 0.000000 -0.000002 0.000000 0.008647 0.000000 0.041121
#
#
# Mechanical properties :
#
#
# Convention : Reuss Voigt Hill
#
# Bulk Modulus (GPa) = 6.64846 25.26503 15.95675
# Shear Modulus (GPa) = 14.15488 27.45399 20.80443
#
# Velocity S-wave (km/s) = 2.60909 3.63362 3.16311
# Velocity P-wave (km/s) = 3.50341 5.45479 4.58414
#
# Compressibility (1/GPa) = 0.15041072
#
# Stress axis : x y z
#
# Youngs Moduli (GPa) = 79.53514 6.85351 71.91521
#
# Poissons Ratio (x) = -0.02619 0.25102
# Poissons Ratio (y) = -0.30397 0.81411
# Poissons Ratio (z) = 0.27762 0.07758
#
# Static dielectric constant tensor:
#      x y z
#    x 1.787380 0.000000 -0.051270 
#    y 0.000000 1.764070 0.000000 
#    z -0.051270 0.000000 1.905060 
# 
# From -- ./inp_files/249757.got.cif
#   From: 2010.05.17/outbox.cif.g08.bks.cpg/sg12_125_cif.got.tgz:249757.got - 2010.06.03 13:09:07.
