data_PCOD9203220
_publ_section_title
;
Structure prediction by ZEFSAII (Michael W. Deem and Ramdas Pophale) SiO2 
 PCOD9203220
Probable space group: C 2/M
;
_chemical_formula_sum "Si O2"
_cell_formula_units_Z 64
_cell_length_a 24.399076
_cell_length_b 17.683185
_cell_length_c 14.863410
_cell_angle_alpha 90.000000
_cell_angle_beta 31.699342
_cell_angle_gamma 90.000000
_cell_volume 3369.717889
_symmetry_space_group_name_H-M "C 2/M"
_symmetry_group_IT_number 12
_symmetry_cell_setting 'monoclinic'
loop_
_space_group_symop_operation_xyz
x,y,z
-x,y,-z
-x,-y,-z
x,-y,z
1/2+x,1/2+y,z
1/2-x,1/2+y,-z
1/2-x,1/2-y,-z
1/2+x,1/2-y,z
loop_
_atom_site_type_symbol
_atom_site_label
_atom_site_fract_x
_atom_site_fract_y
_atom_site_fract_z
Si Si1 0.922074 0.825882 0.802643
Si Si2 0.837811 0.860011 0.275794
Si Si3 0.863163 0.589208 0.334400
Si Si4 0.622881 0.799939 0.843828
Si Si5 0.270790 0.413280 0.883784
Si Si6 0.573647 0.834633 0.113436
Si Si7 0.051799 0.088508 0.056388
Si Si8 0.923062 0.916777 0.520559
O O1 0.833915 0.852430 0.855012
O O2 0.929376 0.738755 0.818964
O O3 0.900956 0.873770 0.921755
O O4 0.032098 0.854613 0.608132
O O5 0.739915 0.895403 0.462987
O O6 0.818124 0.772570 0.278363
O O7 0.942277 0.869436 0.189636
O O8 0.872356 0.899821 0.134586
O O9 0.882762 0.500000 0.299222
O O10 0.850410 0.627345 0.253784
O O11 0.961857 0.630913 0.243094
O O12 0.500000 0.783578 0.000000
O O13 0.627979 0.809722 0.943415
O O14 0.294220 0.500000 0.879552
O O15 0.313155 0.406454 0.722198
O O16 0.149130 0.395841 0.053379
O O17 0.031043 0.000000 0.096718
O O18 0.000000 0.917751 0.500000
O O19 0.928318 0.000000 0.470157
#
# Coordination Sequence:
#
# PCOD9203220 Si02
#       8
#     8   8   8   8   8   8   8   8
#     4  11  20  37  57  89 117 147 193 235 296 345
#     4  11  20  39  57  86 118 148 196 239 293 342
#     4  11  24  39  59  85 118 158 195 234 284 346
#     4  10  20  39  59  83 113 151 192 241 290 341
#     4  10  21  38  61  86 116 151 191 242 290 339
#     4  11  23  38  58  83 118 157 196 230 282 349
#     4  11  20  33  59  86 118 152 188 242 296 346
#     4   8  16  32  55  82 109 137 177 232 288 331
#
# _framework density 18.992688000000001
#
# number of rings (size 3 to 8) (size 9 to 14) (size 15 to 20)
#    0.000    1.625    2.500    5.250    0.000    4.750 
#    0.000    1.250    0.000    0.000    0.000    2.625 
#    0.000    0.000    0.000    0.000    0.000    0.000 
#
# Total GULP energy -178592.003359 kJ/mol
# GULP energy per Si atom -5581.000105 kJ/mol
# Density = 1.894946 g / cm^3
# Si number density = 18.992688 Si / 1000 Ang^3
#
#
#
# Elastic Constant Matrix: (Units=GPa)
#
#
# Indices 1 2 3 4 5 6 
#
# 1 28.2632 17.0744 18.2417 0.0000 7.1868 0.0000
# 2 17.0744 122.9442 37.8160 0.0000 1.9102 0.0000
# 3 18.2417 37.8160 83.2422 0.0000 2.8883 0.0000
# 4 0.0000 0.0000 0.0000 36.8665 0.0000 -14.0349
# 5 7.1868 1.9102 2.8883 0.0000 14.8513 0.0000
# 6 0.0000 0.0000 0.0000 -14.0349 0.0000 66.0463
#
#
#
# Elastic Compliance Matrix: (Units=1/GPa)
#
#
# Indices 1 2 3 4 5 6 
#
# 1 0.048386 -0.003899 -0.008091 0.000000 -0.021340 0.000000
# 2 -0.003899 0.009771 -0.003631 0.000000 0.001336 0.000000
# 3 -0.008091 -0.003631 0.015388 0.000000 0.001390 0.000000
# 4 0.000000 0.000000 0.000000 0.029512 0.000000 0.006271
# 5 -0.021340 0.001336 0.001390 0.000000 0.077218 0.000000
# 6 0.000000 0.000000 0.000000 0.006271 0.000000 0.016474
#
#
# Mechanical properties :
#
#
# Convention : Reuss Voigt Hill
#
# Bulk Modulus (GPa) = 23.63985 42.30154 32.97070
# Shear Modulus (GPa) = 20.65319 34.30732 27.48025
#
# Velocity S-wave (km/s) = 3.30120 4.25472 3.80792
# Velocity P-wave (km/s) = 5.19657 6.81599 6.06062
#
# Compressibility (1/GPa) = 0.04230144
#
# Stress axis : x y z
#
# Youngs Moduli (GPa) = 20.66711 102.33984 64.98764
#
# Poissons Ratio (x) = 0.39907 0.52584
# Poissons Ratio (y) = 0.08059 0.23596
# Poissons Ratio (z) = 0.16723 0.37158
#
# Static dielectric constant tensor:
#      x y z
#    x 1.672170 0.000000 -0.008590 
#    y 0.000000 1.665530 0.000000 
#    z -0.008590 0.000000 1.664140 
# 
# From -- ./inp_files/241467.got.cif
#   From: 2010.05.17/outbox.cif.g08.bks.cpg/sg12_121_cif.got.tgz:241467.got - 2010.06.03 13:09:07.
