data_PCOD9203364
_publ_section_title
;
Structure prediction by ZEFSAII (Michael W. Deem and Ramdas Pophale) SiO2 
 PCOD9203364
Probable space group: C 2/M
;
_chemical_formula_sum "Si O2"
_cell_formula_units_Z 48
_cell_length_a 15.587614
_cell_length_b 9.511630
_cell_length_c 25.379752
_cell_angle_alpha 90.000000
_cell_angle_beta 37.012249
_cell_angle_gamma 90.000000
_cell_volume 2265.208449
_symmetry_space_group_name_H-M "C 2/M"
_symmetry_group_IT_number 12
_symmetry_cell_setting 'monoclinic'
loop_
_space_group_symop_operation_xyz
x,y,z
-x,y,-z
-x,-y,-z
x,-y,z
1/2+x,1/2+y,z
1/2-x,1/2+y,-z
1/2-x,1/2-y,-z
1/2+x,1/2-y,z
loop_
_atom_site_type_symbol
_atom_site_label
_atom_site_fract_x
_atom_site_fract_y
_atom_site_fract_z
Si Si1 0.651336 0.337473 0.010083
Si Si2 0.677450 0.337322 0.150082
Si Si3 0.393767 0.163472 0.418581
Si Si4 0.419062 0.149537 0.097446
Si Si5 0.408099 0.839280 0.284406
Si Si6 0.086509 0.165787 0.403015
O O1 0.657053 0.500000 0.015576
O O2 0.492184 0.277816 0.090169
O O3 0.750000 0.250000 0.000000
O O4 0.723801 0.288514 0.920526
O O5 0.695608 0.500000 0.121534
O O6 0.749861 0.344410 0.172284
O O7 0.520989 0.282075 0.215865
O O8 0.250000 0.250000 0.500000
O O9 0.407955 0.163651 0.348269
O O10 0.519425 0.238691 0.390010
O O11 0.381141 0.000000 0.441212
O O12 0.455003 0.000000 0.106037
O O13 0.500000 0.141022 0.000000
O O14 0.253023 0.812712 0.335431
O O15 0.451170 0.000000 0.248062
O O16 0.000000 0.191746 0.500000
O O17 0.066811 0.000000 0.399575
#
# Coordination Sequence:
#
# PCOD9203364 Si02
#       6
#     8   8   8   8   8   8
#     4  11  21  35  58  85 114 149 190 236 284 341
#     4  10  21  38  59  84 115 149 188 235 288 346
#     4  11  22  38  61  89 118 155 203 250 297 357
#     4   8  16  33  55  78 106 141 180 223 272 332
#     4  10  22  40  60  84 121 161 196 246 305 355
#     4  10  20  39  62  86 119 158 198 246 301 357
#
# _framework density 21.190102
#
# number of rings (size 3 to 8) (size 9 to 14) (size 15 to 20)
#    0.000    2.000    1.667    3.500    0.000    6.000 
#    3.000    0.000    0.000    0.000    0.000    0.000 
#    0.000    0.000    0.000    0.000    0.000    0.000 
#
# Total GULP energy -133669.662289 kJ/mol
# GULP energy per Si atom -5569.569262 kJ/mol
# Density = 2.114187 g / cm^3
# Si number density = 21.190102 Si / 1000 Ang^3
#
#
#
# Elastic Constant Matrix: (Units=GPa)
#
#
# Indices 1 2 3 4 5 6 
#
# 1 123.4739 83.4039 23.9581 0.0000 -34.3882 0.0000
# 2 83.4039 181.8457 30.2497 0.0000 -31.1757 0.0001
# 3 23.9581 30.2497 30.7533 0.0000 -29.4556 0.0000
# 4 0.0000 0.0000 0.0000 25.9241 0.0000 -10.3368
# 5 -34.3882 -31.1757 -29.4556 0.0000 36.3942 0.0000
# 6 0.0000 0.0001 0.0000 -10.3368 0.0000 36.4935
#
#
#
# Elastic Compliance Matrix: (Units=1/GPa)
#
#
# Indices 1 2 3 4 5 6 
#
# 1 0.014805 -0.005546 0.012321 0.000000 0.019210 0.000000
# 2 -0.005546 0.008679 -0.009407 0.000000 -0.005420 0.000000
# 3 0.012321 -0.009407 0.158377 0.000000 0.131766 0.000000
# 4 0.000000 0.000000 0.000000 0.043485 0.000000 0.012317
# 5 0.019210 -0.005420 0.131766 0.000000 0.147630 0.000000
# 6 0.000000 0.000000 0.000000 0.012317 0.000000 0.030891
#
#
# Mechanical properties :
#
#
# Convention : Reuss Voigt Hill
#
# Bulk Modulus (GPa) = 5.66263 67.92182 36.79223
# Shear Modulus (GPa) = 10.68384 32.99310 21.83847
#
# Velocity S-wave (km/s) = 2.24785 3.95017 3.21378
# Velocity P-wave (km/s) = 3.06842 7.27518 5.58317
#
# Compressibility (1/GPa) = 0.17659640
#
# Stress axis : x y z
#
# Youngs Moduli (GPa) = 67.54633 115.22472 6.31404
#
# Poissons Ratio (x) = 0.63909 -0.07780
# Poissons Ratio (y) = 0.37465 0.05939
# Poissons Ratio (z) = -0.83225 1.08389
#
# Static dielectric constant tensor:
#      x y z
#    x 1.637950 0.000000 -0.185300 
#    y 0.000000 1.730350 0.000000 
#    z -0.185300 0.000000 1.648090 
# 
# From -- ./inp_files/377901.got.cif
#   From: 2010.05.17/outbox.cif.g08.bks.cpg/sg12_189_cif.got.tgz:377901.got - 2010.06.03 13:09:07.
