data_PCOD9203701
_publ_section_title
;
Structure prediction by ZEFSAII (Michael W. Deem and Ramdas Pophale) SiO2 
 PCOD9203701
Probable space group: C 2/M
;
_chemical_formula_sum "Si O2"
_cell_formula_units_Z 54
_cell_length_a 14.105541
_cell_length_b 29.510194
_cell_length_c 11.670597
_cell_angle_alpha 90.000000
_cell_angle_beta 31.383670
_cell_angle_gamma 90.000000
_cell_volume 2529.867576
_symmetry_space_group_name_H-M "C 2/M"
_symmetry_group_IT_number 12
_symmetry_cell_setting 'monoclinic'
loop_
_space_group_symop_operation_xyz
x,y,z
-x,y,-z
-x,-y,-z
x,-y,z
1/2+x,1/2+y,z
1/2-x,1/2+y,-z
1/2-x,1/2-y,-z
1/2+x,1/2-y,z
loop_
_atom_site_type_symbol
_atom_site_label
_atom_site_fract_x
_atom_site_fract_y
_atom_site_fract_z
Si Si1 0.157040 0.140930 0.120416
Si Si2 0.465767 0.448982 0.669296
Si Si3 0.857915 0.287332 0.249094
Si Si4 0.500000 0.500000 0.000000
Si Si5 0.232449 0.548586 0.450921
Si Si6 0.108385 0.188858 0.771732
Si Si7 0.500000 0.307129 0.500000
Si Si8 0.440914 0.854254 0.361572
O O1 0.164364 0.087926 0.141027
O O2 0.991926 0.153716 0.207677
O O3 0.108470 0.164239 0.291654
O O4 0.345248 0.154680 0.867038
O O5 0.500000 0.439848 0.500000
O O6 0.394837 0.500000 0.753835
O O7 0.651143 0.446681 0.552001
O O8 0.906093 0.240033 0.261404
O O9 0.658315 0.281096 0.402358
O O10 0.868122 0.331486 0.317878
O O11 0.000000 0.293579 0.000000
O O12 0.619288 0.539118 0.803765
O O13 0.128853 0.500000 0.562747
O O14 0.109360 0.593077 0.568249
O O15 0.314722 0.173244 0.579339
O O16 0.000000 0.189512 0.000000
#
# Coordination Sequence:
#
# PCOD9203701 Si02
#       8
#     8   8   8   2   8   8   4   8
#     4  12  25  41  71 100 138 184 232 282 355 423
#     4  10  20  39  65  98 133 172 222 284 350 405
#     4  11  24  44  68 103 136 182 234 291 351 421
#     4   8  20  40  70  94 130 194 224 266 358 398
#     4   9  20  39  68  98 132 181 224 275 341 409
#     4  11  27  46  65  96 141 184 231 293 347 406
#     4  12  22  42  71  98 134 184 225 282 366 410
#     4  12  24  40  70 101 135 178 239 284 339 418
#
# _framework density 21.344991
#
# number of rings (size 3 to 8) (size 9 to 14) (size 15 to 20)
#    0.444    0.741    5.185    0.444    1.037    4.148 
#    0.000    0.000    0.000    4.000    0.000    0.000 
#    0.000    0.000    0.000    0.000    0.000    0.000 
#
# Total GULP energy -150328.742044 kJ/mol
# GULP energy per Si atom -5567.731187 kJ/mol
# Density = 2.129641 g / cm^3
# Si number density = 21.344991 Si / 1000 Ang^3
#
#
#
# Elastic Constant Matrix: (Units=GPa)
#
#
# Indices 1 2 3 4 5 6 
#
# 1 27.0985 8.2860 13.8756 0.0000 -0.2815 0.0000
# 2 8.2860 114.1209 42.0678 0.0000 8.1416 0.0000
# 3 13.8756 42.0678 149.9866 0.0000 -3.4298 -0.0001
# 4 0.0000 0.0000 0.0000 23.3286 0.0000 -6.8282
# 5 -0.2815 8.1416 -3.4298 0.0000 32.0207 0.0000
# 6 0.0000 0.0000 -0.0001 -6.8282 0.0000 28.6597
#
#
#
# Elastic Compliance Matrix: (Units=1/GPa)
#
#
# Indices 1 2 3 4 5 6 
#
# 1 0.039029 -0.001716 -0.003119 0.000000 0.000445 0.000000
# 2 -0.001716 0.010103 -0.002741 0.000000 -0.002877 0.000000
# 3 -0.003119 -0.002741 0.007759 0.000000 0.001500 0.000000
# 4 0.000000 0.000000 0.000000 0.046079 0.000000 0.010978
# 5 0.000445 -0.002877 0.001500 0.000000 0.032126 0.000000
# 6 0.000000 0.000000 0.000000 0.010978 0.000000 0.037508
#
#
# Mechanical properties :
#
#
# Convention : Reuss Voigt Hill
#
# Bulk Modulus (GPa) = 23.95826 46.62942 35.29384
# Shear Modulus (GPa) = 24.79323 31.93357 28.36340
#
# Velocity S-wave (km/s) = 3.41185 3.87210 3.64924
# Velocity P-wave (km/s) = 5.17393 6.47178 5.85890
#
# Compressibility (1/GPa) = 0.04173927
#
# Stress axis : x y z
#
# Youngs Moduli (GPa) = 25.62203 98.98282 128.88527
#
# Poissons Ratio (x) = 0.16982 0.40203
# Poissons Ratio (y) = 0.04396 0.35323
# Poissons Ratio (z) = 0.07992 0.27128
#
# Static dielectric constant tensor:
#      x y z
#    x 1.776300 0.000000 0.012240 
#    y 0.000000 1.808790 0.000000 
#    z 0.012240 0.000000 1.795520 
# 
# From -- ./inp_files/150454.got.cif
#   From: 2010.05.17/outbox.cif.g08.bks.cpg/sg12_76_cif.got.tgz:150454.got - 2010.06.03 13:09:07.
