data_PCOD9203042
_publ_section_title
;
Structure prediction by ZEFSAII (Michael W. Deem and Ramdas Pophale) SiO2 
 PCOD9203042
Probable space group: C 2/M
;
_chemical_formula_sum "Si O2"
_cell_formula_units_Z 28
_cell_length_a 5.375844
_cell_length_b 15.928929
_cell_length_c 14.239622
_cell_angle_alpha 90.000000
_cell_angle_beta 111.017882
_cell_angle_gamma 90.000000
_cell_volume 1138.233539
_symmetry_space_group_name_H-M "C 2/M"
_symmetry_group_IT_number 12
_symmetry_cell_setting 'monoclinic'
loop_
_space_group_symop_operation_xyz
x,y,z
-x,y,-z
-x,-y,-z
x,-y,z
1/2+x,1/2+y,z
1/2-x,1/2+y,-z
1/2-x,1/2-y,-z
1/2+x,1/2-y,z
loop_
_atom_site_type_symbol
_atom_site_label
_atom_site_fract_x
_atom_site_fract_y
_atom_site_fract_z
Si Si1 0.457887 0.345506 0.883298
Si Si2 0.618010 0.154248 0.197631
Si Si3 0.500000 0.806038 0.500000
Si Si4 0.540801 0.595243 0.392613
O O1 0.445083 0.250463 0.840078
O O2 0.708741 0.384380 0.863638
O O3 0.170262 0.385584 0.825438
O O4 0.500000 0.341157 0.000000
O O5 0.813254 0.149941 0.312761
O O6 0.750000 0.750000 0.500000
O O7 0.666124 0.868088 0.590112
O O8 0.500000 0.593913 0.500000
O O9 0.516594 0.500000 0.356177
#
# Coordination Sequence:
#
# PCOD9203042 Si02
#       4
#     8   8   4   8
#     4  10  20  38  65  97 134 168 221 299 352 392
#     4  10  21  35  64  94 125 173 230 269 335 411
#     4  12  27  44  73 100 134 174 242 302 333 398
#     4  11  27  48  68  99 151 196 229 278 355 423
#
# _framework density 24.599518
#
# number of rings (size 3 to 8) (size 9 to 14) (size 15 to 20)
#    0.000    1.429    1.429    4.714   12.000    0.000 
#    0.000    0.000    0.000    9.429    0.000    0.000 
#    0.000    0.000    0.000    0.000    0.000    0.000 
#
# Total GULP energy -78215.956036 kJ/mol
# GULP energy per Si atom -5586.854003 kJ/mol
# Density = 2.454353 g / cm^3
# Si number density = 24.599518 Si / 1000 Ang^3
#
#
#
# Elastic Constant Matrix: (Units=GPa)
#
#
# Indices 1 2 3 4 5 6 
#
# 1 165.0599 14.7993 -5.9508 0.0000 10.0737 0.0000
# 2 14.7993 39.5863 9.1055 0.0000 -1.0597 0.0000
# 3 -5.9508 9.1055 114.2903 0.0000 8.7127 0.0000
# 4 0.0000 0.0000 0.0000 8.5287 0.0000 -9.7018
# 5 10.0737 -1.0597 8.7127 0.0000 48.4179 0.0000
# 6 0.0000 0.0000 0.0000 -9.7018 0.0000 1.2167
#
#
#
# Elastic Compliance Matrix: (Units=1/GPa)
#
#
# Indices 1 2 3 4 5 6 
#
# 1 0.006406 -0.002586 0.000654 0.000000 -0.001507 0.000000
# 2 -0.002586 0.026819 -0.002390 0.000000 0.001555 0.000000
# 3 0.000654 -0.002390 0.009114 0.000000 -0.001828 0.000000
# 4 0.000000 0.000000 0.000000 -0.014528 0.000000 -0.115845
# 5 -0.001507 0.001555 -0.001828 0.000000 0.021330 0.000000
# 6 0.000000 0.000000 0.000000 -0.115845 0.000000 -0.101837
#
#
# Mechanical properties :
#
#
# Convention : Reuss Voigt Hill
#
# Bulk Modulus (GPa) = 29.67683 39.42717 34.55200
# Shear Modulus (GPa) = -152.33514 31.69816 -60.31849
#
# Velocity S-wave (km/s) = -7.87785 3.59356 -4.95716
# Velocity P-wave (km/s) = 8.40578 5.76894 4.32299
#
# Compressibility (1/GPa) = 0.03369633
#
# Stress axis : x y z
#
# Youngs Moduli (GPa) = 156.10820 37.28669 109.72722
#
# Poissons Ratio (x) = 0.09641 -0.07181
# Poissons Ratio (y) = 0.40365 0.26223
# Poissons Ratio (z) = -0.10216 0.08911
#
# Static dielectric constant tensor:
#      x y z
#    x 2.058430 0.000000 -0.059970 
#    y 0.000000 2.153910 0.000000 
#    z -0.059970 0.000000 1.973200 
# 
# From -- ./inp_files/114555.got.cif
#   From: 2010.05.17/outbox.cif.g08.bks.cpg/sg12_58_cif.got.tgz:114555.got - 2010.06.03 13:09:07.
