data_PCOD9203569
_publ_section_title
;
Structure prediction by ZEFSAII (Michael W. Deem and Ramdas Pophale) SiO2 
 PCOD9203569
Probable space group: C 2/M
;
_chemical_formula_sum "Si O2"
_cell_formula_units_Z 64
_cell_length_a 18.377642
_cell_length_b 17.611730
_cell_length_c 9.570666
_cell_angle_alpha 90.000000
_cell_angle_beta 85.781421
_cell_angle_gamma 90.000000
_cell_volume 3089.268991
_symmetry_space_group_name_H-M "C 2/M"
_symmetry_group_IT_number 12
_symmetry_cell_setting 'monoclinic'
loop_
_space_group_symop_operation_xyz
x,y,z
-x,y,-z
-x,-y,-z
x,-y,z
1/2+x,1/2+y,z
1/2-x,1/2+y,-z
1/2-x,1/2-y,-z
1/2+x,1/2-y,z
loop_
_atom_site_type_symbol
_atom_site_label
_atom_site_fract_x
_atom_site_fract_y
_atom_site_fract_z
Si Si1 0.914722 0.273491 0.044020
Si Si2 0.582141 0.676352 0.210360
Si Si3 0.631978 0.586079 0.455231
Si Si4 0.315767 0.086519 0.080500
Si Si5 0.172365 0.293751 0.349333
Si Si6 0.270725 0.412566 0.171409
Si Si7 0.586274 0.336894 0.730615
Si Si8 0.278410 0.849789 0.384364
O O1 0.871974 0.349942 0.020988
O O2 0.898873 0.245819 0.204343
O O3 0.892110 0.203733 0.945540
O O4 0.000000 0.284541 0.000000
O O5 0.619104 0.610613 0.296721
O O6 0.601189 0.753366 0.295652
O O7 0.497718 0.652482 0.214452
O O8 0.608611 0.500000 0.484237
O O9 0.592491 0.644560 0.565790
O O10 0.717618 0.597918 0.468938
O O11 0.301836 0.106773 0.243172
O O12 0.341895 0.000000 0.063109
O O13 0.244508 0.093693 0.992579
O O14 0.211040 0.357573 0.250686
O O15 0.232905 0.226133 0.349979
O O16 0.163779 0.326047 0.506521
O O17 0.257895 0.500000 0.211441
O O18 0.351417 0.389410 0.209884
#
# Coordination Sequence:
#
# PCOD9203569 Si02
#       8
#     8   8   8   8   8   8   8   8
#     4  10  23  43  65  91 125 171 222 275 324 389
#     4  10  23  41  62  92 126 173 225 266 316 388
#     4  11  23  40  62  93 134 174 213 266 330 394
#     4  11  24  40  64  96 129 168 215 275 338 391
#     4  10  20  39  64  90 122 170 218 270 321 380
#     4  11  23  38  63  95 131 173 216 268 330 393
#     4  11  23  39  63  94 128 172 217 266 323 393
#     4  10  22  37  63  95 125 162 215 272 322 385
#
# _framework density 20.716875000000002
#
# number of rings (size 3 to 8) (size 9 to 14) (size 15 to 20)
#    0.000    1.500    2.500    1.875    7.000    3.250 
#    0.000    0.625    0.000    5.625    0.000    1.750 
#    0.000    0.000    0.000    0.000    0.000    0.000 
#
# Total GULP energy -178479.018981 kJ/mol
# GULP energy per Si atom -5577.469343 kJ/mol
# Density = 2.066972 g / cm^3
# Si number density = 20.716875 Si / 1000 Ang^3
#
#
#
# Elastic Constant Matrix: (Units=GPa)
#
#
# Indices 1 2 3 4 5 6 
#
# 1 50.9913 42.8184 22.1472 0.0000 5.2680 0.0000
# 2 42.8184 112.1902 34.6943 0.0000 -2.7222 0.0000
# 3 22.1472 34.6943 100.8636 0.0000 -2.8802 0.0000
# 4 0.0000 0.0000 0.0000 31.0036 0.0000 7.6360
# 5 5.2680 -2.7222 -2.8802 0.0000 27.9961 0.0000
# 6 0.0000 0.0000 0.0000 7.6360 0.0000 10.2904
#
#
#
# Elastic Compliance Matrix: (Units=1/GPa)
#
#
# Indices 1 2 3 4 5 6 
#
# 1 0.031008 -0.011012 -0.003227 0.000000 -0.007237 0.000000
# 2 -0.011012 0.013896 -0.002271 0.000000 0.003190 0.000000
# 3 -0.003227 -0.002271 0.011449 0.000000 0.001564 0.000000
# 4 0.000000 0.000000 0.000000 0.039468 0.000000 -0.029287
# 5 -0.007237 0.003190 0.001564 0.000000 0.037552 0.000000
# 6 0.000000 0.000000 0.000000 -0.029287 0.000000 0.118910
#
#
# Mechanical properties :
#
#
# Convention : Reuss Voigt Hill
#
# Bulk Modulus (GPa) = 42.85933 51.48497 47.17215
# Shear Modulus (GPa) = 17.06023 24.81705 20.93864
#
# Velocity S-wave (km/s) = 2.87277 3.46485 3.18261
# Velocity P-wave (km/s) = 5.63354 6.39629 6.02699
#
# Compressibility (1/GPa) = 0.02333214
#
# Stress axis : x y z
#
# Youngs Moduli (GPa) = 32.25018 71.96403 87.34548
#
# Poissons Ratio (x) = 0.79246 0.28190
# Poissons Ratio (y) = 0.35513 0.19834
# Poissons Ratio (z) = 0.10408 0.16341
#
# Static dielectric constant tensor:
#      x y z
#    x 1.756970 0.000000 0.020480 
#    y 0.000000 1.723910 0.000000 
#    z 0.020480 0.000000 1.820650 
# 
# From -- ./inp_files/87956.got.cif
#   From: 2010.05.17/outbox.cif.g08.bks.cpg/sg12_44_cif.got.tgz:87956.got - 2010.06.03 13:09:07.
