data_PCOD9203318
_publ_section_title
;
Structure prediction by ZEFSAII (Michael W. Deem and Ramdas Pophale) SiO2 
 PCOD9203318
Probable space group: C 2/M
;
_chemical_formula_sum "Si O2"
_cell_formula_units_Z 52
_cell_length_a 19.929122
_cell_length_b 21.182522
_cell_length_c 11.460250
_cell_angle_alpha 90.000000
_cell_angle_beta 150.045703
_cell_angle_gamma 90.000000
_cell_volume 2415.624095
_symmetry_space_group_name_H-M "C 2/M"
_symmetry_group_IT_number 12
_symmetry_cell_setting 'monoclinic'
loop_
_space_group_symop_operation_xyz
x,y,z
-x,y,-z
-x,-y,-z
x,-y,z
1/2+x,1/2+y,z
1/2-x,1/2+y,-z
1/2-x,1/2-y,-z
1/2+x,1/2-y,z
loop_
_atom_site_type_symbol
_atom_site_label
_atom_site_fract_x
_atom_site_fract_y
_atom_site_fract_z
Si Si1 0.668479 0.069683 0.199420
Si Si2 0.598469 0.369050 0.545171
Si Si3 0.983637 0.573304 0.690961
Si Si4 0.964430 0.213874 0.769155
Si Si5 0.244322 0.749127 0.850917
Si Si6 0.293496 0.157518 0.524928
Si Si7 0.500000 0.842827 0.500000
O O1 0.819993 0.072818 0.381384
O O2 0.664786 0.126387 0.287242
O O3 0.644118 0.000000 0.215326
O O4 0.571852 0.078119 0.942310
O O5 0.500000 0.385670 0.500000
O O6 0.531677 0.328899 0.341297
O O7 0.706107 0.319304 0.756659
O O8 0.973991 0.500000 0.645730
O O9 0.839542 0.604458 0.503401
O O10 0.042620 0.613540 0.672848
O O11 0.864063 0.175489 0.704136
O O12 0.882472 0.279943 0.635566
O O13 0.121158 0.230718 0.016794
O O14 0.121025 0.702040 0.641189
O O15 0.250000 0.750000 0.000000
#
# Coordination Sequence:
#
# PCOD9203318 Si02
#       7
#     8   8   8   8   8   8   4
#     4  10  22  38  61  90 120 162 209 250 298 355
#     4  11  20  34  57  89 127 160 195 251 307 365
#     4  11  23  41  63  87 121 164 209 255 298 359
#     4  10  22  36  59  93 126 158 197 253 314 370
#     4  12  20  36  59  89 123 157 194 246 309 370
#     4  10  20  39  61  91 124 159 205 252 306 365
#     4  12  25  40  64  92 121 160 208 250 306 374
#
# _framework density 21.526529
#
# number of rings (size 3 to 8) (size 9 to 14) (size 15 to 20)
#    0.000    1.231    2.308    4.846    0.000    2.769 
#    0.000    7.692    0.000    3.692    0.000    0.000 
#    0.000    0.000    0.000    0.000    0.000    0.000 
#
# Total GULP energy -145199.652901 kJ/mol
# GULP energy per Si atom -5584.602035 kJ/mol
# Density = 2.147753 g / cm^3
# Si number density = 21.526529 Si / 1000 Ang^3
#
#
#
# Elastic Constant Matrix: (Units=GPa)
#
#
# Indices 1 2 3 4 5 6 
#
# 1 108.3295 28.3494 21.8300 0.0000 28.1260 0.0000
# 2 28.3494 98.3083 14.6943 0.0000 16.9179 0.0000
# 3 21.8300 14.6943 50.7083 0.0000 25.0581 0.0000
# 4 0.0000 0.0000 0.0000 16.7951 0.0000 -3.1276
# 5 28.1260 16.9179 25.0581 0.0000 52.6519 0.0000
# 6 0.0000 0.0000 0.0000 -3.1276 0.0000 29.5953
#
#
#
# Elastic Compliance Matrix: (Units=1/GPa)
#
#
# Indices 1 2 3 4 5 6 
#
# 1 0.011365 -0.002213 -0.002095 0.000000 -0.004363 0.000000
# 2 -0.002213 0.011332 -0.001459 0.000000 -0.001764 0.000000
# 3 -0.002095 -0.001459 0.026491 0.000000 -0.011019 0.000000
# 4 0.000000 0.000000 0.000000 0.060736 0.000000 0.006419
# 5 -0.004363 -0.001764 -0.011019 0.000000 0.027134 0.000000
# 6 0.000000 0.000000 0.000000 0.006419 0.000000 0.034467
#
#
# Mechanical properties :
#
#
# Convention : Reuss Voigt Hill
#
# Bulk Modulus (GPa) = 26.55874 43.01040 34.78457
# Shear Modulus (GPa) = 25.56062 32.63996 29.10029
#
# Velocity S-wave (km/s) = 3.44961 3.89815 3.68072
# Velocity P-wave (km/s) = 5.31327 6.34699 5.85300
#
# Compressibility (1/GPa) = 0.03765239
#
# Stress axis : x y z
#
# Youngs Moduli (GPa) = 87.98685 88.24492 37.74885
#
# Poissons Ratio (x) = 0.19533 0.07910
# Poissons Ratio (y) = 0.19476 0.05508
# Poissons Ratio (z) = 0.18437 0.12875
#
# Static dielectric constant tensor:
#      x y z
#    x 1.841720 0.000000 -0.008480 
#    y 0.000000 1.738850 0.000000 
#    z -0.008480 0.000000 1.866000 
# 
# From -- ./inp_files/169838.got.cif
#   From: 2010.05.17/outbox.cif.g08.bks.cpg/sg12_85_cif.got.tgz:169838.got - 2010.06.03 13:09:07.
