data_PCOD9203299
_publ_section_title
;
Structure prediction by ZEFSAII (Michael W. Deem and Ramdas Pophale) SiO2 
 PCOD9203299
Probable space group: C 2/M
;
_chemical_formula_sum "Si O2"
_cell_formula_units_Z 60
_cell_length_a 16.924789
_cell_length_b 15.845381
_cell_length_c 12.877584
_cell_angle_alpha 90.000000
_cell_angle_beta 67.050609
_cell_angle_gamma 90.000000
_cell_volume 3180.160625
_symmetry_space_group_name_H-M "C 2/M"
_symmetry_group_IT_number 12
_symmetry_cell_setting 'monoclinic'
loop_
_space_group_symop_operation_xyz
x,y,z
-x,y,-z
-x,-y,-z
x,-y,z
1/2+x,1/2+y,z
1/2-x,1/2+y,-z
1/2-x,1/2-y,-z
1/2+x,1/2-y,z
loop_
_atom_site_type_symbol
_atom_site_label
_atom_site_fract_x
_atom_site_fract_y
_atom_site_fract_z
Si Si1 0.820753 0.597896 0.116913
Si Si2 0.895265 0.678723 0.282648
Si Si3 0.842032 0.853287 0.413912
Si Si4 0.482165 0.500000 0.294260
Si Si5 0.146317 0.403624 0.480572
Si Si6 0.626092 0.643791 0.183177
Si Si7 0.597353 0.266526 0.415038
Si Si8 0.557719 0.778320 0.068310
O O1 0.845316 0.500000 0.107432
O O2 0.837786 0.638854 0.221171
O O3 0.721616 0.607105 0.137267
O O4 0.880000 0.649646 0.006967
O O5 0.863576 0.772304 0.331039
O O6 0.891451 0.622617 0.387888
O O7 0.990577 0.687387 0.187571
O O8 0.748589 0.889507 0.437473
O O9 0.845316 0.815894 0.529221
O O10 0.912427 0.925562 0.362613
O O11 0.553488 0.573028 0.227780
O O12 0.126778 0.500000 0.464395
O O13 0.112707 0.333022 0.418650
O O14 0.615143 0.700431 0.292035
O O15 0.609979 0.702194 0.091885
O O16 0.500000 0.284975 0.500000
O O17 0.500000 0.749117 0.000000
#
# Coordination Sequence:
#
# PCOD9203299 Si02
#       8
#     8   8   8   4   8   8   8   8
#     4  11  23  38  64  91 116 150 203 253 292 347
#     4  10  20  39  61  86 121 161 197 242 296 342
#     4  11  21  39  58  93 125 158 197 238 293 346
#     4  12  22  37  69  88 122 152 196 248 286 356
#     4  11  22  36  58  89 126 165 201 232 277 358
#     4  12  22  42  61  91 121 152 194 247 312 347
#     4  11  22  37  59  87 126 164 192 238 298 350
#     4  10  23  42  65  83 115 156 198 249 308 349
#
# _framework density 18.866972000000001
#
# number of rings (size 3 to 8) (size 9 to 14) (size 15 to 20)
#    0.000    1.067    4.000    4.800    0.000    4.267 
#    0.000    1.000    0.000    0.000    0.000    0.000 
#    0.000    0.000    0.000    0.000    0.000    0.000 
#
# Total GULP energy -167162.165662 kJ/mol
# GULP energy per Si atom -5572.072189 kJ/mol
# Density = 1.882403 g / cm^3
# Si number density = 18.866972 Si / 1000 Ang^3
#
#
#
# Elastic Constant Matrix: (Units=GPa)
#
#
# Indices 1 2 3 4 5 6 
#
# 1 32.9530 19.4630 13.8382 0.0000 2.3468 0.0000
# 2 19.4630 158.0802 55.3252 0.0000 15.6172 0.0000
# 3 13.8382 55.3252 80.8946 0.0000 -0.0035 0.0000
# 4 0.0000 0.0000 0.0000 1.3110 0.0000 0.2530
# 5 2.3468 15.6172 -0.0035 0.0000 14.4194 0.0000
# 6 0.0000 0.0000 0.0000 0.2530 0.0000 15.0110
#
#
#
# Elastic Compliance Matrix: (Units=1/GPa)
#
#
# Indices 1 2 3 4 5 6 
#
# 1 0.033709 -0.002433 -0.004103 0.000000 -0.002853 0.000000
# 2 -0.002433 0.009854 -0.006324 0.000000 -0.010278 0.000000
# 3 -0.004103 -0.006324 0.017389 0.000000 0.007521 0.000000
# 4 0.000000 0.000000 0.000000 0.765265 0.000000 -0.012896
# 5 -0.002853 -0.010278 0.007521 0.000000 0.080949 0.000000
# 6 0.000000 0.000000 0.000000 -0.012896 0.000000 0.066835
#
#
# Mechanical properties :
#
#
# Convention : Reuss Voigt Hill
#
# Bulk Modulus (GPa) = 28.38191 49.90897 39.14544
# Shear Modulus (GPa) = 4.94334 18.36839 11.65586
#
# Velocity S-wave (km/s) = 1.62043 3.12360 2.48824
# Velocity P-wave (km/s) = 4.31009 6.28647 5.38965
#
# Compressibility (1/GPa) = 0.03523371
#
# Stress axis : x y z
#
# Youngs Moduli (GPa) = 29.66556 101.48212 57.50837
#
# Poissons Ratio (x) = 0.24686 0.23595
# Poissons Ratio (y) = 0.07216 0.36366
# Poissons Ratio (z) = 0.12171 0.64173
#
# Static dielectric constant tensor:
#      x y z
#    x 1.689550 0.000000 0.005410 
#    y 0.000000 1.630540 0.000000 
#    z 0.005410 0.000000 1.631550 
# 
# From -- ./inp_files/156606.got.cif
#   From: 2010.05.17/outbox.cif.g08.bks.cpg/sg12_79_cif.got.tgz:156606.got - 2010.06.03 13:09:07.
