data_PCOD9203421
_publ_section_title
;
Structure prediction by ZEFSAII (Michael W. Deem and Ramdas Pophale) SiO2 
 PCOD9203421
Probable space group: C 2/M
;
_chemical_formula_sum "Si O2"
_cell_formula_units_Z 44
_cell_length_a 11.610948
_cell_length_b 23.299517
_cell_length_c 6.557155
_cell_angle_alpha 90.000000
_cell_angle_beta 106.742754
_cell_angle_gamma 90.000000
_cell_volume 1698.704053
_symmetry_space_group_name_H-M "C 2/M"
_symmetry_group_IT_number 12
_symmetry_cell_setting 'monoclinic'
loop_
_space_group_symop_operation_xyz
x,y,z
-x,y,-z
-x,-y,-z
x,-y,z
1/2+x,1/2+y,z
1/2-x,1/2+y,-z
1/2-x,1/2-y,-z
1/2+x,1/2-y,z
loop_
_atom_site_type_symbol
_atom_site_label
_atom_site_fract_x
_atom_site_fract_y
_atom_site_fract_z
Si Si1 0.465504 0.000000 0.741487
Si Si2 0.164954 0.380673 0.359884
Si Si3 0.865411 0.774103 0.175420
Si Si4 0.000000 0.712223 0.500000
Si Si5 0.142848 0.902749 0.837251
Si Si6 0.040076 0.000000 0.292095
Si Si7 0.768425 0.500000 0.152840
Si Si8 0.500000 0.814384 0.000000
O O1 0.395787 0.057907 0.661478
O O2 0.596199 0.000000 0.709723
O O3 0.500000 0.000000 0.000000
O O4 0.303187 0.392811 0.365280
O O5 0.112852 0.350622 0.125598
O O6 0.107057 0.339336 0.501433
O O7 0.882183 0.837957 0.107012
O O8 0.888406 0.763754 0.422975
O O9 0.750000 0.750000 0.000000
O O10 0.969820 0.725747 0.178046
O O11 0.026204 0.941644 0.806652
O O12 0.239103 0.942907 0.005664
O O13 0.000000 0.000000 0.500000
O O14 0.174922 0.000000 0.289357
#
# Coordination Sequence:
#
# PCOD9203421 Si02
#       8
#     4   8   8   4   8   4   4   4
#     4  12  20  37  76 102 132 186 237 297 367 425
#     4  11  21  42  66 101 142 178 239 304 358 427
#     4  11  24  44  69 103 138 194 233 292 370 432
#     4  10  28  43  64 111 154 178 242 306 360 442
#     4  11  22  43  70  95 136 187 241 294 353 433
#     4  11  28  47  63 100 147 184 237 306 352 427
#     4  11  24  43  72 103 135 185 248 297 353 442
#     4  10  20  39  62  99 138 174 240 294 344 440
#
# _framework density 25.902097000000001
#
# number of rings (size 3 to 8) (size 9 to 14) (size 15 to 20)
#    0.000    1.091    4.545    1.636    6.364    2.545 
#    0.000    0.000    0.000    0.000    0.000    0.000 
#    0.000    0.000    0.000    0.000    0.000    0.000 
#
# Total GULP energy -122495.812569 kJ/mol
# GULP energy per Si atom -5567.991480 kJ/mol
# Density = 2.584314 g / cm^3
# Si number density = 25.902097 Si / 1000 Ang^3
#
#
#
# Elastic Constant Matrix: (Units=GPa)
#
#
# Indices 1 2 3 4 5 6 
#
# 1 156.1476 52.2428 14.4392 0.0000 -18.5113 0.0000
# 2 52.2428 255.6511 32.2900 0.0000 6.6483 0.0000
# 3 14.4392 32.2900 52.6462 0.0000 1.6508 0.0000
# 4 0.0000 0.0000 0.0000 38.6047 0.0000 -20.8324
# 5 -18.5113 6.6483 1.6508 0.0000 47.7088 0.0000
# 6 0.0000 0.0000 0.0000 -20.8324 0.0000 -2.1599
#
#
#
# Elastic Compliance Matrix: (Units=1/GPa)
#
#
# Indices 1 2 3 4 5 6 
#
# 1 0.007364 -0.001429 -0.001241 0.000000 0.003099 0.000000
# 2 -0.001429 0.004529 -0.002351 0.000000 -0.001104 0.000000
# 3 -0.001241 -0.002351 0.020805 0.000000 -0.000874 0.000000
# 4 0.000000 0.000000 0.000000 0.004175 0.000000 -0.040266
# 5 0.003099 -0.001104 -0.000874 0.000000 0.022347 0.000000
# 6 0.000000 0.000000 0.000000 -0.040266 0.000000 -0.074617
#
#
# Mechanical properties :
#
#
# Convention : Reuss Voigt Hill
#
# Bulk Modulus (GPa) = 44.13764 73.59876 58.86820
# Shear Modulus (GPa) = 2275.66815 41.19559 1158.43187
#
# Velocity S-wave (km/s) = 29.67276 3.99235 21.17087
# Velocity P-wave (km/s) = 34.51145 7.05179 24.90751
#
# Compressibility (1/GPa) = 0.02265640
#
# Stress axis : x y z
#
# Youngs Moduli (GPa) = 135.78818 220.78549 48.06619
#
# Poissons Ratio (x) = 0.31547 0.05963
# Poissons Ratio (y) = 0.19402 0.11303
# Poissons Ratio (z) = 0.16847 0.51917
#
# Static dielectric constant tensor:
#      x y z
#    x 2.108090 0.000000 0.034380 
#    y 0.000000 1.978010 0.000000 
#    z 0.034380 0.000000 1.716460 
# 
# From -- ./inp_files/49448.got.cif
#   From: 2010.05.17/outbox.cif.g08.bks.cpg/sg12_25_cif.got.tgz:49448.got - 2010.06.03 13:09:07.
