data_PCOD9203275
_publ_section_title
;
Structure prediction by ZEFSAII (Michael W. Deem and Ramdas Pophale) SiO2 
 PCOD9203275
Probable space group: C 2/M
;
_chemical_formula_sum "Si O2"
_cell_formula_units_Z 48
_cell_length_a 15.679438
_cell_length_b 8.299826
_cell_length_c 19.943989
_cell_angle_alpha 90.000000
_cell_angle_beta 101.569194
_cell_angle_gamma 90.000000
_cell_volume 2542.712018
_symmetry_space_group_name_H-M "C 2/M"
_symmetry_group_IT_number 12
_symmetry_cell_setting 'monoclinic'
loop_
_space_group_symop_operation_xyz
x,y,z
-x,y,-z
-x,-y,-z
x,-y,z
1/2+x,1/2+y,z
1/2-x,1/2+y,-z
1/2-x,1/2-y,-z
1/2+x,1/2-y,z
loop_
_atom_site_type_symbol
_atom_site_label
_atom_site_fract_x
_atom_site_fract_y
_atom_site_fract_z
Si Si1 0.822766 0.194530 0.420504
Si Si2 0.418884 0.194705 0.171684
Si Si3 0.133678 0.805629 0.422998
Si Si4 0.455079 0.304980 0.327470
Si Si5 0.759552 0.192846 0.924915
Si Si6 0.451052 0.194647 0.924256
O O1 0.862212 0.248249 0.498527
O O2 0.723322 0.250987 0.403303
O O3 0.880415 0.250461 0.367319
O O4 0.823749 0.000000 0.420830
O O5 0.437919 0.249837 0.249598
O O6 0.324502 0.250299 0.130129
O O7 0.493057 0.249434 0.130923
O O8 0.418567 0.000000 0.170251
O O9 0.048120 0.748890 0.370903
O O10 0.131831 0.000000 0.423489
O O11 0.455448 0.500000 0.328494
O O12 0.851555 0.250001 0.910274
O O13 0.758307 0.000000 0.924741
O O14 0.750000 0.250000 0.000000
O O15 0.451427 0.000000 0.924849
O O16 0.500000 0.248533 0.000000
#
# Coordination Sequence:
#
# PCOD9203275 Si02
#       6
#     8   8   8   8   8   8
#     4   9  18  34  56  81 109 144 185 226 271 321
#     4  10  23  40  56  79 114 149 180 224 281 331
#     4   9  18  34  56  81 109 143 184 229 271 317
#     4  10  21  36  55  79 111 147 185 225 270 327
#     4  11  22  38  60  85 110 141 182 228 277 330
#     4  10  20  39  61  81 109 143 180 226 279 330
#
# _framework density 18.877482000000001
#
# number of rings (size 3 to 8) (size 9 to 14) (size 15 to 20)
#    0.000    2.167    1.667    1.000    0.000    7.000 
#    0.000    6.667    0.000    5.000    0.000    0.000 
#    0.000    0.000    0.000    0.000    0.000    0.000 
#
# Total GULP energy -133996.825373 kJ/mol
# GULP energy per Si atom -5583.201057 kJ/mol
# Density = 1.883452 g / cm^3
# Si number density = 18.877482 Si / 1000 Ang^3
#
#
#
# Elastic Constant Matrix: (Units=GPa)
#
#
# Indices 1 2 3 4 5 6 
#
# 1 195.9232 21.2651 135.3982 0.0000 -24.6812 0.0000
# 2 21.2651 7.6072 18.3953 0.0000 -3.1875 0.0000
# 3 135.3982 18.3953 178.2440 0.0000 -17.3311 0.0000
# 4 0.0000 0.0000 0.0000 30.1907 0.0000 -0.8585
# 5 -24.6812 -3.1875 -17.3311 0.0000 5.5688 0.0000
# 6 0.0000 0.0000 0.0000 -0.8585 0.0000 32.5718
#
#
#
# Elastic Compliance Matrix: (Units=1/GPa)
#
#
# Indices 1 2 3 4 5 6 
#
# 1 0.017536 -0.010591 -0.007543 0.000000 0.048184 0.000000
# 2 -0.010591 0.198526 -0.008544 0.000000 0.040105 0.000000
# 3 -0.007543 -0.008544 0.012182 0.000000 -0.000407 0.000000
# 4 0.000000 0.000000 0.000000 0.033148 0.000000 0.000874
# 5 0.048184 0.040105 -0.000407 0.000000 0.414812 0.000000
# 6 0.000000 0.000000 0.000000 0.000874 0.000000 0.030724
#
#
# Mechanical properties :
#
#
# Convention : Reuss Voigt Hill
#
# Bulk Modulus (GPa) = 5.71790 81.32128 43.51959
# Shear Modulus (GPa) = 6.10814 27.44733 16.77773
#
# Velocity S-wave (km/s) = 1.80075 3.81723 2.98446
# Velocity P-wave (km/s) = 2.71277 7.91204 5.91437
#
# Compressibility (1/GPa) = 0.17488933
#
# Stress axis : x y z
#
# Youngs Moduli (GPa) = 57.02507 5.03712 82.08802
#
# Poissons Ratio (x) = 0.05335 0.61917
# Poissons Ratio (y) = 0.60396 0.70133
# Poissons Ratio (z) = 0.43013 0.04304
#
# Static dielectric constant tensor:
#      x y z
#    x 1.640850 0.000000 0.000940 
#    y 0.000000 1.664940 0.000000 
#    z 0.000940 0.000000 1.626130 
# 
# From -- ./inp_files/267728.got.cif
#   From: 2010.05.17/outbox.cif.g08.bks.cpg/sg12_134_cif.got.tgz:267728.got - 2010.06.03 13:09:07.
