data_PCOD9203559
_publ_section_title
;
Structure prediction by ZEFSAII (Michael W. Deem and Ramdas Pophale) SiO2 
 PCOD9203559
Probable space group: C 2/M
;
_chemical_formula_sum "Si O2"
_cell_formula_units_Z 56
_cell_length_a 21.706331
_cell_length_b 14.976020
_cell_length_c 21.019785
_cell_angle_alpha 90.000000
_cell_angle_beta 157.351228
_cell_angle_gamma 90.000000
_cell_volume 2631.256881
_symmetry_space_group_name_H-M "C 2/M"
_symmetry_group_IT_number 12
_symmetry_cell_setting 'monoclinic'
loop_
_space_group_symop_operation_xyz
x,y,z
-x,y,-z
-x,-y,-z
x,-y,z
1/2+x,1/2+y,z
1/2-x,1/2+y,-z
1/2-x,1/2-y,-z
1/2+x,1/2-y,z
loop_
_atom_site_type_symbol
_atom_site_label
_atom_site_fract_x
_atom_site_fract_y
_atom_site_fract_z
Si Si1 0.327109 0.403946 0.302176
Si Si2 0.162290 0.100094 0.292315
Si Si3 0.394137 0.213799 0.178395
Si Si4 0.797097 0.105706 0.900554
Si Si5 0.505249 0.597424 0.672701
Si Si6 0.285737 0.146575 0.547910
Si Si7 0.193912 0.289799 0.679426
O O1 0.500000 0.408081 0.500000
O O2 0.245040 0.500000 0.234982
O O3 0.382769 0.397868 0.282060
O O4 0.252178 0.311888 0.254950
O O5 0.217834 0.102032 0.418469
O O6 0.257758 0.173932 0.343462
O O7 0.196216 0.000000 0.299665
O O8 0.973864 0.117179 0.099970
O O9 0.328311 0.158861 0.175493
O O10 0.464824 0.309460 0.265171
O O11 0.522411 0.149916 0.265802
O O12 0.250000 0.250000 0.000000
O O13 0.778008 0.147325 0.812165
O O14 0.764177 0.000000 0.867489
O O15 0.539385 0.500000 0.735397
O O16 0.310774 0.604935 0.484727
O O17 0.250000 0.250000 0.500000
O O18 0.000000 0.293630 0.500000
#
# Coordination Sequence:
#
# PCOD9203559 Si02
#       7
#     8   8   8   8   8   8   8
#     4   9  19  36  62  91 120 156 205 254 307 366
#     4  11  24  41  62  91 128 169 209 258 315 380
#     4  11  23  40  59  92 127 164 204 256 312 376
#     4  11  23  40  60  88 127 171 211 254 317 382
#     4  10  20  39  64  89 122 163 205 256 311 366
#     4  10  22  37  61  90 120 158 205 250 304 367
#     4  11  22  37  63  93 125 159 211 261 315 375
#
# _framework density 21.282603999999999
#
# number of rings (size 3 to 8) (size 9 to 14) (size 15 to 20)
#    0.000    1.571    1.429    3.857    6.000    6.286 
#    0.000    0.000    0.000    2.571    0.000    0.000 
#    0.000    0.000    0.000    0.000    0.000    0.000 
#
# Total GULP energy -156003.782001 kJ/mol
# GULP energy per Si atom -5571.563643 kJ/mol
# Density = 2.123416 g / cm^3
# Si number density = 21.282604 Si / 1000 Ang^3
#
#
#
# Elastic Constant Matrix: (Units=GPa)
#
#
# Indices 1 2 3 4 5 6 
#
# 1 24.5142 30.4500 -8.8365 0.0006 7.6514 0.0004
# 2 30.4500 168.1904 23.2970 0.0077 12.8716 0.0046
# 3 -8.8365 23.2970 59.9231 0.0020 -4.0921 0.0014
# 4 0.0006 0.0077 0.0020 23.0579 0.0024 -2.7309
# 5 7.6514 12.8716 -4.0921 0.0024 24.0931 0.0011
# 6 0.0004 0.0046 0.0014 -2.7309 0.0011 30.9440
#
#
#
# Elastic Compliance Matrix: (Units=1/GPa)
#
#
# Indices 1 2 3 4 5 6 
#
# 1 0.065378 -0.012873 0.013858 0.000003 -0.011531 0.000001
# 2 -0.012873 0.009186 -0.005591 -0.000002 -0.001769 -0.000001
# 3 0.013858 -0.005591 0.021053 -0.000001 0.002161 0.000000
# 4 0.000003 -0.000002 -0.000001 0.043827 -0.000004 0.003868
# 5 -0.011531 -0.001769 0.002161 -0.000004 0.046480 -0.000002
# 6 0.000001 -0.000001 0.000000 0.003868 -0.000002 0.032658
#
#
# Mechanical properties :
#
#
# Convention : Reuss Voigt Hill
#
# Bulk Modulus (GPa) = 11.57337 38.04987 24.81162
# Shear Modulus (GPa) = 19.48602 29.46680 24.47641
#
# Velocity S-wave (km/s) = 3.02915 3.72499 3.39494
# Velocity P-wave (km/s) = 4.20524 6.03473 5.20106
#
# Compressibility (1/GPa) = 0.08640525
#
# Stress axis : x y z
#
# Youngs Moduli (GPa) = 15.29574 108.86061 47.49974
#
# Poissons Ratio (x) = 1.40141 -0.65827
# Poissons Ratio (y) = 0.19691 0.26555
# Poissons Ratio (z) = -0.21197 0.60859
#
# Static dielectric constant tensor:
#      x y z
#    x 2.021590 0.000000 0.166390 
#    y 0.000000 1.781500 0.000000 
#    z 0.166390 0.000000 2.009730 
# 
# From -- ./inp_files/349810.got.cif
#   From: 2010.05.17/outbox.cif.g08.bks.cpg/sg12_175_cif.got.tgz:349810.got - 2010.06.03 13:09:07.
