data_PCOD9203775
_publ_section_title
;
Structure prediction by ZEFSAII (Michael W. Deem and Ramdas Pophale) SiO2 
 PCOD9203775
Probable space group: C 2/M
;
_chemical_formula_sum "Si O2"
_cell_formula_units_Z 48
_cell_length_a 15.260818
_cell_length_b 11.746970
_cell_length_c 13.895797
_cell_angle_alpha 90.000000
_cell_angle_beta 98.000265
_cell_angle_gamma 90.000000
_cell_volume 2466.832302
_symmetry_space_group_name_H-M "C 2/M"
_symmetry_group_IT_number 12
_symmetry_cell_setting 'monoclinic'
loop_
_space_group_symop_operation_xyz
x,y,z
-x,y,-z
-x,-y,-z
x,-y,z
1/2+x,1/2+y,z
1/2-x,1/2+y,-z
1/2-x,1/2-y,-z
1/2+x,1/2-y,z
loop_
_atom_site_type_symbol
_atom_site_label
_atom_site_fract_x
_atom_site_fract_y
_atom_site_fract_z
Si Si1 0.062358 0.627236 0.591740
Si Si2 0.950154 0.748186 0.213193
Si Si3 0.643863 0.500000 0.074472
Si Si4 0.549707 0.500000 0.860546
Si Si5 0.359478 0.865954 0.765384
Si Si6 0.786977 0.626605 0.535785
Si Si7 0.259750 0.781207 0.112813
O O1 0.029283 0.500000 0.616439
O O2 0.065536 0.709807 0.680599
O O3 0.151249 0.611187 0.547476
O O4 0.000000 0.675671 0.500000
O O5 0.945260 0.883287 0.197275
O O6 0.864045 0.699524 0.145620
O O7 0.046651 0.697682 0.200605
O O8 0.546948 0.500000 0.105648
O O9 0.699948 0.392318 0.116065
O O10 0.623684 0.500000 0.956466
O O11 0.334481 0.857215 0.647518
O O12 0.282474 0.810723 0.819799
O O13 0.368421 0.000000 0.788528
O O14 0.740198 0.500000 0.538077
O O15 0.750000 0.750000 0.500000
O O16 0.250000 0.750000 0.000000
#
# Coordination Sequence:
#
# PCOD9203775 Si02
#       7
#     8   8   4   4   8   8   8
#     4  10  20  39  67  93 125 168 217 264 324 396
#     4  12  24  44  69 101 133 181 224 274 340 399
#     4  11  24  48  68  94 132 186 227 280 341 408
#     4  11  24  46  71  89 142 183 219 280 355 398
#     4  11  25  45  69  99 135 175 226 281 336 401
#     4  10  21  43  67  95 133 176 222 281 341 401
#     4  12  27  44  69  99 134 174 231 278 338 408
#
# _framework density 19.458152999999999
#
# number of rings (size 3 to 8) (size 9 to 14) (size 15 to 20)
#    0.000    1.000    5.000    1.500    4.667    0.667 
#    4.500    1.250    0.000    0.000    0.000    0.000 
#    0.000    0.000    0.000    0.000    0.000    0.000 
#
# Total GULP energy -133706.153423 kJ/mol
# GULP energy per Si atom -5571.089726 kJ/mol
# Density = 1.941387 g / cm^3
# Si number density = 19.458153 Si / 1000 Ang^3
#
#
#
# Elastic Constant Matrix: (Units=GPa)
#
#
# Indices 1 2 3 4 5 6 
#
# 1 73.1552 35.6342 20.1175 0.0000 8.8033 0.0000
# 2 35.6342 132.1216 57.6332 0.0000 15.1576 0.0000
# 3 20.1175 57.6332 106.3871 0.0000 3.0180 0.0000
# 4 0.0000 0.0000 0.0000 39.2066 0.0000 -0.8987
# 5 8.8033 15.1576 3.0180 0.0000 37.2077 0.0000
# 6 0.0000 0.0000 0.0000 -0.8987 0.0000 29.0860
#
#
#
# Elastic Compliance Matrix: (Units=1/GPa)
#
#
# Indices 1 2 3 4 5 6 
#
# 1 0.015974 -0.003618 -0.000998 0.000000 -0.002225 0.000000
# 2 -0.003618 0.011239 -0.005311 0.000000 -0.003292 0.000000
# 3 -0.000998 -0.005311 0.012426 0.000000 0.001392 0.000000
# 4 0.000000 0.000000 0.000000 0.025524 0.000000 0.000789
# 5 -0.002225 -0.003292 0.001392 0.000000 0.028631 0.000000
# 6 0.000000 0.000000 0.000000 0.000789 0.000000 0.034405
#
#
# Mechanical properties :
#
#
# Convention : Reuss Voigt Hill
#
# Bulk Modulus (GPa) = 50.54120 59.82598 55.18359
# Shear Modulus (GPa) = 32.33179 34.31868 33.32523
#
# Velocity S-wave (km/s) = 4.08070 4.20422 4.14292
# Velocity P-wave (km/s) = 6.94504 7.37428 7.16287
#
# Compressibility (1/GPa) = 0.01978584
#
# Stress axis : x y z
#
# Youngs Moduli (GPa) = 62.60212 88.97657 80.47708
#
# Poissons Ratio (x) = 0.32191 0.08028
# Poissons Ratio (y) = 0.22649 0.42741
# Poissons Ratio (z) = 0.06245 0.47255
#
# Static dielectric constant tensor:
#      x y z
#    x 1.605070 0.000000 -0.058420 
#    y 0.000000 1.818780 0.000000 
#    z -0.058420 0.000000 1.598080 
# 
# From -- ./inp_files/212881.got.cif
#   From: 2010.05.17/outbox.cif.g08.bks.cpg/sg12_107_cif.got.tgz:212881.got - 2010.06.03 13:09:07.
