data_PCOD9203015
_publ_section_title
;
Structure prediction by ZEFSAII (Michael W. Deem and Ramdas Pophale) SiO2 
 PCOD9203015
Probable space group: C 2/M
;
_chemical_formula_sum "Si O2"
_cell_formula_units_Z 48
_cell_length_a 18.446635
_cell_length_b 21.938472
_cell_length_c 8.029269
_cell_angle_alpha 90.000000
_cell_angle_beta 37.857540
_cell_angle_gamma 90.000000
_cell_volume 1994.140947
_symmetry_space_group_name_H-M "C 2/M"
_symmetry_group_IT_number 12
_symmetry_cell_setting 'monoclinic'
loop_
_space_group_symop_operation_xyz
x,y,z
-x,y,-z
-x,-y,-z
x,-y,z
1/2+x,1/2+y,z
1/2-x,1/2+y,-z
1/2-x,1/2-y,-z
1/2+x,1/2-y,z
loop_
_atom_site_type_symbol
_atom_site_label
_atom_site_fract_x
_atom_site_fract_y
_atom_site_fract_z
Si Si1 0.740624 0.839643 0.864989
Si Si2 0.955914 0.741445 0.898756
Si Si3 0.969844 0.878083 0.287479
Si Si4 0.823586 0.929140 0.239088
Si Si5 0.557105 0.068537 0.079508
Si Si6 0.869634 0.352011 0.573498
O O1 0.678055 0.778377 0.904314
O O2 0.670824 0.890049 0.886272
O O3 0.696153 0.844225 0.133778
O O4 0.877499 0.856665 0.596510
O O5 0.972354 0.813269 0.864924
O O6 0.051142 0.707529 0.607961
O O7 0.000000 0.719702 0.000000
O O8 0.891207 0.908623 0.283650
O O9 0.082133 0.923103 0.085282
O O10 0.725758 0.877634 0.383772
O O11 0.782483 0.000000 0.325284
O O12 0.466347 0.094580 0.379439
O O13 0.588732 0.000000 0.058200
O O14 0.500000 0.072194 0.000000
#
# Coordination Sequence:
#
# PCOD9203015 Si02
#       6
#     8   8   8   8   8   8
#     4  11  25  41  60  99 135 170 211 265 332 397
#     4  11  22  42  70  96 130 165 225 272 321 383
#     4  11  24  43  69  94 126 174 221 272 322 377
#     4  11  24  46  69  97 131 172 226 272 319 384
#     4  10  20  38  65  93 123 167 222 273 319 375
#     4  11  24  41  63  98 135 172 207 264 334 392
#
# _framework density 24.070515
#
# number of rings (size 3 to 8) (size 9 to 14) (size 15 to 20)
#    0.000    1.167    1.667    7.500    2.333    7.333 
#    3.000    0.833    0.000    0.000    0.000    0.000 
#    0.000    0.000    0.000    0.000    0.000    0.000 
#
# Total GULP energy -134049.587437 kJ/mol
# GULP energy per Si atom -5585.399477 kJ/mol
# Density = 2.401573 g / cm^3
# Si number density = 24.070515 Si / 1000 Ang^3
#
#
#
# Elastic Constant Matrix: (Units=GPa)
#
#
# Indices 1 2 3 4 5 6 
#
# 1 41.2254 -0.7263 -7.5431 0.0000 2.5573 0.0001
# 2 -0.7263 113.4906 -14.8160 0.0000 5.7940 0.0000
# 3 -7.5431 -14.8160 129.8265 0.0000 8.8757 0.0001
# 4 0.0000 0.0000 0.0000 -2.6250 -0.0001 20.0761
# 5 2.5573 5.7940 8.8757 -0.0001 40.0465 -0.0001
# 6 0.0001 0.0000 0.0001 20.0761 -0.0001 -149.0673
#
#
#
# Elastic Compliance Matrix: (Units=1/GPa)
#
#
# Indices 1 2 3 4 5 6 
#
# 1 0.024687 0.000473 0.001625 -0.000015 -0.002005 -0.000002
# 2 0.000473 0.009049 0.001169 -0.000003 -0.001599 0.000000
# 3 0.001625 0.001169 0.008071 -0.000007 -0.002062 -0.000001
# 4 -0.000015 -0.000003 -0.000007 12.684133 0.000028 1.708279
# 5 -0.002005 -0.001599 -0.002062 0.000028 0.025787 0.000004
# 6 -0.000002 0.000000 -0.000001 1.708279 0.000004 0.223360
#
#
# Mechanical properties :
#
#
# Convention : Reuss Voigt Hill
#
# Bulk Modulus (GPa) = 20.68613 26.48575 23.58594
# Shear Modulus (GPa) = 0.38507 -1.82064 -0.71778
#
# Velocity S-wave (km/s) = 0.40040 -0.87064 -0.54667
# Velocity P-wave (km/s) = 2.97092 3.16490 3.06945
#
# Compressibility (1/GPa) = 0.04834158
#
# Stress axis : x y z
#
# Youngs Moduli (GPa) = 40.50715 110.51439 123.89363
#
# Poissons Ratio (x) = -0.05222 -0.20137
# Poissons Ratio (y) = -0.01914 -0.14488
# Poissons Ratio (z) = -0.06584 -0.12923
#
# Static dielectric constant tensor:
#      x y z
#    x 1.990240 0.000000 -0.060920 
#    y 0.000000 1.871400 0.000000 
#    z -0.060920 0.000000 2.058450 
# 
# From -- ./inp_files/99744.got.cif
#   From: 2010.05.17/outbox.cif.g08.bks.cpg/sg12_50_cif.got.tgz:99744.got - 2010.06.03 13:09:07.
