data_PCOD9203794
_publ_section_title
;
Structure prediction by ZEFSAII (Michael W. Deem and Ramdas Pophale) SiO2 
 PCOD9203794
Probable space group: C 2/M
;
_chemical_formula_sum "Si O2"
_cell_formula_units_Z 48
_cell_length_a 12.657058
_cell_length_b 20.979270
_cell_length_c 14.180260
_cell_angle_alpha 90.000000
_cell_angle_beta 148.870729
_cell_angle_gamma 90.000000
_cell_volume 1946.584550
_symmetry_space_group_name_H-M "C 2/M"
_symmetry_group_IT_number 12
_symmetry_cell_setting 'monoclinic'
loop_
_space_group_symop_operation_xyz
x,y,z
-x,y,-z
-x,-y,-z
x,-y,z
1/2+x,1/2+y,z
1/2-x,1/2+y,-z
1/2-x,1/2-y,-z
1/2+x,1/2-y,z
loop_
_atom_site_type_symbol
_atom_site_label
_atom_site_fract_x
_atom_site_fract_y
_atom_site_fract_z
Si Si1 0.954883 0.000000 0.808369
Si Si2 0.814521 0.424809 0.698689
Si Si3 0.520043 0.361783 0.205008
Si Si4 0.112435 0.369094 0.783088
Si Si5 0.674492 0.000000 0.776499
Si Si6 0.777998 0.769060 0.778470
Si Si7 0.614279 0.363758 0.694374
O O1 0.906162 0.933921 0.720566
O O2 0.826062 0.000000 0.805130
O O3 0.192808 0.000000 0.024446
O O4 0.845637 0.500000 0.702390
O O5 0.782203 0.414074 0.785906
O O6 0.600617 0.398189 0.492940
O O7 0.981772 0.379208 0.777507
O O8 0.675609 0.311168 0.279475
O O9 0.406401 0.342193 0.213421
O O10 0.350307 0.370592 0.994272
O O11 0.060454 0.433193 0.686191
O O12 0.116298 0.307684 0.720282
O O13 0.684912 0.699750 0.693654
O O14 0.000000 0.760805 0.000000
#
# Coordination Sequence:
#
# PCOD9203794 Si02
#       7
#     4   8   8   8   4   8   8
#     4   9  16  30  62  93 130 152 201 258 317 366
#     4  11  26  48  65  86 127 172 214 262 318 369
#     4  10  22  38  66 100 127 159 210 265 313 374
#     4  10  20  39  67  97 127 164 207 259 317 377
#     4   9  14  32  58  97 124 162 194 253 321 366
#     4  10  23  41  66  99 133 162 203 263 321 372
#     4  11  26  43  64  85 130 175 211 254 315 373
#
# _framework density 24.658574999999999
#
# number of rings (size 3 to 8) (size 9 to 14) (size 15 to 20)
#    0.000    1.833    2.500    1.000    7.000    2.000 
#    3.000    0.833    0.000    2.000    0.000    0.000 
#    0.000    0.000    0.000    0.000    0.000    0.000 
#
# Total GULP energy -133867.724118 kJ/mol
# GULP energy per Si atom -5577.821838 kJ/mol
# Density = 2.460245 g / cm^3
# Si number density = 24.658575 Si / 1000 Ang^3
#
#
#
# Elastic Constant Matrix: (Units=GPa)
#
#
# Indices 1 2 3 4 5 6 
#
# 1 142.7086 50.8506 1.8904 -0.0009 20.6649 0.0006
# 2 50.8506 134.3076 19.4474 -0.0003 3.0808 0.0003
# 3 1.8904 19.4474 82.7717 -0.0006 18.1881 0.0004
# 4 -0.0009 -0.0003 -0.0006 -75.0071 -0.0005 73.8182
# 5 20.6649 3.0808 18.1881 -0.0005 35.4620 0.0003
# 6 0.0006 0.0003 0.0004 73.8182 0.0003 -14.5165
#
#
#
# Elastic Compliance Matrix: (Units=1/GPa)
#
#
# Indices 1 2 3 4 5 6 
#
# 1 0.009137 -0.003605 0.001961 0.000000 -0.006017 0.000000
# 2 -0.003605 0.009133 -0.002649 0.000000 0.002666 0.000000
# 3 0.001961 -0.002649 0.014493 0.000000 -0.008346 0.000000
# 4 0.000000 0.000000 0.000000 0.003329 0.000000 0.016930
# 5 -0.006017 0.002666 -0.008346 0.000000 0.035754 0.000000
# 6 0.000000 0.000000 0.000000 0.016930 0.000000 0.017202
#
#
# Mechanical properties :
#
#
# Convention : Reuss Voigt Hill
#
# Bulk Modulus (GPa) = 41.36518 56.01829 48.69173
# Shear Modulus (GPa) = 47.30557 8.36099 27.83328
#
# Velocity S-wave (km/s) = 4.38473 1.84338 3.36333
# Velocity P-wave (km/s) = 6.51507 5.22471 5.90524
#
# Compressibility (1/GPa) = 0.02417492
#
# Stress axis : x y z
#
# Youngs Moduli (GPa) = 109.44182 109.49189 68.99897
#
# Poissons Ratio (x) = 0.39476 -0.13528
# Poissons Ratio (y) = 0.39458 0.18281
# Poissons Ratio (z) = -0.21457 0.29009
#
# Static dielectric constant tensor:
#      x y z
#    x 2.007970 0.000000 -0.036790 
#    y 0.000000 1.969440 0.000000 
#    z -0.036790 0.000000 2.025000 
# 
# From -- ./inp_files/207945.got.cif
#   From: 2010.05.17/outbox.cif.g08.bks.cpg/sg12_104_cif.got.tgz:207945.got - 2010.06.03 13:09:07.
