data_PCOD9203400
_publ_section_title
;
Structure prediction by ZEFSAII (Michael W. Deem and Ramdas Pophale) SiO2 
 PCOD9203400
Probable space group: C 2/M
;
_chemical_formula_sum "Si O2"
_cell_formula_units_Z 64
_cell_length_a 32.971482
_cell_length_b 8.724326
_cell_length_c 25.193953
_cell_angle_alpha 90.000000
_cell_angle_beta 26.620067
_cell_angle_gamma 90.000000
_cell_volume 3247.242272
_symmetry_space_group_name_H-M "C 2/M"
_symmetry_group_IT_number 12
_symmetry_cell_setting 'monoclinic'
loop_
_space_group_symop_operation_xyz
x,y,z
-x,y,-z
-x,-y,-z
x,-y,z
1/2+x,1/2+y,z
1/2-x,1/2+y,-z
1/2-x,1/2-y,-z
1/2+x,1/2-y,z
loop_
_atom_site_type_symbol
_atom_site_label
_atom_site_fract_x
_atom_site_fract_y
_atom_site_fract_z
Si Si1 0.421785 0.318246 0.048216
Si Si2 0.705631 0.686227 0.184582
Si Si3 0.779746 0.183814 0.408572
Si Si4 0.978436 0.317105 0.168928
Si Si5 0.132967 0.316314 0.491879
Si Si6 0.727335 0.315900 0.280553
Si Si7 0.622026 0.815632 0.087576
Si Si8 0.064093 0.183354 0.263396
O O1 0.408985 0.500000 0.055889
O O2 0.328074 0.242981 0.175529
O O3 0.500000 0.295093 0.000000
O O4 0.456142 0.241542 0.954005
O O5 0.725131 0.500000 0.284511
O O6 0.706620 0.736685 0.244467
O O7 0.618428 0.732341 0.252556
O O8 0.795022 0.733148 0.047249
O O9 0.750000 0.250000 0.500000
O O10 0.880908 0.240275 0.278209
O O11 0.708752 0.232454 0.446205
O O12 0.778912 0.000000 0.411854
O O13 0.969032 0.500000 0.176190
O O14 0.028782 0.281942 0.165390
O O15 0.133264 0.500000 0.489590
O O16 0.159985 0.249814 0.403135
O O17 0.034443 0.257868 0.623508
O O18 0.055722 0.000000 0.273677
O O19 0.620362 0.734708 0.146037
O O20 0.627839 0.000000 0.087834
O O21 0.207622 0.000000 0.183427
#
# Coordination Sequence:
#
# PCOD9203400 Si02
#       8
#     8   8   8   8   8   8   8   8
#     4  11  23  38  57  86 123 158 195 244 299 354
#     4   9  20  40  63  90 125 159 198 251 312 360
#     4  11  24  41  61  86 122 163 205 253 307 361
#     4  11  22  37  61  89 119 158 200 244 299 359
#     4  11  25  44  61  86 125 165 202 253 312 362
#     4  11  22  41  66  90 120 161 206 253 300 362
#     4  10  20  39  62  89 127 161 194 248 311 366
#     4  11  23  39  63  92 119 158 208 255 303 365
#
# _framework density 19.709032000000001
#
# number of rings (size 3 to 8) (size 9 to 14) (size 15 to 20)
#    0.000    1.375    1.250    4.125    0.000   10.500 
#    0.000    5.625    0.000    0.000    0.000    0.000 
#    0.000    0.000    0.000    0.000    0.000    0.000 
#
# Total GULP energy -178950.208850 kJ/mol
# GULP energy per Si atom -5592.194027 kJ/mol
# Density = 1.966417 g / cm^3
# Si number density = 19.709032 Si / 1000 Ang^3
#
#
#
# Elastic Constant Matrix: (Units=GPa)
#
#
# Indices 1 2 3 4 5 6 
#
# 1 95.5460 33.2363 13.6561 -0.0097 4.8227 0.0035
# 2 33.2363 39.0773 6.2709 -0.0021 -3.0444 0.0055
# 3 13.6561 6.2709 58.7051 -0.0051 8.2383 0.0039
# 4 -0.0097 -0.0021 -0.0051 28.2836 0.0006 9.5311
# 5 4.8227 -3.0444 8.2383 0.0006 36.0412 -0.0002
# 6 0.0035 0.0055 0.0039 9.5311 -0.0002 23.1330
#
#
#
# Elastic Compliance Matrix: (Units=1/GPa)
#
#
# Indices 1 2 3 4 5 6 
#
# 1 0.015390 -0.013014 -0.001804 0.000004 -0.002746 -0.000001
# 2 -0.013014 0.037344 -0.001704 0.000000 0.005285 -0.000007
# 3 -0.001804 -0.001704 0.018206 0.000004 -0.004064 -0.000004
# 4 0.000004 0.000000 0.000004 0.041057 -0.000002 -0.016916
# 5 -0.002746 0.005285 -0.004064 -0.000002 0.029489 0.000001
# 6 -0.000001 -0.000007 -0.000004 -0.016916 0.000001 0.050198
#
#
# Mechanical properties :
#
#
# Convention : Reuss Voigt Hill
#
# Bulk Modulus (GPa) = 26.38761 33.29500 29.84131
# Shear Modulus (GPa) = 21.06521 26.83590 23.95055
#
# Velocity S-wave (km/s) = 3.27281 3.69400 3.48976
# Velocity P-wave (km/s) = 5.26302 5.92656 5.60462
#
# Compressibility (1/GPa) = 0.03789657
#
# Stress axis : x y z
#
# Youngs Moduli (GPa) = 64.97921 26.77821 54.92592
#
# Poissons Ratio (x) = 0.34848 0.09911
# Poissons Ratio (y) = 0.84561 0.09357
# Poissons Ratio (z) = 0.11725 0.04562
#
# Static dielectric constant tensor:
#      x y z
#    x 1.698120 0.000000 0.006120 
#    y 0.000000 1.656800 -0.000070 
#    z 0.006120 -0.000070 1.536310 
# 
# From -- ./inp_files/353316.got.cif
#   From: 2010.05.17/outbox.cif.g08.bks.cpg/sg12_177_cif.got.tgz:353316.got - 2010.06.03 13:09:07.
