data_PCOD9203950
_publ_section_title
;
Structure prediction by ZEFSAII (Michael W. Deem and Ramdas Pophale) SiO2 
 PCOD9203950
Probable space group: C 2/M
;
_chemical_formula_sum "Si O2"
_cell_formula_units_Z 32
_cell_length_a 23.130614
_cell_length_b 12.851144
_cell_length_c 8.707700
_cell_angle_alpha 90.000000
_cell_angle_beta 146.551624
_cell_angle_gamma 90.000000
_cell_volume 1426.691694
_symmetry_space_group_name_H-M "C 2/M"
_symmetry_group_IT_number 12
_symmetry_cell_setting 'monoclinic'
loop_
_space_group_symop_operation_xyz
x,y,z
-x,y,-z
-x,-y,-z
x,-y,z
1/2+x,1/2+y,z
1/2-x,1/2+y,-z
1/2-x,1/2-y,-z
1/2+x,1/2-y,z
loop_
_atom_site_type_symbol
_atom_site_label
_atom_site_fract_x
_atom_site_fract_y
_atom_site_fract_z
Si Si1 0.754685 0.805553 0.673549
Si Si2 0.017110 0.884300 0.854489
Si Si3 0.062538 0.333005 0.421946
Si Si4 0.658090 0.885605 0.964536
O O1 0.750000 0.750000 0.500000
O O2 0.858930 0.874565 0.905687
O O3 0.854331 0.640467 0.525663
O O4 0.771591 0.711214 0.831269
O O5 0.961202 0.790519 0.642142
O O6 0.979972 0.000000 0.732972
O O7 0.000000 0.868346 0.000000
O O8 0.115634 0.366833 0.698840
O O9 0.946599 0.381181 0.161678
O O10 0.706665 0.000000 0.085565
#
# Coordination Sequence:
#
# PCOD9203950 Si02
#       4
#     8   8   8   8
#     4  11  22  38  62  89 121 154 198 246 297 352
#     4  10  21  37  58  86 117 153 194 239 295 351
#     4  10  20  40  62  85 119 158 194 249 292 349
#     4  10  23  41  62  87 120 160 199 244 296 351
#
# _framework density 22.429511999999999
#
# number of rings (size 3 to 8) (size 9 to 14) (size 15 to 20)
#    0.000    1.750    2.500    2.250    0.000    4.000 
#    0.000   11.250    0.000    0.000    0.000    0.000 
#    0.000    0.000    0.000    0.000    0.000    0.000 
#
# Total GULP energy -89409.929926 kJ/mol
# GULP energy per Si atom -5588.120620 kJ/mol
# Density = 2.237846 g / cm^3
# Si number density = 22.429512 Si / 1000 Ang^3
#
#
#
# Elastic Constant Matrix: (Units=GPa)
#
#
# Indices 1 2 3 4 5 6 
#
# 1 117.9457 -1.0582 5.2661 0.0000 32.3246 0.0000
# 2 -1.0582 130.1685 -1.1744 0.0000 -3.9987 0.0000
# 3 5.2661 -1.1744 28.8650 0.0000 12.8903 0.0000
# 4 0.0000 0.0000 0.0000 -5.3750 0.0000 -9.8317
# 5 32.3246 -3.9987 12.8903 0.0000 33.5824 0.0000
# 6 0.0000 0.0000 0.0000 -9.8317 0.0000 7.1767
#
#
#
# Elastic Compliance Matrix: (Units=1/GPa)
#
#
# Indices 1 2 3 4 5 6 
#
# 1 0.011815 -0.000264 0.003532 0.000000 -0.012760 0.000000
# 2 -0.000264 0.007717 -0.000195 0.000000 0.001248 0.000000
# 3 0.003532 -0.000195 0.042868 0.000000 -0.019878 0.000000
# 4 0.000000 0.000000 0.000000 -0.053068 0.000000 -0.072700
# 5 -0.012760 0.001248 -0.019878 0.000000 0.049838 0.000000
# 6 0.000000 0.000000 0.000000 -0.072700 0.000000 0.039745
#
#
# Mechanical properties :
#
#
# Convention : Reuss Voigt Hill
#
# Bulk Modulus (GPa) = 14.58870 31.44958 23.01914
# Shear Modulus (GPa) = 43.24560 25.33990 34.29275
#
# Velocity S-wave (km/s) = 4.39574 3.36483 3.91437
# Velocity P-wave (km/s) = 5.68170 5.39890 5.54210
#
# Compressibility (1/GPa) = 0.06854620
#
# Stress axis : x y z
#
# Youngs Moduli (GPa) = 84.63481 129.58777 23.32718
#
# Poissons Ratio (x) = 0.03422 -0.08239
# Poissons Ratio (y) = 0.02235 0.00455
# Poissons Ratio (z) = -0.29893 0.02529
#
# Static dielectric constant tensor:
#      x y z
#    x 1.850790 0.000000 0.018080 
#    y 0.000000 1.834160 0.000000 
#    z 0.018080 0.000000 1.826250 
# 
# From -- ./inp_files/104847.got.cif
#   From: 2010.05.17/outbox.cif.g08.bks.cpg/sg12_53_cif.got.tgz:104847.got - 2010.06.03 13:09:07.
