data_PCOD9203740
_publ_section_title
;
Structure prediction by ZEFSAII (Michael W. Deem and Ramdas Pophale) SiO2 
 PCOD9203740
Probable space group: C 2/M
;
_chemical_formula_sum "Si O2"
_cell_formula_units_Z 48
_cell_length_a 22.261377
_cell_length_b 24.015486
_cell_length_c 5.338411
_cell_angle_alpha 90.000000
_cell_angle_beta 54.356850
_cell_angle_gamma 90.000000
_cell_volume 2319.345417
_symmetry_space_group_name_H-M "C 2/M"
_symmetry_group_IT_number 12
_symmetry_cell_setting 'monoclinic'
loop_
_space_group_symop_operation_xyz
x,y,z
-x,y,-z
-x,-y,-z
x,-y,z
1/2+x,1/2+y,z
1/2-x,1/2+y,-z
1/2-x,1/2-y,-z
1/2+x,1/2-y,z
loop_
_atom_site_type_symbol
_atom_site_label
_atom_site_fract_x
_atom_site_fract_y
_atom_site_fract_z
Si Si1 0.912015 0.357986 0.708945
Si Si2 0.830490 0.742220 0.690097
Si Si3 0.460539 0.318248 0.343237
Si Si4 0.087978 0.937731 0.531758
Si Si5 0.686630 0.437346 0.792191
Si Si6 0.832122 0.366272 0.408998
O O1 0.882057 0.294864 0.747867
O O2 0.878885 0.385660 0.538216
O O3 0.000000 0.360185 0.500000
O O4 0.874516 0.380005 0.051874
O O5 0.875485 0.798608 0.538444
O O6 0.825585 0.700780 0.463789
O O7 0.750000 0.750000 0.000000
O O8 0.500000 0.298973 0.500000
O O9 0.465171 0.385085 0.332028
O O10 0.500000 0.295382 0.000000
O O11 0.136659 0.934131 0.665432
O O12 0.054358 0.000000 0.606038
O O13 0.138354 0.930893 0.161180
O O14 0.718580 0.500000 0.722478
O O15 0.751662 0.392893 0.617268
#
# Coordination Sequence:
#
# PCOD9203740 Si02
#       6
#     8   8   8   8   8   8
#     4  10  22  39  60  85 121 164 200 240 312 380
#     4  10  25  39  62  91 122 162 208 262 304 369
#     4  12  27  42  63  93 131 169 208 261 309 373
#     4  10  22  41  65  90 127 168 207 255 311 366
#     4  10  20  39  66  96 124 157 209 265 311 363
#     4  10  22  36  64  85 122 161 200 252 306 374
#
# _framework density 20.695492999999999
#
# number of rings (size 3 to 8) (size 9 to 14) (size 15 to 20)
#    1.000    0.667    0.000    4.000    7.000    1.333 
#    0.000    0.000    0.000    3.000    0.000    0.000 
#    0.000    0.000    0.000    0.000    0.000    0.000 
#
# Total GULP energy -133964.514532 kJ/mol
# GULP energy per Si atom -5581.854772 kJ/mol
# Density = 2.064839 g / cm^3
# Si number density = 20.695493 Si / 1000 Ang^3
#
#
#
# Elastic Constant Matrix: (Units=GPa)
#
#
# Indices 1 2 3 4 5 6 
#
# 1 78.6095 16.3897 27.1756 0.0000 19.4020 0.0000
# 2 16.3897 50.4261 8.8291 0.0000 1.6208 0.0000
# 3 27.1756 8.8291 118.0536 0.0000 24.5635 0.0000
# 4 0.0000 0.0000 0.0000 1.5556 0.0000 -0.7218
# 5 19.4020 1.6208 24.5635 0.0000 42.3796 0.0000
# 6 0.0000 0.0000 0.0000 -0.7218 0.0000 6.1587
#
#
#
# Elastic Compliance Matrix: (Units=1/GPa)
#
#
# Indices 1 2 3 4 5 6 
#
# 1 0.015849 -0.004598 -0.002083 0.000000 -0.005873 0.000000
# 2 -0.004598 0.021429 -0.000923 0.000000 0.001820 0.000000
# 3 -0.002083 -0.000923 0.010022 0.000000 -0.004820 0.000000
# 4 0.000000 0.000000 0.000000 0.679817 0.000000 0.079680
# 5 -0.005873 0.001820 -0.004820 0.000000 0.029009 0.000000
# 6 0.000000 0.000000 0.000000 0.079680 0.000000 0.171711
#
#
# Mechanical properties :
#
#
# Convention : Reuss Voigt Hill
#
# Bulk Modulus (GPa) = 31.15951 39.09753 35.12852
# Shear Modulus (GPa) = 5.24251 22.99843 14.12047
#
# Velocity S-wave (km/s) = 1.59332 3.33720 2.61492
# Velocity P-wave (km/s) = 4.29811 5.81223 5.11154
#
# Compressibility (1/GPa) = 0.03209293
#
# Stress axis : x y z
#
# Youngs Moduli (GPa) = 63.09440 46.66674 99.77964
#
# Poissons Ratio (x) = 0.21457 0.20780
# Poissons Ratio (y) = 0.29011 0.09209
# Poissons Ratio (z) = 0.13140 0.04307
#
# Static dielectric constant tensor:
#      x y z
#    x 1.734920 0.000000 0.046890 
#    y 0.000000 1.449700 0.000000 
#    z 0.046890 0.000000 1.715890 
# 
# From -- ./inp_files/21787.got.cif
#   From: 2010.05.17/outbox.cif.g08.bks.cpg/sg12_11_cif.got.tgz:21787.got - 2010.06.03 13:09:07.
