data_PCOD9203842
_publ_section_title
;
Structure prediction by ZEFSAII (Michael W. Deem and Ramdas Pophale) SiO2 
 PCOD9203842
Probable space group: C 2/M
;
_chemical_formula_sum "Si O2"
_cell_formula_units_Z 42
_cell_length_a 5.606637
_cell_length_b 31.318457
_cell_length_c 10.446178
_cell_angle_alpha 90.000000
_cell_angle_beta 88.588058
_cell_angle_gamma 90.000000
_cell_volume 1833.700212
_symmetry_space_group_name_H-M "C 2/M"
_symmetry_group_IT_number 12
_symmetry_cell_setting 'monoclinic'
loop_
_space_group_symop_operation_xyz
x,y,z
-x,y,-z
-x,-y,-z
x,-y,z
1/2+x,1/2+y,z
1/2-x,1/2+y,-z
1/2-x,1/2-y,-z
1/2+x,1/2-y,z
loop_
_atom_site_type_symbol
_atom_site_label
_atom_site_fract_x
_atom_site_fract_y
_atom_site_fract_z
Si Si1 0.311155 0.091635 0.818284
Si Si2 0.429947 0.350741 0.684254
Si Si3 0.500000 0.724632 0.500000
Si Si4 0.753830 0.000000 0.076240
Si Si5 0.812046 0.573824 0.393287
Si Si6 0.755055 0.335580 0.035013
Si Si7 0.000000 0.000000 0.500000
O O1 0.559654 0.079858 0.744856
O O2 0.149146 0.119133 0.723970
O O3 0.228373 0.044109 0.847852
O O4 0.283887 0.121020 0.946901
O O5 0.500589 0.306166 0.623471
O O6 0.284047 0.378565 0.583624
O O7 0.272452 0.343428 0.814123
O O8 0.750000 0.750000 0.500000
O O9 0.500000 0.000000 0.000000
O O10 0.000000 0.000000 0.000000
O O11 0.613553 0.537737 0.405722
O O12 0.000000 0.561040 0.500000
O O13 0.500000 0.316246 0.000000
O O14 0.000000 0.311396 0.000000
#
# Coordination Sequence:
#
# PCOD9203842 Si02
#       7
#     8   8   4   4   8   8   2
#     4  11  24  43  72 103 151 207 257 324 373 443
#     4  11  25  47  78 106 147 194 259 307 388 481
#     4  12  31  52  82 119 156 193 244 320 403 478
#     4  12  27  43  66 110 164 204 266 319 375 432
#     4  12  25  43  68  97 144 197 269 311 384 440
#     4  10  20  39  70 107 138 191 249 301 361 437
#     4  12  26  42  54  96 144 200 250 326 366 428
#
# _framework density 22.904506000000001
#
# number of rings (size 3 to 8) (size 9 to 14) (size 15 to 20)
#    0.000    0.762    1.905    6.000    6.667    2.286 
#    0.000    0.000    0.000   14.857    0.000    0.000 
#    0.000    0.000    0.000    0.000    0.000    0.000 
#
# Total GULP energy -116915.158561 kJ/mol
# GULP energy per Si atom -5567.388503 kJ/mol
# Density = 2.285237 g / cm^3
# Si number density = 22.904506 Si / 1000 Ang^3
#
#
#
# Elastic Constant Matrix: (Units=GPa)
#
#
# Indices 1 2 3 4 5 6 
#
# 1 141.1896 54.0894 46.7672 0.0000 -27.0022 0.0000
# 2 54.0894 122.5348 51.5855 0.0000 -11.4671 0.0000
# 3 46.7672 51.5855 133.8510 0.0000 -29.8259 0.0000
# 4 0.0000 0.0000 0.0000 32.0617 0.0000 -2.0928
# 5 -27.0022 -11.4671 -29.8259 0.0000 59.0525 0.0000
# 6 0.0000 0.0000 0.0000 -2.0928 0.0000 22.6602
#
#
#
# Elastic Compliance Matrix: (Units=1/GPa)
#
#
# Indices 1 2 3 4 5 6 
#
# 1 0.009352 -0.003287 -0.001341 0.000000 0.002961 0.000000
# 2 -0.003287 0.010896 -0.003284 0.000000 -0.001046 0.000000
# 3 -0.001341 -0.003284 0.010059 0.000000 0.003829 0.000000
# 4 0.000000 0.000000 0.000000 0.031379 0.000000 0.002898
# 5 0.002961 -0.001046 0.003829 0.000000 0.020019 0.000000
# 6 0.000000 0.000000 0.000000 0.002898 0.000000 0.044398
#
#
# Mechanical properties :
#
#
# Convention : Reuss Voigt Hill
#
# Bulk Modulus (GPa) = 69.04464 78.05104 73.54784
# Shear Modulus (GPa) = 34.07044 39.09711 36.58378
#
# Velocity S-wave (km/s) = 3.86100 4.13602 4.00087
# Velocity P-wave (km/s) = 7.07717 7.54716 7.31594
#
# Compressibility (1/GPa) = 0.01448338
#
# Stress axis : x y z
#
# Youngs Moduli (GPa) = 106.92603 91.77340 99.41749
#
# Poissons Ratio (x) = 0.30162 0.13335
# Poissons Ratio (y) = 0.35142 0.32650
# Poissons Ratio (z) = 0.14342 0.30139
#
# Static dielectric constant tensor:
#      x y z
#    x 2.015650 0.000000 0.013560 
#    y 0.000000 1.625540 0.000000 
#    z 0.013560 0.000000 1.891760 
# 
# From -- ./inp_files/116112.got.cif
#   From: 2010.05.17/outbox.cif.g08.bks.cpg/sg12_59_cif.got.tgz:116112.got - 2010.06.03 13:09:07.
