data_PCOD9203025
_publ_section_title
;
Structure prediction by ZEFSAII (Michael W. Deem and Ramdas Pophale) SiO2 
 PCOD9203025
Probable space group: C 2/M
;
_chemical_formula_sum "Si O2"
_cell_formula_units_Z 56
_cell_length_a 18.628469
_cell_length_b 23.580040
_cell_length_c 18.420633
_cell_angle_alpha 90.000000
_cell_angle_beta 160.430143
_cell_angle_gamma 90.000000
_cell_volume 2710.278366
_symmetry_space_group_name_H-M "C 2/M"
_symmetry_group_IT_number 12
_symmetry_cell_setting 'monoclinic'
loop_
_space_group_symop_operation_xyz
x,y,z
-x,y,-z
-x,-y,-z
x,-y,z
1/2+x,1/2+y,z
1/2-x,1/2+y,-z
1/2-x,1/2-y,-z
1/2+x,1/2-y,z
loop_
_atom_site_type_symbol
_atom_site_label
_atom_site_fract_x
_atom_site_fract_y
_atom_site_fract_z
Si Si1 0.833028 0.286828 0.908213
Si Si2 0.175374 0.131126 0.364464
Si Si3 0.492077 0.609754 0.411357
Si Si4 0.201202 0.064446 0.912952
Si Si5 0.087328 0.648998 0.270618
Si Si6 0.537374 0.933656 0.622450
Si Si7 0.376773 0.337184 0.957980
O O1 0.644093 0.331750 0.716937
O O2 0.751733 0.222288 0.835391
O O3 0.000000 0.290190 0.000000
O O4 0.957975 0.304948 0.100635
O O5 0.301547 0.164992 0.547402
O O6 0.332641 0.089336 0.470789
O O7 0.992741 0.094401 0.229938
O O8 0.051813 0.168345 0.187879
O O9 0.500000 0.586859 0.500000
O O10 0.368388 0.569581 0.237517
O O11 0.726245 0.623830 0.603079
O O12 0.228780 0.000000 0.961755
O O13 0.417131 0.100058 0.127810
O O14 0.500000 0.927295 0.500000
O O15 0.578477 0.000000 0.675978
O O16 0.729566 0.891955 0.828092
O O17 0.500000 0.344688 0.000000
#
# Coordination Sequence:
#
# PCOD9203025 Si02
#       7
#     8   8   8   8   8   8   8
#     4  10  21  39  66  93 126 165 205 255 305 369
#     4  11  23  42  64  91 129 162 206 257 309 374
#     4  10  20  38  65  95 126 164 208 253 309 365
#     4  10  23  41  63  91 126 168 210 255 306 367
#     4  10  22  40  63  93 126 168 205 251 314 366
#     4  11  24  42  65  93 127 164 205 258 316 369
#     4  11  24  41  63  97 125 157 212 258 307 370
#
# _framework density 20.662084
#
# number of rings (size 3 to 8) (size 9 to 14) (size 15 to 20)
#    0.000    1.571    2.857    1.286    0.000    8.000 
#    0.000   10.714    0.000    0.000    0.000    0.000 
#    0.000    0.000    0.000    0.000    0.000    0.000 
#
# Total GULP energy -156490.712615 kJ/mol
# GULP energy per Si atom -5588.954022 kJ/mol
# Density = 2.061506 g / cm^3
# Si number density = 20.662084 Si / 1000 Ang^3
#
#
#
# Elastic Constant Matrix: (Units=GPa)
#
#
# Indices 1 2 3 4 5 6 
#
# 1 111.3164 1.1237 32.7640 0.0002 -9.5615 0.0008
# 2 1.1237 70.9086 8.8321 0.0003 11.1773 0.0015
# 3 32.7640 8.8321 80.0442 0.0011 -1.2541 0.0019
# 4 0.0002 0.0003 0.0011 11.3226 0.0001 -10.2650
# 5 -9.5615 11.1773 -1.2541 0.0001 45.9307 0.0001
# 6 0.0008 0.0015 0.0019 -10.2650 0.0001 -71.7654
#
#
#
# Elastic Compliance Matrix: (Units=1/GPa)
#
#
# Indices 1 2 3 4 5 6 
#
# 1 0.010404 0.000041 -0.004231 0.000000 0.002040 0.000000
# 2 0.000041 0.014893 -0.001717 0.000000 -0.003663 0.000000
# 3 -0.004231 -0.001717 0.014413 -0.000001 -0.000069 0.000000
# 4 0.000000 0.000000 -0.000001 0.078181 0.000000 -0.011183
# 5 0.002040 -0.003663 -0.000069 0.000000 0.023086 0.000000
# 6 0.000000 0.000000 0.000000 -0.011183 0.000000 -0.012335
#
#
# Mechanical properties :
#
#
# Convention : Reuss Voigt Hill
#
# Bulk Modulus (GPa) = 35.84910 38.63433 37.24171
# Shear Modulus (GPa) = 33.38763 11.73420 22.56091
#
# Velocity S-wave (km/s) = 4.02417 2.38567 3.30797
# Velocity P-wave (km/s) = 6.24338 5.13102 5.71433
#
# Compressibility (1/GPa) = 0.02789470
#
# Stress axis : x y z
#
# Youngs Moduli (GPa) = 96.12105 67.14438 69.38027
#
# Poissons Ratio (x) = -0.00272 0.29354
# Poissons Ratio (y) = -0.00389 0.11915
# Poissons Ratio (z) = 0.40668 0.11531
#
# Static dielectric constant tensor:
#      x y z
#    x 1.746460 0.000000 -0.036050 
#    y 0.000000 1.680850 0.000000 
#    z -0.036050 0.000000 1.728860 
# 
# From -- ./inp_files/279569.got.cif
#   From: 2010.05.17/outbox.cif.g08.bks.cpg/sg12_140_cif.got.tgz:279569.got - 2010.06.03 13:09:07.
