data_PCOD9203671
_publ_section_title
;
Structure prediction by ZEFSAII (Michael W. Deem and Ramdas Pophale) SiO2 
 PCOD9203671
Probable space group: C 2/M
;
_chemical_formula_sum "Si O2"
_cell_formula_units_Z 64
_cell_length_a 9.528706
_cell_length_b 18.403003
_cell_length_c 30.071684
_cell_angle_alpha 90.000000
_cell_angle_beta 147.349019
_cell_angle_gamma 90.000000
_cell_volume 2845.037939
_symmetry_space_group_name_H-M "C 2/M"
_symmetry_group_IT_number 12
_symmetry_cell_setting 'monoclinic'
loop_
_space_group_symop_operation_xyz
x,y,z
-x,y,-z
-x,-y,-z
x,-y,z
1/2+x,1/2+y,z
1/2-x,1/2+y,-z
1/2-x,1/2-y,-z
1/2+x,1/2-y,z
loop_
_atom_site_type_symbol
_atom_site_label
_atom_site_fract_x
_atom_site_fract_y
_atom_site_fract_z
Si Si1 0.246551 0.293200 0.412285
Si Si2 0.098768 0.586534 0.898577
Si Si3 0.050807 0.916028 0.180296
Si Si4 0.555578 0.916179 0.633742
Si Si5 0.464305 0.414078 0.295573
Si Si6 0.944037 0.678906 0.933018
Si Si7 0.286855 0.333023 0.864092
Si Si8 0.701955 0.687795 0.678327
O O1 0.500000 0.254768 0.500000
O O2 0.293444 0.308384 0.373235
O O3 0.192842 0.365827 0.426597
O O4 0.983929 0.248091 0.349731
O O5 0.136726 0.500000 0.911243
O O6 0.798882 0.601495 0.802570
O O7 0.128581 0.625977 0.953756
O O8 0.267528 0.623130 0.904951
O O9 0.294427 0.915200 0.278761
O O10 0.127509 0.885707 0.152720
O O11 0.833452 0.862124 0.141134
O O12 0.956448 0.000000 0.153417
O O13 0.771766 0.885613 0.656843
O O14 0.494872 0.000000 0.606828
O O15 0.490460 0.500000 0.301707
O O16 0.413686 0.385588 0.331325
O O17 0.942134 0.757983 0.910278
O O18 0.000000 0.686314 0.000000
O O19 0.995086 0.306761 0.773926
#
# Coordination Sequence:
#
# PCOD9203671 Si02
#       8
#     8   8   8   8   8   8   8   8
#     4  12  25  41  61  92 133 171 210 260 323 389
#     4  10  21  39  63  91 123 163 213 266 320 378
#     4  11  22  41  68  96 124 165 219 267 317 381
#     4  10  20  39  65  92 124 162 210 265 318 378
#     4   9  19  38  65  94 121 157 211 268 316 372
#     4  12  26  42  62  93 133 173 211 261 326 392
#     4  11  24  40  66  94 130 165 215 272 324 379
#     4  11  24  39  65  93 124 169 216 266 316 381
#
# _framework density 22.495307
#
# number of rings (size 3 to 8) (size 9 to 14) (size 15 to 20)
#    0.000    1.250    2.500    3.375    3.500    4.250 
#    0.000    0.000    0.000    4.125    0.000    0.000 
#    0.000    0.000    0.000    0.000    0.000    0.000 
#
# Total GULP energy -179070.180823 kJ/mol
# GULP energy per Si atom -5595.943151 kJ/mol
# Density = 2.244411 g / cm^3
# Si number density = 22.495307 Si / 1000 Ang^3
#
#
#
# Elastic Constant Matrix: (Units=GPa)
#
#
# Indices 1 2 3 4 5 6 
#
# 1 133.7728 13.1378 17.9302 0.0004 -7.2574 0.0000
# 2 13.1378 56.9821 1.1473 -0.0003 0.1567 -0.0003
# 3 17.9302 1.1473 44.5491 -0.0046 -5.2914 -0.0003
# 4 0.0004 -0.0003 -0.0046 -12.7935 -0.0026 -4.3886
# 5 -7.2574 0.1567 -5.2914 -0.0026 16.7432 -0.0004
# 6 0.0000 -0.0003 -0.0003 -4.3886 -0.0004 30.4277
#
#
#
# Elastic Compliance Matrix: (Units=1/GPa)
#
#
# Indices 1 2 3 4 5 6 
#
# 1 0.008193 -0.001837 -0.002936 0.000001 0.002640 0.000000
# 2 -0.001837 0.017972 0.000168 0.000000 -0.000911 0.000000
# 3 -0.002936 0.000168 0.024389 -0.000010 0.006433 -0.000001
# 4 0.000001 0.000000 -0.000010 -0.074480 -0.000014 -0.010742
# 5 0.002640 -0.000911 0.006433 -0.000014 0.062912 -0.000001
# 6 0.000000 0.000000 -0.000001 -0.010742 -0.000001 0.031315
#
#
# Mechanical properties :
#
#
# Convention : Reuss Voigt Hill
#
# Bulk Modulus (GPa) = 24.18786 33.30385 28.74585
# Shear Modulus (GPa) = 53.59482 20.41471 37.00477
#
# Velocity S-wave (km/s) = 4.88637 3.01576 4.06026
# Velocity P-wave (km/s) = 6.52773 5.19262 5.89807
#
# Compressibility (1/GPa) = 0.04134306
#
# Stress axis : x y z
#
# Youngs Moduli (GPa) = 122.06131 55.64197 41.00247
#
# Poissons Ratio (x) = 0.10222 0.12040
# Poissons Ratio (y) = 0.22423 -0.00690
# Poissons Ratio (z) = 0.35843 -0.00936
#
# Static dielectric constant tensor:
#      x y z
#    x 1.817490 0.000000 0.032560 
#    y 0.000000 1.823110 0.000000 
#    z 0.032560 0.000000 1.869670 
# 
# From -- ./inp_files/373017.got.cif
#   From: 2010.05.17/outbox.cif.g08.bks.cpg/sg12_187_cif.got.tgz:373017.got - 2010.06.03 13:09:07.
