data_PCOD9203761
_publ_section_title
;
Structure prediction by ZEFSAII (Michael W. Deem and Ramdas Pophale) SiO2 
 PCOD9203761
Probable space group: C 2/M
;
_chemical_formula_sum "Si O2"
_cell_formula_units_Z 40
_cell_length_a 13.826207
_cell_length_b 17.230980
_cell_length_c 19.878262
_cell_angle_alpha 90.000000
_cell_angle_beta 23.599957
_cell_angle_gamma 90.000000
_cell_volume 1895.961354
_symmetry_space_group_name_H-M "C 2/M"
_symmetry_group_IT_number 12
_symmetry_cell_setting 'monoclinic'
loop_
_space_group_symop_operation_xyz
x,y,z
-x,y,-z
-x,-y,-z
x,-y,z
1/2+x,1/2+y,z
1/2-x,1/2+y,-z
1/2-x,1/2-y,-z
1/2+x,1/2-y,z
loop_
_atom_site_type_symbol
_atom_site_label
_atom_site_fract_x
_atom_site_fract_y
_atom_site_fract_z
Si Si1 0.535076 0.088574 0.397374
Si Si2 0.513153 0.301234 0.914441
Si Si3 0.487982 0.593738 0.714812
Si Si4 0.355676 0.146942 0.946770
Si Si5 0.852095 0.088254 0.655173
O O1 0.500000 0.087210 0.500000
O O2 0.273171 0.110165 0.534999
O O3 0.747478 0.148007 0.246273
O O4 0.595308 0.000000 0.337614
O O5 0.489771 0.227698 0.879821
O O6 0.500000 0.276483 0.000000
O O7 0.281178 0.350659 0.036907
O O8 0.457511 0.500000 0.740918
O O9 0.384227 0.621626 0.709359
O O10 0.343762 0.631021 0.868644
O O11 0.572583 0.087059 0.813949
O O12 0.000000 0.126619 0.500000
O O13 0.946729 0.000000 0.601361
#
# Coordination Sequence:
#
# PCOD9203761 Si02
#       5
#     8   8   8   8   8
#     4  10  21  40  64  91 120 155 201 246 297 358
#     4  11  25  41  60  90 122 157 200 247 300 355
#     4  10  20  39  67  90 117 160 204 248 295 354
#     4  11  23  42  61  87 122 161 202 241 297 363
#     4  10  22  38  60  92 123 155 200 250 299 349
#
# _framework density 21.097476
#
# number of rings (size 3 to 8) (size 9 to 14) (size 15 to 20)
#    0.000    1.600    2.000    2.400    2.800    3.600 
#    0.000    2.000    0.000    0.000    0.000    0.000 
#    0.000    0.000    0.000    0.000    0.000    0.000 
#
# Total GULP energy -111651.532556 kJ/mol
# GULP energy per Si atom -5582.576628 kJ/mol
# Density = 2.104946 g / cm^3
# Si number density = 21.097476 Si / 1000 Ang^3
#
#
#
# Elastic Constant Matrix: (Units=GPa)
#
#
# Indices 1 2 3 4 5 6 
#
# 1 108.3661 -3.3476 20.8019 0.2103 -12.4156 -0.0863
# 2 -3.3476 53.7140 38.2789 0.4347 -9.8261 -0.3261
# 3 20.8019 38.2789 85.8220 -1.1028 -20.5606 0.7122
# 4 0.2103 0.4347 -1.1028 -27.4592 0.4273 30.7736
# 5 -12.4156 -9.8261 -20.5606 0.4273 32.0717 -0.3299
# 6 -0.0863 -0.3261 0.7122 30.7736 -0.3299 1.9162
#
#
#
# Elastic Compliance Matrix: (Units=1/GPa)
#
#
# Indices 1 2 3 4 5 6 
#
# 1 0.010327 0.003604 -0.003409 0.000185 0.002913 -0.000119
# 2 0.003604 0.028541 -0.013192 0.000657 0.001670 -0.000338
# 3 -0.003409 -0.013192 0.020168 -0.000556 0.007579 0.000331
# 4 0.000185 0.000657 -0.000556 -0.001893 0.000258 0.030772
# 5 0.002913 0.001670 0.007579 0.000258 0.037674 -0.000065
# 6 -0.000119 -0.000338 0.000331 0.030772 -0.000065 0.027476
#
#
# Mechanical properties :
#
#
# Convention : Reuss Voigt Hill
#
# Bulk Modulus (GPa) = 30.26558 39.92982 35.09770
# Shear Modulus (GPa) = 31.38670 14.11699 22.75185
#
# Velocity S-wave (km/s) = 3.86125 2.58956 3.28749
# Velocity P-wave (km/s) = 5.85284 5.28286 5.57514
#
# Compressibility (1/GPa) = 0.03304083
#
# Stress axis : x y z
#
# Youngs Moduli (GPa) = 96.83341 35.03689 49.58271
#
# Poissons Ratio (x) = -0.12627 0.16905
# Poissons Ratio (y) = -0.34898 0.65412
# Poissons Ratio (z) = 0.33014 0.46222
#
# Static dielectric constant tensor:
#      x y z
#    x 1.774130 0.000080 -0.010320 
#    y 0.000080 1.845990 -0.000110 
#    z -0.010320 -0.000110 1.741890 
# 
# From -- ./inp_files/50976.got.cif
#   From: 2010.05.17/outbox.cif.g08.bks.cpg/sg12_26_cif.got.tgz:50976.got - 2010.06.03 13:09:07.
