data_PCOD9203832
_publ_section_title
;
Structure prediction by ZEFSAII (Michael W. Deem and Ramdas Pophale) SiO2 
 PCOD9203832
Probable space group: C 2/M
;
_chemical_formula_sum "Si O2"
_cell_formula_units_Z 40
_cell_length_a 17.253606
_cell_length_b 14.681904
_cell_length_c 16.867082
_cell_angle_alpha 90.000000
_cell_angle_beta 154.445678
_cell_angle_gamma 90.000000
_cell_volume 1843.099455
_symmetry_space_group_name_H-M "C 2/M"
_symmetry_group_IT_number 12
_symmetry_cell_setting 'monoclinic'
loop_
_space_group_symop_operation_xyz
x,y,z
-x,y,-z
-x,-y,-z
x,-y,z
1/2+x,1/2+y,z
1/2-x,1/2+y,-z
1/2-x,1/2-y,-z
1/2+x,1/2-y,z
loop_
_atom_site_type_symbol
_atom_site_label
_atom_site_fract_x
_atom_site_fract_y
_atom_site_fract_z
Si Si1 0.544473 0.894841 0.425850
Si Si2 0.314271 0.161910 0.606744
Si Si3 0.201739 0.888266 0.201807
Si Si4 0.964759 0.892176 0.379319
Si Si5 0.573271 0.891124 0.978156
O O1 0.589069 0.891159 0.375230
O O2 0.349832 0.858704 0.273060
O O3 0.706268 0.857479 0.630346
O O4 0.536205 0.000000 0.441163
O O5 0.250000 0.250000 0.500000
O O6 0.455218 0.166030 0.808205
O O7 0.135600 0.120831 0.481292
O O8 0.188250 0.000000 0.189275
O O9 0.000000 0.854362 0.000000
O O10 0.000000 0.853462 0.500000
O O11 0.934384 0.000000 0.362256
O O12 0.779633 0.860026 0.169970
O O13 0.558511 0.000000 0.943244
O O14 0.500000 0.883790 0.000000
#
# Coordination Sequence:
#
# PCOD9203832 Si02
#       5
#     8   8   8   8   8
#     4   9  18  34  55  81 114 154 205 255 295 356
#     4  12  25  39  56  92 137 168 200 259 334 400
#     4   8  15  31  56  82 108 143 190 240 292 351
#     4  10  20  39  69  96 120 162 222 276 316 369
#     4  10  20  39  69  96 120 162 222 276 316 368
#
# _framework density 21.702572
#
# number of rings (size 3 to 8) (size 9 to 14) (size 15 to 20)
#    0.000    2.200    2.000    3.000    0.000    2.400 
#    3.600    5.000    0.000    0.000    0.000    0.000 
#    0.000    0.000    0.000    0.000    0.000    0.000 
#
# Total GULP energy -111615.423149 kJ/mol
# GULP energy per Si atom -5580.771157 kJ/mol
# Density = 2.165318 g / cm^3
# Si number density = 21.702572 Si / 1000 Ang^3
#
#
#
# Elastic Constant Matrix: (Units=GPa)
#
#
# Indices 1 2 3 4 5 6 
#
# 1 142.3246 -5.8230 83.7987 -0.0032 0.5467 -0.0020
# 2 -5.8230 49.0918 22.8115 -0.0053 -14.4385 -0.0049
# 3 83.7987 22.8115 229.7068 -0.0058 13.4793 -0.0031
# 4 -0.0032 -0.0053 -0.0058 13.6214 -0.0032 -19.7751
# 5 0.5467 -14.4385 13.4793 -0.0032 36.0424 -0.0020
# 6 -0.0020 -0.0049 -0.0031 -19.7751 -0.0020 -61.9944
#
#
#
# Elastic Compliance Matrix: (Units=1/GPa)
#
#
# Indices 1 2 3 4 5 6 
#
# 1 0.009552 0.003867 -0.004040 0.000001 0.002915 -0.000001
# 2 0.003867 0.026713 -0.004793 0.000006 0.012435 -0.000004
# 3 -0.004040 -0.004793 0.006556 0.000000 -0.004311 0.000000
# 4 0.000001 0.000006 0.000000 0.050178 0.000006 -0.016006
# 5 0.002915 0.012435 -0.004311 0.000006 0.034295 -0.000004
# 6 -0.000001 -0.000004 0.000000 -0.016006 -0.000004 -0.011025
#
#
# Mechanical properties :
#
#
# Convention : Reuss Voigt Hill
#
# Bulk Modulus (GPa) = 30.40437 69.18861 49.79649
# Shear Modulus (GPa) = 36.45299 18.88961 27.67130
#
# Velocity S-wave (km/s) = 4.10281 2.95343 3.57462
# Velocity P-wave (km/s) = 6.04021 6.60151 6.32709
#
# Compressibility (1/GPa) = 0.03289001
#
# Stress axis : x y z
#
# Youngs Moduli (GPa) = 104.69314 37.43430 152.53074
#
# Poissons Ratio (x) = -0.14478 0.61617
# Poissons Ratio (y) = -0.40490 0.73114
# Poissons Ratio (z) = 0.42293 0.17944
#
# Static dielectric constant tensor:
#      x y z
#    x 1.631860 -0.000100 0.008740 
#    y -0.000100 2.095880 -0.000030 
#    z 0.008740 -0.000030 1.788530 
# 
# From -- ./inp_files/216946.got.cif
#   From: 2010.05.17/outbox.cif.g08.bks.cpg/sg12_109_cif.got.tgz:216946.got - 2010.06.03 13:09:07.
