data_PCOD9203848
_publ_section_title
;
Structure prediction by ZEFSAII (Michael W. Deem and Ramdas Pophale) SiO2 
 PCOD9203848
Probable space group: C 2/M
;
_chemical_formula_sum "Si O2"
_cell_formula_units_Z 36
_cell_length_a 9.648488
_cell_length_b 23.218239
_cell_length_c 7.614019
_cell_angle_alpha 90.000000
_cell_angle_beta 117.198929
_cell_angle_gamma 90.000000
_cell_volume 1517.091541
_symmetry_space_group_name_H-M "C 2/M"
_symmetry_group_IT_number 12
_symmetry_cell_setting 'monoclinic'
loop_
_space_group_symop_operation_xyz
x,y,z
-x,y,-z
-x,-y,-z
x,-y,z
1/2+x,1/2+y,z
1/2-x,1/2+y,-z
1/2-x,1/2-y,-z
1/2+x,1/2-y,z
loop_
_atom_site_type_symbol
_atom_site_label
_atom_site_fract_x
_atom_site_fract_y
_atom_site_fract_z
Si Si1 0.814662 0.500000 0.374269
Si Si2 0.221555 0.875817 0.916122
Si Si3 0.180818 0.500000 0.044836
Si Si4 0.187332 0.373600 0.619739
Si Si5 0.500000 0.206739 0.000000
Si Si6 0.948185 0.796452 0.663098
O O1 0.793575 0.500000 0.151469
O O2 0.763306 0.437886 0.417879
O O3 0.000000 0.500000 0.500000
O O4 0.245554 0.939752 0.856678
O O5 0.259720 0.872798 0.145941
O O6 0.349501 0.833480 0.908818
O O7 0.052979 0.851306 0.779043
O O8 0.000000 0.500000 0.000000
O O9 0.273268 0.320612 0.576088
O O10 0.000000 0.369505 0.500000
O O11 0.507955 0.247588 0.173246
O O12 0.000000 0.779233 0.500000
#
# Coordination Sequence:
#
# PCOD9203848 Si02
#       6
#     4   8   4   8   4   8
#     4   8  18  35  66  99 139 186 228 288 350 421
#     4  11  24  46  73 104 145 188 234 300 353 425
#     4  10  20  39  72 107 138 183 233 289 363 420
#     4  10  22  44  71 104 144 190 239 291 362 425
#     4  12  26  49  72 101 150 188 240 290 358 420
#     4  12  28  46  71 110 142 191 243 291 352 417
#
# _framework density 23.729616
#
# number of rings (size 3 to 8) (size 9 to 14) (size 15 to 20)
#    0.000    1.333    3.333    0.667    3.111    4.444 
#    0.000    4.444    0.000    0.000    0.000    0.000 
#    0.000    0.000    0.000    0.000    0.000    0.000 
#
# Total GULP energy -100818.993466 kJ/mol
# GULP energy per Si atom -5601.055193 kJ/mol
# Density = 2.367561 g / cm^3
# Si number density = 23.729616 Si / 1000 Ang^3
#
#
#
# Elastic Constant Matrix: (Units=GPa)
#
#
# Indices 1 2 3 4 5 6 
#
# 1 89.8579 54.0134 28.3140 0.0000 2.1319 0.0000
# 2 54.0134 179.7704 35.5810 0.0000 -7.3551 0.0000
# 3 28.3140 35.5810 113.0337 0.0000 -15.5033 0.0000
# 4 0.0000 0.0000 0.0000 187.4658 0.0000 27.6508
# 5 2.1319 -7.3551 -15.5033 0.0000 38.6012 0.0000
# 6 0.0000 0.0000 0.0000 27.6508 0.0000 47.0752
#
#
#
# Elastic Compliance Matrix: (Units=1/GPa)
#
#
# Indices 1 2 3 4 5 6 
#
# 1 0.014394 -0.003890 -0.002743 0.000000 -0.002638 0.000000
# 2 -0.003890 0.006989 -0.001073 0.000000 0.001116 0.000000
# 3 -0.002743 -0.001073 0.010439 0.000000 0.004140 0.000000
# 4 0.000000 0.000000 0.000000 0.005840 0.000000 -0.003430
# 5 -0.002638 0.001116 0.004140 0.000000 0.027927 0.000000
# 6 0.000000 0.000000 0.000000 -0.003430 0.000000 0.023258
#
#
# Mechanical properties :
#
#
# Convention : Reuss Voigt Hill
#
# Bulk Modulus (GPa) = 60.93177 68.71987 64.82582
# Shear Modulus (GPa) = 45.56705 72.27868 58.92286
#
# Velocity S-wave (km/s) = 4.38683 5.52498 4.98847
# Velocity P-wave (km/s) = 7.16884 8.35003 7.78188
#
# Compressibility (1/GPa) = 0.01641180
#
# Stress axis : x y z
#
# Youngs Moduli (GPa) = 69.47511 143.07545 95.79024
#
# Poissons Ratio (x) = 0.55652 0.26274
# Poissons Ratio (y) = 0.27024 0.10276
# Poissons Ratio (z) = 0.19056 0.15348
#
# Static dielectric constant tensor:
#      x y z
#    x 1.920950 0.000000 -0.024330 
#    y 0.000000 1.925200 0.000000 
#    z -0.024330 0.000000 1.917920 
# 
# From -- ./inp_files/39549.got.cif
#   From: 2010.05.17/outbox.cif.g08.bks.cpg/sg12_20_cif.got.tgz:39549.got - 2010.06.03 13:09:07.
