data_PCOD9203831
_publ_section_title
;
Structure prediction by ZEFSAII (Michael W. Deem and Ramdas Pophale) SiO2 
 PCOD9203831
Probable space group: C 2/M
;
_chemical_formula_sum "Si O2"
_cell_formula_units_Z 48
_cell_length_a 14.208498
_cell_length_b 14.537204
_cell_length_c 12.181456
_cell_angle_alpha 90.000000
_cell_angle_beta 114.787016
_cell_angle_gamma 90.000000
_cell_volume 2284.299905
_symmetry_space_group_name_H-M "C 2/M"
_symmetry_group_IT_number 12
_symmetry_cell_setting 'monoclinic'
loop_
_space_group_symop_operation_xyz
x,y,z
-x,y,-z
-x,-y,-z
x,-y,z
1/2+x,1/2+y,z
1/2-x,1/2+y,-z
1/2-x,1/2-y,-z
1/2+x,1/2-y,z
loop_
_atom_site_type_symbol
_atom_site_label
_atom_site_fract_x
_atom_site_fract_y
_atom_site_fract_z
Si Si1 0.157388 0.888982 0.580021
Si Si2 0.033038 0.103546 0.894080
Si Si3 0.853398 0.607464 0.804375
Si Si4 0.009458 0.799677 0.344880
Si Si5 0.728433 0.856545 0.997315
Si Si6 0.952172 0.395696 0.250104
O O1 0.268869 0.854679 0.677120
O O2 0.078015 0.863081 0.639417
O O3 0.114010 0.831085 0.456363
O O4 0.154657 0.000000 0.557741
O O5 0.990570 0.172309 0.782022
O O6 0.992303 0.000000 0.855354
O O7 0.157554 0.100115 0.944348
O O8 0.000000 0.132185 0.000000
O O9 0.828687 0.500000 0.792303
O O10 0.966838 0.616758 0.810694
O O11 0.833727 0.633952 0.919468
O O12 0.976974 0.692434 0.338506
O O13 0.660280 0.888525 0.860962
O O14 0.750000 0.750000 0.000000
O O15 0.966929 0.500000 0.301833
#
# Coordination Sequence:
#
# PCOD9203831 Si02
#       6
#     8   8   8   8   8   8
#     4  10  20  39  69  96 118 156 209 259 307 354
#     4  11  23  38  59  91 126 157 194 249 315 371
#     4  10  21  38  62  90 120 159 207 255 302 357
#     4  11  21  38  62  91 123 157 206 251 307 357
#     4  12  22  37  61  89 123 164 202 251 307 361
#     4  11  24  39  59  87 125 166 206 249 300 366
#
# _framework density 21.013003000000001
#
# number of rings (size 3 to 8) (size 9 to 14) (size 15 to 20)
#    0.000    1.167    3.333    4.000    2.333    2.000 
#    0.000    1.667    0.000    0.000    0.000    0.000 
#    0.000    0.000    0.000    0.000    0.000    0.000 
#
# Total GULP energy -133973.490109 kJ/mol
# GULP energy per Si atom -5582.228755 kJ/mol
# Density = 2.096518 g / cm^3
# Si number density = 21.013003 Si / 1000 Ang^3
#
#
#
# Elastic Constant Matrix: (Units=GPa)
#
#
# Indices 1 2 3 4 5 6 
#
# 1 22.4318 -4.6712 2.3111 0.0000 6.0020 0.0000
# 2 -4.6712 115.0242 51.4452 0.0000 -4.8449 0.0000
# 3 2.3111 51.4452 88.3997 0.0000 11.3630 0.0000
# 4 0.0000 0.0000 0.0000 47.8276 0.0000 29.2056
# 5 6.0020 -4.8449 11.3630 0.0000 20.7455 0.0000
# 6 0.0000 0.0000 0.0000 29.2056 0.0000 52.6099
#
#
#
# Elastic Compliance Matrix: (Units=1/GPa)
#
#
# Indices 1 2 3 4 5 6 
#
# 1 0.048554 0.001629 -0.000496 0.000000 -0.013396 0.000000
# 2 0.001629 0.012830 -0.008427 0.000000 0.007140 0.000000
# 3 -0.000496 -0.008427 0.017711 0.000000 -0.011525 0.000000
# 4 0.000000 0.000000 0.000000 0.031631 0.000000 -0.017560
# 5 -0.013396 0.007140 -0.011525 0.000000 0.060059 0.000000
# 6 0.000000 0.000000 0.000000 -0.017560 0.000000 0.028756
#
#
# Mechanical properties :
#
#
# Convention : Reuss Voigt Hill
#
# Bulk Modulus (GPa) = 15.50191 36.00290 25.75240
# Shear Modulus (GPa) = 21.21974 36.02131 28.62052
#
# Velocity S-wave (km/s) = 3.18124 4.14483 3.69458
# Velocity P-wave (km/s) = 4.57023 6.33064 5.52105
#
# Compressibility (1/GPa) = 0.06450820
#
# Stress axis : x y z
#
# Youngs Moduli (GPa) = 20.59554 77.94423 56.46284
#
# Poissons Ratio (x) = -0.12699 0.02799
# Poissons Ratio (y) = -0.03356 0.47580
# Poissons Ratio (z) = 0.01021 0.65682
#
# Static dielectric constant tensor:
#      x y z
#    x 1.755980 0.000000 0.057740 
#    y 0.000000 1.608050 0.000000 
#    z 0.057740 0.000000 1.643510 
# 
# From -- ./inp_files/143171.got.cif
#   From: 2010.05.17/outbox.cif.g08.bks.cpg/sg12_72_cif.got.tgz:143171.got - 2010.06.03 13:09:07.
