data_PCOD9203477
_publ_section_title
;
Structure prediction by ZEFSAII (Michael W. Deem and Ramdas Pophale) SiO2 
 PCOD9203477
Probable space group: C 2/M
;
_chemical_formula_sum "Si O2"
_cell_formula_units_Z 58
_cell_length_a 10.696993
_cell_length_b 18.141930
_cell_length_c 15.460781
_cell_angle_alpha 90.000000
_cell_angle_beta 82.581874
_cell_angle_gamma 90.000000
_cell_volume 2975.270422
_symmetry_space_group_name_H-M "C 2/M"
_symmetry_group_IT_number 12
_symmetry_cell_setting 'monoclinic'
loop_
_space_group_symop_operation_xyz
x,y,z
-x,y,-z
-x,-y,-z
x,-y,z
1/2+x,1/2+y,z
1/2-x,1/2+y,-z
1/2-x,1/2-y,-z
1/2+x,1/2-y,z
loop_
_atom_site_type_symbol
_atom_site_label
_atom_site_fract_x
_atom_site_fract_y
_atom_site_fract_z
Si Si1 0.714897 0.700371 0.790733
Si Si2 0.541038 0.279721 0.646418
Si Si3 0.000000 0.000000 0.500000
Si Si4 0.036391 0.914913 0.896463
Si Si5 0.827805 0.417335 0.337134
Si Si6 0.657521 0.648931 0.218913
Si Si7 0.402911 0.130549 0.643994
Si Si8 0.290063 0.624121 0.483875
O O1 0.620703 0.735600 0.727050
O O2 0.636843 0.648991 0.862833
O O3 0.797410 0.769691 0.815630
O O4 0.804443 0.645222 0.729434
O O5 0.441698 0.339587 0.692715
O O6 0.461406 0.211239 0.620151
O O7 0.638682 0.307918 0.566958
O O8 0.897954 0.063524 0.480230
O O9 0.915556 0.895490 0.847873
O O10 0.076926 0.000000 0.874326
O O11 0.000000 0.910642 0.000000
O O12 0.780937 0.500000 0.359224
O O13 0.775558 0.393296 0.249322
O O14 0.769007 0.365572 0.416566
O O15 0.977357 0.414907 0.335059
O O16 0.325402 0.102195 0.568973
#
# Coordination Sequence:
#
# PCOD9203477 Si02
#       8
#     8   8   2   8   8   8   8   8
#     4   9  19  40  65  92 123 161 205 254 307 378
#     4   9  19  40  61  85 113 158 210 262 304 353
#     4  12  24  44  50  72 112 156 204 262 300 356
#     4  10  22  41  67  99 129 158 200 253 308 375
#     4  12  24  38  57  84 123 165 207 263 319 366
#     4  10  20  39  63  89 122 157 206 255 309 371
#     4  10  22  40  59  86 119 159 207 252 310 363
#     4  11  24  40  56  80 118 160 210 260 303 358
#
# _framework density 19.494026000000002
#
# number of rings (size 3 to 8) (size 9 to 14) (size 15 to 20)
#    0.000    1.793    2.069    1.655    0.966    2.207 
#   19.862    0.000    0.000    0.000    0.000    2.897 
#    0.000    0.000    0.000    0.000    0.000    0.000 
#
# Total GULP energy -161621.333330 kJ/mol
# GULP energy per Si atom -5573.149425 kJ/mol
# Density = 1.944966 g / cm^3
# Si number density = 19.494026 Si / 1000 Ang^3
#
#
#
# Elastic Constant Matrix: (Units=GPa)
#
#
# Indices 1 2 3 4 5 6 
#
# 1 96.4262 25.8063 38.4221 0.0000 8.6559 0.0000
# 2 25.8063 54.2227 33.9288 0.0000 1.4217 0.0000
# 3 38.4221 33.9288 72.3083 0.0000 2.7823 0.0000
# 4 0.0000 0.0000 0.0000 1.6748 0.0000 -11.1011
# 5 8.6559 1.4217 2.7823 0.0000 20.6228 0.0000
# 6 0.0000 0.0000 0.0000 -11.1011 0.0000 26.6857
#
#
#
# Elastic Compliance Matrix: (Units=1/GPa)
#
#
# Indices 1 2 3 4 5 6 
#
# 1 0.013901 -0.002808 -0.005882 0.000000 -0.004847 0.000000
# 2 -0.002808 0.026676 -0.011057 0.000000 0.000831 0.000000
# 3 -0.005882 -0.011057 0.022134 0.000000 0.000245 0.000000
# 4 0.000000 0.000000 0.000000 -0.339768 0.000000 -0.141341
# 5 -0.004847 0.000831 0.000245 0.000000 0.050434 0.000000
# 6 0.000000 0.000000 0.000000 -0.141341 0.000000 -0.021323
#
#
# Mechanical properties :
#
#
# Convention : Reuss Voigt Hill
#
# Bulk Modulus (GPa) = 43.07311 46.58576 44.82943
# Shear Modulus (GPa) = -24.91128 18.11666 -3.39731
#
# Velocity S-wave (km/s) = -3.57864 3.05182 -1.32156
# Velocity P-wave (km/s) = 2.25121 6.03055 4.55167
#
# Compressibility (1/GPa) = 0.02321634
#
# Stress axis : x y z
#
# Youngs Moduli (GPa) = 71.93608 37.48735 45.17924
#
# Poissons Ratio (x) = 0.10527 0.26577
# Poissons Ratio (y) = 0.20200 0.49954
# Poissons Ratio (z) = 0.42316 0.41449
#
# Static dielectric constant tensor:
#      x y z
#    x 1.726930 0.000000 0.004360 
#    y 0.000000 1.706130 0.000000 
#    z 0.004360 0.000000 1.659330 
# 
# From -- ./inp_files/206170.got.cif
#   From: 2010.05.17/outbox.cif.g08.bks.cpg/sg12_104_cif.got.tgz:206170.got - 2010.06.03 13:09:07.
