data_PCOD9203212
_publ_section_title
;
Structure prediction by ZEFSAII (Michael W. Deem and Ramdas Pophale) SiO2 
 PCOD9203212
Probable space group: C 2/M
;
_chemical_formula_sum "Si O2"
_cell_formula_units_Z 56
_cell_length_a 14.854803
_cell_length_b 21.768240
_cell_length_c 14.318393
_cell_angle_alpha 90.000000
_cell_angle_beta 149.764891
_cell_angle_gamma 90.000000
_cell_volume 2331.452757
_symmetry_space_group_name_H-M "C 2/M"
_symmetry_group_IT_number 12
_symmetry_cell_setting 'monoclinic'
loop_
_space_group_symop_operation_xyz
x,y,z
-x,y,-z
-x,-y,-z
x,-y,z
1/2+x,1/2+y,z
1/2-x,1/2+y,-z
1/2-x,1/2-y,-z
1/2+x,1/2-y,z
loop_
_atom_site_type_symbol
_atom_site_label
_atom_site_fract_x
_atom_site_fract_y
_atom_site_fract_z
Si Si1 0.105591 0.433985 0.930287
Si Si2 0.683049 0.247698 0.212412
Si Si3 0.730927 0.429122 0.676741
Si Si4 0.197577 0.106374 0.213471
Si Si5 0.141021 0.839491 0.768670
Si Si6 0.726282 0.327083 0.523607
Si Si7 0.451901 0.901077 0.601342
O O1 0.200032 0.500000 0.030800
O O2 0.945675 0.427869 0.860522
O O3 0.006960 0.437222 0.742696
O O4 0.220879 0.372216 0.037298
O O5 0.681331 0.320686 0.216326
O O6 0.824459 0.219733 0.266105
O O7 0.709498 0.217688 0.337213
O O8 0.500000 0.226171 0.000000
O O9 0.679030 0.500000 0.627449
O O10 0.659214 0.392704 0.702500
O O11 0.683707 0.390667 0.541812
O O12 0.363288 0.101500 0.289835
O O13 0.287665 0.077364 0.387747
O O14 0.000000 0.085113 0.000000
O O15 0.977283 0.816220 0.686685
O O16 0.871016 0.338613 0.574404
#
# Coordination Sequence:
#
# PCOD9203212 Si02
#       7
#     8   8   8   8   8   8   8
#     4  10  21  38  61  91 127 164 204 253 305 359
#     4  10  20  39  58  89 126 167 204 244 296 366
#     4   9  17  32  53  82 123 169 202 236 295 360
#     4  10  24  44  69  87 115 159 210 258 320 366
#     4  11  20  31  57  89 132 168 200 237 293 372
#     4  10  22  34  55  90 128 161 203 250 298 360
#     4  10  23  43  65  91 124 155 202 268 307 359
#
# _framework density 24.019358
#
# number of rings (size 3 to 8) (size 9 to 14) (size 15 to 20)
#    0.000    2.000    0.000    5.143    6.000    3.429 
#    0.000    3.571    0.000    0.857    0.000    0.000 
#    0.000    0.000    0.000    0.000    0.000    0.000 
#
# Total GULP energy -155945.040261 kJ/mol
# GULP energy per Si atom -5569.465724 kJ/mol
# Density = 2.396469 g / cm^3
# Si number density = 24.019358 Si / 1000 Ang^3
#
#
#
# Elastic Constant Matrix: (Units=GPa)
#
#
# Indices 1 2 3 4 5 6 
#
# 1 91.9716 2.6928 43.8403 0.0000 1.2307 0.0000
# 2 2.6928 48.3237 24.8038 0.0000 -6.9260 0.0000
# 3 43.8403 24.8038 118.2352 0.0000 -2.5024 0.0000
# 4 0.0000 0.0000 0.0000 18.8391 0.0000 -0.5511
# 5 1.2307 -6.9260 -2.5024 0.0000 36.3638 0.0000
# 6 0.0000 0.0000 0.0000 -0.5511 0.0000 3.3283
#
#
#
# Elastic Compliance Matrix: (Units=1/GPa)
#
#
# Indices 1 2 3 4 5 6 
#
# 1 0.013388 0.001952 -0.005383 0.000000 -0.000452 0.000000
# 2 0.001952 0.024099 -0.005692 0.000000 0.004132 0.000000
# 3 -0.005383 -0.005692 0.011646 0.000000 -0.000101 0.000000
# 4 0.000000 0.000000 0.000000 0.053340 0.000000 0.008831
# 5 -0.000452 0.004132 -0.000101 0.000000 0.028295 0.000000
# 6 0.000000 0.000000 0.000000 0.008831 0.000000 0.301913
#
#
# Mechanical properties :
#
#
# Convention : Reuss Voigt Hill
#
# Bulk Modulus (GPa) = 32.37636 44.57822 38.47729
# Shear Modulus (GPa) = 10.84077 24.18581 17.51329
#
# Velocity S-wave (km/s) = 2.12677 3.17666 2.70317
# Velocity P-wave (km/s) = 4.42034 5.66167 5.07907
#
# Compressibility (1/GPa) = 0.03088673
#
# Stress axis : x y z
#
# Youngs Moduli (GPa) = 74.69478 41.49574 85.86864
#
# Poissons Ratio (x) = -0.08101 0.46225
# Poissons Ratio (y) = -0.14583 0.48876
# Poissons Ratio (z) = 0.40210 0.23619
#
# Static dielectric constant tensor:
#      x y z
#    x 1.960650 0.000000 0.020620 
#    y 0.000000 1.973270 0.000000 
#    z 0.020620 0.000000 2.205290 
# 
# From -- ./inp_files/219129.got.cif
#   From: 2010.05.17/outbox.cif.g08.bks.cpg/sg12_110_cif.got.tgz:219129.got - 2010.06.03 13:09:07.
