data_PCOD9203693
_publ_section_title
;
Structure prediction by ZEFSAII (Michael W. Deem and Ramdas Pophale) SiO2 
 PCOD9203693
Probable space group: C 2/M
;
_chemical_formula_sum "Si O2"
_cell_formula_units_Z 64
_cell_length_a 18.333843
_cell_length_b 13.824783
_cell_length_c 15.811726
_cell_angle_alpha 90.000000
_cell_angle_beta 132.898931
_cell_angle_gamma 90.000000
_cell_volume 2935.835403
_symmetry_space_group_name_H-M "C 2/M"
_symmetry_group_IT_number 12
_symmetry_cell_setting 'monoclinic'
loop_
_space_group_symop_operation_xyz
x,y,z
-x,y,-z
-x,-y,-z
x,-y,z
1/2+x,1/2+y,z
1/2-x,1/2+y,-z
1/2-x,1/2-y,-z
1/2+x,1/2-y,z
loop_
_atom_site_type_symbol
_atom_site_label
_atom_site_fract_x
_atom_site_fract_y
_atom_site_fract_z
Si Si1 0.427415 0.746639 0.872390
Si Si2 0.404218 0.278316 0.109964
Si Si3 0.364231 0.390558 0.337364
Si Si4 0.735616 0.110225 0.066375
Si Si5 0.296291 0.884981 0.655356
Si Si6 0.050629 0.292176 0.668092
Si Si7 0.250934 0.885280 0.250719
Si Si8 0.337831 0.115792 0.497833
O O1 0.501817 0.687748 0.869744
O O2 0.374969 0.826820 0.773574
O O3 0.344862 0.677473 0.849046
O O4 0.500000 0.790581 0.000000
O O5 0.326726 0.361306 0.075805
O O6 0.441793 0.230775 0.226859
O O7 0.345334 0.192260 0.015760
O O8 0.402311 0.500000 0.364630
O O9 0.279681 0.383293 0.196336
O O10 0.309912 0.371329 0.382954
O O11 0.442074 0.309891 0.373651
O O12 0.701950 0.000000 0.025507
O O13 0.300286 0.854086 0.560850
O O14 0.317425 0.000000 0.676230
O O15 0.149008 0.351670 0.718194
O O16 0.947986 0.344523 0.568031
O O17 0.268291 0.860265 0.363654
O O18 0.237172 0.000000 0.229828
O O19 0.344487 0.000000 0.504157
#
# Coordination Sequence:
#
# PCOD9203693 Si02
#       8
#     8   8   8   8   8   8   8   8
#     4  12  25  42  63  95 132 166 209 256 314 381
#     4  10  22  36  57  92 126 160 210 256 302 383
#     4   9  18  35  60  90 124 164 208 252 310 380
#     4   9  19  35  58  85 123 170 207 254 310 361
#     4  10  20  39  65  95 128 164 208 260 314 372
#     4  11  20  39  65  91 124 162 206 266 318 366
#     4  11  26  45  65  91 126 171 215 261 315 367
#     4  10  22  42  67  95 124 161 216 268 311 367
#
# _framework density 21.799586999999999
#
# number of rings (size 3 to 8) (size 9 to 14) (size 15 to 20)
#    0.000    1.750    2.500    1.500    3.500    4.000 
#    0.000    0.000    0.000    2.250    0.000    0.000 
#    0.000    0.000    0.000    0.000    0.000    0.000 
#
# Total GULP energy -178996.733854 kJ/mol
# GULP energy per Si atom -5593.647933 kJ/mol
# Density = 2.174997 g / cm^3
# Si number density = 21.799587 Si / 1000 Ang^3
#
#
#
# Elastic Constant Matrix: (Units=GPa)
#
#
# Indices 1 2 3 4 5 6 
#
# 1 96.9642 17.1005 6.9598 0.0000 -8.2340 0.0000
# 2 17.1005 87.5607 20.6343 0.0000 1.1725 0.0000
# 3 6.9598 20.6343 76.8112 0.0000 0.3151 0.0000
# 4 0.0000 0.0000 0.0000 20.8720 0.0000 -2.4058
# 5 -8.2340 1.1725 0.3151 0.0000 23.6795 0.0000
# 6 0.0000 0.0000 0.0000 -2.4058 0.0000 24.3895
#
#
#
# Elastic Compliance Matrix: (Units=1/GPa)
#
#
# Indices 1 2 3 4 5 6 
#
# 1 0.011052 -0.002105 -0.000452 0.000000 0.003953 0.000000
# 2 -0.002105 0.012601 -0.003189 0.000000 -0.001313 0.000000
# 3 -0.000452 -0.003189 0.013917 0.000000 -0.000185 0.000000
# 4 0.000000 0.000000 0.000000 0.048462 0.000000 0.004780
# 5 0.003953 -0.001313 -0.000185 0.000000 0.043673 0.000000
# 6 0.000000 0.000000 0.000000 0.004780 0.000000 0.041473
#
#
# Mechanical properties :
#
#
# Convention : Reuss Voigt Hill
#
# Bulk Modulus (GPa) = 38.34572 38.96947 38.65760
# Shear Modulus (GPa) = 26.12832 28.23097 27.17965
#
# Velocity S-wave (km/s) = 3.46579 3.60255 3.53483
# Velocity P-wave (km/s) = 5.80034 5.93460 5.86785
#
# Compressibility (1/GPa) = 0.02607853
#
# Stress axis : x y z
#
# Youngs Moduli (GPa) = 90.47740 79.35991 71.85289
#
# Poissons Ratio (x) = 0.16705 0.03249
# Poissons Ratio (y) = 0.19045 0.22913
# Poissons Ratio (z) = 0.04092 0.25307
#
# Static dielectric constant tensor:
#      x y z
#    x 1.803940 0.000000 -0.021530 
#    y 0.000000 1.769690 0.000000 
#    z -0.021530 0.000000 1.832070 
# 
# From -- ./inp_files/225746.got.cif
#   From: 2010.05.17/outbox.cif.g08.bks.cpg/sg12_113_cif.got.tgz:225746.got - 2010.06.03 13:09:07.
