data_PCOD9203204
_publ_section_title
;
Structure prediction by ZEFSAII (Michael W. Deem and Ramdas Pophale) SiO2 
 PCOD9203204
Probable space group: C 2/M
;
_chemical_formula_sum "Si O2"
_cell_formula_units_Z 60
_cell_length_a 16.801182
_cell_length_b 12.912975
_cell_length_c 15.192433
_cell_angle_alpha 90.000000
_cell_angle_beta 59.751357
_cell_angle_gamma 90.000000
_cell_volume 2847.282279
_symmetry_space_group_name_H-M "C 2/M"
_symmetry_group_IT_number 12
_symmetry_cell_setting 'monoclinic'
loop_
_space_group_symop_operation_xyz
x,y,z
-x,y,-z
-x,-y,-z
x,-y,z
1/2+x,1/2+y,z
1/2-x,1/2+y,-z
1/2-x,1/2-y,-z
1/2+x,1/2-y,z
loop_
_atom_site_type_symbol
_atom_site_label
_atom_site_fract_x
_atom_site_fract_y
_atom_site_fract_z
Si Si1 0.696564 0.879365 0.593175
Si Si2 0.012934 0.237303 0.689666
Si Si3 0.906984 0.683959 0.007143
Si Si4 0.000000 0.744096 0.500000
Si Si5 0.297952 0.812372 0.603490
Si Si6 0.859108 0.611830 0.847322
Si Si7 0.313214 0.662524 0.161324
Si Si8 0.005976 0.886848 0.128335
O O1 0.599442 0.816289 0.653815
O O2 0.725201 0.869522 0.474554
O O3 0.769463 0.808352 0.605000
O O4 0.689721 0.000000 0.622130
O O5 0.008952 0.201284 0.590363
O O6 0.019876 0.147497 0.758122
O O7 0.920820 0.300851 0.766349
O O8 0.868721 0.620410 0.947185
O O9 0.935174 0.793394 0.945107
O O10 0.836714 0.718188 0.122307
O O11 0.000000 0.641469 0.000000
O O12 0.906616 0.678418 0.558119
O O13 0.242895 0.850125 0.717867
O O14 0.894777 0.500000 0.798568
O O15 0.753660 0.622467 0.877105
O O16 0.411727 0.612449 0.125107
O O17 0.049261 0.000000 0.102297
#
# Coordination Sequence:
#
# PCOD9203204 Si02
#       8
#     8   8   8   4   8   8   8   8
#     4  10  21  39  60  85 118 159 198 238 291 349
#     4  10  20  39  58  85 120 157 194 243 291 343
#     4   9  22  40  61  83 119 156 190 242 295 345
#     4  10  20  40  60  78 120 156 188 240 296 342
#     4  10  21  39  60  87 117 153 198 245 290 341
#     4  11  22  36  59  90 118 154 193 238 294 352
#     4  11  20  39  60  86 119 150 197 245 296 341
#     4  10  21  38  62  88 116 153 200 245 291 343
#
# _framework density 21.072727
#
# number of rings (size 3 to 8) (size 9 to 14) (size 15 to 20)
#    0.000    1.867    2.667    1.200    0.000    4.267 
#    0.000    3.667    0.000    0.000    0.000    0.000 
#    0.000    0.000    0.000    0.000    0.000    0.000 
#
# Total GULP energy -167368.009033 kJ/mol
# GULP energy per Si atom -5578.933634 kJ/mol
# Density = 2.102476 g / cm^3
# Si number density = 21.072727 Si / 1000 Ang^3
#
#
#
# Elastic Constant Matrix: (Units=GPa)
#
#
# Indices 1 2 3 4 5 6 
#
# 1 75.1060 27.7532 4.2590 0.0000 4.2901 0.0000
# 2 27.7532 74.2798 -9.4837 0.0000 6.3927 0.0000
# 3 4.2590 -9.4837 63.2439 0.0000 6.8863 0.0000
# 4 0.0000 0.0000 0.0000 11.1269 0.0000 -3.6330
# 5 4.2901 6.3927 6.8863 0.0000 38.6206 0.0000
# 6 0.0000 0.0000 0.0000 -3.6330 0.0000 0.9205
#
#
#
# Elastic Compliance Matrix: (Units=1/GPa)
#
#
# Indices 1 2 3 4 5 6 
#
# 1 0.015691 -0.006074 -0.001925 0.000000 -0.000394 0.000000
# 2 -0.006074 0.016357 0.003144 0.000000 -0.002593 0.000000
# 3 -0.001925 0.003144 0.016772 0.000000 -0.003297 0.000000
# 4 0.000000 0.000000 0.000000 -0.311369 0.000000 -1.228906
# 5 -0.000394 -0.002593 -0.003297 0.000000 0.026954 0.000000
# 6 0.000000 0.000000 0.000000 -1.228906 0.000000 -3.763852
#
#
# Mechanical properties :
#
#
# Convention : Reuss Voigt Hill
#
# Bulk Modulus (GPa) = 25.56885 28.63183 27.10034
# Shear Modulus (GPa) = -1.25732 22.80702 10.77485
#
# Velocity S-wave (km/s) = -0.77328 3.29340 2.26369
# Velocity P-wave (km/s) = 3.37086 5.29893 4.44080
#
# Compressibility (1/GPa) = 0.03911008
#
# Stress axis : x y z
#
# Youngs Moduli (GPa) = 63.73172 61.13672 59.62345
#
# Poissons Ratio (x) = 0.37136 0.11475
# Poissons Ratio (y) = 0.38713 -0.18747
# Poissons Ratio (z) = 0.12266 -0.19223
#
# Static dielectric constant tensor:
#      x y z
#    x 1.770950 0.000000 -0.000960 
#    y 0.000000 1.765270 0.000000 
#    z -0.000960 0.000000 1.811820 
# 
# From -- ./inp_files/223782.got.cif
#   From: 2010.05.17/outbox.cif.g08.bks.cpg/sg12_112_cif.got.tgz:223782.got - 2010.06.03 13:09:07.
