data_PCOD9203104
_publ_section_title
;
Structure prediction by ZEFSAII (Michael W. Deem and Ramdas Pophale) SiO2 
 PCOD9203104
Probable space group: C 2/M
;
_chemical_formula_sum "Si O2"
_cell_formula_units_Z 58
_cell_length_a 20.119831
_cell_length_b 8.978225
_cell_length_c 17.003074
_cell_angle_alpha 90.000000
_cell_angle_beta 67.684219
_cell_angle_gamma 90.000000
_cell_volume 2841.406477
_symmetry_space_group_name_H-M "C 2/M"
_symmetry_group_IT_number 12
_symmetry_cell_setting 'monoclinic'
loop_
_space_group_symop_operation_xyz
x,y,z
-x,y,-z
-x,-y,-z
x,-y,z
1/2+x,1/2+y,z
1/2-x,1/2+y,-z
1/2-x,1/2-y,-z
1/2+x,1/2-y,z
loop_
_atom_site_type_symbol
_atom_site_label
_atom_site_fract_x
_atom_site_fract_y
_atom_site_fract_z
Si Si1 0.000000 0.500000 0.000000
Si Si2 0.205470 0.176975 0.297462
Si Si3 0.228181 0.679684 0.125017
Si Si4 0.110124 0.235477 0.925044
Si Si5 0.008345 0.322450 0.730499
Si Si6 0.600328 0.667125 0.102870
Si Si7 0.452720 0.676545 0.596287
Si Si8 0.854061 0.829784 0.267647
O O1 0.942361 0.373491 0.054985
O O2 0.193448 0.273148 0.223662
O O3 0.132524 0.195603 0.379512
O O4 0.278749 0.242034 0.300195
O O5 0.213737 0.000000 0.276413
O O6 0.237515 0.500000 0.114179
O O7 0.305239 0.759585 0.094367
O O8 0.174598 0.745569 0.084798
O O9 0.115399 0.165597 0.836079
O O10 0.085260 0.157234 0.016926
O O11 0.008443 0.500000 0.735332
O O12 0.087259 0.255189 0.707478
O O13 0.959499 0.257431 0.823024
O O14 0.976476 0.266200 0.662532
O O15 0.605975 0.500000 0.132773
O O16 0.500000 0.719017 0.500000
O O17 0.464259 0.500000 0.606829
O O18 0.843863 0.000000 0.297734
#
# Coordination Sequence:
#
# PCOD9203104 Si02
#       8
#     2   8   8   8   8   8   8   8
#     4  12  28  40  58  84 120 176 218 278 312 392
#     4  10  20  38  66  99 131 170 215 266 328 392
#     4  11  23  40  63  93 129 168 219 278 330 385
#     4  11  26  40  61  86 129 172 231 265 328 367
#     4  12  26  42  65  98 134 171 216 268 329 393
#     4  12  24  40  65  92 128 169 221 277 330 384
#     4  10  22  44  73 102 134 170 211 262 328 400
#     4  11  24  43  67  92 133 176 226 274 324 387
#
# _framework density 20.412427000000001
#
# number of rings (size 3 to 8) (size 9 to 14) (size 15 to 20)
#    0.000    0.966    1.379    6.207    9.655    0.828 
#    0.000    4.483    0.000    0.000    0.000    0.000 
#    0.000    0.000    0.000    0.000    0.000    0.000 
#
# Total GULP energy -161720.225887 kJ/mol
# GULP energy per Si atom -5576.559513 kJ/mol
# Density = 2.036597 g / cm^3
# Si number density = 20.412427 Si / 1000 Ang^3
#
#
#
# Elastic Constant Matrix: (Units=GPa)
#
#
# Indices 1 2 3 4 5 6 
#
# 1 117.2910 63.6183 39.2977 0.0000 -14.4278 0.0000
# 2 63.6183 115.5406 35.4610 0.0000 -18.9680 0.0000
# 3 39.2977 35.4610 86.3436 0.0000 -21.0097 0.0000
# 4 0.0000 0.0000 0.0000 26.3250 0.0000 -7.8652
# 5 -14.4278 -18.9680 -21.0097 0.0000 18.4303 0.0000
# 6 0.0000 0.0000 0.0000 -7.8652 0.0000 -20.6403
#
#
#
# Elastic Compliance Matrix: (Units=1/GPa)
#
#
# Indices 1 2 3 4 5 6 
#
# 1 0.012973 -0.006100 -0.003398 0.000000 0.000004 0.000000
# 2 -0.006100 0.013626 -0.000788 0.000000 0.008350 0.000000
# 3 -0.003398 -0.000788 0.017447 0.000000 0.016417 0.000000
# 4 0.000000 0.000000 0.000000 0.034104 0.000000 -0.012996
# 5 0.000004 0.008350 0.016417 0.000000 0.081570 0.000000
# 6 0.000000 0.000000 0.000000 -0.012996 0.000000 -0.043497
#
#
# Mechanical properties :
#
#
# Convention : Reuss Voigt Hill
#
# Bulk Modulus (GPa) = 42.60093 66.21435 54.40764
# Shear Modulus (GPa) = 34.57322 16.87623 25.72472
#
# Velocity S-wave (km/s) = 4.11996 2.87847 3.55385
# Velocity P-wave (km/s) = 6.59906 6.59971 6.59938
#
# Compressibility (1/GPa) = 0.02347367
#
# Stress axis : x y z
#
# Youngs Moduli (GPa) = 77.08102 73.38766 57.31726
#
# Poissons Ratio (x) = 0.44763 0.19479
# Poissons Ratio (y) = 0.47016 0.04518
# Poissons Ratio (z) = 0.26196 0.05785
#
# Static dielectric constant tensor:
#      x y z
#    x 1.746870 0.000000 0.000600 
#    y 0.000000 1.732890 0.000000 
#    z 0.000600 0.000000 1.736710 
# 
# From -- ./inp_files/282114.got.cif
#   From: 2010.05.17/outbox.cif.g08.bks.cpg/sg12_142_cif.got.tgz:282114.got - 2010.06.03 13:09:07.
