data_PCOD9203507
_publ_section_title
;
Structure prediction by ZEFSAII (Michael W. Deem and Ramdas Pophale) SiO2 
 PCOD9203507
Probable space group: C 2/M
;
_chemical_formula_sum "Si O2"
_cell_formula_units_Z 42
_cell_length_a 18.120719
_cell_length_b 12.813768
_cell_length_c 19.703895
_cell_angle_alpha 90.000000
_cell_angle_beta 157.664734
_cell_angle_gamma 90.000000
_cell_volume 1738.670062
_symmetry_space_group_name_H-M "C 2/M"
_symmetry_group_IT_number 12
_symmetry_cell_setting 'monoclinic'
loop_
_space_group_symop_operation_xyz
x,y,z
-x,y,-z
-x,-y,-z
x,-y,z
1/2+x,1/2+y,z
1/2-x,1/2+y,-z
1/2-x,1/2-y,-z
1/2+x,1/2-y,z
loop_
_atom_site_type_symbol
_atom_site_label
_atom_site_fract_x
_atom_site_fract_y
_atom_site_fract_z
Si Si1 0.045776 0.736812 0.744093
Si Si2 0.231307 0.113394 0.710063
Si Si3 0.813694 0.157285 0.800883
Si Si4 0.500000 0.000000 0.500000
Si Si5 0.075468 0.877188 0.903024
Si Si6 0.268164 0.382601 0.441250
O O1 0.065386 0.821276 0.821763
O O2 0.893852 0.651454 0.642876
O O3 0.942318 0.800287 0.596499
O O4 0.251095 0.681350 0.909440
O O5 0.289602 0.220233 0.794352
O O6 0.318752 0.118284 0.708247
O O7 0.000000 0.113614 0.500000
O O8 0.278907 0.000000 0.781684
O O9 0.877245 0.138733 0.776164
O O10 0.620922 0.091010 0.644884
O O11 0.000000 0.117302 0.000000
O O12 0.113632 0.000000 0.929106
O O13 0.337811 0.500000 0.513633
#
# Coordination Sequence:
#
# PCOD9203507 Si02
#       6
#     8   8   8   2   8   8
#     4  10  22  38  62  92 126 173 212 271 325 392
#     4  10  22  42  68  95 131 172 220 280 333 396
#     4  12  26  45  69 102 135 175 229 277 346 401
#     4  12  26  48  70  94 140 180 218 290 330 408
#     4  11  23  41  60  92 131 168 217 274 329 397
#     4  10  20  39  63  93 125 169 219 264 326 394
#
# _framework density 24.156395
#
# number of rings (size 3 to 8) (size 9 to 14) (size 15 to 20)
#    0.000    1.333    3.810    1.429    2.667    0.381 
#    0.000    0.952    0.000    0.000    0.000    0.000 
#    0.000    0.000    0.000    0.000    0.000    0.000 
#
# Total GULP energy -117251.551531 kJ/mol
# GULP energy per Si atom -5583.407216 kJ/mol
# Density = 2.410141 g / cm^3
# Si number density = 24.156395 Si / 1000 Ang^3
#
#
#
# Elastic Constant Matrix: (Units=GPa)
#
#
# Indices 1 2 3 4 5 6 
#
# 1 55.6065 9.5817 -14.8710 -0.0013 6.2832 -0.0009
# 2 9.5817 180.6263 30.5633 0.0365 -7.3199 -0.0042
# 3 -14.8710 30.5633 85.4312 0.0053 -4.5585 0.0000
# 4 -0.0013 0.0365 0.0053 5.3433 0.0090 9.9842
# 5 6.2832 -7.3199 -4.5585 0.0090 19.4874 -0.0018
# 6 -0.0009 -0.0042 0.0000 9.9842 -0.0018 -11.4240
#
#
#
# Elastic Compliance Matrix: (Units=1/GPa)
#
#
# Indices 1 2 3 4 5 6 
#
# 1 0.020070 -0.001974 0.003863 0.000010 -0.006309 0.000008
# 2 -0.001974 0.006146 -0.002415 -0.000015 0.002380 -0.000016
# 3 0.003863 -0.002415 0.013293 0.000001 0.000957 0.000001
# 4 0.000010 -0.000015 0.000001 0.071077 -0.000036 0.062119
# 5 -0.006309 0.002380 0.000957 -0.000036 0.054467 -0.000040
# 6 0.000008 -0.000016 0.000001 0.062119 -0.000040 -0.033244
#
#
# Mechanical properties :
#
#
# Convention : Reuss Voigt Hill
#
# Bulk Modulus (GPa) = 26.00364 41.35689 33.68026
# Shear Modulus (GPa) = 34.32175 22.44066 28.38120
#
# Velocity S-wave (km/s) = 3.77346 3.05121 3.43139
# Velocity P-wave (km/s) = 5.45650 5.43791 5.44721
#
# Compressibility (1/GPa) = 0.03845616
#
# Stress axis : x y z
#
# Youngs Moduli (GPa) = 49.82650 162.70292 75.22785
#
# Poissons Ratio (x) = 0.32117 -0.29061
# Poissons Ratio (y) = 0.09836 0.18171
# Poissons Ratio (z) = -0.19248 0.39300
#
# Static dielectric constant tensor:
#      x y z
#    x 2.003940 -0.000020 0.008120 
#    y -0.000020 1.841570 -0.000010 
#    z 0.008120 -0.000010 1.906050 
# 
# From -- ./inp_files/349431.got.cif
#   From: 2010.05.17/outbox.cif.g08.bks.cpg/sg12_175_cif.got.tgz:349431.got - 2010.06.03 13:09:07.
