data_PCOD9203940
_publ_section_title
;
Structure prediction by ZEFSAII (Michael W. Deem and Ramdas Pophale) SiO2 
 PCOD9203940
Probable space group: C 2/M
;
_chemical_formula_sum "Si O2"
_cell_formula_units_Z 56
_cell_length_a 19.431173
_cell_length_b 9.128152
_cell_length_c 17.813734
_cell_angle_alpha 90.000000
_cell_angle_beta 116.882314
_cell_angle_gamma 90.000000
_cell_volume 2818.195356
_symmetry_space_group_name_H-M "C 2/M"
_symmetry_group_IT_number 12
_symmetry_cell_setting 'monoclinic'
loop_
_space_group_symop_operation_xyz
x,y,z
-x,y,-z
-x,-y,-z
x,-y,z
1/2+x,1/2+y,z
1/2-x,1/2+y,-z
1/2-x,1/2-y,-z
1/2+x,1/2-y,z
loop_
_atom_site_type_symbol
_atom_site_label
_atom_site_fract_x
_atom_site_fract_y
_atom_site_fract_z
Si Si1 0.322208 0.671542 0.999493
Si Si2 0.632099 0.173914 0.242735
Si Si3 0.907620 0.834460 0.468551
Si Si4 0.063939 0.673535 0.369334
Si Si5 0.601942 0.324167 0.705356
Si Si6 0.006331 0.825603 0.913182
Si Si7 0.247757 0.828436 0.194696
O O1 0.318415 0.500000 0.015869
O O2 0.310657 0.685299 0.904203
O O3 0.250000 0.750000 0.000000
O O4 0.406959 0.723120 0.064873
O O5 0.616531 0.201499 0.322797
O O6 0.557501 0.234461 0.161809
O O7 0.705120 0.256204 0.244067
O O8 0.640439 0.000000 0.235298
O O9 0.897508 0.732086 0.535109
O O10 0.878155 0.788555 0.372339
O O11 0.000000 0.840951 0.500000
O O12 0.880934 0.000000 0.471920
O O13 0.049491 0.500000 0.367913
O O14 0.981560 0.755425 0.318856
O O15 0.598182 0.500000 0.711104
O O16 0.672768 0.254598 0.785027
O O17 0.997244 0.000000 0.892244
O O18 0.000000 0.809910 0.000000
O O19 0.263192 0.000000 0.214178
#
# Coordination Sequence:
#
# PCOD9203940 Si02
#       7
#     8   8   8   8   8   8   8
#     4  10  23  40  59  84 114 146 186 235 282 334
#     4  11  24  39  57  85 117 150 191 237 281 334
#     4   8  16  33  56  83 114 147 186 232 280 332
#     4  10  21  36  57  87 118 148 189 236 278 333
#     4  10  21  37  59  87 117 149 188 234 283 337
#     4  10  20  40  62  81 109 149 192 232 279 334
#     4  11  23  41  60  82 115 152 190 234 285 339
#
# _framework density 19.870874000000001
#
# number of rings (size 3 to 8) (size 9 to 14) (size 15 to 20)
#    0.000    2.000    1.429    2.571    2.000    7.429 
#    0.000    0.714    0.000    0.000    0.000    0.000 
#    0.000    0.000    0.000    0.000    0.000    0.000 
#
# Total GULP energy -156356.227986 kJ/mol
# GULP energy per Si atom -5584.150999 kJ/mol
# Density = 1.982565 g / cm^3
# Si number density = 19.870874 Si / 1000 Ang^3
#
#
#
# Elastic Constant Matrix: (Units=GPa)
#
#
# Indices 1 2 3 4 5 6 
#
# 1 76.7318 26.7403 -5.3941 0.0000 -8.5775 0.0000
# 2 26.7403 56.5377 11.6947 0.0000 -19.8527 0.0000
# 3 -5.3941 11.6947 14.9994 0.0000 -5.7492 0.0000
# 4 0.0000 0.0000 0.0000 30.0275 0.0000 -1.3217
# 5 -8.5775 -19.8527 -5.7492 0.0000 32.3453 0.0000
# 6 0.0000 0.0000 0.0000 -1.3217 0.0000 29.3866
#
#
#
# Elastic Compliance Matrix: (Units=1/GPa)
#
#
# Indices 1 2 3 4 5 6 
#
# 1 0.018321 -0.011811 0.015969 0.000000 0.000447 0.000000
# 2 -0.011811 0.032879 -0.025055 0.000000 0.012595 0.000000
# 3 0.015969 -0.025055 0.094086 0.000000 0.005580 0.000000
# 4 0.000000 0.000000 0.000000 0.033369 0.000000 0.001501
# 5 0.000447 0.012595 0.005580 0.000000 0.039757 0.000000
# 6 0.000000 0.000000 0.000000 0.001501 0.000000 0.034097
#
#
# Mechanical properties :
#
#
# Convention : Reuss Voigt Hill
#
# Bulk Modulus (GPa) = 9.66265 23.81675 16.73970
# Shear Modulus (GPa) = 15.20684 26.03376 20.62030
#
# Velocity S-wave (km/s) = 2.76938 3.62352 3.22485
# Velocity P-wave (km/s) = 3.88577 5.43308 4.72322
#
# Compressibility (1/GPa) = 0.10349132
#
# Stress axis : x y z
#
# Youngs Moduli (GPa) = 54.58166 30.41482 10.62861
#
# Poissons Ratio (x) = 0.35924 -0.16973
# Poissons Ratio (y) = 0.64468 0.26630
# Poissons Ratio (z) = -0.87163 0.76204
#
# Static dielectric constant tensor:
#      x y z
#    x 1.696050 0.000000 -0.012540 
#    y 0.000000 1.665340 0.000000 
#    z -0.012540 0.000000 1.732380 
# 
# From -- ./inp_files/275479.got.cif
#   From: 2010.05.17/outbox.cif.g08.bks.cpg/sg12_138_cif.got.tgz:275479.got - 2010.06.03 13:09:07.
