data_PCOD9203844
_publ_section_title
;
Structure prediction by ZEFSAII (Michael W. Deem and Ramdas Pophale) SiO2 
 PCOD9203844
Probable space group: C 2/M
;
_chemical_formula_sum "Si O2"
_cell_formula_units_Z 48
_cell_length_a 12.647656
_cell_length_b 26.445297
_cell_length_c 7.788286
_cell_angle_alpha 90.000000
_cell_angle_beta 134.854054
_cell_angle_gamma 90.000000
_cell_volume 1846.668008
_symmetry_space_group_name_H-M "C 2/M"
_symmetry_group_IT_number 12
_symmetry_cell_setting 'monoclinic'
loop_
_space_group_symop_operation_xyz
x,y,z
-x,y,-z
-x,-y,-z
x,-y,z
1/2+x,1/2+y,z
1/2-x,1/2+y,-z
1/2-x,1/2-y,-z
1/2+x,1/2-y,z
loop_
_atom_site_type_symbol
_atom_site_label
_atom_site_fract_x
_atom_site_fract_y
_atom_site_fract_z
Si Si1 0.740610 0.146773 0.087233
Si Si2 0.802855 0.075007 0.686002
Si Si3 0.520189 0.944806 0.817651
Si Si4 0.574411 0.445737 0.804190
Si Si5 0.999150 0.271624 0.206061
Si Si6 0.313833 0.678873 0.557887
O O1 0.882871 0.110401 0.210821
O O2 0.764699 0.158617 0.315407
O O3 0.619805 0.103816 0.902713
O O4 0.651824 0.197707 0.914606
O O5 0.633228 0.064244 0.454281
O O6 0.837099 0.134428 0.719154
O O7 0.898412 0.054289 0.636935
O O8 0.854949 0.053619 0.924972
O O9 0.576562 0.000000 0.828524
O O10 0.500000 0.945931 0.000000
O O11 0.613101 0.500000 0.763279
O O12 0.158987 0.295103 0.446669
O O13 0.037229 0.213244 0.293585
O O14 0.000000 0.273440 0.000000
#
# Coordination Sequence:
#
# PCOD9203844 Si02
#       6
#     8   8   8   8   8   8
#     4  11  21  43  66 103 141 167 224 295 339 392
#     4  11  22  44  69  92 138 184 228 275 339 414
#     4  11  20  36  66  98 129 174 228 275 333 405
#     4  11  26  44  66 100 141 183 228 279 345 409
#     4   9  19  38  72  99 131 174 229 275 338 405
#     4  10  20  39  70  99 130 178 220 278 339 408
#
# _framework density 25.992761000000002
#
# number of rings (size 3 to 8) (size 9 to 14) (size 15 to 20)
#    0.000    1.500    3.333    3.000    2.333    1.333 
#    0.000    3.333    7.333    0.000    0.000    0.000 
#    0.000    0.000    0.000    0.000    0.000    0.000 
#
# Total GULP energy -133874.748081 kJ/mol
# GULP energy per Si atom -5578.114503 kJ/mol
# Density = 2.593360 g / cm^3
# Si number density = 25.992761 Si / 1000 Ang^3
#
#
#
# Elastic Constant Matrix: (Units=GPa)
#
#
# Indices 1 2 3 4 5 6 
#
# 1 41.8587 22.3388 12.8100 0.0000 10.9473 0.0000
# 2 22.3388 202.6826 36.4712 0.0000 3.2395 0.0000
# 3 12.8100 36.4712 115.4087 0.0000 10.1384 0.0000
# 4 0.0000 0.0000 0.0000 26.9029 0.0000 6.0081
# 5 10.9473 3.2395 10.1384 0.0000 26.7644 0.0000
# 6 0.0000 0.0000 0.0000 6.0081 0.0000 -11.5402
#
#
#
# Elastic Compliance Matrix: (Units=1/GPa)
#
#
# Indices 1 2 3 4 5 6 
#
# 1 0.028604 -0.002735 -0.001357 0.000000 -0.010854 0.000000
# 2 -0.002735 0.005493 -0.001523 0.000000 0.001031 0.000000
# 3 -0.001357 -0.001523 0.009550 0.000000 -0.002878 0.000000
# 4 0.000000 0.000000 0.000000 0.033299 0.000000 0.017336
# 5 -0.010854 0.001031 -0.002878 0.000000 0.042768 0.000000
# 6 0.000000 0.000000 0.000000 0.017336 0.000000 -0.077628
#
#
# Mechanical properties :
#
#
# Convention : Reuss Voigt Hill
#
# Bulk Modulus (GPa) = 30.84863 55.91000 43.37932
# Shear Modulus (GPa) = 77.97881 27.64743 52.81312
#
# Velocity S-wave (km/s) = 5.48319 3.26492 4.51248
# Velocity P-wave (km/s) = 7.20979 5.98076 6.62384
#
# Compressibility (1/GPa) = 0.03241635
#
# Stress axis : x y z
#
# Youngs Moduli (GPa) = 34.96073 182.05681 104.71704
#
# Poissons Ratio (x) = 0.49790 0.14211
# Poissons Ratio (y) = 0.09561 0.15946
# Poissons Ratio (z) = 0.04744 0.27724
#
# Static dielectric constant tensor:
#      x y z
#    x 2.091180 0.000000 0.054740 
#    y 0.000000 2.153130 0.000000 
#    z 0.054740 0.000000 1.943150 
# 
# From -- ./inp_files/67422.got.cif
#   From: 2010.05.17/outbox.cif.g08.bks.cpg/sg12_34_cif.got.tgz:67422.got - 2010.06.03 13:09:07.
