data_PCOD9203028
_publ_section_title
;
Structure prediction by ZEFSAII (Michael W. Deem and Ramdas Pophale) SiO2 
 PCOD9203028
Probable space group: C 2/M
;
_chemical_formula_sum "Si O2"
_cell_formula_units_Z 48
_cell_length_a 11.551684
_cell_length_b 21.626738
_cell_length_c 9.009760
_cell_angle_alpha 90.000000
_cell_angle_beta 107.297880
_cell_angle_gamma 90.000000
_cell_volume 2149.062895
_symmetry_space_group_name_H-M "C 2/M"
_symmetry_group_IT_number 12
_symmetry_cell_setting 'monoclinic'
loop_
_space_group_symop_operation_xyz
x,y,z
-x,y,-z
-x,-y,-z
x,-y,z
1/2+x,1/2+y,z
1/2-x,1/2+y,-z
1/2-x,1/2-y,-z
1/2+x,1/2-y,z
loop_
_atom_site_type_symbol
_atom_site_label
_atom_site_fract_x
_atom_site_fract_y
_atom_site_fract_z
Si Si1 0.971186 0.072031 0.164073
Si Si2 0.703939 0.635094 0.337749
Si Si3 0.145835 0.755680 0.090941
Si Si4 0.416473 0.927217 0.258913
Si Si5 0.858423 0.356757 0.677987
Si Si6 0.707092 0.928166 0.085820
O O1 0.838924 0.101808 0.125535
O O2 0.070710 0.106693 0.297653
O O3 0.970437 0.000000 0.208543
O O4 0.000000 0.074124 0.000000
O O5 0.692530 0.689316 0.213841
O O6 0.793556 0.583395 0.303844
O O7 0.760927 0.655965 0.514475
O O8 0.142450 0.695005 0.195155
O O9 0.250000 0.750000 0.000000
O O10 0.000000 0.766455 0.000000
O O11 0.513268 0.875559 0.343069
O O12 0.450593 0.000000 0.283620
O O13 0.385599 0.908854 0.076500
O O14 0.832995 0.418843 0.762514
O O15 0.724222 0.000000 0.056707
#
# Coordination Sequence:
#
# PCOD9203028 Si02
#       6
#     8   8   8   8   8   8
#     4  10  20  38  65  95 130 174 226 272 321 400
#     4  12  25  42  68 101 136 175 222 286 354 412
#     4  12  28  50  76  99 131 187 244 292 346 426
#     4  11  23  43  72 102 141 189 233 281 343 423
#     4  12  26  43  64 102 141 172 223 287 350 411
#     4  10  21  39  65  96 132 176 224 271 322 396
#
# _framework density 22.335315999999999
#
# number of rings (size 3 to 8) (size 9 to 14) (size 15 to 20)
#    0.000    0.833    1.667    6.000    2.333    5.333 
#    0.000    3.333    0.000    0.000    0.000    0.000 
#    0.000    0.000    0.000    0.000    0.000    0.000 
#
# Total GULP energy -134022.972019 kJ/mol
# GULP energy per Si atom -5584.290501 kJ/mol
# Density = 2.228448 g / cm^3
# Si number density = 22.335316 Si / 1000 Ang^3
#
#
#
# Elastic Constant Matrix: (Units=GPa)
#
#
# Indices 1 2 3 4 5 6 
#
# 1 110.8785 27.7421 55.2473 0.0000 15.5209 0.0000
# 2 27.7421 87.1282 34.3883 0.0000 12.8108 0.0000
# 3 55.2473 34.3883 147.4093 0.0000 23.4569 0.0000
# 4 0.0000 0.0000 0.0000 -11.1878 0.0000 6.2107
# 5 15.5209 12.8108 23.4569 0.0000 38.2586 0.0000
# 6 0.0000 0.0000 0.0000 6.2107 0.0000 26.4189
#
#
#
# Elastic Compliance Matrix: (Units=1/GPa)
#
#
# Indices 1 2 3 4 5 6 
#
# 1 0.011556 -0.002000 -0.003574 0.000000 -0.001827 0.000000
# 2 -0.002000 0.013242 -0.001954 0.000000 -0.002425 0.000000
# 3 -0.003574 -0.001954 0.009135 0.000000 -0.003497 0.000000
# 4 0.000000 0.000000 0.000000 -0.079065 0.000000 0.018587
# 5 -0.001827 -0.002425 -0.003497 0.000000 0.029835 0.000000
# 6 0.000000 0.000000 0.000000 0.018587 0.000000 0.033482
#
#
# Mechanical properties :
#
#
# Convention : Reuss Voigt Hill
#
# Bulk Modulus (GPa) = 52.97155 64.46346 58.71750
# Shear Modulus (GPa) = 126.47556 25.90049 76.18802
#
# Velocity S-wave (km/s) = 7.53318 3.40901 5.84680
# Velocity P-wave (km/s) = 9.97161 6.66480 8.48093
#
# Compressibility (1/GPa) = 0.01887806
#
# Stress axis : x y z
#
# Youngs Moduli (GPa) = 86.53717 75.51830 109.46444
#
# Poissons Ratio (x) = 0.15106 0.39118
# Poissons Ratio (y) = 0.17310 0.21385
# Poissons Ratio (z) = 0.30925 0.14753
#
# Static dielectric constant tensor:
#      x y z
#    x 2.005510 0.000000 -0.004820 
#    y 0.000000 1.872050 0.000000 
#    z -0.004820 0.000000 1.829050 
# 
# From -- ./inp_files/51432.got.cif
#   From: 2010.05.17/outbox.cif.g08.bks.cpg/sg12_26_cif.got.tgz:51432.got - 2010.06.03 13:09:07.
