data_PCOD9203648
_publ_section_title
;
Structure prediction by ZEFSAII (Michael W. Deem and Ramdas Pophale) SiO2 
 PCOD9203648
Probable space group: C 2/M
;
_chemical_formula_sum "Si O2"
_cell_formula_units_Z 52
_cell_length_a 12.196818
_cell_length_b 23.771636
_cell_length_c 9.156034
_cell_angle_alpha 90.000000
_cell_angle_beta 84.235368
_cell_angle_gamma 90.000000
_cell_volume 2641.260089
_symmetry_space_group_name_H-M "C 2/M"
_symmetry_group_IT_number 12
_symmetry_cell_setting 'monoclinic'
loop_
_space_group_symop_operation_xyz
x,y,z
-x,y,-z
-x,-y,-z
x,-y,z
1/2+x,1/2+y,z
1/2-x,1/2+y,-z
1/2-x,1/2-y,-z
1/2+x,1/2-y,z
loop_
_atom_site_type_symbol
_atom_site_label
_atom_site_fract_x
_atom_site_fract_y
_atom_site_fract_z
Si Si1 0.132346 0.312440 0.325697
Si Si2 0.283063 0.565494 0.579469
Si Si3 0.642214 0.500000 0.986262
Si Si4 0.617978 0.840342 0.659938
Si Si5 0.570070 0.607419 0.187255
Si Si6 0.285487 0.288203 0.860415
Si Si7 0.817052 0.900897 0.241459
O O1 0.144930 0.311857 0.499576
O O2 0.143375 0.250879 0.257277
O O3 0.227123 0.351815 0.245704
O O4 0.012875 0.338340 0.307259
O O5 0.278963 0.500000 0.618449
O O6 0.170876 0.597641 0.638826
O O7 0.558142 0.621375 0.788036
O O8 0.303795 0.573237 0.405630
O O9 0.694648 0.450189 0.874722
O O10 0.586337 0.549274 0.098459
O O11 0.679952 0.809480 0.783167
O O12 0.641773 0.657556 0.109183
O O13 0.621483 0.595727 0.340165
O O14 0.250000 0.250000 0.000000
#
# Coordination Sequence:
#
# PCOD9203648 Si02
#       7
#     8   8   4   8   8   8   8
#     4  10  22  43  64  90 126 159 211 260 302 373
#     4  10  20  39  65  90 123 158 203 255 309 373
#     4  12  23  38  58  86 132 159 194 252 308 378
#     4   9  22  43  64  92 122 163 207 257 311 360
#     4  11  23  38  61  91 124 160 202 254 314 368
#     4  11  24  41  65  90 124 168 206 256 310 376
#     4  11  22  37  62  95 119 160 202 257 314 362
#
# _framework density 19.687571999999999
#
# number of rings (size 3 to 8) (size 9 to 14) (size 15 to 20)
#    0.000    1.538    1.538    3.231    2.154    1.231 
#    6.923    1.538    0.000    1.846    0.000    0.000 
#    0.000    0.000    0.000    0.000    0.000    0.000 
#
# Total GULP energy -144783.993171 kJ/mol
# GULP energy per Si atom -5568.615122 kJ/mol
# Density = 1.964276 g / cm^3
# Si number density = 19.687572 Si / 1000 Ang^3
#
#
#
# Elastic Constant Matrix: (Units=GPa)
#
#
# Indices 1 2 3 4 5 6 
#
# 1 125.5384 67.5422 42.6961 0.0000 -7.0502 0.0000
# 2 67.5422 116.0735 36.1884 0.0000 -10.4965 0.0000
# 3 42.6961 36.1884 60.4891 0.0000 -12.7208 0.0000
# 4 0.0000 0.0000 0.0000 37.9394 0.0000 -3.0069
# 5 -7.0502 -10.4965 -12.7208 0.0000 18.7090 0.0000
# 6 0.0000 0.0000 0.0000 -3.0069 0.0000 0.3652
#
#
#
# Elastic Compliance Matrix: (Units=1/GPa)
#
#
# Indices 1 2 3 4 5 6 
#
# 1 0.013145 -0.005928 -0.006289 0.000000 -0.002648 0.000000
# 2 -0.005928 0.013322 -0.003132 0.000000 0.003111 0.000000
# 3 -0.006289 -0.003132 0.025644 0.000000 0.013309 0.000000
# 4 0.000000 0.000000 0.000000 0.075862 0.000000 0.624620
# 5 -0.002648 0.003111 0.013309 0.000000 0.063247 0.000000
# 6 0.000000 0.000000 0.000000 0.624620 0.000000 7.881198
#
#
# Mechanical properties :
#
#
# Convention : Reuss Voigt Hill
#
# Bulk Modulus (GPa) = 46.69927 66.10604 56.40266
# Shear Modulus (GPa) = 0.61650 21.78102 11.19876
#
# Velocity S-wave (km/s) = 0.56020 3.32977 2.38759
# Velocity P-wave (km/s) = 4.91834 6.95942 6.02593
#
# Compressibility (1/GPa) = 0.02141361
#
# Stress axis : x y z
#
# Youngs Moduli (GPa) = 76.07361 75.06193 38.99619
#
# Poissons Ratio (x) = 0.44495 0.24525
# Poissons Ratio (y) = 0.45095 0.12213
# Poissons Ratio (z) = 0.47843 0.23508
#
# Static dielectric constant tensor:
#      x y z
#    x 1.689820 0.000000 0.036390 
#    y 0.000000 1.617390 0.000000 
#    z 0.036390 0.000000 1.724440 
# 
# From -- ./inp_files/64759.got.cif
#   From: 2010.05.17/outbox.cif.g08.bks.cpg/sg12_33_cif.got.tgz:64759.got - 2010.06.03 13:09:07.
