data_PCOD9203494
_publ_section_title
;
Structure prediction by ZEFSAII (Michael W. Deem and Ramdas Pophale) SiO2 
 PCOD9203494
Probable space group: C 2/M
;
_chemical_formula_sum "Si O2"
_cell_formula_units_Z 42
_cell_length_a 19.959010
_cell_length_b 7.778285
_cell_length_c 14.397506
_cell_angle_alpha 90.000000
_cell_angle_beta 62.813407
_cell_angle_gamma 90.000000
_cell_volume 1988.233780
_symmetry_space_group_name_H-M "C 2/M"
_symmetry_group_IT_number 12
_symmetry_cell_setting 'monoclinic'
loop_
_space_group_symop_operation_xyz
x,y,z
-x,y,-z
-x,-y,-z
x,-y,z
1/2+x,1/2+y,z
1/2-x,1/2+y,-z
1/2-x,1/2-y,-z
1/2+x,1/2-y,z
loop_
_atom_site_type_symbol
_atom_site_label
_atom_site_fract_x
_atom_site_fract_y
_atom_site_fract_z
Si Si1 0.732342 0.794127 0.905827
Si Si2 0.072921 0.312859 0.545904
Si Si3 0.811685 0.800054 0.673482
Si Si4 0.841790 0.799460 0.326111
Si Si5 0.000000 0.000000 0.500000
Si Si6 0.920838 0.290931 0.092965
O O1 0.791833 0.736392 0.789419
O O2 0.649663 0.734711 0.926100
O O3 0.732425 0.000000 0.896904
O O4 0.750000 0.750000 0.000000
O O5 0.036680 0.500000 0.577082
O O6 0.127706 0.304407 0.422007
O O7 0.126305 0.281460 0.600699
O O8 0.018377 0.152548 0.565668
O O9 0.732969 0.790407 0.667098
O O10 0.839022 0.000000 0.656827
O O11 0.903771 0.779101 0.205926
O O12 0.824539 0.000000 0.352372
O O13 0.920219 0.500000 0.098572
O O14 0.000000 0.237060 0.000000
#
# Coordination Sequence:
#
# PCOD9203494 Si02
#       6
#     8   8   8   8   2   8
#     4   9  19  35  57  84 120 157 199 259 310 366
#     4  12  24  43  66  91 125 169 205 253 315 369
#     4  10  20  39  63  91 123 156 208 266 312 363
#     4  11  21  37  62  93 124 155 208 267 312 371
#     4  12  26  48  60  90 138 164 208 250 296 398
#     4   9  19  38  59  84 117 158 208 260 313 373
#
# _framework density 21.124275000000001
#
# number of rings (size 3 to 8) (size 9 to 14) (size 15 to 20)
#    0.000    1.714    1.905    4.286    0.000    4.190 
#    3.429    0.000    0.000    0.000    0.000    0.000 
#    0.000    0.000    0.000    0.000    0.000    0.000 
#
# Total GULP energy -117108.391528 kJ/mol
# GULP energy per Si atom -5576.590073 kJ/mol
# Density = 2.107619 g / cm^3
# Si number density = 21.124275 Si / 1000 Ang^3
#
#
#
# Elastic Constant Matrix: (Units=GPa)
#
#
# Indices 1 2 3 4 5 6 
#
# 1 39.8974 11.9980 49.6174 0.0000 14.6586 0.0001
# 2 11.9980 115.7917 16.6455 0.0000 4.7785 0.0001
# 3 49.6174 16.6455 124.0214 0.0000 20.1343 0.0000
# 4 0.0000 0.0000 0.0000 22.7447 0.0000 -0.1152
# 5 14.6586 4.7785 20.1343 0.0000 37.8784 0.0000
# 6 0.0001 0.0001 0.0000 -0.1152 0.0000 24.5889
#
#
#
# Elastic Compliance Matrix: (Units=1/GPa)
#
#
# Indices 1 2 3 4 5 6 
#
# 1 0.053846 -0.002346 -0.019582 0.000000 -0.010133 0.000000
# 2 -0.002346 0.008918 -0.000244 0.000000 -0.000087 0.000000
# 3 -0.019582 -0.000244 0.016083 0.000000 -0.000940 0.000000
# 4 0.000000 0.000000 0.000000 0.043967 0.000000 0.000206
# 5 -0.010133 -0.000087 -0.000940 0.000000 0.030832 0.000000
# 6 0.000000 0.000000 0.000000 0.000206 0.000000 0.040670
#
#
# Mechanical properties :
#
#
# Convention : Reuss Voigt Hill
#
# Bulk Modulus (GPa) = 28.98428 48.47025 38.72726
# Shear Modulus (GPa) = 19.98713 30.47237 25.22975
#
# Velocity S-wave (km/s) = 3.07932 3.80218 3.45968
# Velocity P-wave (km/s) = 5.13747 6.50158 5.85936
#
# Compressibility (1/GPa) = 0.03450146
#
# Stress axis : x y z
#
# Youngs Moduli (GPa) = 18.57161 112.13281 62.17847
#
# Poissons Ratio (x) = 0.26308 1.21759
# Poissons Ratio (y) = 0.04357 0.01518
# Poissons Ratio (z) = 0.36367 0.02737
#
# Static dielectric constant tensor:
#      x y z
#    x 1.829160 0.000000 -0.044170 
#    y 0.000000 1.774890 0.000000 
#    z -0.044170 0.000000 1.767660 
# 
# From -- ./inp_files/162968.got.cif
#   From: 2010.05.17/outbox.cif.g08.bks.cpg/sg12_82_cif.got.tgz:162968.got - 2010.06.03 13:09:07.
