data_PCOD9203928
_publ_section_title
;
Structure prediction by ZEFSAII (Michael W. Deem and Ramdas Pophale) SiO2 
 PCOD9203928
Probable space group: C 2/M
;
_chemical_formula_sum "Si O2"
_cell_formula_units_Z 52
_cell_length_a 16.896849
_cell_length_b 8.476166
_cell_length_c 20.518016
_cell_angle_alpha 90.000000
_cell_angle_beta 119.953147
_cell_angle_gamma 90.000000
_cell_volume 2546.103294
_symmetry_space_group_name_H-M "C 2/M"
_symmetry_group_IT_number 12
_symmetry_cell_setting 'monoclinic'
loop_
_space_group_symop_operation_xyz
x,y,z
-x,y,-z
-x,-y,-z
x,-y,z
1/2+x,1/2+y,z
1/2-x,1/2+y,-z
1/2-x,1/2-y,-z
1/2+x,1/2-y,z
loop_
_atom_site_type_symbol
_atom_site_label
_atom_site_fract_x
_atom_site_fract_y
_atom_site_fract_z
Si Si1 0.737709 0.000000 0.099404
Si Si2 0.894530 0.184881 0.316712
Si Si3 0.783488 0.312456 0.393791
Si Si4 0.558926 0.818747 0.456693
Si Si5 0.603903 0.679515 0.254504
Si Si6 0.412803 0.000000 0.074086
Si Si7 0.606140 0.254527 0.822186
Si Si8 0.614718 0.000000 0.172823
O O1 0.807060 0.856644 0.123071
O O2 0.692517 0.000000 0.151508
O O3 0.659957 0.000000 0.012960
O O4 0.827587 0.230275 0.348407
O O5 0.875212 0.291224 0.245295
O O6 0.997410 0.217082 0.383390
O O7 0.883645 0.000000 0.295762
O O8 0.803715 0.500000 0.397688
O O9 0.841353 0.258193 0.480404
O O10 0.674744 0.294351 0.343341
O O11 0.500000 0.820715 0.500000
O O12 0.564191 0.000000 0.435037
O O13 0.626210 0.500000 0.237829
O O14 0.496456 0.675553 0.225959
O O15 0.618082 0.836423 0.215656
O O16 0.401793 0.141247 0.120155
O O17 0.517738 0.000000 0.095434
#
# Coordination Sequence:
#
# PCOD9203928 Si02
#       8
#     4   8   8   8   8   4   8   4
#     4  12  21  44  66  90 124 149 196 260 299 359
#     4  11  20  32  53  84 117 150 196 253 295 348
#     4   9  19  33  55  80 111 157 202 246 297 350
#     4   8  16  31  49  76 112 151 196 247 295 344
#     4  10  20  40  61  86 127 167 201 246 308 359
#     4  10  25  42  66  89 119 163 193 239 318 374
#     4  11  23  39  62  89 119 158 201 245 303 366
#     4  10  23  40  66  97 122 156 210 253 293 365
#
# _framework density 20.423368
#
# number of rings (size 3 to 8) (size 9 to 14) (size 15 to 20)
#    0.000    2.000    1.538    3.000    3.231    2.769 
#    1.385    0.769    0.000    1.846    0.000    0.000 
#    0.000    0.000    0.000    0.000    0.000    0.000 
#
# Total GULP energy -144823.363549 kJ/mol
# GULP energy per Si atom -5570.129367 kJ/mol
# Density = 2.037688 g / cm^3
# Si number density = 20.423368 Si / 1000 Ang^3
#
#
#
# Elastic Constant Matrix: (Units=GPa)
#
#
# Indices 1 2 3 4 5 6 
#
# 1 65.3144 21.0559 21.2775 0.0000 29.7035 0.0000
# 2 21.0559 59.6289 19.6881 0.0000 8.5696 0.0000
# 3 21.2775 19.6881 137.5835 0.0000 42.7995 0.0000
# 4 0.0000 0.0000 0.0000 28.8978 0.0000 10.5542
# 5 29.7035 8.5696 42.7995 0.0000 43.1305 0.0000
# 6 0.0000 0.0000 0.0000 10.5542 0.0000 17.6797
#
#
#
# Elastic Compliance Matrix: (Units=1/GPa)
#
#
# Indices 1 2 3 4 5 6 
#
# 1 0.025277 -0.007197 0.003025 0.000000 -0.018980 0.000000
# 2 -0.007197 0.019713 -0.002938 0.000000 0.003955 0.000000
# 3 0.003025 -0.002938 0.011120 0.000000 -0.012534 0.000000
# 4 0.000000 0.000000 0.000000 0.044253 0.000000 -0.026418
# 5 -0.018980 0.003955 -0.012534 0.000000 0.047909 0.000000
# 6 0.000000 0.000000 0.000000 -0.026418 0.000000 0.072333
#
#
# Mechanical properties :
#
#
# Convention : Reuss Voigt Hill
#
# Bulk Modulus (GPa) = 23.87209 42.95220 33.41215
# Shear Modulus (GPa) = 20.09742 31.30861 25.70302
#
# Velocity S-wave (km/s) = 3.14035 3.91958 3.55140
# Velocity P-wave (km/s) = 4.98628 6.44676 5.76297
#
# Compressibility (1/GPa) = 0.04188992
#
# Stress axis : x y z
#
# Youngs Moduli (GPa) = 39.56218 50.72693 89.92709
#
# Poissons Ratio (x) = 0.36507 -0.27202
# Poissons Ratio (y) = 0.28472 0.26424
# Poissons Ratio (z) = -0.11967 0.14906
#
# Static dielectric constant tensor:
#      x y z
#    x 1.731150 0.000000 0.025000 
#    y 0.000000 1.633000 0.000000 
#    z 0.025000 0.000000 1.719410 
# 
# From -- ./inp_files/314933.got.cif
#   From: 2010.05.17/outbox.cif.g08.bks.cpg/sg12_158_cif.got.tgz:314933.got - 2010.06.03 13:09:07.
