data_PCOD9203120
_publ_section_title
;
Structure prediction by ZEFSAII (Michael W. Deem and Ramdas Pophale) SiO2 
 PCOD9203120
Probable space group: C 2/M
;
_chemical_formula_sum "Si O2"
_cell_formula_units_Z 58
_cell_length_a 25.810672
_cell_length_b 8.811165
_cell_length_c 12.673153
_cell_angle_alpha 90.000000
_cell_angle_beta 92.534405
_cell_angle_gamma 90.000000
_cell_volume 2879.335756
_symmetry_space_group_name_H-M "C 2/M"
_symmetry_group_IT_number 12
_symmetry_cell_setting 'monoclinic'
loop_
_space_group_symop_operation_xyz
x,y,z
-x,y,-z
-x,-y,-z
x,-y,z
1/2+x,1/2+y,z
1/2-x,1/2+y,-z
1/2-x,1/2-y,-z
1/2+x,1/2-y,z
loop_
_atom_site_type_symbol
_atom_site_label
_atom_site_fract_x
_atom_site_fract_y
_atom_site_fract_z
Si Si1 0.514764 0.257551 0.678911
Si Si2 0.815424 0.183797 0.806568
Si Si3 0.896699 0.825948 0.644467
Si Si4 0.000000 0.500000 0.500000
Si Si5 0.655152 0.817345 0.967604
Si Si6 0.377309 0.326828 0.412303
Si Si7 0.206568 0.184647 0.762490
Si Si8 0.042674 0.817964 0.912529
O O1 0.457942 0.331325 0.670054
O O2 0.507801 0.127003 0.593156
O O3 0.567161 0.334035 0.640220
O O4 0.526054 0.233446 0.803527
O O5 0.863983 0.236927 0.738932
O O6 0.762875 0.244245 0.748964
O O7 0.814942 0.000000 0.817759
O O8 0.820356 0.259194 0.921389
O O9 0.884758 0.753659 0.528697
O O10 0.879303 0.000000 0.636837
O O11 0.686283 0.747834 0.872060
O O12 0.597229 0.749213 0.954726
O O13 0.654868 0.000000 0.962737
O O14 0.360372 0.500000 0.426770
O O15 0.334559 0.260751 0.329881
O O16 0.208227 0.000000 0.765785
O O17 0.047465 0.000000 0.890126
O O18 0.000000 0.800839 0.000000
#
# Coordination Sequence:
#
# PCOD9203120 Si02
#       8
#     8   8   8   2   8   8   8   8
#     4  12  22  42  63  95 134 177 218 268 332 393
#     4  11  24  44  65  93 130 172 220 275 332 395
#     4  10  21  40  67  94 124 167 220 272 324 389
#     4  12  28  40  60 100 144 184 218 274 328 402
#     4  12  25  42  65  96 131 171 216 274 333 395
#     4  10  20  38  67  94 122 161 218 267 317 386
#     4  11  23  42  67  96 127 170 222 275 329 396
#     4  11  24  43  69 101 136 179 226 275 335 404
#
# _framework density 20.143535
#
# number of rings (size 3 to 8) (size 9 to 14) (size 15 to 20)
#    0.000    0.966    2.759    4.552    0.966    4.138 
#    6.207    0.000    0.000    0.000    0.000    0.000 
#    0.000    0.000    0.000    0.000    0.000    0.000 
#
# Total GULP energy -161527.527434 kJ/mol
# GULP energy per Si atom -5569.914739 kJ/mol
# Density = 2.009769 g / cm^3
# Si number density = 20.143535 Si / 1000 Ang^3
#
#
#
# Elastic Constant Matrix: (Units=GPa)
#
#
# Indices 1 2 3 4 5 6 
#
# 1 73.7159 12.8640 -0.7535 0.0000 27.1746 0.0000
# 2 12.8640 63.1199 -12.1862 0.0000 8.4745 0.0000
# 3 -0.7535 -12.1862 -3.1632 0.0000 44.2015 0.0000
# 4 0.0000 0.0000 0.0000 25.1332 0.0000 6.9982
# 5 27.1746 8.4745 44.2015 0.0000 25.5238 0.0000
# 6 0.0000 0.0000 0.0000 6.9982 0.0000 31.9155
#
#
#
# Elastic Compliance Matrix: (Units=1/GPa)
#
#
# Indices 1 2 3 4 5 6 
#
# 1 0.014766 -0.004248 -0.007426 0.000000 -0.001451 0.000000
# 2 -0.004248 0.015640 -0.002722 0.000000 0.004045 0.000000
# 3 -0.007426 -0.002722 -0.007174 0.000000 0.021233 0.000000
# 4 0.000000 0.000000 0.000000 0.042375 0.000000 -0.009292
# 5 -0.001451 0.004045 0.021233 0.000000 0.002610 0.000000
# 6 0.000000 0.000000 0.000000 -0.009292 0.000000 0.033370
#
#
# Mechanical properties :
#
#
# Convention : Reuss Voigt Hill
#
# Bulk Modulus (GPa) = -179.84882 14.83567 -82.50658
# Shear Modulus (GPa) = 38.90255 25.43106 32.16680
#
# Velocity S-wave (km/s) = 4.39939 3.55701 4.00043
# Velocity P-wave (km/s) = 7.97943 4.92450 4.43963
#
# Compressibility (1/GPa) = -0.00556023
#
# Stress axis : x y z
#
# Youngs Moduli (GPa) = 67.72364 63.93853 -139.39697
#
# Poissons Ratio (x) = 0.27162 -1.03511
# Poissons Ratio (y) = 0.28770 -0.37949
# Poissons Ratio (z) = 0.50289 0.17407
#
# Static dielectric constant tensor:
#      x y z
#    x 1.715260 0.000000 -0.001160 
#    y 0.000000 1.701440 0.000000 
#    z -0.001160 0.000000 1.725810 
# 
# From -- ./inp_files/180925.got.cif
#   From: 2010.05.17/outbox.cif.g08.bks.cpg/sg12_91_cif.got.tgz:180925.got - 2010.06.03 13:09:07.
