data_PCOD9203920
_publ_section_title
;
Structure prediction by ZEFSAII (Michael W. Deem and Ramdas Pophale) SiO2 
 PCOD9203920
Probable space group: C 2/M
;
_chemical_formula_sum "Si O2"
_cell_formula_units_Z 50
_cell_length_a 14.503988
_cell_length_b 8.337414
_cell_length_c 25.991440
_cell_angle_alpha 90.000000
_cell_angle_beta 139.720711
_cell_angle_gamma 90.000000
_cell_volume 2032.015932
_symmetry_space_group_name_H-M "C 2/M"
_symmetry_group_IT_number 12
_symmetry_cell_setting 'monoclinic'
loop_
_space_group_symop_operation_xyz
x,y,z
-x,y,-z
-x,-y,-z
x,-y,z
1/2+x,1/2+y,z
1/2-x,1/2+y,-z
1/2-x,1/2-y,-z
1/2+x,1/2-y,z
loop_
_atom_site_type_symbol
_atom_site_label
_atom_site_fract_x
_atom_site_fract_y
_atom_site_fract_z
Si Si1 0.221880 0.685760 0.793127
Si Si2 0.468456 0.177208 0.090184
Si Si3 0.979526 0.690642 0.433030
Si Si4 0.000000 0.500000 0.000000
Si Si5 0.630070 0.682613 0.855384
Si Si6 0.077148 0.815350 0.372034
Si Si7 0.171771 0.688255 0.309591
O O1 0.203256 0.500000 0.771245
O O2 0.371012 0.755269 0.838046
O O3 0.215146 0.705398 0.852301
O O4 0.087496 0.786283 0.715372
O O5 0.369029 0.287209 0.083311
O O6 0.460224 0.000000 0.111593
O O7 0.452163 0.138017 0.022842
O O8 0.998855 0.500000 0.440258
O O9 0.079790 0.765944 0.432468
O O10 0.000000 0.749194 0.500000
O O11 0.816537 0.735174 0.350956
O O12 0.672122 0.500000 0.860862
O O13 0.465418 0.717337 0.769888
O O14 0.164847 0.711850 0.368481
O O15 0.117191 0.000000 0.382267
O O16 0.164627 0.500000 0.294845
#
# Coordination Sequence:
#
# PCOD9203920 Si02
#       7
#     8   8   8   2   8   8   8
#     4  11  21  36  62  93 120 151 195 246 297 349
#     4  10  20  40  61  83 119 156 192 237 288 339
#     4  11  24  41  59  81 116 161 205 244 294 358
#     4   8  24  40  66  80 124 158 200 232 284 344
#     4  11  21  36  62  93 120 151 195 246 297 349
#     4  11  22  38  60  89 120 152 195 249 301 349
#     4  11  22  38  60  89 120 152 195 249 301 349
#
# _framework density 24.606107000000002
#
# number of rings (size 3 to 8) (size 9 to 14) (size 15 to 20)
#    0.480    0.800    0.000    9.600    0.000    1.920 
#    0.000    2.400    0.000    0.000    0.000    0.000 
#    0.000    0.000    0.000    0.000    0.000    0.000 
#
# Total GULP energy -139681.215301 kJ/mol
# GULP energy per Si atom -5587.248612 kJ/mol
# Density = 2.455010 g / cm^3
# Si number density = 24.606107 Si / 1000 Ang^3
#
#
#
# Elastic Constant Matrix: (Units=GPa)
#
#
# Indices 1 2 3 4 5 6 
#
# 1 82.3782 -22.3106 13.6993 0.0000 -27.4323 0.0000
# 2 -22.3106 83.9276 -3.7637 0.0000 -4.8507 0.0000
# 3 13.6993 -3.7637 86.4678 0.0000 -19.9954 0.0000
# 4 0.0000 0.0000 0.0000 24.9703 0.0000 -14.5238
# 5 -27.4323 -4.8507 -19.9954 0.0000 51.1418 0.0000
# 6 0.0000 0.0000 0.0000 -14.5238 0.0000 38.0810
#
#
#
# Elastic Compliance Matrix: (Units=1/GPa)
#
#
# Indices 1 2 3 4 5 6 
#
# 1 0.016609 0.004939 -0.000273 0.000000 0.009271 0.000000
# 2 0.004939 0.013508 0.000785 0.000000 0.004238 0.000000
# 3 -0.000273 0.000785 0.012781 0.000000 0.004926 0.000000
# 4 0.000000 0.000000 0.000000 0.051464 0.000000 0.019628
# 5 0.009271 0.004238 0.004926 0.000000 0.026854 0.000000
# 6 0.000000 0.000000 0.000000 0.019628 0.000000 0.033746
#
#
# Mechanical properties :
#
#
# Convention : Reuss Voigt Hill
#
# Bulk Modulus (GPa) = 18.58655 25.33594 21.96124
# Shear Modulus (GPa) = 30.86540 40.51519 35.69029
#
# Velocity S-wave (km/s) = 3.54556 4.06217 3.81263
# Velocity P-wave (km/s) = 4.93269 5.68512 5.32222
#
# Compressibility (1/GPa) = 0.05380235
#
# Stress axis : x y z
#
# Youngs Moduli (GPa) = 60.20686 74.02968 78.23885
#
# Poissons Ratio (x) = -0.36563 0.02133
# Poissons Ratio (y) = -0.29736 -0.06145
# Poissons Ratio (z) = 0.01641 -0.05814
#
# Static dielectric constant tensor:
#      x y z
#    x 1.937220 0.000000 -0.001410 
#    y 0.000000 1.885800 0.000000 
#    z -0.001410 0.000000 2.135460 
# 
# From -- ./inp_files/338231.got.cif
#   From: 2010.05.17/outbox.cif.g08.bks.cpg/sg12_170_cif.got.tgz:338231.got - 2010.06.03 13:09:07.
