data_PCOD9203620
_publ_section_title
;
Structure prediction by ZEFSAII (Michael W. Deem and Ramdas Pophale) SiO2 
 PCOD9203620
Probable space group: C 2/M
;
_chemical_formula_sum "Si O2"
_cell_formula_units_Z 56
_cell_length_a 9.574378
_cell_length_b 28.242644
_cell_length_c 12.064152
_cell_angle_alpha 90.000000
_cell_angle_beta 55.709984
_cell_angle_gamma 90.000000
_cell_volume 2695.231422
_symmetry_space_group_name_H-M "C 2/M"
_symmetry_group_IT_number 12
_symmetry_cell_setting 'monoclinic'
loop_
_space_group_symop_operation_xyz
x,y,z
-x,y,-z
-x,-y,-z
x,-y,z
1/2+x,1/2+y,z
1/2-x,1/2+y,-z
1/2-x,1/2-y,-z
1/2+x,1/2-y,z
loop_
_atom_site_type_symbol
_atom_site_label
_atom_site_fract_x
_atom_site_fract_y
_atom_site_fract_z
Si Si1 0.323548 0.443844 0.629218
Si Si2 0.009272 0.586024 0.620760
Si Si3 0.260531 0.728528 0.117284
Si Si4 0.701727 0.945199 0.921955
Si Si5 0.703619 0.615253 0.908792
Si Si6 0.903417 0.240270 0.281289
Si Si7 0.351585 0.809822 0.486437
O O1 0.500000 0.424282 0.500000
O O2 0.347698 0.500000 0.630057
O O3 0.283830 0.426812 0.771156
O O4 0.153973 0.437515 0.631694
O O5 0.824395 0.591070 0.760840
O O6 0.000000 0.565609 0.500000
O O7 0.081871 0.639012 0.574388
O O8 0.257917 0.671600 0.110444
O O9 0.394658 0.741806 0.152395
O O10 0.089653 0.751078 0.241664
O O11 0.250000 0.750000 0.000000
O O12 0.756622 0.000000 0.919469
O O13 0.500000 0.946605 0.000000
O O14 0.741849 0.910078 0.002936
O O15 0.500000 0.610074 0.000000
O O16 0.814346 0.192557 0.362543
O O17 0.810463 0.281843 0.391564
O O18 0.500000 0.789556 0.500000
#
# Coordination Sequence:
#
# PCOD9203620 Si02
#       7
#     8   8   8   8   8   8   8
#     4  10  23  45  69  99 135 170 212 269 335 401
#     4  11  23  42  65  96 134 172 223 275 331 392
#     4  12  25  41  60  90 131 174 219 272 331 392
#     4  10  22  45  75 100 132 175 221 275 334 404
#     4  12  26  44  65  98 139 179 222 278 335 402
#     4  11  21  41  61  85 120 167 217 265 327 376
#     4  10  20  39  65  85 120 163 216 279 320 377
#
# _framework density 20.777435000000001
#
# number of rings (size 3 to 8) (size 9 to 14) (size 15 to 20)
#    0.000    1.143    4.286    2.143    2.000    2.857 
#    2.571    0.000    0.000    0.000    0.000    0.000 
#    0.000    0.000    0.000    0.000    0.000    0.000 
#
# Total GULP energy -155997.591762 kJ/mol
# GULP energy per Si atom -5571.342563 kJ/mol
# Density = 2.073014 g / cm^3
# Si number density = 20.777435 Si / 1000 Ang^3
#
#
#
# Elastic Constant Matrix: (Units=GPa)
#
#
# Indices 1 2 3 4 5 6 
#
# 1 88.9775 26.9617 32.6462 0.0000 -7.7326 0.0000
# 2 26.9617 27.4096 15.5511 0.0000 8.8857 0.0000
# 3 32.6462 15.5511 136.5905 0.0000 0.2175 0.0000
# 4 0.0000 0.0000 0.0000 23.9683 0.0000 8.2280
# 5 -7.7326 8.8857 0.2175 0.0000 53.1401 0.0000
# 6 0.0000 0.0000 0.0000 8.2280 0.0000 34.8936
#
#
#
# Elastic Compliance Matrix: (Units=1/GPa)
#
#
# Indices 1 2 3 4 5 6 
#
# 1 0.018147 -0.018434 -0.002248 0.000000 0.005732 0.000000
# 2 -0.018434 0.060113 -0.002418 0.000000 -0.012724 0.000000
# 3 -0.002248 -0.002418 0.008134 0.000000 0.000044 0.000000
# 4 0.000000 0.000000 0.000000 0.045397 0.000000 -0.010705
# 5 0.005732 -0.012724 0.000044 0.000000 0.021780 0.000000
# 6 0.000000 0.000000 0.000000 -0.010705 0.000000 0.031183
#
#
# Mechanical properties :
#
#
# Convention : Reuss Voigt Hill
#
# Bulk Modulus (GPa) = 24.87874 44.81061 34.84468
# Shear Modulus (GPa) = 20.46240 34.25497 27.35868
#
# Velocity S-wave (km/s) = 3.14162 4.06478 3.63264
# Velocity P-wave (km/s) = 5.01593 6.60633 5.86529
#
# Compressibility (1/GPa) = 0.04019496
#
# Stress axis : x y z
#
# Youngs Moduli (GPa) = 55.10403 16.63533 122.94681
#
# Poissons Ratio (x) = 0.30665 0.27636
# Poissons Ratio (y) = 1.01578 0.29727
# Poissons Ratio (z) = 0.12386 0.04022
#
# Static dielectric constant tensor:
#      x y z
#    x 1.753460 0.000000 -0.031810 
#    y 0.000000 1.738400 0.000000 
#    z -0.031810 0.000000 1.822260 
# 
# From -- ./inp_files/125616.got.cif
#   From: 2010.05.17/outbox.cif.g08.bks.cpg/sg12_63_cif.got.tgz:125616.got - 2010.06.03 13:09:07.
