data_PCOD9203316
_publ_section_title
;
Structure prediction by ZEFSAII (Michael W. Deem and Ramdas Pophale) SiO2 
 PCOD9203316
Probable space group: C 2/M
;
_chemical_formula_sum "Si O2"
_cell_formula_units_Z 40
_cell_length_a 14.694599
_cell_length_b 16.120547
_cell_length_c 9.276167
_cell_angle_alpha 90.000000
_cell_angle_beta 57.959031
_cell_angle_gamma 90.000000
_cell_volume 1862.654708
_symmetry_space_group_name_H-M "C 2/M"
_symmetry_group_IT_number 12
_symmetry_cell_setting 'monoclinic'
loop_
_space_group_symop_operation_xyz
x,y,z
-x,y,-z
-x,-y,-z
x,-y,z
1/2+x,1/2+y,z
1/2-x,1/2+y,-z
1/2-x,1/2-y,-z
1/2+x,1/2-y,z
loop_
_atom_site_type_symbol
_atom_site_label
_atom_site_fract_x
_atom_site_fract_y
_atom_site_fract_z
Si Si1 0.116453 0.588925 0.329115
Si Si2 0.089216 0.269845 0.133374
Si Si3 0.023073 0.906980 0.310872
Si Si4 0.653810 0.797467 0.759201
Si Si5 0.784961 0.876982 0.426128
O O1 0.117385 0.500000 0.248361
O O2 0.134192 0.668786 0.215906
O O3 0.203737 0.584354 0.381471
O O4 0.000000 0.598556 0.500000
O O5 0.081285 0.173643 0.192079
O O6 0.967507 0.300828 0.200378
O O7 0.150506 0.285598 0.932632
O O8 0.000000 0.890747 0.500000
O O9 0.904542 0.910790 0.339896
O O10 0.072218 0.000000 0.254284
O O11 0.727021 0.869615 0.630257
O O12 0.698856 0.713680 0.654113
#
# Coordination Sequence:
#
# PCOD9203316 Si02
#       5
#     8   8   8   8   8
#     4  11  22  37  59  90 123 159 199 244 300 360
#     4  10  20  39  61  90 122 160 196 253 302 357
#     4  10  22  40  64  91 120 159 206 253 303 359
#     4   9  20  36  61  89 118 159 204 239 305 357
#     4  10  20  39  62  88 118 161 201 247 298 366
#
# _framework density 21.474726
#
# number of rings (size 3 to 8) (size 9 to 14) (size 15 to 20)
#    0.000    2.000    2.000    1.200    5.600    0.800 
#    0.000   13.000    0.000    0.000    0.000    0.000 
#    0.000    0.000    0.000    0.000    0.000    0.000 
#
# Total GULP energy -111584.241544 kJ/mol
# GULP energy per Si atom -5579.212077 kJ/mol
# Density = 2.142585 g / cm^3
# Si number density = 21.474726 Si / 1000 Ang^3
#
#
#
# Elastic Constant Matrix: (Units=GPa)
#
#
# Indices 1 2 3 4 5 6 
#
# 1 89.8623 29.8698 25.7298 0.0000 13.5224 0.0000
# 2 29.8698 129.8269 64.7959 0.0000 15.1292 0.0000
# 3 25.7298 64.7959 108.5395 0.0000 17.4348 0.0000
# 4 0.0000 0.0000 0.0000 -36.9523 0.0000 205.1721
# 5 13.5224 15.1292 17.4348 0.0000 27.8179 0.0000
# 6 0.0000 0.0000 0.0000 205.1721 0.0000-1182.3642
#
#
#
# Elastic Compliance Matrix: (Units=1/GPa)
#
#
# Indices 1 2 3 4 5 6 
#
# 1 0.012748 -0.001799 -0.001234 0.000000 -0.004445 0.000000
# 2 -0.001799 0.011334 -0.006104 0.000000 -0.001463 0.000000
# 3 -0.001234 -0.006104 0.013922 0.000000 -0.004806 0.000000
# 4 0.000000 0.000000 0.000000 -0.741087 0.000000 -0.128599
# 5 -0.004445 -0.001463 -0.004806 0.000000 0.041917 0.000000
# 6 0.000000 0.000000 0.000000 -0.128599 0.000000 -0.023161
#
#
# Mechanical properties :
#
#
# Convention : Reuss Voigt Hill
#
# Bulk Modulus (GPa) = 50.68713 63.22443 56.95578
# Shear Modulus (GPa) = -7.58178 -224.44416 -116.01297
#
# Velocity S-wave (km/s) = -1.88102 -10.23437 -7.35801
# Velocity P-wave (km/s) = 4.35164 10.49530 6.75331
#
# Compressibility (1/GPa) = 0.01972887
#
# Stress axis : x y z
#
# Youngs Moduli (GPa) = 78.44127 88.23206 71.82918
#
# Poissons Ratio (x) = 0.15875 0.08863
# Poissons Ratio (y) = 0.14113 0.43848
# Poissons Ratio (z) = 0.09679 0.53861
#
# Static dielectric constant tensor:
#      x y z
#    x 1.797190 0.000000 -0.013320 
#    y 0.000000 1.806190 0.000000 
#    z -0.013320 0.000000 1.791870 
# 
# From -- ./inp_files/60873.got.cif
#   From: 2010.05.17/outbox.cif.g08.bks.cpg/sg12_31_cif.got.tgz:60873.got - 2010.06.03 13:09:07.
