data_PCOD9203170
_publ_section_title
;
Structure prediction by ZEFSAII (Michael W. Deem and Ramdas Pophale) SiO2 
 PCOD9203170
Probable space group: C 2/M
;
_chemical_formula_sum "Si O2"
_cell_formula_units_Z 32
_cell_length_a 8.903589
_cell_length_b 15.336240
_cell_length_c 13.938832
_cell_angle_alpha 90.000000
_cell_angle_beta 140.171290
_cell_angle_gamma 90.000000
_cell_volume 1219.062165
_symmetry_space_group_name_H-M "C 2/M"
_symmetry_group_IT_number 12
_symmetry_cell_setting 'monoclinic'
loop_
_space_group_symop_operation_xyz
x,y,z
-x,y,-z
-x,-y,-z
x,-y,z
1/2+x,1/2+y,z
1/2-x,1/2+y,-z
1/2-x,1/2-y,-z
1/2+x,1/2-y,z
loop_
_atom_site_type_symbol
_atom_site_label
_atom_site_fract_x
_atom_site_fract_y
_atom_site_fract_z
Si Si1 0.548799 0.846783 0.181966
Si Si2 0.325428 0.500000 0.006181
Si Si3 0.529879 0.687443 0.729147
Si Si4 0.216882 0.500000 0.679600
Si Si5 0.607132 0.860126 0.415790
O O1 0.478034 0.747388 0.179486
O O2 0.693468 0.874886 0.349470
O O3 0.780385 0.650456 0.824758
O O4 0.335684 0.914069 0.069326
O O5 0.504419 0.500000 0.183750
O O6 0.500000 0.500000 0.000000
O O7 0.484431 0.761320 0.624225
O O8 0.306497 0.626390 0.594267
O O9 0.128645 0.415716 0.695401
O O10 0.000000 0.500000 0.500000
#
# Coordination Sequence:
#
# PCOD9203170 Si02
#       5
#     8   4   8   4   8
#     4  10  20  38  71  95 142 176 224 278 334 413
#     4  12  22  47  65 101 133 187 227 276 348 412
#     4   9  20  35  65 105 132 177 214 283 333 396
#     4  12  26  41  69  97 130 190 228 287 334 417
#     4   9  20  35  65  96 137 170 230 268 332 397
#
# _framework density 26.249686000000001
#
# number of rings (size 3 to 8) (size 9 to 14) (size 15 to 20)
#    1.500    0.500    2.500    0.750    3.500    1.000 
#    0.000    7.500   11.000    1.500    0.000    0.000 
#    0.000    0.000    0.000    0.000    0.000    0.000 
#
# Total GULP energy -89189.402880 kJ/mol
# GULP energy per Si atom -5574.337680 kJ/mol
# Density = 2.618994 g / cm^3
# Si number density = 26.249686 Si / 1000 Ang^3
#
#
#
# Elastic Constant Matrix: (Units=GPa)
#
#
# Indices 1 2 3 4 5 6 
#
# 1 121.2061 39.3401 45.4405 0.0001 32.6945 0.0001
# 2 39.3401 71.6026 72.7463 0.0001 30.8396 0.0001
# 3 45.4405 72.7463 188.1337 0.0002 23.9081 0.0004
# 4 0.0001 0.0001 0.0002 41.5692 0.0001 28.1933
# 5 32.6945 30.8396 23.9081 0.0001 49.5374 0.0001
# 6 0.0001 0.0001 0.0004 28.1933 0.0001 22.8212
#
#
#
# Elastic Compliance Matrix: (Units=1/GPa)
#
#
# Indices 1 2 3 4 5 6 
#
# 1 0.010860 -0.003009 -0.000838 0.000000 -0.004890 0.000000
# 2 -0.003009 0.030734 -0.009565 0.000000 -0.012531 0.000001
# 3 -0.000838 -0.009565 0.008937 0.000000 0.002194 -0.000001
# 4 0.000000 0.000000 0.000000 0.148386 0.000000 -0.183316
# 5 -0.004890 -0.012531 0.002194 0.000000 0.030156 0.000000
# 6 0.000000 0.000001 -0.000001 -0.183316 0.000000 0.270287
#
#
# Mechanical properties :
#
#
# Convention : Reuss Voigt Hill
#
# Bulk Modulus (GPa) = 42.18080 77.33291 59.75685
# Shear Modulus (GPa) = 9.36175 37.67992 23.52084
#
# Velocity S-wave (km/s) = 1.89055 3.79283 2.99664
# Velocity P-wave (km/s) = 4.56832 6.97891 5.89808
#
# Compressibility (1/GPa) = 0.02370747
#
# Stress axis : x y z
#
# Youngs Moduli (GPa) = 92.07797 32.53707 111.88969
#
# Poissons Ratio (x) = 0.09792 0.09377
# Poissons Ratio (y) = 0.27710 1.07020
# Poissons Ratio (z) = 0.07717 0.31121
#
# Static dielectric constant tensor:
#      x y z
#    x 2.209770 0.000000 -0.031330 
#    y 0.000000 2.228610 0.000000 
#    z -0.031330 0.000000 2.081990 
# 
# From -- ./inp_files/311426.got.cif
#   From: 2010.05.17/outbox.cif.g08.bks.cpg/sg12_156_cif.got.tgz:311426.got - 2010.06.03 13:09:07.
