data_PCOD9203189
_publ_section_title
;
Structure prediction by ZEFSAII (Michael W. Deem and Ramdas Pophale) SiO2 
 PCOD9203189
Probable space group: C 2/M
;
_chemical_formula_sum "Si O2"
_cell_formula_units_Z 32
_cell_length_a 9.892757
_cell_length_b 10.268303
_cell_length_c 15.477267
_cell_angle_alpha 90.000000
_cell_angle_beta 78.905944
_cell_angle_gamma 90.000000
_cell_volume 1542.828599
_symmetry_space_group_name_H-M "C 2/M"
_symmetry_group_IT_number 12
_symmetry_cell_setting 'monoclinic'
loop_
_space_group_symop_operation_xyz
x,y,z
-x,y,-z
-x,-y,-z
x,-y,z
1/2+x,1/2+y,z
1/2-x,1/2+y,-z
1/2-x,1/2-y,-z
1/2+x,1/2-y,z
loop_
_atom_site_type_symbol
_atom_site_label
_atom_site_fract_x
_atom_site_fract_y
_atom_site_fract_z
Si Si1 0.035066 0.227525 0.773181
Si Si2 0.337893 0.500000 0.517062
Si Si3 0.115091 0.500000 0.180829
Si Si4 0.830160 0.223964 0.648839
Si Si5 0.085345 0.000000 0.901889
Si Si6 0.661496 0.000000 0.374735
O O1 0.184836 0.245911 0.712346
O O2 0.974611 0.367941 0.811189
O O3 0.932872 0.174876 0.710789
O O4 0.047533 0.126691 0.849687
O O5 0.500000 0.500000 0.500000
O O6 0.295965 0.626160 0.576490
O O7 0.286279 0.500000 0.426093
O O8 0.248839 0.500000 0.103682
O O9 0.180965 0.500000 0.269324
O O10 0.901570 0.356956 0.604494
O O11 0.000000 0.000000 0.000000
#
# Coordination Sequence:
#
# PCOD9203189 Si02
#       6
#     8   4   4   8   4   4
#     4  11  21  45  70  95 135 178 226 268 342 404
#     4  12  24  35  58  99 132 174 240 270 318 384
#     4  10  23  43  66  97 138 178 221 272 338 403
#     4  11  22  40  68  92 131 186 219 271 333 391
#     4  12  25  45  73 103 136 167 216 288 340 403
#     4  10  20  39  57  88 137 169 216 278 313 375
#
# _framework density 20.741123000000002
#
# number of rings (size 3 to 8) (size 9 to 14) (size 15 to 20)
#    0.000    1.000    5.000    3.750    0.000    1.000 
#    0.000   10.000    0.000    0.000    0.000    0.000 
#    0.000    0.000    0.000    0.000    0.000    0.000 
#
# Total GULP energy -89310.627438 kJ/mol
# GULP energy per Si atom -5581.914215 kJ/mol
# Density = 2.069392 g / cm^3
# Si number density = 20.741123 Si / 1000 Ang^3
#
#
#
# Elastic Constant Matrix: (Units=GPa)
#
#
# Indices 1 2 3 4 5 6 
#
# 1 106.5172 20.4343 48.6434 0.0000 -7.3756 0.0000
# 2 20.4343 158.7534 47.4688 0.0000 -14.2350 0.0000
# 3 48.6434 47.4688 92.5705 0.0000 -16.2072 0.0000
# 4 0.0000 0.0000 0.0000 48.4228 0.0000 -28.6141
# 5 -7.3756 -14.2350 -16.2072 0.0000 27.1417 0.0000
# 6 0.0000 0.0000 0.0000 -28.6141 0.0000 89.5620
#
#
#
# Elastic Compliance Matrix: (Units=1/GPa)
#
#
# Indices 1 2 3 4 5 6 
#
# 1 0.012381 0.000394 -0.006793 0.000000 -0.000485 0.000000
# 2 0.000394 0.007533 -0.003752 0.000000 0.001818 0.000000
# 3 -0.006793 -0.003752 0.017453 0.000000 0.006608 0.000000
# 4 0.000000 0.000000 0.000000 0.025458 0.000000 0.008133
# 5 -0.000485 0.001818 0.006608 0.000000 0.041611 0.000000
# 6 0.000000 0.000000 0.000000 0.008133 0.000000 0.013764
#
#
# Mechanical properties :
#
#
# Convention : Reuss Voigt Hill
#
# Bulk Modulus (GPa) = 58.59649 65.65934 62.12791
# Shear Modulus (GPa) = 34.67655 49.11161 41.89408
#
# Velocity S-wave (km/s) = 4.09329 4.87132 4.49916
# Velocity P-wave (km/s) = 7.11707 7.96022 7.55042
#
# Compressibility (1/GPa) = 0.01706587
#
# Stress axis : x y z
#
# Youngs Moduli (GPa) = 80.76814 132.74678 57.29731
#
# Poissons Ratio (x) = -0.05230 0.38922
# Poissons Ratio (y) = -0.03182 0.21496
# Poissons Ratio (z) = 0.54865 0.49802
#
# Static dielectric constant tensor:
#      x y z
#    x 1.738900 0.000000 -0.027520 
#    y 0.000000 1.785660 0.000000 
#    z -0.027520 0.000000 1.725590 
# 
# From -- ./inp_files/193154.got.cif
#   From: 2010.05.17/outbox.cif.g08.bks.cpg/sg12_97_cif.got.tgz:193154.got - 2010.06.03 13:09:07.
