data_PCOD9203344
_publ_section_title
;
Structure prediction by ZEFSAII (Michael W. Deem and Ramdas Pophale) SiO2 
 PCOD9203344
Probable space group: C 2/M
;
_chemical_formula_sum "Si O2"
_cell_formula_units_Z 40
_cell_length_a 14.334550
_cell_length_b 9.633457
_cell_length_c 14.759909
_cell_angle_alpha 90.000000
_cell_angle_beta 89.308231
_cell_angle_gamma 90.000000
_cell_volume 2038.066038
_symmetry_space_group_name_H-M "C 2/M"
_symmetry_group_IT_number 12
_symmetry_cell_setting 'monoclinic'
loop_
_space_group_symop_operation_xyz
x,y,z
-x,y,-z
-x,-y,-z
x,-y,z
1/2+x,1/2+y,z
1/2-x,1/2+y,-z
1/2-x,1/2-y,-z
1/2+x,1/2-y,z
loop_
_atom_site_type_symbol
_atom_site_label
_atom_site_fract_x
_atom_site_fract_y
_atom_site_fract_z
Si Si1 0.677914 0.500000 0.833472
Si Si2 0.671288 0.756833 0.163216
Si Si3 0.295045 0.500000 0.512986
Si Si4 0.932942 0.000000 0.345989
Si Si5 0.289892 0.500000 0.968566
Si Si6 0.399394 0.296649 0.642344
Si Si7 0.913185 0.500000 0.935299
Si Si8 0.907081 0.500000 0.559871
O O1 0.741865 0.361886 0.821053
O O2 0.600414 0.500000 0.757224
O O3 0.649324 0.500000 0.939571
O O4 0.693401 0.637938 0.090123
O O5 0.640518 0.686279 0.256651
O O6 0.592625 0.861660 0.125643
O O7 0.345557 0.500000 0.414712
O O8 0.332524 0.369542 0.569987
O O9 0.185121 0.500000 0.500899
O O10 0.000025 0.130440 0.365253
O O11 0.183337 0.500000 0.006100
O O12 0.405015 0.135780 0.621108
O O13 0.000000 0.500000 0.000000
O O14 0.000000 0.500000 0.500000
#
# Coordination Sequence:
#
# PCOD9203344 Si02
#       8
#     4   8   4   4   4   8   4   4
#     4  10  21  39  60  84 118 163 198 239 300 356
#     4  10  21  39  60  86 120 158 197 244 296 353
#     4  11  23  43  63  84 120 162 194 241 300 356
#     4  11  23  41  63  87 119 161 200 240 296 360
#     4  10  20  39  62  85 114 158 203 241 293 355
#     4  11  23  40  61  91 122 155 198 245 295 357
#     4  10  21  38  58  85 120 158 197 248 299 347
#     4  12  24  40  63  91 118 154 201 249 296 350
#
# _framework density 19.626449999999998
#
# number of rings (size 3 to 8) (size 9 to 14) (size 15 to 20)
#    0.000    1.600    0.000    9.000    0.000    4.800 
#    0.000    4.500    0.000    0.000    0.000    0.000 
#    0.000    0.000    0.000    0.000    0.000    0.000 
#
# Total GULP energy -111787.710610 kJ/mol
# GULP energy per Si atom -5589.385531 kJ/mol
# Density = 1.958178 g / cm^3
# Si number density = 19.626450 Si / 1000 Ang^3
#
#
#
# Elastic Constant Matrix: (Units=GPa)
#
#
# Indices 1 2 3 4 5 6 
#
# 1 96.8883 25.4185 48.0463 0.0000 22.5261 0.0000
# 2 25.4185 117.9545 28.4999 0.0000 10.5058 0.0000
# 3 48.0463 28.4999 119.9105 0.0000 0.8559 0.0000
# 4 0.0000 0.0000 0.0000 57.7924 0.0000 -15.4769
# 5 22.5261 10.5058 0.8559 0.0000 44.6054 0.0000
# 6 0.0000 0.0000 0.0000 -15.4769 0.0000 3.6753
#
#
#
# Elastic Compliance Matrix: (Units=1/GPa)
#
#
# Indices 1 2 3 4 5 6 
#
# 1 0.015179 -0.001238 -0.005736 0.000000 -0.007264 0.000000
# 2 -0.001238 0.009292 -0.001701 0.000000 -0.001531 0.000000
# 3 -0.005736 -0.001701 0.011020 0.000000 0.003086 0.000000
# 4 0.000000 0.000000 0.000000 -0.135472 0.000000 -0.570476
# 5 -0.007264 -0.001531 0.003086 0.000000 0.026388 0.000000
# 6 0.000000 0.000000 0.000000 -0.570476 0.000000 -2.130210
#
#
# Mechanical properties :
#
#
# Convention : Reuss Voigt Hill
#
# Bulk Modulus (GPa) = 55.12556 59.85363 57.48960
# Shear Modulus (GPa) = -2.29315 36.73386 17.22035
#
# Velocity S-wave (km/s) = -1.08210 4.33095 2.96532
# Velocity P-wave (km/s) = 5.15627 7.45467 6.40934
#
# Compressibility (1/GPa) = 0.01814040
#
# Stress axis : x y z
#
# Youngs Moduli (GPa) = 65.87929 107.61837 90.74202
#
# Poissons Ratio (x) = 0.13325 0.52049
# Poissons Ratio (y) = 0.08157 0.15440
# Poissons Ratio (z) = 0.37788 0.18311
#
# Static dielectric constant tensor:
#      x y z
#    x 1.670790 0.000000 -0.004570 
#    y 0.000000 1.665890 0.000000 
#    z -0.004570 0.000000 1.691460 
# 
# From -- ./inp_files/211429.got.cif
#   From: 2010.05.17/outbox.cif.g08.bks.cpg/sg12_106_cif.got.tgz:211429.got - 2010.06.03 13:09:07.
