data_PCOD9203800
_publ_section_title
;
Structure prediction by ZEFSAII (Michael W. Deem and Ramdas Pophale) SiO2 
 PCOD9203800
Probable space group: C 2/M
;
_chemical_formula_sum "Si O2"
_cell_formula_units_Z 34
_cell_length_a 8.728069
_cell_length_b 16.555181
_cell_length_c 10.132152
_cell_angle_alpha 90.000000
_cell_angle_beta 78.802198
_cell_angle_gamma 90.000000
_cell_volume 1436.171331
_symmetry_space_group_name_H-M "C 2/M"
_symmetry_group_IT_number 12
_symmetry_cell_setting 'monoclinic'
loop_
_space_group_symop_operation_xyz
x,y,z
-x,y,-z
-x,-y,-z
x,-y,z
1/2+x,1/2+y,z
1/2-x,1/2+y,-z
1/2-x,1/2-y,-z
1/2+x,1/2-y,z
loop_
_atom_site_type_symbol
_atom_site_label
_atom_site_fract_x
_atom_site_fract_y
_atom_site_fract_z
Si Si1 0.678156 0.859995 0.104551
Si Si2 0.000000 0.500000 0.000000
Si Si3 0.485760 0.704989 0.169620
Si Si4 0.114057 0.092512 0.363935
Si Si5 0.941753 0.343862 0.363512
O O1 0.599771 0.772729 0.087955
O O2 0.857866 0.845010 0.109655
O O3 0.581753 0.882875 0.254221
O O4 0.630930 0.927988 0.008610
O O5 0.589519 0.644697 0.237747
O O6 0.396886 0.761561 0.292908
O O7 0.290518 0.100802 0.383930
O O8 0.000000 0.121048 0.500000
O O9 0.075180 0.000000 0.342350
O O10 0.000000 0.327427 0.500000
#
# Coordination Sequence:
#
# PCOD9203800 Si02
#       5
#     8   2   8   8   8
#     4  10  24  42  71  95 130 171 215 280 327 395
#     4  12  28  48  66 102 126 160 234 288 338 372
#     4  10  20  42  65  97 126 178 217 258 334 390
#     4  11  23  35  58 100 147 177 212 261 317 395
#     4  10  20  39  67  97 134 177 215 255 327 398
#
# _framework density 23.674056
#
# number of rings (size 3 to 8) (size 9 to 14) (size 15 to 20)
#    1.412    0.235    2.353    2.118    3.294    4.235 
#    0.000    0.000    0.000    2.824    0.000    0.000 
#    0.000    0.000    0.000    0.000    0.000    0.000 
#
# Total GULP energy -94741.058791 kJ/mol
# GULP energy per Si atom -5573.003458 kJ/mol
# Density = 2.362017 g / cm^3
# Si number density = 23.674056 Si / 1000 Ang^3
#
#
#
# Elastic Constant Matrix: (Units=GPa)
#
#
# Indices 1 2 3 4 5 6 
#
# 1 167.2622 42.4337 42.7517 0.0000 16.7562 0.0000
# 2 42.4337 129.4800 31.0126 0.0000 19.4256 0.0000
# 3 42.7517 31.0126 53.6961 0.0000 14.8384 0.0000
# 4 0.0000 0.0000 0.0000 4.0731 0.0000 20.3712
# 5 16.7562 19.4256 14.8384 0.0000 49.2980 0.0000
# 6 0.0000 0.0000 0.0000 20.3712 0.0000 10.5720
#
#
#
# Elastic Compliance Matrix: (Units=1/GPa)
#
#
# Indices 1 2 3 4 5 6 
#
# 1 0.007682 -0.001167 -0.005288 0.000000 -0.000560 0.000000
# 2 -0.001167 0.009355 -0.003888 0.000000 -0.002119 0.000000
# 3 -0.005288 -0.003888 0.026351 0.000000 -0.004602 0.000000
# 4 0.000000 0.000000 0.000000 -0.028425 0.000000 0.054772
# 5 -0.000560 -0.002119 -0.004602 0.000000 0.022695 0.000000
# 6 0.000000 0.000000 0.000000 0.054772 0.000000 -0.010951
#
#
# Mechanical properties :
#
#
# Convention : Reuss Voigt Hill
#
# Bulk Modulus (GPa) = 44.04925 64.75938 54.40431
# Shear Modulus (GPa) = 90.97489 28.40463 59.68976
#
# Velocity S-wave (km/s) = 6.20576 3.46760 5.02672
# Velocity P-wave (km/s) = 8.36634 6.59138 7.53133
#
# Compressibility (1/GPa) = 0.02270186
#
# Stress axis : x y z
#
# Youngs Moduli (GPa) = 130.16840 106.89555 37.94981
#
# Poissons Ratio (x) = 0.12477 0.20067
# Poissons Ratio (y) = 0.15194 0.14755
# Poissons Ratio (z) = 0.68830 0.41562
#
# Static dielectric constant tensor:
#      x y z
#    x 1.856050 0.000000 -0.073890 
#    y 0.000000 1.866950 0.000000 
#    z -0.073890 0.000000 2.023700 
# 
# From -- ./inp_files/193761.got.cif
#   From: 2010.05.17/outbox.cif.g08.bks.cpg/sg12_97_cif.got.tgz:193761.got - 2010.06.03 13:09:07.
