data_PCOD9203152
_publ_section_title
;
Structure prediction by ZEFSAII (Michael W. Deem and Ramdas Pophale) SiO2 
 PCOD9203152
Probable space group: C 2/M
;
_chemical_formula_sum "Si O2"
_cell_formula_units_Z 56
_cell_length_a 18.339149
_cell_length_b 15.439893
_cell_length_c 15.349958
_cell_angle_alpha 90.000000
_cell_angle_beta 35.117853
_cell_angle_gamma 90.000000
_cell_volume 2500.316290
_symmetry_space_group_name_H-M "C 2/M"
_symmetry_group_IT_number 12
_symmetry_cell_setting 'monoclinic'
loop_
_space_group_symop_operation_xyz
x,y,z
-x,y,-z
-x,-y,-z
x,-y,z
1/2+x,1/2+y,z
1/2-x,1/2+y,-z
1/2-x,1/2-y,-z
1/2+x,1/2-y,z
loop_
_atom_site_type_symbol
_atom_site_label
_atom_site_fract_x
_atom_site_fract_y
_atom_site_fract_z
Si Si1 0.103111 0.236660 0.646746
Si Si2 0.732279 0.866819 0.950539
Si Si3 0.295642 0.898448 0.725324
Si Si4 0.521958 0.090750 0.289476
Si Si5 0.386950 0.324301 0.955567
Si Si6 0.649924 0.902796 0.843018
Si Si7 0.873901 0.220316 0.564130
O O1 0.250000 0.250000 0.500000
O O2 0.075657 0.194299 0.580197
O O3 0.053549 0.332501 0.678134
O O4 0.035006 0.197103 0.797868
O O5 0.635194 0.911767 0.110202
O O6 0.690356 0.766758 0.972600
O O7 0.853674 0.866849 0.894398
O O8 0.716348 0.908046 0.872691
O O9 0.410108 0.893085 0.684558
O O10 0.327713 0.820846 0.626363
O O11 0.289137 0.000000 0.703315
O O12 0.169878 0.874326 0.906003
O O13 0.451928 0.000000 0.362388
O O14 0.745928 0.836121 0.703491
O O15 0.646693 0.000000 0.806969
O O16 0.500000 0.875826 0.000000
O O17 0.000000 0.206756 0.500000
#
# Coordination Sequence:
#
# PCOD9203152 Si02
#       7
#     8   8   8   8   8   8   8
#     4  11  24  38  59  88 128 176 209 250 329 394
#     4   9  16  33  63  86 114 150 201 262 309 354
#     4  10  20  38  69 100 123 161 216 270 321 384
#     4   9  18  34  60  92 118 149 203 259 310 374
#     4   9  18  37  62  91 118 162 213 260 305 377
#     4  11  25  41  62  92 123 167 221 268 318 382
#     4  12  24  42  64  97 136 172 206 274 336 387
#
# _framework density 22.397167
#
# number of rings (size 3 to 8) (size 9 to 14) (size 15 to 20)
#    0.000    1.857    2.857    2.143    4.000    1.714 
#    0.000    1.429    0.000    3.000    0.000    0.000 
#    0.000    0.000    0.000    0.000    0.000    0.000 
#
# Total GULP energy -155878.999809 kJ/mol
# GULP energy per Si atom -5567.107136 kJ/mol
# Density = 2.234619 g / cm^3
# Si number density = 22.397167 Si / 1000 Ang^3
#
#
#
# Elastic Constant Matrix: (Units=GPa)
#
#
# Indices 1 2 3 4 5 6 
#
# 1 13.6882 -3.0905 7.5935 0.0000 -0.8794 0.0000
# 2 -3.0905 110.8979 57.4052 0.0000 -3.6860 0.0000
# 3 7.5935 57.4052 136.9973 0.0000 -14.9796 0.0000
# 4 0.0000 0.0000 0.0000 -2.8870 0.0000 1.3029
# 5 -0.8794 -3.6860 -14.9796 0.0000 33.0975 0.0000
# 6 0.0000 0.0000 0.0000 1.3029 0.0000 -1.0948
#
#
#
# Elastic Compliance Matrix: (Units=1/GPa)
#
#
# Indices 1 2 3 4 5 6 
#
# 1 0.078041 0.005647 -0.006729 0.000000 -0.000343 0.000000
# 2 0.005647 0.011952 -0.005428 0.000000 -0.000975 0.000000
# 3 -0.006729 -0.005428 0.010375 0.000000 0.003912 0.000000
# 4 0.000000 0.000000 0.000000 -0.748192 0.000000 -0.890384
# 5 -0.000343 -0.000975 0.003912 0.000000 0.031867 -0.000001
# 6 0.000000 0.000000 0.000000 -0.890384 -0.000001 -1.973001
#
#
# Mechanical properties :
#
#
# Convention : Reuss Voigt Hill
#
# Bulk Modulus (GPa) = 11.44857 42.82221 27.13539
# Shear Modulus (GPa) = -1.96323 19.13482 8.58579
#
# Velocity S-wave (km/s) = -0.93726 2.92608 1.96004
# Velocity P-wave (km/s) = 1.98782 5.52964 4.15502
#
# Compressibility (1/GPa) = 0.08734714
#
# Stress axis : x y z
#
# Youngs Moduli (GPa) = 12.81372 83.66883 96.38985
#
# Poissons Ratio (x) = -0.47246 0.64864
# Poissons Ratio (y) = -0.07236 0.52318
# Poissons Ratio (z) = 0.08623 0.45414
#
# Static dielectric constant tensor:
#      x y z
#    x 2.035180 0.000000 -0.090160 
#    y 0.000000 1.851820 0.000000 
#    z -0.090160 0.000000 1.949190 
# 
# From -- ./inp_files/284482.got.cif
#   From: 2010.05.17/outbox.cif.g08.bks.cpg/sg12_143_cif.got.tgz:284482.got - 2010.06.03 13:09:07.
