data_PCOD9203539
_publ_section_title
;
Structure prediction by ZEFSAII (Michael W. Deem and Ramdas Pophale) SiO2 
 PCOD9203539
Probable space group: C 2/M
;
_chemical_formula_sum "Si O2"
_cell_formula_units_Z 48
_cell_length_a 11.269660
_cell_length_b 19.820476
_cell_length_c 10.827138
_cell_angle_alpha 90.000000
_cell_angle_beta 101.555700
_cell_angle_gamma 90.000000
_cell_volume 2369.436977
_symmetry_space_group_name_H-M "C 2/M"
_symmetry_group_IT_number 12
_symmetry_cell_setting 'monoclinic'
loop_
_space_group_symop_operation_xyz
x,y,z
-x,y,-z
-x,-y,-z
x,-y,z
1/2+x,1/2+y,z
1/2-x,1/2+y,-z
1/2-x,1/2-y,-z
1/2+x,1/2-y,z
loop_
_atom_site_type_symbol
_atom_site_label
_atom_site_fract_x
_atom_site_fract_y
_atom_site_fract_z
Si Si1 0.188243 0.222523 0.224018
Si Si2 0.417450 0.140969 0.203702
Si Si3 0.119108 0.500000 0.937017
Si Si4 0.385730 0.642828 0.568899
Si Si5 0.500000 0.760587 0.000000
Si Si6 0.686291 0.864980 0.322957
Si Si7 0.538004 0.500000 0.362326
Si Si8 0.225473 0.000000 0.795220
O O1 0.304965 0.175531 0.246544
O O2 0.113354 0.201081 0.329537
O O3 0.220807 0.301083 0.244770
O O4 0.105109 0.216989 0.085649
O O5 0.385219 0.067394 0.144964
O O6 0.447778 0.190375 0.094801
O O7 0.541505 0.136078 0.307005
O O8 0.230915 0.500000 0.055092
O O9 0.000000 0.500000 0.000000
O O10 0.500000 0.648719 0.500000
O O11 0.264539 0.643135 0.462298
O O12 0.393476 0.570329 0.638314
O O13 0.722714 0.933870 0.262340
O O14 0.500000 0.500000 0.500000
O O15 0.417776 0.500000 0.255775
#
# Coordination Sequence:
#
# PCOD9203539 Si02
#       8
#     8   8   4   8   4   8   4   4
#     4  11  26  40  64  97 134 164 209 273 319 383
#     4  11  23  41  63  96 129 170 211 264 324 375
#     4  12  20  37  64  93 127 166 217 254 307 392
#     4  11  23  42  66  96 124 168 217 263 318 381
#     4  10  22  43  64  87 128 174 216 258 320 379
#     4  11  22  39  66  93 127 166 213 264 316 381
#     4  10  20  39  64  87 120 161 216 262 297 383
#     4  12  20  38  68  96 116 176 216 257 313 376
#
# _framework density 20.257975999999999
#
# number of rings (size 3 to 8) (size 9 to 14) (size 15 to 20)
#    0.000    1.000    5.833    2.000    4.667    2.667 
#    0.000    0.000    0.000    5.000    0.000    0.000 
#    0.000    0.000    0.000    0.000    0.000    0.000 
#
# Total GULP energy -134150.008819 kJ/mol
# GULP energy per Si atom -5589.583701 kJ/mol
# Density = 2.021187 g / cm^3
# Si number density = 20.257976 Si / 1000 Ang^3
#
#
#
# Elastic Constant Matrix: (Units=GPa)
#
#
# Indices 1 2 3 4 5 6 
#
# 1 73.7268 22.4510 53.2342 0.0000 29.4756 0.0000
# 2 22.4510 99.2216 33.9198 0.0000 9.3685 0.0000
# 3 53.2342 33.9198 93.4988 0.0000 51.8333 0.0000
# 4 0.0000 0.0000 0.0000 20.5792 0.0000 10.8857
# 5 29.4756 9.3685 51.8333 0.0000 52.0569 0.0000
# 6 0.0000 0.0000 0.0000 10.8857 0.0000 16.8093
#
#
#
# Elastic Compliance Matrix: (Units=1/GPa)
#
#
# Indices 1 2 3 4 5 6 
#
# 1 0.023095 -0.000868 -0.012659 0.000000 -0.000316 0.000000
# 2 -0.000868 0.012067 -0.006589 0.000000 0.004881 0.000000
# 3 -0.012659 -0.006589 0.034960 0.000000 -0.026456 0.000000
# 4 0.000000 0.000000 0.000000 0.073912 0.000000 -0.047865
# 5 -0.000316 0.004881 -0.026456 0.000000 0.044852 0.000000
# 6 0.000000 0.000000 0.000000 -0.047865 0.000000 0.090488
#
#
# Mechanical properties :
#
#
# Convention : Reuss Voigt Hill
#
# Bulk Modulus (GPa) = 33.45791 53.96192 43.70992
# Shear Modulus (GPa) = 15.17136 28.34522 21.75829
#
# Velocity S-wave (km/s) = 2.73959 3.74466 3.28084
# Velocity P-wave (km/s) = 5.15353 6.73735 5.99795
#
# Compressibility (1/GPa) = 0.02988830
#
# Stress axis : x y z
#
# Youngs Moduli (GPa) = 43.29996 82.87367 28.60433
#
# Poissons Ratio (x) = 0.07195 0.36211
# Poissons Ratio (y) = 0.03759 0.18847
# Poissons Ratio (z) = 0.54814 0.54605
#
# Static dielectric constant tensor:
#      x y z
#    x 1.730700 0.000000 0.013030 
#    y 0.000000 1.728330 0.000000 
#    z 0.013030 0.000000 1.701820 
# 
# From -- ./inp_files/131825.got.cif
#   From: 2010.05.17/outbox.cif.g08.bks.cpg/sg12_66_cif.got.tgz:131825.got - 2010.06.03 13:09:07.
