data_PCOD9203840
_publ_section_title
;
Structure prediction by ZEFSAII (Michael W. Deem and Ramdas Pophale) SiO2 
 PCOD9203840
Probable space group: C 2/M
;
_chemical_formula_sum "Si O2"
_cell_formula_units_Z 48
_cell_length_a 7.454710
_cell_length_b 21.364766
_cell_length_c 17.111639
_cell_angle_alpha 90.000000
_cell_angle_beta 128.841335
_cell_angle_gamma 90.000000
_cell_volume 2122.727467
_symmetry_space_group_name_H-M "C 2/M"
_symmetry_group_IT_number 12
_symmetry_cell_setting 'monoclinic'
loop_
_space_group_symop_operation_xyz
x,y,z
-x,y,-z
-x,-y,-z
x,-y,z
1/2+x,1/2+y,z
1/2-x,1/2+y,-z
1/2-x,1/2-y,-z
1/2+x,1/2-y,z
loop_
_atom_site_type_symbol
_atom_site_label
_atom_site_fract_x
_atom_site_fract_y
_atom_site_fract_z
Si Si1 0.766840 0.176422 0.485077
Si Si2 0.894065 0.074995 0.650871
Si Si3 0.689734 0.850465 0.735890
Si Si4 0.560140 0.930389 0.205737
Si Si5 0.570407 0.696298 0.930969
Si Si6 0.809858 0.934368 0.019330
O O1 0.750000 0.250000 0.500000
O O2 0.462825 0.168069 0.627689
O O3 0.000000 0.166391 0.500000
O O4 0.781045 0.123992 0.557737
O O5 0.170239 0.083621 0.720487
O O6 0.812668 0.099636 0.712884
O O7 0.844204 0.000000 0.625270
O O8 0.593964 0.883146 0.787194
O O9 0.858731 0.794798 0.812989
O O10 0.439763 0.932365 0.088909
O O11 0.533014 0.000000 0.233273
O O12 0.500000 0.682367 0.000000
O O13 0.750000 0.750000 0.000000
O O14 0.667642 0.629949 0.928604
O O15 0.839278 0.000000 0.071672
O O16 0.000000 0.937770 0.000000
#
# Coordination Sequence:
#
# PCOD9203840 Si02
#       6
#     8   8   8   8   8   8
#     4  12  27  48  73 106 147 195 247 300 367 441
#     4  11  26  46  73 114 150 187 249 307 365 445
#     4  12  24  45  73 102 143 195 236 300 369 437
#     4  10  20  39  70 103 140 184 231 292 357 427
#     4  11  25  43  66 104 140 187 241 297 366 434
#     4   9  17  35  64  93 129 177 230 282 344 421
#
# _framework density 22.612417000000001
#
# number of rings (size 3 to 8) (size 9 to 14) (size 15 to 20)
#    0.000    1.167    5.000    2.000    0.000    8.333 
#    0.000    0.000    0.000    3.500    0.000    0.000 
#    0.000    0.000    0.000    0.000    0.000    0.000 
#
# Total GULP energy -133849.723367 kJ/mol
# GULP energy per Si atom -5577.071807 kJ/mol
# Density = 2.256095 g / cm^3
# Si number density = 22.612417 Si / 1000 Ang^3
#
#
#
# Elastic Constant Matrix: (Units=GPa)
#
#
# Indices 1 2 3 4 5 6 
#
# 1 82.0118 45.1759 34.3936 0.0000 12.2309 0.0000
# 2 45.1759 140.5807 64.5452 0.0000 18.4053 0.0000
# 3 34.3936 64.5452 159.5751 0.0000 42.6365 0.0000
# 4 0.0000 0.0000 0.0000 30.6062 0.0000 14.7533
# 5 12.2309 18.4053 42.6365 0.0000 31.3253 0.0000
# 6 0.0000 0.0000 0.0000 14.7533 0.0000 18.7083
#
#
#
# Elastic Compliance Matrix: (Units=1/GPa)
#
#
# Indices 1 2 3 4 5 6 
#
# 1 0.015224 -0.004137 -0.001052 0.000000 -0.002082 0.000000
# 2 -0.004137 0.009865 -0.003114 0.000000 0.000057 0.000000
# 3 -0.001052 -0.003114 0.011243 0.000000 -0.013062 0.000000
# 4 0.000000 0.000000 0.000000 0.052710 0.000000 -0.041567
# 5 -0.002082 0.000057 -0.013062 0.000000 0.050481 0.000000
# 6 0.000000 0.000000 0.000000 -0.041567 0.000000 0.086232
#
#
# Mechanical properties :
#
#
# Convention : Reuss Voigt Hill
#
# Bulk Modulus (GPa) = 50.69199 74.48855 62.59027
# Shear Modulus (GPa) = 20.08563 31.99818 26.04190
#
# Velocity S-wave (km/s) = 2.98360 3.76582 3.39730
# Velocity P-wave (km/s) = 5.85966 7.20566 6.56723
#
# Compressibility (1/GPa) = 0.01972698
#
# Stress axis : x y z
#
# Youngs Moduli (GPa) = 65.68746 101.36985 88.94489
#
# Poissons Ratio (x) = 0.41934 0.09354
# Poissons Ratio (y) = 0.27173 0.27696
# Poissons Ratio (z) = 0.06908 0.31565
#
# Static dielectric constant tensor:
#      x y z
#    x 1.293370 0.000000 -0.306220 
#    y 0.000000 2.150630 0.000000 
#    z -0.306220 0.000000 1.749480 
# 
# From -- ./inp_files/259033.got.cif
#   From: 2010.05.17/outbox.cif.g08.bks.cpg/sg12_130_cif.got.tgz:259033.got - 2010.06.03 13:09:07.
