data_PCOD9203956
_publ_section_title
;
Structure prediction by ZEFSAII (Michael W. Deem and Ramdas Pophale) SiO2 
 PCOD9203956
Probable space group: C 2/M
;
_chemical_formula_sum "Si O2"
_cell_formula_units_Z 56
_cell_length_a 28.770221
_cell_length_b 22.838829
_cell_length_c 8.486453
_cell_angle_alpha 90.000000
_cell_angle_beta 26.709350
_cell_angle_gamma 90.000000
_cell_volume 2506.333781
_symmetry_space_group_name_H-M "C 2/M"
_symmetry_group_IT_number 12
_symmetry_cell_setting 'monoclinic'
loop_
_space_group_symop_operation_xyz
x,y,z
-x,y,-z
-x,-y,-z
x,-y,z
1/2+x,1/2+y,z
1/2-x,1/2+y,-z
1/2-x,1/2-y,-z
1/2+x,1/2-y,z
loop_
_atom_site_type_symbol
_atom_site_label
_atom_site_fract_x
_atom_site_fract_y
_atom_site_fract_z
Si Si1 0.828056 0.934913 0.128871
Si Si2 0.951891 0.186277 0.802232
Si Si3 0.339881 0.670111 0.635310
Si Si4 0.115420 0.734351 0.725520
Si Si5 0.934236 0.566852 0.554473
Si Si6 0.175430 0.375948 0.380787
Si Si7 0.788666 0.937766 0.605491
O O1 0.744122 0.927645 0.245385
O O2 0.773905 0.934227 0.463765
O O3 0.878273 0.000000 0.962551
O O4 0.897502 0.875581 0.921014
O O5 0.000000 0.214203 0.500000
O O6 0.051668 0.173274 0.605577
O O7 0.885108 0.232630 0.105559
O O8 0.317994 0.726878 0.597249
O O9 0.350296 0.617148 0.480832
O O10 0.250095 0.657332 0.031483
O O11 0.150113 0.667769 0.600607
O O12 0.000000 0.736182 0.000000
O O13 0.971399 0.500000 0.412695
O O14 0.921041 0.601867 0.431534
O O15 0.000000 0.592872 0.500000
O O16 0.819164 0.563216 0.975496
O O17 0.840975 0.000000 0.481971
#
# Coordination Sequence:
#
# PCOD9203956 Si02
#       7
#     8   8   8   8   8   8   8
#     4  11  23  39  61  95 132 170 216 264 320 382
#     4  11  22  42  61  92 133 167 212 267 316 382
#     4  10  20  40  62  87 125 166 210 262 314 379
#     4  10  23  41  63  88 125 166 217 266 313 380
#     4   9  19  38  64  92 128 168 209 263 326 383
#     4  11  22  39  63  94 128 167 213 263 316 376
#     4   9  19  36  59  89 124 167 212 255 314 386
#
# _framework density 22.343392000000001
#
# number of rings (size 3 to 8) (size 9 to 14) (size 15 to 20)
#    0.000    1.857    2.857    0.857    0.000    3.143 
#    0.000    5.714    0.000    4.286    0.000    0.000 
#    0.000    1.714    0.000    0.000    0.000    0.000 
#
# Total GULP energy -156248.267405 kJ/mol
# GULP energy per Si atom -5580.295264 kJ/mol
# Density = 2.229254 g / cm^3
# Si number density = 22.343392 Si / 1000 Ang^3
#
#
#
# Elastic Constant Matrix: (Units=GPa)
#
#
# Indices 1 2 3 4 5 6 
#
# 1 104.5453 42.8151 14.8337 0.0000 4.9660 0.0000
# 2 42.8151 98.1476 28.1952 0.0000 10.3962 0.0000
# 3 14.8337 28.1952 29.0786 0.0000 19.8481 0.0000
# 4 0.0000 0.0000 0.0000 19.1293 0.0000 -5.3653
# 5 4.9660 10.3962 19.8481 0.0000 31.1564 0.0000
# 6 0.0000 0.0000 0.0000 -5.3653 0.0000 23.1021
#
#
#
# Elastic Compliance Matrix: (Units=1/GPa)
#
#
# Indices 1 2 3 4 5 6 
#
# 1 0.011709 -0.004559 -0.002330 0.000000 0.001139 0.000000
# 2 -0.004559 0.016844 -0.018873 0.000000 0.007129 0.000000
# 3 -0.002330 -0.018873 0.087275 0.000000 -0.048930 0.000000
# 4 0.000000 0.000000 0.000000 0.055918 0.000000 0.012987
# 5 0.001139 0.007129 -0.048930 0.000000 0.060706 0.000000
# 6 0.000000 0.000000 0.000000 0.012987 0.000000 0.046302
#
#
# Mechanical properties :
#
#
# Convention : Reuss Voigt Hill
#
# Bulk Modulus (GPa) = 15.55096 44.82881 30.18989
# Shear Modulus (GPa) = 14.21613 24.40607 19.31110
#
# Velocity S-wave (km/s) = 2.52515 3.30861 2.94306
# Velocity P-wave (km/s) = 3.93407 5.89092 5.00899
#
# Compressibility (1/GPa) = 0.06430471
#
# Stress axis : x y z
#
# Youngs Moduli (GPa) = 85.40563 59.36829 11.45799
#
# Poissons Ratio (x) = 0.27066 0.02670
# Poissons Ratio (y) = 0.38937 0.21624
# Poissons Ratio (z) = 0.19900 1.12043
#
# Static dielectric constant tensor:
#      x y z
#    x 1.879650 0.000000 0.012910 
#    y 0.000000 1.875620 0.000000 
#    z 0.012910 0.000000 1.834530 
# 
# From -- ./inp_files/113340.got.cif
#   From: 2010.05.17/outbox.cif.g08.bks.cpg/sg12_57_cif.got.tgz:113340.got - 2010.06.03 13:09:07.
