data_PCOD9203637
_publ_section_title
;
Structure prediction by ZEFSAII (Michael W. Deem and Ramdas Pophale) SiO2 
 PCOD9203637
Probable space group: C 2/M
;
_chemical_formula_sum "Si O2"
_cell_formula_units_Z 40
_cell_length_a 12.781653
_cell_length_b 19.059815
_cell_length_c 10.714661
_cell_angle_alpha 90.000000
_cell_angle_beta 47.984893
_cell_angle_gamma 90.000000
_cell_volume 1939.342278
_symmetry_space_group_name_H-M "C 2/M"
_symmetry_group_IT_number 12
_symmetry_cell_setting 'monoclinic'
loop_
_space_group_symop_operation_xyz
x,y,z
-x,y,-z
-x,-y,-z
x,-y,z
1/2+x,1/2+y,z
1/2-x,1/2+y,-z
1/2-x,1/2-y,-z
1/2+x,1/2-y,z
loop_
_atom_site_type_symbol
_atom_site_label
_atom_site_fract_x
_atom_site_fract_y
_atom_site_fract_z
Si Si1 0.299662 0.326713 0.912731
Si Si2 0.912941 0.187264 0.198220
Si Si3 0.815149 0.342722 0.272261
Si Si4 0.937597 0.417416 0.810386
Si Si5 0.788811 0.582728 0.538795
O O1 0.465457 0.330600 0.800256
O O2 0.257261 0.341901 0.803930
O O3 0.250000 0.250000 0.000000
O O4 0.212562 0.381379 0.066575
O O5 0.841830 0.261665 0.284914
O O6 0.794041 0.127850 0.294421
O O7 0.000000 0.194149 0.000000
O O8 0.968573 0.379570 0.157944
O O9 0.738881 0.385583 0.443995
O O10 0.927124 0.500000 0.840342
O O11 0.041750 0.406836 0.608787
O O12 0.762776 0.500000 0.570104
#
# Coordination Sequence:
#
# PCOD9203637 Si02
#       5
#     8   8   8   8   8
#     4  12  21  36  63  97 125 159 210 258 311 375
#     4  12  23  39  64  91 129 162 205 260 316 374
#     4  10  20  39  65  89 122 159 211 261 307 361
#     4   9  20  39  63  91 122 159 208 260 308 360
#     4   9  22  42  62  88 125 166 205 256 319 367
#
# _framework density 20.625548999999999
#
# number of rings (size 3 to 8) (size 9 to 14) (size 15 to 20)
#    1.200    0.400    4.000    1.200    0.000    4.400 
#    0.000    2.000    0.000    2.400    0.000    0.000 
#    0.000    0.000    0.000    0.000    0.000    0.000 
#
# Total GULP energy -111460.349599 kJ/mol
# GULP energy per Si atom -5573.017480 kJ/mol
# Density = 2.057860 g / cm^3
# Si number density = 20.625549 Si / 1000 Ang^3
#
#
#
# Elastic Constant Matrix: (Units=GPa)
#
#
# Indices 1 2 3 4 5 6 
#
# 1 75.0878 4.7026 2.8813 0.0000 5.3124 0.0000
# 2 4.7026 138.8710 39.4755 0.0000 -16.0249 0.0000
# 3 2.8813 39.4755 46.7656 0.0000 -6.5836 0.0000
# 4 0.0000 0.0000 0.0000 -0.6704 0.0000 -36.8215
# 5 5.3124 -16.0249 -6.5836 0.0000 31.7471 0.0000
# 6 0.0000 0.0000 0.0000 -36.8215 0.0000 -28.1788
#
#
#
# Elastic Compliance Matrix: (Units=1/GPa)
#
#
# Indices 1 2 3 4 5 6 
#
# 1 0.013573 -0.000561 -0.000744 0.000000 -0.002709 0.000000
# 2 -0.000561 0.009828 -0.007777 0.000000 0.003442 0.000000
# 3 -0.000744 -0.007777 0.028284 0.000000 0.002065 0.000000
# 4 0.000000 0.000000 0.000000 0.021077 0.000000 -0.027542
# 5 -0.002709 0.003442 0.002065 0.000000 0.034118 0.000000
# 6 0.000000 0.000000 0.000000 -0.027542 0.000000 0.000501
#
#
# Mechanical properties :
#
#
# Convention : Reuss Voigt Hill
#
# Bulk Modulus (GPa) = 29.83141 39.42703 34.62922
# Shear Modulus (GPa) = 36.57162 14.82391 25.69777
#
# Velocity S-wave (km/s) = 4.21541 2.68380 3.53359
# Velocity P-wave (km/s) = 6.17962 5.36291 5.78569
#
# Compressibility (1/GPa) = 0.03352172
#
# Stress axis : x y z
#
# Youngs Moduli (GPa) = 73.67542 101.75378 35.35557
#
# Poissons Ratio (x) = 0.05704 0.02632
# Poissons Ratio (y) = 0.04130 0.27495
# Poissons Ratio (z) = 0.05484 0.79130
#
# Static dielectric constant tensor:
#      x y z
#    x 1.794110 0.000000 -0.316940 
#    y 0.000000 1.693660 0.000000 
#    z -0.316940 0.000000 4.994070 
# 
# From -- ./inp_files/145260.got.cif
#   From: 2010.05.17/outbox.cif.g08.bks.cpg/sg12_73_cif.got.tgz:145260.got - 2010.06.03 13:09:07.
