data_PCOD9203088
_publ_section_title
;
Structure prediction by ZEFSAII (Michael W. Deem and Ramdas Pophale) SiO2 
 PCOD9203088
Probable space group: C 2/M
;
_chemical_formula_sum "Si O2"
_cell_formula_units_Z 40
_cell_length_a 15.362049
_cell_length_b 17.338736
_cell_length_c 15.008078
_cell_angle_alpha 90.000000
_cell_angle_beta 30.416488
_cell_angle_gamma 90.000000
_cell_volume 2023.876936
_symmetry_space_group_name_H-M "C 2/M"
_symmetry_group_IT_number 12
_symmetry_cell_setting 'monoclinic'
loop_
_space_group_symop_operation_xyz
x,y,z
-x,y,-z
-x,-y,-z
x,-y,z
1/2+x,1/2+y,z
1/2-x,1/2+y,-z
1/2-x,1/2-y,-z
1/2+x,1/2-y,z
loop_
_atom_site_type_symbol
_atom_site_label
_atom_site_fract_x
_atom_site_fract_y
_atom_site_fract_z
Si Si1 0.802513 0.909385 0.905370
Si Si2 0.536445 0.410111 0.863859
Si Si3 0.077713 0.859131 0.521177
Si Si4 0.684573 0.200318 0.472144
Si Si5 0.941297 0.590366 0.279844
O O1 0.870279 0.901817 0.946835
O O2 0.935579 0.866887 0.723875
O O3 0.812590 0.000000 0.872742
O O4 0.604241 0.884345 0.076741
O O5 0.594216 0.500000 0.802428
O O6 0.673418 0.350315 0.703165
O O7 0.500000 0.396937 0.000000
O O8 0.115256 0.768793 0.473194
O O9 0.256734 0.897073 0.395539
O O10 0.000000 0.894116 0.500000
O O11 0.750000 0.250000 0.500000
O O12 0.558095 0.139416 0.630023
O O13 0.962692 0.500000 0.279629
#
# Coordination Sequence:
#
# PCOD9203088 Si02
#       5
#     8   8   8   8   8
#     4  10  21  39  64  92 123 164 210 261 319 372
#     4  10  20  38  66  96 127 167 213 263 318 376
#     4  11  24  41  59  91 130 168 209 258 318 375
#     4  10  20  39  59  88 124 165 204 252 316 375
#     4  10  21  39  66  92 119 163 215 259 312 377
#
# _framework density 19.764047999999999
#
# number of rings (size 3 to 8) (size 9 to 14) (size 15 to 20)
#    0.000    1.800    4.000    1.200    0.000    4.800 
#    7.200    2.000    0.000    6.000    0.000    0.000 
#    0.000    0.000    0.000    0.000    0.000    0.000 
#
# Total GULP energy -111495.263555 kJ/mol
# GULP energy per Si atom -5574.763178 kJ/mol
# Density = 1.971906 g / cm^3
# Si number density = 19.764048 Si / 1000 Ang^3
#
#
#
# Elastic Constant Matrix: (Units=GPa)
#
#
# Indices 1 2 3 4 5 6 
#
# 1 27.3713 -2.0966 8.9282 0.0333 14.9761 -0.0249
# 2 -2.0966 83.4562 47.8474 -0.0331 2.5169 0.0201
# 3 8.9282 47.8474 137.5395 -0.0187 -7.9552 0.0098
# 4 0.0333 -0.0331 -0.0187 -113.2622 0.0090 109.5767
# 5 14.9761 2.5169 -7.9552 0.0090 23.3959 -0.0049
# 6 -0.0249 0.0201 0.0098 109.5767 -0.0049 -59.8918
#
#
#
# Elastic Compliance Matrix: (Units=1/GPa)
#
#
# Indices 1 2 3 4 5 6 
#
# 1 0.065990 0.008825 -0.010049 0.000009 -0.046608 -0.000006
# 2 0.008825 0.016426 -0.006851 0.000000 -0.009745 0.000002
# 3 -0.010049 -0.006851 0.010936 -0.000001 0.010888 0.000001
# 4 0.000009 0.000000 -0.000001 0.011466 -0.000006 0.020977
# 5 -0.046608 -0.009745 0.010888 -0.000006 0.077327 0.000000
# 6 -0.000006 0.000002 0.000001 0.020977 0.000000 0.021683
#
#
# Mechanical properties :
#
#
# Convention : Reuss Voigt Hill
#
# Bulk Modulus (GPa) = 12.95319 39.74722 26.35021
# Shear Modulus (GPa) = 20.34909 -17.03907 1.65501
#
# Velocity S-wave (km/s) = 3.21222 -2.93938 0.91608
# Velocity P-wave (km/s) = 4.50843 2.93847 3.80530
#
# Compressibility (1/GPa) = 0.07720104
#
# Stress axis : x y z
#
# Youngs Moduli (GPa) = 15.15387 60.88066 91.44137
#
# Poissons Ratio (x) = -0.53727 0.91893
# Poissons Ratio (y) = -0.13373 0.62643
# Poissons Ratio (z) = 0.15229 0.41707
#
# Static dielectric constant tensor:
#      x y z
#    x 1.725250 0.000000 -0.018820 
#    y 0.000000 1.723480 0.000000 
#    z -0.018820 0.000000 1.685760 
# 
# From -- ./inp_files/216619.got.cif
#   From: 2010.05.17/outbox.cif.g08.bks.cpg/sg12_109_cif.got.tgz:216619.got - 2010.06.03 13:09:07.
