data_PCOD9203134
_publ_section_title
;
Structure prediction by ZEFSAII (Michael W. Deem and Ramdas Pophale) SiO2 
 PCOD9203134
Probable space group: C 2/M
;
_chemical_formula_sum "Si O2"
_cell_formula_units_Z 60
_cell_length_a 12.478356
_cell_length_b 13.213231
_cell_length_c 25.430456
_cell_angle_alpha 90.000000
_cell_angle_beta 134.551211
_cell_angle_gamma 90.000000
_cell_volume 2988.001446
_symmetry_space_group_name_H-M "C 2/M"
_symmetry_group_IT_number 12
_symmetry_cell_setting 'monoclinic'
loop_
_space_group_symop_operation_xyz
x,y,z
-x,y,-z
-x,-y,-z
x,-y,z
1/2+x,1/2+y,z
1/2-x,1/2+y,-z
1/2-x,1/2-y,-z
1/2+x,1/2-y,z
loop_
_atom_site_type_symbol
_atom_site_label
_atom_site_fract_x
_atom_site_fract_y
_atom_site_fract_z
Si Si1 0.500000 0.748911 0.500000
Si Si2 0.298000 0.119976 0.626848
Si Si3 0.611223 0.383671 0.866005
Si Si4 0.165191 0.114470 0.082606
Si Si5 0.462102 0.120106 0.384497
Si Si6 0.329276 0.188065 0.853912
Si Si7 0.672242 0.245516 0.259057
Si Si8 0.834415 0.380759 0.033230
O O1 0.644855 0.677539 0.558051
O O2 0.480641 0.821389 0.543918
O O3 0.420091 0.131386 0.622612
O O4 0.352084 0.175046 0.698737
O O5 0.273020 0.000000 0.626617
O O6 0.563596 0.500000 0.858102
O O7 0.728041 0.377329 0.857993
O O8 0.473611 0.311324 0.805426
O O9 0.701861 0.346219 0.948702
O O10 0.194880 0.196027 0.137092
O O11 0.282355 0.127457 0.075431
O O12 0.172920 0.000000 0.105381
O O13 0.000000 0.128182 0.000000
O O14 0.307654 0.176758 0.316571
O O15 0.440283 0.000000 0.386552
O O16 0.292075 0.178052 0.779938
O O17 0.504523 0.165514 0.922796
O O18 0.849115 0.500000 0.026967
#
# Coordination Sequence:
#
# PCOD9203134 Si02
#       8
#     4   8   8   8   8   8   8   8
#     4  10  20  38  68 102 126 150 190 236 278 326
#     4  10  22  41  64  91 125 161 194 229 276 337
#     4  11  23  39  58  81 111 149 196 251 308 361
#     4  10  21  36  54  77 105 139 183 237 298 362
#     4  10  21  39  63  92 126 160 192 231 281 337
#     4  12  23  37  58  82 110 149 198 253 304 352
#     4  11  24  39  57  84 119 159 200 239 284 344
#     4  10  22  39  58  81 109 144 193 255 317 367
#
# _framework density 20.080310999999998
#
# number of rings (size 3 to 8) (size 9 to 14) (size 15 to 20)
#    0.000    1.467    0.000    5.200    0.000    5.867 
#    0.000    3.333    0.000    9.600    0.000    0.000 
#    0.000    0.000    0.000    0.000    0.000    0.000 
#
# Total GULP energy -167873.501099 kJ/mol
# GULP energy per Si atom -5595.783370 kJ/mol
# Density = 2.003461 g / cm^3
# Si number density = 20.080311 Si / 1000 Ang^3
#
#
#
# Elastic Constant Matrix: (Units=GPa)
#
#
# Indices 1 2 3 4 5 6 
#
# 1 95.4269 34.9370 38.8914 0.0000 -12.9041 0.0000
# 2 34.9370 113.3633 43.7548 0.0000 -7.1169 0.0000
# 3 38.8914 43.7548 109.1241 0.0000 -16.5109 0.0000
# 4 0.0000 0.0000 0.0000 24.6225 0.0000 -2.7011
# 5 -12.9041 -7.1169 -16.5109 0.0000 28.4017 0.0000
# 6 0.0000 0.0000 0.0000 -2.7011 0.0000 32.5276
#
#
#
# Elastic Compliance Matrix: (Units=1/GPa)
#
#
# Indices 1 2 3 4 5 6 
#
# 1 0.013190 -0.002644 -0.003107 0.000000 0.003524 0.000000
# 2 -0.002644 0.010968 -0.003532 0.000000 -0.000506 0.000000
# 3 -0.003107 -0.003532 0.012434 0.000000 0.004931 0.000000
# 4 0.000000 0.000000 0.000000 0.040987 0.000000 0.003404
# 5 0.003524 -0.000506 0.004931 0.000000 0.039550 0.000000
# 6 0.000000 0.000000 0.000000 0.003404 0.000000 0.031026
#
#
# Mechanical properties :
#
#
# Convention : Reuss Voigt Hill
#
# Bulk Modulus (GPa) = 55.48118 61.45339 58.46728
# Shear Modulus (GPa) = 28.94705 30.46579 29.70642
#
# Velocity S-wave (km/s) = 3.80091 3.89935 3.85044
# Velocity P-wave (km/s) = 6.85217 7.13747 6.99627
#
# Compressibility (1/GPa) = 0.01802413
#
# Stress axis : x y z
#
# Youngs Moduli (GPa) = 75.81292 91.17822 80.42732
#
# Poissons Ratio (x) = 0.24112 0.24993
# Poissons Ratio (y) = 0.20048 0.28405
# Poissons Ratio (z) = 0.23559 0.32202
#
# Static dielectric constant tensor:
#      x y z
#    x 1.698020 0.000000 -0.004220 
#    y 0.000000 1.718000 0.000000 
#    z -0.004220 0.000000 1.687980 
# 
# From -- ./inp_files/336073.got.cif
#   From: 2010.05.17/outbox.cif.g08.bks.cpg/sg12_169_cif.got.tgz:336073.got - 2010.06.03 13:09:07.
