data_PCOD9203989
_publ_section_title
;
Structure prediction by ZEFSAII (Michael W. Deem and Ramdas Pophale) SiO2 
 PCOD9203989
Probable space group: C 2/M
;
_chemical_formula_sum "Si O2"
_cell_formula_units_Z 48
_cell_length_a 19.479152
_cell_length_b 9.146360
_cell_length_c 20.750431
_cell_angle_alpha 90.000000
_cell_angle_beta 36.964571
_cell_angle_gamma 90.000000
_cell_volume 2223.063565
_symmetry_space_group_name_H-M "C 2/M"
_symmetry_group_IT_number 12
_symmetry_cell_setting 'monoclinic'
loop_
_space_group_symop_operation_xyz
x,y,z
-x,y,-z
-x,-y,-z
x,-y,z
1/2+x,1/2+y,z
1/2-x,1/2+y,-z
1/2-x,1/2-y,-z
1/2+x,1/2-y,z
loop_
_atom_site_type_symbol
_atom_site_label
_atom_site_fract_x
_atom_site_fract_y
_atom_site_fract_z
Si Si1 0.199758 0.173489 0.312511
Si Si2 0.945475 0.824151 0.111524
Si Si3 0.135481 0.670787 0.236176
Si Si4 0.587877 0.169618 0.661264
Si Si5 0.329706 0.670835 0.991370
Si Si6 0.207596 0.331736 0.431837
O O1 0.327154 0.240570 0.208898
O O2 0.129889 0.234020 0.304142
O O3 0.156533 0.235580 0.412993
O O4 0.202688 0.000000 0.310522
O O5 0.927461 0.000000 0.131153
O O6 0.000000 0.799507 0.000000
O O7 0.042460 0.776044 0.090116
O O8 0.113525 0.500000 0.268279
O O9 0.259647 0.680758 0.111067
O O10 0.042861 0.713205 0.251518
O O11 0.666529 0.270862 0.645817
O O12 0.639188 0.177147 0.550110
O O13 0.595556 0.000000 0.676975
O O14 0.336313 0.500000 0.969185
O O15 0.250000 0.750000 0.000000
O O16 0.212368 0.500000 0.407964
#
# Coordination Sequence:
#
# PCOD9203989 Si02
#       6
#     8   8   8   8   8   8
#     4  12  25  38  58  88 119 155 199 244 288 341
#     4  10  20  40  63  83 113 155 195 234 289 347
#     4  10  21  41  62  84 117 155 194 240 294 348
#     4   9  20  39  64  90 117 151 194 243 293 347
#     4  10  22  38  59  86 118 153 189 234 288 348
#     4  10  21  39  62  88 119 155 193 238 294 353
#
# _framework density 21.591826000000001
#
# number of rings (size 3 to 8) (size 9 to 14) (size 15 to 20)
#    0.000    1.833    1.667    2.000    2.333    3.667 
#    0.000    3.333    0.000    0.000    0.000    0.000 
#    0.000    0.000    0.000    0.000    0.000    0.000 
#
# Total GULP energy -134199.468148 kJ/mol
# GULP energy per Si atom -5591.644506 kJ/mol
# Density = 2.154268 g / cm^3
# Si number density = 21.591826 Si / 1000 Ang^3
#
#
#
# Elastic Constant Matrix: (Units=GPa)
#
#
# Indices 1 2 3 4 5 6 
#
# 1 84.0445 32.2497 -5.5752 0.0000 5.1714 0.0000
# 2 32.2497 76.0555 -0.4118 0.0000 11.8510 0.0000
# 3 -5.5752 -0.4118 34.8299 0.0000 -4.1745 0.0000
# 4 0.0000 0.0000 0.0000 21.5248 0.0000 0.6546
# 5 5.1714 11.8510 -4.1745 0.0000 37.5681 0.0000
# 6 0.0000 0.0000 0.0000 0.6546 0.0000 38.6778
#
#
#
# Elastic Compliance Matrix: (Units=1/GPa)
#
#
# Indices 1 2 3 4 5 6 
#
# 1 0.014383 -0.006118 0.002254 0.000000 0.000200 0.000000
# 2 -0.006118 0.016435 -0.001323 0.000000 -0.004489 0.000000
# 3 0.002254 -0.001323 0.029461 0.000000 0.003381 0.000000
# 4 0.000000 0.000000 0.000000 0.046482 0.000000 -0.000787
# 5 0.000200 -0.004489 0.003381 0.000000 0.028383 0.000000
# 6 0.000000 0.000000 0.000000 -0.000787 0.000000 0.025868
#
#
# Mechanical properties :
#
#
# Convention : Reuss Voigt Hill
#
# Bulk Modulus (GPa) = 20.03789 27.49505 23.76647
# Shear Modulus (GPa) = 26.59277 30.79860 28.69569
#
# Velocity S-wave (km/s) = 3.51324 3.78087 3.64951
# Velocity P-wave (km/s) = 5.07520 5.64107 5.36560
#
# Compressibility (1/GPa) = 0.04990544
#
# Stress axis : x y z
#
# Youngs Moduli (GPa) = 69.52540 60.84641 33.94278
#
# Poissons Ratio (x) = 0.37225 -0.07651
# Poissons Ratio (y) = 0.42535 0.04491
# Poissons Ratio (z) = -0.15671 0.08050
#
# Static dielectric constant tensor:
#      x y z
#    x 1.789230 0.000000 0.001910 
#    y 0.000000 1.719640 0.000000 
#    z 0.001910 0.000000 1.834510 
# 
# From -- ./inp_files/313598.got.cif
#   From: 2010.05.17/outbox.cif.g08.bks.cpg/sg12_157_cif.got.tgz:313598.got - 2010.06.03 13:09:07.
