data_PCOD9203203
_publ_section_title
;
Structure prediction by ZEFSAII (Michael W. Deem and Ramdas Pophale) SiO2 
 PCOD9203203
Probable space group: C 2/M
;
_chemical_formula_sum "Si O2"
_cell_formula_units_Z 56
_cell_length_a 28.457350
_cell_length_b 25.609624
_cell_length_c 12.510870
_cell_angle_alpha 90.000000
_cell_angle_beta 160.673389
_cell_angle_gamma 90.000000
_cell_volume 3017.526578
_symmetry_space_group_name_H-M "C 2/M"
_symmetry_group_IT_number 12
_symmetry_cell_setting 'monoclinic'
loop_
_space_group_symop_operation_xyz
x,y,z
-x,y,-z
-x,-y,-z
x,-y,z
1/2+x,1/2+y,z
1/2-x,1/2+y,-z
1/2-x,1/2-y,-z
1/2+x,1/2-y,z
loop_
_atom_site_type_symbol
_atom_site_label
_atom_site_fract_x
_atom_site_fract_y
_atom_site_fract_z
Si Si1 0.859254 0.148259 0.627515
Si Si2 0.334360 0.199950 0.635047
Si Si3 0.157927 0.061669 0.575684
Si Si4 0.161257 0.671186 0.602664
Si Si5 0.455311 0.625184 0.286039
Si Si6 0.662250 0.291173 0.641410
Si Si7 0.409733 0.867514 0.199111
O O1 0.723122 0.155441 0.409836
O O2 0.856636 0.091814 0.567553
O O3 0.853123 0.189876 0.515907
O O4 0.000000 0.156393 0.000000
O O5 0.250000 0.250000 0.500000
O O6 0.310930 0.182240 0.463046
O O7 0.500000 0.210428 0.000000
O O8 0.022358 0.082512 0.351195
O O9 0.164311 0.000000 0.582659
O O10 0.298661 0.086430 0.933318
O O11 0.160574 0.729558 0.649689
O O12 0.015013 0.644494 0.326177
O O13 0.289708 0.635913 0.920167
O O14 0.500000 0.610157 0.500000
O O15 0.534088 0.679648 0.425612
O O16 0.808067 0.317026 0.994647
O O17 0.500000 0.876521 0.500000
#
# Coordination Sequence:
#
# PCOD9203203 Si02
#       7
#     8   8   8   8   8   8   8
#     4  10  20  39  58  85 118 150 196 237 285 349
#     4  12  23  33  56  84 119 161 192 233 277 336
#     4  10  23  44  64  80 110 151 199 256 306 355
#     4  12  22  34  59  87 126 159 195 235 277 352
#     4  10  22  38  58  87 119 151 195 247 292 346
#     4  10  21  34  54  83 127 163 190 219 279 358
#     4  10  22  39  58  85 118 153 196 240 290 351
#
# _framework density 18.558246
#
# number of rings (size 3 to 8) (size 9 to 14) (size 15 to 20)
#    0.000    1.714    1.429    6.429    2.000    4.286 
#    0.000    0.714    0.000    3.857    0.000    0.000 
#    0.000    0.000    0.000    0.000    0.000    0.000 
#
# Total GULP energy -156360.518147 kJ/mol
# GULP energy per Si atom -5584.304220 kJ/mol
# Density = 1.851601 g / cm^3
# Si number density = 18.558246 Si / 1000 Ang^3
#
#
#
# Elastic Constant Matrix: (Units=GPa)
#
#
# Indices 1 2 3 4 5 6 
#
# 1 47.1061 12.8705 -13.7084 0.0000 5.2106 0.0000
# 2 12.8705 110.9313 15.9393 0.0000 5.1098 0.0000
# 3 -13.7084 15.9393 85.4016 0.0000 1.5780 0.0000
# 4 0.0000 0.0000 0.0000 11.0465 0.0000 0.2102
# 5 5.2106 5.1098 1.5780 0.0000 37.7440 0.0000
# 6 0.0000 0.0000 0.0000 0.2102 0.0000 2.9525
#
#
#
# Elastic Compliance Matrix: (Units=1/GPa)
#
#
# Indices 1 2 3 4 5 6 
#
# 1 0.023757 -0.003260 0.004478 0.000000 -0.003026 0.000000
# 2 -0.003260 0.009764 -0.002331 0.000000 -0.000774 0.000000
# 3 0.004478 -0.002331 0.012879 0.000000 -0.000841 0.000000
# 4 0.000000 0.000000 0.000000 0.090649 0.000000 -0.006454
# 5 -0.003026 -0.000774 -0.000841 0.000000 0.027052 0.000000
# 6 0.000000 0.000000 0.000000 -0.006454 0.000000 0.339157
#
#
# Mechanical properties :
#
#
# Convention : Reuss Voigt Hill
#
# Bulk Modulus (GPa) = 22.63886 30.40466 26.52176
# Shear Modulus (GPa) = 9.61151 25.57110 17.59131
#
# Velocity S-wave (km/s) = 2.27823 3.71601 3.08213
# Velocity P-wave (km/s) = 4.37559 5.90175 5.19502
#
# Compressibility (1/GPa) = 0.04417184
#
# Stress axis : x y z
#
# Youngs Moduli (GPa) = 42.09243 102.42226 77.64701
#
# Poissons Ratio (x) = 0.33394 -0.34769
# Poissons Ratio (y) = 0.13724 0.18102
# Poissons Ratio (z) = -0.18848 0.23878
#
# Static dielectric constant tensor:
#      x y z
#    x 1.618140 0.000000 -0.018000 
#    y 0.000000 1.618890 0.000000 
#    z -0.018000 0.000000 1.648070 
# 
# From -- ./inp_files/185157.got.cif
#   From: 2010.05.17/outbox.cif.g08.bks.cpg/sg12_93_cif.got.tgz:185157.got - 2010.06.03 13:09:07.
