data_PCOD9203919
_publ_section_title
;
Structure prediction by ZEFSAII (Michael W. Deem and Ramdas Pophale) SiO2 
 PCOD9203919
Probable space group: C 2/M
;
_chemical_formula_sum "Si O2"
_cell_formula_units_Z 48
_cell_length_a 9.311438
_cell_length_b 28.224205
_cell_length_c 9.684083
_cell_angle_alpha 90.000000
_cell_angle_beta 86.274211
_cell_angle_gamma 90.000000
_cell_volume 2539.674810
_symmetry_space_group_name_H-M "C 2/M"
_symmetry_group_IT_number 12
_symmetry_cell_setting 'monoclinic'
loop_
_space_group_symop_operation_xyz
x,y,z
-x,y,-z
-x,-y,-z
x,-y,z
1/2+x,1/2+y,z
1/2-x,1/2+y,-z
1/2-x,1/2-y,-z
1/2+x,1/2-y,z
loop_
_atom_site_type_symbol
_atom_site_label
_atom_site_fract_x
_atom_site_fract_y
_atom_site_fract_z
Si Si1 0.250006 0.444304 0.812000
Si Si2 0.432770 0.294284 0.350516
Si Si3 0.704090 0.053412 0.127993
Si Si4 0.513312 0.098466 0.663910
Si Si5 0.914820 0.298280 0.650889
Si Si6 0.473908 0.617037 0.156164
O O1 0.250125 0.500000 0.775858
O O2 0.408241 0.423353 0.823785
O O3 0.174580 0.411439 0.703087
O O4 0.173758 0.439136 0.967152
O O5 0.500000 0.298984 0.500000
O O6 0.257194 0.291204 0.359601
O O7 0.509342 0.247121 0.284102
O O8 0.476230 0.340422 0.262764
O O9 0.573922 0.060204 0.241174
O O10 0.821653 0.091175 0.166262
O O11 0.761678 0.000000 0.133919
O O12 0.500000 0.092886 0.500000
O O13 0.452878 0.150287 0.710153
O O14 0.000000 0.300404 0.500000
O O15 0.500000 0.635841 0.000000
#
# Coordination Sequence:
#
# PCOD9203919 Si02
#       6
#     8   8   8   8   8   8
#     4  10  22  38  61  85 115 161 200 234 287 347
#     4  11  22  39  65  87 115 155 196 238 290 354
#     4  10  20  40  61  83 116 157 198 237 286 354
#     4  11  23  37  58  89 121 148 194 245 293 338
#     4  10  22  38  61  90 116 152 194 236 290 352
#     4  10  22  39  60  88 119 150 196 246 291 339
#
# _framework density 18.900057
#
# number of rings (size 3 to 8) (size 9 to 14) (size 15 to 20)
#    0.000    1.667    1.667    3.500    7.000    4.667 
#    0.000    2.500    0.000    3.000    0.000    0.000 
#    0.000    0.000    0.000    0.000    0.000    0.000 
#
# Total GULP energy -133796.939021 kJ/mol
# GULP energy per Si atom -5574.872459 kJ/mol
# Density = 1.885704 g / cm^3
# Si number density = 18.900057 Si / 1000 Ang^3
#
#
#
# Elastic Constant Matrix: (Units=GPa)
#
#
# Indices 1 2 3 4 5 6 
#
# 1 94.3033 28.6361 18.8476 0.0000 7.3505 0.0000
# 2 28.6361 123.7898 39.8439 0.0000 16.1001 0.0000
# 3 18.8476 39.8439 55.6484 0.0000 14.5867 0.0000
# 4 0.0000 0.0000 0.0000 35.3041 0.0000 8.6229
# 5 7.3505 16.1001 14.5867 0.0000 27.1609 0.0000
# 6 0.0000 0.0000 0.0000 8.6229 0.0000 18.2540
#
#
#
# Elastic Compliance Matrix: (Units=1/GPa)
#
#
# Indices 1 2 3 4 5 6 
#
# 1 0.011708 -0.001815 -0.002464 0.000000 -0.000769 0.000000
# 2 -0.001815 0.010932 -0.006567 0.000000 -0.002462 0.000000
# 3 -0.002464 -0.006567 0.025967 0.000000 -0.009386 0.000000
# 4 0.000000 0.000000 0.000000 0.032020 0.000000 -0.015126
# 5 -0.000769 -0.002462 -0.009386 0.000000 0.043526 0.000000
# 6 0.000000 0.000000 0.000000 -0.015126 0.000000 0.061928
#
#
# Mechanical properties :
#
#
# Convention : Reuss Voigt Hill
#
# Bulk Modulus (GPa) = 37.15564 49.82186 43.48875
# Shear Modulus (GPa) = 23.06873 28.57141 25.82007
#
# Velocity S-wave (km/s) = 3.49745 3.89229 3.70014
# Velocity P-wave (km/s) = 6.00093 6.82772 6.42764
#
# Compressibility (1/GPa) = 0.02691381
#
# Stress axis : x y z
#
# Youngs Moduli (GPa) = 85.41388 91.47383 38.51075
#
# Poissons Ratio (x) = 0.16604 0.09489
# Poissons Ratio (y) = 0.15504 0.25291
# Poissons Ratio (z) = 0.21046 0.60072
#
# Static dielectric constant tensor:
#      x y z
#    x 1.698270 0.000000 0.001830 
#    y 0.000000 1.664260 0.000000 
#    z 0.001830 0.000000 1.653390 
# 
# From -- ./inp_files/42144.got.cif
#   From: 2010.05.17/outbox.cif.g08.bks.cpg/sg12_22_cif.got.tgz:42144.got - 2010.06.03 13:09:07.
