data_PCOD9203669
_publ_section_title
;
Structure prediction by ZEFSAII (Michael W. Deem and Ramdas Pophale) SiO2 
 PCOD9203669
Probable space group: C 2/M
;
_chemical_formula_sum "Si O2"
_cell_formula_units_Z 64
_cell_length_a 31.145215
_cell_length_b 13.829073
_cell_length_c 21.804545
_cell_angle_alpha 90.000000
_cell_angle_beta 18.241606
_cell_angle_gamma 90.000000
_cell_volume 2939.747275
_symmetry_space_group_name_H-M "C 2/M"
_symmetry_group_IT_number 12
_symmetry_cell_setting 'monoclinic'
loop_
_space_group_symop_operation_xyz
x,y,z
-x,y,-z
-x,-y,-z
x,-y,z
1/2+x,1/2+y,z
1/2-x,1/2+y,-z
1/2-x,1/2-y,-z
1/2+x,1/2-y,z
loop_
_atom_site_type_symbol
_atom_site_label
_atom_site_fract_x
_atom_site_fract_y
_atom_site_fract_z
Si Si1 0.213540 0.305202 0.640783
Si Si2 0.240017 0.387472 0.734367
Si Si3 0.802233 0.889343 0.929170
Si Si4 0.510116 0.612613 0.205956
Si Si5 0.139020 0.391052 0.554512
Si Si6 0.990181 0.187904 0.582096
Si Si7 0.492401 0.106898 0.398253
Si Si8 0.457401 0.191450 0.900583
O O1 0.186295 0.328592 0.748682
O O2 0.350426 0.365080 0.437336
O O3 0.252977 0.192909 0.577743
O O4 0.085586 0.328422 0.771937
O O5 0.211335 0.500000 0.763967
O O6 0.401246 0.368378 0.522980
O O7 0.172669 0.350295 0.888391
O O8 0.898874 0.868873 0.856701
O O9 0.845436 0.825097 0.812647
O O10 0.827399 0.000000 0.876146
O O11 0.645903 0.884151 0.162890
O O12 0.527608 0.500000 0.164918
O O13 0.553855 0.694441 0.098025
O O14 0.180215 0.500000 0.515277
O O15 0.106036 0.387025 0.527232
O O16 0.001684 0.361739 0.777954
O O17 0.000000 0.150811 0.500000
O O18 0.031469 0.300601 0.527563
O O19 0.478025 0.000000 0.445902
#
# Coordination Sequence:
#
# PCOD9203669 Si02
#       8
#     8   8   8   8   8   8   8   8
#     4  11  22  41  63  88 121 162 208 252 301 362
#     4  12  26  44  61  87 126 162 198 245 311 372
#     4  10  21  39  64  92 122 160 202 243 297 360
#     4  10  20  39  66  91 123 160 202 255 302 353
#     4  10  20  39  65  92 123 157 201 257 304 350
#     4  12  25  39  64  92 125 161 195 246 300 360
#     4  10  22  41  65  91 121 160 202 244 297 360
#     4  11  25  38  60  94 123 157 210 253 299 359
#
# _framework density 21.770578
#
# number of rings (size 3 to 8) (size 9 to 14) (size 15 to 20)
#    0.000    1.250    2.500    4.125    3.500    5.250 
#    0.000    1.250    0.000    1.500    0.000    0.000 
#    0.000    0.000    0.000    0.000    0.000    0.000 
#
# Total GULP energy -178972.973046 kJ/mol
# GULP energy per Si atom -5592.905408 kJ/mol
# Density = 2.172103 g / cm^3
# Si number density = 21.770578 Si / 1000 Ang^3
#
#
#
# Elastic Constant Matrix: (Units=GPa)
#
#
# Indices 1 2 3 4 5 6 
#
# 1 53.3028 4.8054 -16.9365 0.0000 3.7383 0.0000
# 2 4.8054 104.0778 0.8061 -0.0002 14.7679 0.0001
# 3 -16.9365 0.8061 28.9490 -0.0002 -4.6522 0.0001
# 4 0.0000 -0.0002 -0.0002 10.9195 0.0002 2.0855
# 5 3.7383 14.7679 -4.6522 0.0002 28.8031 -0.0001
# 6 0.0000 0.0001 0.0001 2.0855 -0.0001 19.9317
#
#
#
# Elastic Compliance Matrix: (Units=1/GPa)
#
#
# Indices 1 2 3 4 5 6 
#
# 1 0.023189 -0.001143 0.013561 0.000000 -0.000234 0.000000
# 2 -0.001143 0.010457 -0.001845 0.000000 -0.005511 0.000000
# 3 0.013561 -0.001845 0.043528 0.000001 0.006217 0.000000
# 4 0.000000 0.000000 0.000001 0.093447 -0.000001 -0.009777
# 5 -0.000234 -0.005511 0.006217 -0.000001 0.038579 0.000000
# 6 0.000000 0.000000 0.000000 -0.009777 0.000000 0.051194
#
#
# Mechanical properties :
#
#
# Convention : Reuss Voigt Hill
#
# Bulk Modulus (GPa) = 10.17088 18.18662 14.17875
# Shear Modulus (GPa) = 18.38093 25.10783 21.74438
#
# Velocity S-wave (km/s) = 2.90884 3.39970 3.16380
# Velocity P-wave (km/s) = 3.99547 4.87673 4.45793
#
# Compressibility (1/GPa) = 0.09831987
#
# Stress axis : x y z
#
# Youngs Moduli (GPa) = 43.12393 95.62721 22.97394
#
# Poissons Ratio (x) = 0.10926 -0.31155
# Poissons Ratio (y) = 0.04927 0.04239
# Poissons Ratio (z) = -0.58480 0.17646
#
# Static dielectric constant tensor:
#      x y z
#    x 1.761150 0.000000 0.006820 
#    y 0.000000 1.802660 0.000000 
#    z 0.006820 0.000000 1.822240 
# 
# From -- ./inp_files/330328.got.cif
#   From: 2010.05.17/outbox.cif.g08.bks.cpg/sg12_166_cif.got.tgz:330328.got - 2010.06.03 13:09:07.
