data_PCOD9203184
_publ_section_title
;
Structure prediction by ZEFSAII (Michael W. Deem and Ramdas Pophale) SiO2 
 PCOD9203184
Probable space group: C 2/M
;
_chemical_formula_sum "Si O2"
_cell_formula_units_Z 56
_cell_length_a 16.241841
_cell_length_b 24.984987
_cell_length_c 10.519866
_cell_angle_alpha 90.000000
_cell_angle_beta 137.913766
_cell_angle_gamma 90.000000
_cell_volume 2861.279818
_symmetry_space_group_name_H-M "C 2/M"
_symmetry_group_IT_number 12
_symmetry_cell_setting 'monoclinic'
loop_
_space_group_symop_operation_xyz
x,y,z
-x,y,-z
-x,-y,-z
x,-y,z
1/2+x,1/2+y,z
1/2-x,1/2+y,-z
1/2-x,1/2-y,-z
1/2+x,1/2-y,z
loop_
_atom_site_type_symbol
_atom_site_label
_atom_site_fract_x
_atom_site_fract_y
_atom_site_fract_z
Si Si1 0.825140 0.853050 0.978208
Si Si2 0.733674 0.366679 0.518515
Si Si3 0.891555 0.732051 0.294954
Si Si4 0.510986 0.163362 0.145755
Si Si5 0.145821 0.938909 0.193985
Si Si6 0.543316 0.721394 0.229586
Si Si7 0.273366 0.344238 0.196331
O O1 0.838995 0.867880 0.144463
O O2 0.946743 0.822295 0.068633
O O3 0.719170 0.808472 0.848765
O O4 0.799209 0.901951 0.855142
O O5 0.673933 0.412048 0.362484
O O6 0.664476 0.311474 0.401780
O O7 0.720890 0.372093 0.658179
O O8 0.878715 0.362791 0.650420
O O9 0.833888 0.786017 0.287287
O O10 0.000000 0.706227 0.500000
O O11 0.966235 0.754079 0.259449
O O12 0.565560 0.223229 0.181994
O O13 0.500000 0.132917 0.000000
O O14 0.367505 0.163543 0.013061
O O15 0.190034 0.000000 0.240847
O O16 0.000000 0.939392 0.000000
#
# Coordination Sequence:
#
# PCOD9203184 Si02
#       7
#     8   8   8   8   8   8   8
#     4  11  22  37  62  82 126 171 200 251 309 361
#     4  11  23  36  61  88 123 166 205 256 309 358
#     4  11  20  32  55  88 136 169 202 240 296 375
#     4  10  21  33  53  87 137 164 197 243 293 374
#     4  11  26  47  65  88 118 157 217 279 318 348
#     4  11  19  33  51  91 125 167 199 237 293 386
#     4  10  20  39  56  91 130 165 200 237 299 387
#
# _framework density 19.571660999999999
#
# number of rings (size 3 to 8) (size 9 to 14) (size 15 to 20)
#    0.000    1.286    5.714    1.286    4.000    0.000 
#    0.000    0.714    0.000    9.429    0.000    0.000 
#    0.000    0.000    0.000    0.000    0.000    0.000 
#
# Total GULP energy -155886.655593 kJ/mol
# GULP energy per Si atom -5567.380557 kJ/mol
# Density = 1.952712 g / cm^3
# Si number density = 19.571661 Si / 1000 Ang^3
#
#
#
# Elastic Constant Matrix: (Units=GPa)
#
#
# Indices 1 2 3 4 5 6 
#
# 1 50.9134 14.3843 32.2096 0.0000 -17.8544 0.0000
# 2 14.3843 79.5332 31.6591 0.0000 -24.7222 0.0000
# 3 32.2096 31.6591 121.1192 0.0000 2.8696 0.0000
# 4 0.0000 0.0000 0.0000 13.9596 0.0000 -2.3053
# 5 -17.8544 -24.7222 2.8696 0.0000 38.0101 0.0000
# 6 0.0000 0.0000 0.0000 -2.3053 0.0000 9.7554
#
#
#
# Elastic Compliance Matrix: (Units=1/GPa)
#
#
# Indices 1 2 3 4 5 6 
#
# 1 0.030841 0.003721 -0.009592 0.000000 0.017631 0.000000
# 2 0.003721 0.018914 -0.006277 0.000000 0.014523 0.000000
# 3 -0.009592 -0.006277 0.012674 0.000000 -0.009545 0.000000
# 4 0.000000 0.000000 0.000000 0.074544 0.000000 0.017616
# 5 0.017631 0.014523 -0.009545 0.000000 0.044757 0.000000
# 6 0.000000 0.000000 0.000000 0.017616 0.000000 0.106670
#
#
# Mechanical properties :
#
#
# Convention : Reuss Voigt Hill
#
# Bulk Modulus (GPa) = 26.22491 45.34134 35.78313
# Shear Modulus (GPa) = 15.36532 23.89920 19.63226
#
# Velocity S-wave (km/s) = 2.80497 3.49823 3.17061
# Velocity P-wave (km/s) = 4.89070 6.28760 5.63263
#
# Compressibility (1/GPa) = 0.03813169
#
# Stress axis : x y z
#
# Youngs Moduli (GPa) = 32.42433 52.87188 78.90094
#
# Poissons Ratio (x) = -0.19672 0.75681
# Poissons Ratio (y) = -0.12064 0.49529
# Poissons Ratio (z) = 0.31101 0.33190
#
# Static dielectric constant tensor:
#      x y z
#    x 1.837050 0.000000 -0.024030 
#    y 0.000000 1.683870 0.000000 
#    z -0.024030 0.000000 1.746260 
# 
# From -- ./inp_files/160357.got.cif
#   From: 2010.05.17/outbox.cif.g08.bks.cpg/sg12_81_cif.got.tgz:160357.got - 2010.06.03 13:09:07.
