data_PCOD9203763
_publ_section_title
;
Structure prediction by ZEFSAII (Michael W. Deem and Ramdas Pophale) SiO2 
 PCOD9203763
Probable space group: C 2/M
;
_chemical_formula_sum "Si O2"
_cell_formula_units_Z 64
_cell_length_a 28.293090
_cell_length_b 14.363765
_cell_length_c 12.536489
_cell_angle_alpha 90.000000
_cell_angle_beta 35.987092
_cell_angle_gamma 90.000000
_cell_volume 2993.702107
_symmetry_space_group_name_H-M "C 2/M"
_symmetry_group_IT_number 12
_symmetry_cell_setting 'monoclinic'
loop_
_space_group_symop_operation_xyz
x,y,z
-x,y,-z
-x,-y,-z
x,-y,z
1/2+x,1/2+y,z
1/2-x,1/2+y,-z
1/2-x,1/2-y,-z
1/2+x,1/2-y,z
loop_
_atom_site_type_symbol
_atom_site_label
_atom_site_fract_x
_atom_site_fract_y
_atom_site_fract_z
Si Si1 0.234566 0.149778 0.075850
Si Si2 0.995412 0.695912 0.128670
Si Si3 0.830504 0.607904 0.485306
Si Si4 0.936336 0.109922 0.530195
Si Si5 0.236285 0.109579 0.441738
Si Si6 0.045772 0.893890 0.752489
Si Si7 0.842366 0.309778 0.062038
Si Si8 0.701979 0.398748 0.902291
O O1 0.151684 0.150949 0.292393
O O2 0.306009 0.133270 0.028718
O O3 0.250000 0.250000 0.000000
O O4 0.222452 0.093737 0.989652
O O5 0.909768 0.669851 0.334851
O O6 0.001864 0.808085 0.111698
O O7 0.069591 0.660288 0.062379
O O8 0.000000 0.658454 0.000000
O O9 0.854834 0.500000 0.426111
O O10 0.771200 0.631457 0.494996
O O11 0.781081 0.613185 0.684956
O O12 0.962558 0.117334 0.360300
O O13 0.000000 0.147720 0.500000
O O14 0.927006 0.000000 0.569928
O O15 0.140157 0.118548 0.609617
O O16 0.282090 0.171215 0.270722
O O17 0.253663 0.000000 0.387543
O O18 0.023052 0.000000 0.822859
O O19 0.843851 0.199004 0.031499
O O20 0.664576 0.500000 0.938996
#
# Coordination Sequence:
#
# PCOD9203763 Si02
#       8
#     8   8   8   8   8   8   8   8
#     4  10  22  39  61  92 123 162 209 257 306 368
#     4  12  26  40  61  92 130 170 203 259 322 375
#     4  10  23  43  65  89 121 168 218 262 313 370
#     4  10  21  38  62  89 121 162 205 255 316 377
#     4  10  20  39  67  91 118 162 214 267 312 364
#     4  10  23  40  60  91 126 163 208 258 316 381
#     4  11  23  40  62  97 125 163 214 258 315 371
#     4  10  23  42  66  90 125 168 210 261 314 375
#
# _framework density 21.378212999999999
#
# number of rings (size 3 to 8) (size 9 to 14) (size 15 to 20)
#    0.000    1.625    2.500    1.125    7.000    3.000 
#    0.000    0.625    0.000    1.500    0.000    0.000 
#    0.000    0.000    0.000    0.000    0.000    0.000 
#
# Total GULP energy -178740.355214 kJ/mol
# GULP energy per Si atom -5585.636100 kJ/mol
# Density = 2.132956 g / cm^3
# Si number density = 21.378213 Si / 1000 Ang^3
#
#
#
# Elastic Constant Matrix: (Units=GPa)
#
#
# Indices 1 2 3 4 5 6 
#
# 1 131.5446 -1.1520 25.8776 0.0000 -13.9996 0.0000
# 2 -1.1520 47.3252 -3.4732 0.0000 -1.9799 0.0000
# 3 25.8776 -3.4732 35.4789 0.0000 13.8522 0.0000
# 4 0.0000 0.0000 0.0000 34.8399 0.0000 -5.7249
# 5 -13.9996 -1.9799 13.8522 0.0000 30.6707 0.0000
# 6 0.0000 0.0000 0.0000 -5.7249 0.0000 30.3706
#
#
#
# Elastic Compliance Matrix: (Units=1/GPa)
#
#
# Indices 1 2 3 4 5 6 
#
# 1 0.011153 -0.000187 -0.012306 0.000000 0.010637 0.000000
# 2 -0.000187 0.021293 0.002085 0.000000 0.000348 0.000000
# 3 -0.012306 0.002085 0.047964 0.000000 -0.027145 0.000000
# 4 0.000000 0.000000 0.000000 0.029620 0.000000 0.005583
# 5 0.010637 0.000348 -0.027145 0.000000 0.049742 0.000000
# 6 0.000000 0.000000 0.000000 0.005583 0.000000 0.033979
#
#
# Mechanical properties :
#
#
# Convention : Reuss Voigt Hill
#
# Bulk Modulus (GPa) = 16.77995 28.53927 22.65961
# Shear Modulus (GPa) = 21.32803 32.04935 26.68869
#
# Velocity S-wave (km/s) = 3.16199 3.87610 3.53711
# Velocity P-wave (km/s) = 4.60402 5.78021 5.22532
#
# Compressibility (1/GPa) = 0.05959493
#
# Stress axis : x y z
#
# Youngs Moduli (GPa) = 89.65970 46.96293 20.84884
#
# Poissons Ratio (x) = 0.00877 0.25657
# Poissons Ratio (y) = 0.01674 -0.04347
# Poissons Ratio (z) = 1.10338 -0.09791
#
# Static dielectric constant tensor:
#      x y z
#    x 1.795680 0.000000 0.015340 
#    y 0.000000 1.809080 0.000000 
#    z 0.015340 0.000000 1.720100 
# 
# From -- ./inp_files/189414.got.cif
#   From: 2010.05.17/outbox.cif.g08.bks.cpg/sg12_95_cif.got.tgz:189414.got - 2010.06.03 13:09:07.
