data_PCOD9203273
_publ_section_title
;
Structure prediction by ZEFSAII (Michael W. Deem and Ramdas Pophale) SiO2 
 PCOD9203273
Probable space group: C 2/M
;
_chemical_formula_sum "Si O2"
_cell_formula_units_Z 52
_cell_length_a 14.760861
_cell_length_b 10.493261
_cell_length_c 21.761682
_cell_angle_alpha 90.000000
_cell_angle_beta 129.216252
_cell_angle_gamma 90.000000
_cell_volume 2611.468074
_symmetry_space_group_name_H-M "C 2/M"
_symmetry_group_IT_number 12
_symmetry_cell_setting 'monoclinic'
loop_
_space_group_symop_operation_xyz
x,y,z
-x,y,-z
-x,-y,-z
x,-y,z
1/2+x,1/2+y,z
1/2-x,1/2+y,-z
1/2-x,1/2-y,-z
1/2+x,1/2-y,z
loop_
_atom_site_type_symbol
_atom_site_label
_atom_site_fract_x
_atom_site_fract_y
_atom_site_fract_z
Si Si1 0.176449 0.000000 0.922939
Si Si2 0.393311 0.355265 0.413850
Si Si3 0.292265 0.233174 0.756220
Si Si4 0.768677 0.227984 0.136410
Si Si5 0.699601 0.859081 0.435990
Si Si6 0.484714 0.147845 0.741746
Si Si7 0.585583 0.500000 0.164690
Si Si8 0.852446 0.000000 0.943530
O O1 0.236822 0.876382 0.919255
O O2 0.035859 0.000000 0.850098
O O3 0.174293 0.000000 0.994915
O O4 0.500000 0.300106 0.500000
O O5 0.572951 0.500000 0.592100
O O6 0.332061 0.279516 0.332261
O O7 0.290469 0.368617 0.419155
O O8 0.278532 0.176835 0.818522
O O9 0.390471 0.167608 0.755814
O O10 0.337872 0.376924 0.785603
O O11 0.704215 0.361063 0.095694
O O12 0.904350 0.264141 0.202220
O O13 0.750000 0.750000 0.500000
O O14 0.578838 0.826077 0.350411
O O15 0.691105 0.000000 0.461563
O O16 0.521171 0.000000 0.757330
O O17 0.555599 0.500000 0.077348
#
# Coordination Sequence:
#
# PCOD9203273 Si02
#       8
#     4   8   8   8   8   8   4   4
#     4  12  23  40  63  97 117 147 203 249 292 347
#     4   9  19  36  56  78 112 155 192 241 294 337
#     4  10  21  38  58  86 120 153 204 243 286 352
#     4  11  23  38  65  91 116 155 198 246 291 351
#     4   9  19  35  53  79 110 149 192 238 288 343
#     4  10  20  39  61  79 119 164 195 237 298 356
#     4  10  21  40  61  86 122 161 187 237 305 359
#     4  10  23  44  63  85 126 162 183 236 308 379
#
# _framework density 19.912172000000002
#
# number of rings (size 3 to 8) (size 9 to 14) (size 15 to 20)
#    0.000    2.000    2.308    2.077    4.308    0.000 
#    6.923    0.385    0.000    0.923    0.000    0.000 
#    0.000    0.000    0.000    0.000    0.000    0.000 
#
# Total GULP energy -144763.908008 kJ/mol
# GULP energy per Si atom -5567.842616 kJ/mol
# Density = 1.986685 g / cm^3
# Si number density = 19.912172 Si / 1000 Ang^3
#
#
#
# Elastic Constant Matrix: (Units=GPa)
#
#
# Indices 1 2 3 4 5 6 
#
# 1 81.1119 35.9361 46.1707 0.0000 2.6862 0.0000
# 2 35.9361 114.4623 96.3333 0.0000 7.6927 0.0000
# 3 46.1707 96.3333 195.1349 0.0000 36.4028 0.0000
# 4 0.0000 0.0000 0.0000 16.0853 0.0000 -7.0663
# 5 2.6862 7.6927 36.4028 0.0000 56.1318 0.0000
# 6 0.0000 0.0000 0.0000 -7.0663 0.0000 20.7503
#
#
#
# Elastic Compliance Matrix: (Units=1/GPa)
#
#
# Indices 1 2 3 4 5 6 
#
# 1 0.014862 -0.002733 -0.002394 0.000000 0.001216 0.000000
# 2 -0.002733 0.015943 -0.007783 0.000000 0.002993 0.000000
# 3 -0.002394 -0.007783 0.010595 0.000000 -0.005690 0.000000
# 4 0.000000 0.000000 0.000000 0.073105 0.000000 0.024895
# 5 0.001216 0.002993 -0.005690 0.000000 0.021037 0.000000
# 6 0.000000 0.000000 0.000000 0.024895 0.000000 0.056670
#
#
# Mechanical properties :
#
#
# Convention : Reuss Voigt Hill
#
# Bulk Modulus (GPa) = 64.18138 83.06547 73.62343
# Shear Modulus (GPa) = 22.39904 32.74474 27.57189
#
# Velocity S-wave (km/s) = 3.35758 4.05959 3.72516
# Velocity P-wave (km/s) = 6.87992 7.98625 7.45364
#
# Compressibility (1/GPa) = 0.01558084
#
# Stress axis : x y z
#
# Youngs Moduli (GPa) = 67.28593 62.72269 94.38729
#
# Poissons Ratio (x) = 0.17140 0.22599
# Poissons Ratio (y) = 0.18387 0.73457
# Poissons Ratio (z) = 0.16110 0.48814
#
# Static dielectric constant tensor:
#      x y z
#    x 1.714750 0.000000 0.033890 
#    y 0.000000 1.708150 0.000000 
#    z 0.033890 0.000000 1.787660 
# 
# From -- ./inp_files/310071.got.cif
#   From: 2010.05.17/outbox.cif.g08.bks.cpg/sg12_156_cif.got.tgz:310071.got - 2010.06.03 13:09:07.
