data_PCOD9203371
_publ_section_title
;
Structure prediction by ZEFSAII (Michael W. Deem and Ramdas Pophale) SiO2 
 PCOD9203371
Probable space group: C 2/M
;
_chemical_formula_sum "Si O2"
_cell_formula_units_Z 48
_cell_length_a 8.999947
_cell_length_b 27.403757
_cell_length_c 17.351581
_cell_angle_alpha 90.000000
_cell_angle_beta 146.550106
_cell_angle_gamma 90.000000
_cell_volume 2358.871334
_symmetry_space_group_name_H-M "C 2/M"
_symmetry_group_IT_number 12
_symmetry_cell_setting 'monoclinic'
loop_
_space_group_symop_operation_xyz
x,y,z
-x,y,-z
-x,-y,-z
x,-y,z
1/2+x,1/2+y,z
1/2-x,1/2+y,-z
1/2-x,1/2-y,-z
1/2+x,1/2-y,z
loop_
_atom_site_type_symbol
_atom_site_label
_atom_site_fract_x
_atom_site_fract_y
_atom_site_fract_z
Si Si1 0.900775 0.899978 0.545092
Si Si2 0.735664 0.500000 0.437470
Si Si3 0.318137 0.500000 0.120459
Si Si4 0.439316 0.835900 0.295159
Si Si5 0.442047 0.747311 0.891258
Si Si6 0.046953 0.910538 0.932041
Si Si7 0.411198 0.848964 0.816731
O O1 0.686550 0.855562 0.452767
O O2 0.000000 0.905599 0.500000
O O3 0.161575 0.885912 0.707823
O O4 0.774287 0.950699 0.517162
O O5 0.479683 0.500000 0.270056
O O6 0.000000 0.500000 0.500000
O O7 0.404529 0.453470 0.106937
O O8 0.000000 0.500000 0.000000
O O9 0.274528 0.787008 0.243995
O O10 0.551552 0.830486 0.255906
O O11 0.215730 0.878439 0.199548
O O12 0.349898 0.803253 0.845240
O O13 0.500000 0.725210 0.000000
O O14 0.750000 0.750000 0.000000
O O15 0.310752 0.875984 0.043468
O O16 0.000000 0.928207 0.000000
#
# Coordination Sequence:
#
# PCOD9203371 Si02
#       7
#     8   4   4   8   8   8   8
#     4  10  23  43  66  85 118 167 215 247 297 373
#     4  12  25  44  61  90 130 160 196 260 325 362
#     4  12  25  38  59  94 128 150 200 268 309 360
#     4  10  20  39  62  87 116 160 210 250 287 368
#     4  12  21  38  64  93 125 160 200 249 312 362
#     4  10  20  39  63  85 119 164 208 243 302 371
#     4  10  21  38  62  92 118 155 206 255 292 356
#
# _framework density 20.348714999999999
#
# number of rings (size 3 to 8) (size 9 to 14) (size 15 to 20)
#    0.000    1.333    3.333    3.000    0.000    2.667 
#    3.000    6.667    0.000    0.000    0.000    0.000 
#    0.000    0.000    0.000    0.000    0.000    0.000 
#
# Total GULP energy -133972.196687 kJ/mol
# GULP energy per Si atom -5582.174862 kJ/mol
# Density = 2.030240 g / cm^3
# Si number density = 20.348715 Si / 1000 Ang^3
#
#
#
# Elastic Constant Matrix: (Units=GPa)
#
#
# Indices 1 2 3 4 5 6 
#
# 1 43.3157 29.0152 19.3687 0.0000 20.3098 0.0000
# 2 29.0152 96.5821 9.2147 0.0000 3.8235 0.0000
# 3 19.3687 9.2147 75.1461 0.0001 18.3637 0.0000
# 4 0.0000 0.0000 0.0001 29.5602 0.0000 3.4394
# 5 20.3098 3.8235 18.3637 0.0000 26.8360 0.0000
# 6 0.0000 0.0000 0.0000 3.4394 0.0000 29.7741
#
#
#
# Elastic Compliance Matrix: (Units=1/GPa)
#
#
# Indices 1 2 3 4 5 6 
#
# 1 0.048491 -0.012992 -0.002869 0.000000 -0.032884 0.000000
# 2 -0.012992 0.013970 -0.000337 0.000000 0.008073 0.000000
# 3 -0.002869 -0.000337 0.016266 0.000000 -0.008911 0.000000
# 4 0.000000 0.000000 0.000000 0.034290 0.000000 -0.003961
# 5 -0.032884 0.008073 -0.008911 0.000000 0.067098 0.000000
# 6 0.000000 0.000000 0.000000 -0.003961 0.000000 0.034044
#
#
# Mechanical properties :
#
#
# Convention : Reuss Voigt Hill
#
# Bulk Modulus (GPa) = 21.58465 36.69345 29.13905
# Shear Modulus (GPa) = 19.08414 27.73042 23.40728
#
# Velocity S-wave (km/s) = 3.06576 3.69556 3.39530
# Velocity P-wave (km/s) = 4.81272 6.02337 5.45176
#
# Compressibility (1/GPa) = 0.04632923
#
# Stress axis : x y z
#
# Youngs Moduli (GPa) = 20.62258 71.58452 61.47814
#
# Poissons Ratio (x) = 0.93002 0.17640
# Poissons Ratio (y) = 0.26793 0.02073
# Poissons Ratio (z) = 0.05917 0.02413
#
# Static dielectric constant tensor:
#      x y z
#    x 1.707090 0.000000 -0.011960 
#    y 0.000000 1.729110 0.000000 
#    z -0.011960 0.000000 1.678470 
# 
# From -- ./inp_files/260445.got.cif
#   From: 2010.05.17/outbox.cif.g08.bks.cpg/sg12_131_cif.got.tgz:260445.got - 2010.06.03 13:09:07.
