data_PCOD9203391
_publ_section_title
;
Structure prediction by ZEFSAII (Michael W. Deem and Ramdas Pophale) SiO2 
 PCOD9203391
Probable space group: C 2/M
;
_chemical_formula_sum "Si O2"
_cell_formula_units_Z 64
_cell_length_a 24.056613
_cell_length_b 17.056454
_cell_length_c 14.714898
_cell_angle_alpha 90.000000
_cell_angle_beta 150.223419
_cell_angle_gamma 90.000000
_cell_volume 2998.499754
_symmetry_space_group_name_H-M "C 2/M"
_symmetry_group_IT_number 12
_symmetry_cell_setting 'monoclinic'
loop_
_space_group_symop_operation_xyz
x,y,z
-x,y,-z
-x,-y,-z
x,-y,z
1/2+x,1/2+y,z
1/2-x,1/2+y,-z
1/2-x,1/2-y,-z
1/2+x,1/2-y,z
loop_
_atom_site_type_symbol
_atom_site_label
_atom_site_fract_x
_atom_site_fract_y
_atom_site_fract_z
Si Si1 0.836320 0.827017 0.899474
Si Si2 0.392823 0.589429 0.463287
Si Si3 0.471156 0.087683 0.138006
Si Si4 0.646178 0.409887 0.891361
Si Si5 0.778948 0.168659 0.465249
Si Si6 0.249813 0.829344 0.878762
Si Si7 0.292720 0.909183 0.445049
Si Si8 0.441178 0.242527 0.811724
O O1 0.790844 0.751733 0.891768
O O2 0.755701 0.859701 0.706928
O O3 0.850429 0.892648 0.997011
O O4 0.958083 0.803232 0.031443
O O5 0.376573 0.500000 0.411268
O O6 0.518250 0.597886 0.676869
O O7 0.310655 0.611803 0.429456
O O8 0.358166 0.644586 0.331991
O O9 0.572260 0.092857 0.354684
O O10 0.501283 0.158002 0.113445
O O11 0.474132 0.000000 0.103690
O O12 0.350368 0.109205 0.004207
O O13 0.682019 0.500000 0.923197
O O14 0.716546 0.344728 0.935768
O O15 0.752850 0.122556 0.522072
O O16 0.670439 0.221557 0.289728
O O17 0.882671 0.225906 0.635771
O O18 0.258893 0.000000 0.387451
#
# Coordination Sequence:
#
# PCOD9203391 Si02
#       8
#     8   8   8   8   8   8   8   8
#     4  11  23  41  63  94 124 162 206 254 310 372
#     4  11  23  40  64  94 125 163 206 255 313 369
#     4   9  19  39  61  85 120 160 205 256 304 359
#     4  11  23  43  65  90 125 159 204 263 314 369
#     4  10  20  39  62  88 127 163 202 250 300 367
#     4  11  24  39  66  90 123 161 209 257 311 369
#     4  10  22  40  64  91 125 166 205 253 310 368
#     4   9  20  36  59  87 121 158 201 246 303 358
#
# _framework density 21.344007000000001
#
# number of rings (size 3 to 8) (size 9 to 14) (size 15 to 20)
#    0.000    1.750    1.250    2.625    5.250    2.000 
#    2.250    4.375    0.000    9.750    0.000    0.000 
#    0.000    0.000    0.000    0.000    0.000    0.000 
#
# Total GULP energy -178603.929782 kJ/mol
# GULP energy per Si atom -5581.372806 kJ/mol
# Density = 2.129543 g / cm^3
# Si number density = 21.344007 Si / 1000 Ang^3
#
#
#
# Elastic Constant Matrix: (Units=GPa)
#
#
# Indices 1 2 3 4 5 6 
#
# 1 79.1863 24.7352 22.3623 0.0000 -11.4812 0.0000
# 2 24.7352 94.9407 14.5998 0.0000 -2.0781 0.0000
# 3 22.3623 14.5998 74.2863 0.0000 -13.6285 0.0000
# 4 0.0000 0.0000 0.0000 31.7297 0.0000 -0.5385
# 5 -11.4812 -2.0781 -13.6285 0.0000 25.4576 0.0000
# 6 0.0000 0.0000 0.0000 -0.5385 0.0000 24.1557
#
#
#
# Elastic Compliance Matrix: (Units=1/GPa)
#
#
# Indices 1 2 3 4 5 6 
#
# 1 0.015266 -0.003405 -0.003010 0.000000 0.004996 0.000000
# 2 -0.003405 0.011623 -0.001516 0.000000 -0.001398 0.000000
# 3 -0.003010 -0.001516 0.015961 0.000000 0.007064 0.000000
# 4 0.000000 0.000000 0.000000 0.031528 0.000000 0.000703
# 5 0.004996 -0.001398 0.007064 0.000000 0.045201 0.000000
# 6 0.000000 0.000000 0.000000 0.000703 0.000000 0.041414
#
#
# Mechanical properties :
#
#
# Convention : Reuss Voigt Hill
#
# Bulk Modulus (GPa) = 37.05261 41.31198 39.18229
# Shear Modulus (GPa) = 26.90322 28.71632 27.80977
#
# Velocity S-wave (km/s) = 3.55414 3.67195 3.61353
# Velocity P-wave (km/s) = 5.85150 6.11351 5.98394
#
# Compressibility (1/GPa) = 0.02698865
#
# Stress axis : x y z
#
# Youngs Moduli (GPa) = 65.50310 86.03982 62.65176
#
# Poissons Ratio (x) = 0.29298 0.18857
# Poissons Ratio (y) = 0.22305 0.09496
# Poissons Ratio (z) = 0.19716 0.13041
#
# Static dielectric constant tensor:
#      x y z
#    x 1.802790 0.000000 -0.010490 
#    y 0.000000 1.790800 0.000000 
#    z -0.010490 0.000000 1.772570 
# 
# From -- ./inp_files/241544.got.cif
#   From: 2010.05.17/outbox.cif.g08.bks.cpg/sg12_121_cif.got.tgz:241544.got - 2010.06.03 13:09:07.
