data_PCOD9203406
_publ_section_title
;
Structure prediction by ZEFSAII (Michael W. Deem and Ramdas Pophale) SiO2 
 PCOD9203406
Probable space group: C 2/M
;
_chemical_formula_sum "Si O2"
_cell_formula_units_Z 56
_cell_length_a 20.461032
_cell_length_b 18.358287
_cell_length_c 20.197634
_cell_angle_alpha 90.000000
_cell_angle_beta 20.337912
_cell_angle_gamma 90.000000
_cell_volume 2636.848549
_symmetry_space_group_name_H-M "C 2/M"
_symmetry_group_IT_number 12
_symmetry_cell_setting 'monoclinic'
loop_
_space_group_symop_operation_xyz
x,y,z
-x,y,-z
-x,-y,-z
x,-y,z
1/2+x,1/2+y,z
1/2-x,1/2+y,-z
1/2-x,1/2-y,-z
1/2+x,1/2-y,z
loop_
_atom_site_type_symbol
_atom_site_label
_atom_site_fract_x
_atom_site_fract_y
_atom_site_fract_z
Si Si1 0.772728 0.631562 0.478536
Si Si2 0.568475 0.202200 0.008958
Si Si3 0.035502 0.763912 0.179690
Si Si4 0.212964 0.418224 0.678618
Si Si5 0.500379 0.708448 0.425281
Si Si6 0.438090 0.137285 0.453972
Si Si7 0.280491 0.412817 0.207996
O O1 0.568707 0.664679 0.692404
O O2 0.770322 0.581203 0.416788
O O3 0.868512 0.600022 0.453281
O O4 0.908304 0.697151 0.325810
O O5 0.527704 0.258916 0.106941
O O6 0.468791 0.126525 0.124040
O O7 0.500000 0.222655 0.000000
O O8 0.790716 0.192675 0.795375
O O9 0.250000 0.750000 0.000000
O O10 0.221098 0.500000 0.697069
O O11 0.379715 0.364097 0.541145
O O12 0.500000 0.738740 0.500000
O O13 0.416395 0.775523 0.463843
O O14 0.313037 0.111093 0.634119
O O15 0.653417 0.122667 0.270873
O O16 0.262783 0.500000 0.218227
O O17 0.500000 0.393944 0.000000
#
# Coordination Sequence:
#
# PCOD9203406 Si02
#       7
#     8   8   8   8   8   8   8
#     4  10  22  38  61  91 122 163 217 260 322 394
#     4  11  23  39  64  94 128 163 215 275 335 400
#     4  10  20  39  62  90 128 163 199 266 335 396
#     4  11  26  46  63  87 129 181 229 279 331 391
#     4  12  23  40  64  98 129 163 217 276 338 394
#     4  11  21  38  66  98 130 168 215 273 333 394
#     4  10  23  41  61  93 136 173 210 260 327 408
#
# _framework density 21.237472
#
# number of rings (size 3 to 8) (size 9 to 14) (size 15 to 20)
#    0.000    1.286    2.857    5.143    0.000    6.286 
#    0.000    0.000    0.000    0.000    0.000    0.000 
#    0.000    0.000    0.000    0.000    0.000    0.000 
#
# Total GULP energy -156523.307945 kJ/mol
# GULP energy per Si atom -5590.118141 kJ/mol
# Density = 2.118913 g / cm^3
# Si number density = 21.237472 Si / 1000 Ang^3
#
#
#
# Elastic Constant Matrix: (Units=GPa)
#
#
# Indices 1 2 3 4 5 6 
#
# 1 105.5007 3.8102 4.0931 -0.0109 10.6350 0.0086
# 2 3.8102 99.1463 33.3394 -0.0246 -1.1938 0.0092
# 3 4.0931 33.3394 141.4660 -0.0004 -10.3217 0.0123
# 4 -0.0109 -0.0246 -0.0004 20.7214 -0.0002 -1.7729
# 5 10.6350 -1.1938 -10.3217 -0.0002 33.9233 -0.0023
# 6 0.0086 0.0092 0.0123 -1.7729 -0.0023 16.6892
#
#
#
# Elastic Compliance Matrix: (Units=1/GPa)
#
#
# Indices 1 2 3 4 5 6 
#
# 1 0.009832 -0.000263 -0.000458 0.000004 -0.003231 -0.000005
# 2 -0.000263 0.010967 -0.002601 0.000013 -0.000323 -0.000003
# 3 -0.000458 -0.002601 0.007874 -0.000003 0.002448 -0.000004
# 4 0.000004 0.000013 -0.000003 0.048702 -0.000001 0.005174
# 5 -0.003231 -0.000323 0.002448 -0.000001 0.031225 0.000004
# 6 -0.000005 -0.000003 -0.000004 0.005174 0.000004 0.060469
#
#
# Mechanical properties :
#
#
# Convention : Reuss Voigt Hill
#
# Bulk Modulus (GPa) = 45.39463 47.62203 46.50833
# Shear Modulus (GPa) = 27.31449 34.59146 30.95298
#
# Velocity S-wave (km/s) = 3.59018 4.04021 3.82182
# Velocity P-wave (km/s) = 6.21346 6.65106 6.43598
#
# Compressibility (1/GPa) = 0.02202904
#
# Stress axis : x y z
#
# Youngs Moduli (GPa) = 101.71318 91.18455 127.00738
#
# Poissons Ratio (x) = 0.02395 0.05821
# Poissons Ratio (y) = 0.02671 0.33028
# Poissons Ratio (z) = 0.04662 0.23713
#
# Static dielectric constant tensor:
#      x y z
#    x 1.900510 0.000040 0.047010 
#    y 0.000040 1.754520 0.000040 
#    z 0.047010 0.000040 1.789150 
# 
# From -- ./inp_files/322673.got.cif
#   From: 2010.05.17/outbox.cif.g08.bks.cpg/sg12_162_cif.got.tgz:322673.got - 2010.06.03 13:09:07.
