data_PCOD9203785
_publ_section_title
;
Structure prediction by ZEFSAII (Michael W. Deem and Ramdas Pophale) SiO2 
 PCOD9203785
Probable space group: C 2/M
;
_chemical_formula_sum "Si O2"
_cell_formula_units_Z 40
_cell_length_a 14.914104
_cell_length_b 15.324062
_cell_length_c 8.732732
_cell_angle_alpha 90.000000
_cell_angle_beta 77.955595
_cell_angle_gamma 90.000000
_cell_volume 1951.883597
_symmetry_space_group_name_H-M "C 2/M"
_symmetry_group_IT_number 12
_symmetry_cell_setting 'monoclinic'
loop_
_space_group_symop_operation_xyz
x,y,z
-x,y,-z
-x,-y,-z
x,-y,z
1/2+x,1/2+y,z
1/2-x,1/2+y,-z
1/2-x,1/2-y,-z
1/2+x,1/2-y,z
loop_
_atom_site_type_symbol
_atom_site_label
_atom_site_fract_x
_atom_site_fract_y
_atom_site_fract_z
Si Si1 0.562910 0.907513 0.627394
Si Si2 0.733186 0.236813 0.183998
Si Si3 0.237988 0.095661 0.390270
Si Si4 0.980689 0.762674 0.689419
Si Si5 0.379731 0.602768 0.274916
O O1 0.500000 0.908057 0.500000
O O2 0.669012 0.904693 0.543271
O O3 0.539937 0.820086 0.724061
O O4 0.548217 0.000000 0.715255
O O5 0.751743 0.325820 0.270369
O O6 0.623409 0.231781 0.249803
O O7 0.801315 0.159645 0.216288
O O8 0.750000 0.250000 0.000000
O O9 0.154440 0.106497 0.535847
O O10 0.230129 0.000000 0.318515
O O11 0.022119 0.847360 0.760141
O O12 0.000000 0.773411 0.500000
O O13 0.383373 0.500000 0.229926
#
# Coordination Sequence:
#
# PCOD9203785 Si02
#       5
#     8   8   8   8   8
#     4   9  17  31  58  93 120 150 200 264 321 369
#     4  12  26  42  62  94 137 173 208 266 335 389
#     4  10  20  39  67  94 125 164 215 269 317 379
#     4  11  21  38  69  93 125 165 222 273 318 384
#     4  11  23  42  69  98 129 171 225 272 320 387
#
# _framework density 20.493026
#
# number of rings (size 3 to 8) (size 9 to 14) (size 15 to 20)
#    0.000    1.400    4.000    3.000    0.000    5.200 
#    0.000    1.000    0.000    2.400    0.000    0.000 
#    0.000    0.000    0.000    0.000    0.000    0.000 
#
# Total GULP energy -111376.604935 kJ/mol
# GULP energy per Si atom -5568.830247 kJ/mol
# Density = 2.044638 g / cm^3
# Si number density = 20.493026 Si / 1000 Ang^3
#
#
#
# Elastic Constant Matrix: (Units=GPa)
#
#
# Indices 1 2 3 4 5 6 
#
# 1 79.4341 33.6224 -4.1985 0.0000 -11.4936 0.0000
# 2 33.6224 169.2647 13.0898 0.0000 15.0315 0.0000
# 3 -4.1985 13.0898 43.6147 0.0000 1.5453 0.0000
# 4 0.0000 0.0000 0.0000 -38.5584 0.0000 -45.3766
# 5 -11.4936 15.0315 1.5453 0.0000 15.3967 0.0000
# 6 0.0000 0.0000 0.0000 -45.3766 0.0000 -12.6069
#
#
#
# Elastic Compliance Matrix: (Units=1/GPa)
#
#
# Indices 1 2 3 4 5 6 
#
# 1 0.017580 -0.005298 0.002643 0.000000 0.018030 0.000000
# 2 -0.005298 0.008197 -0.002555 0.000000 -0.011701 0.000000
# 3 0.002643 -0.002555 0.023876 0.000000 0.002072 0.000000
# 4 0.000000 0.000000 0.000000 0.008015 0.000000 -0.028848
# 5 0.018030 -0.011701 0.002072 0.000000 0.089624 0.000000
# 6 0.000000 0.000000 0.000000 -0.028848 0.000000 0.024514
#
#
# Mechanical properties :
#
#
# Convention : Reuss Voigt Hill
#
# Bulk Modulus (GPa) = 25.48838 41.92677 33.70758
# Shear Modulus (GPa) = 25.60129 9.49960 17.55044
#
# Velocity S-wave (km/s) = 3.53833 2.15536 2.92962
# Velocity P-wave (km/s) = 5.39978 5.16697 5.28466
#
# Compressibility (1/GPa) = 0.03923357
#
# Stress axis : x y z
#
# Youngs Moduli (GPa) = 56.88297 121.99699 41.88293
#
# Poissons Ratio (x) = 0.64630 -0.11071
# Poissons Ratio (y) = 0.30135 0.10703
# Poissons Ratio (z) = -0.15037 0.31176
#
# Static dielectric constant tensor:
#      x y z
#    x 1.719780 0.000000 0.135740 
#    y 0.000000 1.823800 0.000000 
#    z 0.135740 0.000000 1.421020 
# 
# From -- ./inp_files/58920.got.cif
#   From: 2010.05.17/outbox.cif.g08.bks.cpg/sg12_30_cif.got.tgz:58920.got - 2010.06.03 13:09:07.
