data_PCOD9203902
_publ_section_title
;
Structure prediction by ZEFSAII (Michael W. Deem and Ramdas Pophale) SiO2 
 PCOD9203902
Probable space group: C 2/M
;
_chemical_formula_sum "Si O2"
_cell_formula_units_Z 48
_cell_length_a 9.588004
_cell_length_b 14.803659
_cell_length_c 18.123228
_cell_angle_alpha 90.000000
_cell_angle_beta 126.417939
_cell_angle_gamma 90.000000
_cell_volume 2070.003747
_symmetry_space_group_name_H-M "C 2/M"
_symmetry_group_IT_number 12
_symmetry_cell_setting 'monoclinic'
loop_
_space_group_symop_operation_xyz
x,y,z
-x,y,-z
-x,-y,-z
x,-y,z
1/2+x,1/2+y,z
1/2-x,1/2+y,-z
1/2-x,1/2-y,-z
1/2+x,1/2-y,z
loop_
_atom_site_type_symbol
_atom_site_label
_atom_site_fract_x
_atom_site_fract_y
_atom_site_fract_z
Si Si1 0.406614 0.258915 0.206198
Si Si2 0.354125 0.899868 0.690541
Si Si3 0.310794 0.159167 0.977762
Si Si4 0.605335 0.871355 0.463607
Si Si5 0.014806 0.832081 0.397779
Si Si6 0.304226 0.402272 0.910557
O O1 0.563123 0.186333 0.240391
O O2 0.338698 0.339029 0.131530
O O3 0.458597 0.306982 0.297381
O O4 0.251460 0.183822 0.155643
O O5 0.432266 0.900719 0.632214
O O6 0.150558 0.879328 0.618420
O O7 0.378898 0.000000 0.731372
O O8 0.500000 0.159492 0.000000
O O9 0.250000 0.250000 0.000000
O O10 0.302747 0.095131 0.046058
O O11 0.500000 0.906832 0.500000
O O12 0.807638 0.886498 0.542970
O O13 0.562035 0.764586 0.447243
O O14 0.287625 0.500000 0.867545
O O15 0.500000 0.391100 0.000000
#
# Coordination Sequence:
#
# PCOD9203902 Si02
#       6
#     8   8   8   8   8   8
#     4  10  21  36  61  89 121 158 206 255 300 362
#     4  11  24  39  62  92 124 160 202 257 312 361
#     4  10  21  37  61  92 120 164 215 255 302 372
#     4  10  20  40  60  90 121 158 203 246 303 373
#     4  10  21  36  63  90 119 159 208 251 297 366
#     4  10  22  40  62  89 127 168 206 256 316 368
#
# _framework density 23.188365000000001
#
# number of rings (size 3 to 8) (size 9 to 14) (size 15 to 20)
#    0.000    1.833    0.000    6.000    7.000    2.000 
#    0.000    0.833    0.000    0.000    0.000    0.000 
#    0.000    0.000    0.000    0.000    0.000    0.000 
#
# Total GULP energy -133743.768953 kJ/mol
# GULP energy per Si atom -5572.657040 kJ/mol
# Density = 2.313559 g / cm^3
# Si number density = 23.188365 Si / 1000 Ang^3
#
#
#
# Elastic Constant Matrix: (Units=GPa)
#
#
# Indices 1 2 3 4 5 6 
#
# 1 109.5234 -4.6592 21.0330 0.0000 15.9694 0.0000
# 2 -4.6592 66.4724 -8.1680 0.0000 -3.0161 0.0000
# 3 21.0330 -8.1680 113.6895 0.0000 5.6993 0.0000
# 4 0.0000 0.0000 0.0000 -53.8323 0.0000 -15.5152
# 5 15.9694 -3.0161 5.6993 0.0000 36.0464 0.0000
# 6 0.0000 0.0000 0.0000 -15.5152 0.0000 -0.6888
#
#
#
# Elastic Compliance Matrix: (Units=1/GPa)
#
#
# Indices 1 2 3 4 5 6 
#
# 1 0.010066 0.000316 -0.001630 0.000000 -0.004175 0.000000
# 2 0.000316 0.015232 0.000987 0.000000 0.000979 0.000000
# 3 -0.001630 0.000987 0.009201 0.000000 -0.000650 0.000000
# 4 0.000000 0.000000 0.000000 0.003383 0.000000 -0.076189
# 5 -0.004175 0.000979 -0.000650 0.000000 0.029776 0.000000
# 6 0.000000 0.000000 0.000000 -0.076189 0.000000 0.264350
#
#
# Mechanical properties :
#
#
# Convention : Reuss Voigt Hill
#
# Bulk Modulus (GPa) = 29.54811 34.01078 31.77945
# Shear Modulus (GPa) = 14.53727 15.07034 14.80380
#
# Velocity S-wave (km/s) = 2.50655 2.55210 2.52943
# Velocity P-wave (km/s) = 4.59863 4.83563 4.71862
#
# Compressibility (1/GPa) = 0.03384311
#
# Stress axis : x y z
#
# Youngs Moduli (GPa) = 99.34683 65.65286 108.68430
#
# Poissons Ratio (x) = -0.02073 0.17718
# Poissons Ratio (y) = -0.03137 -0.10725
# Poissons Ratio (z) = 0.16196 -0.06479
#
# Static dielectric constant tensor:
#      x y z
#    x 1.913990 0.000000 -0.028440 
#    y 0.000000 1.969660 0.000000 
#    z -0.028440 0.000000 1.959840 
# 
# From -- ./inp_files/256721.got.cif
#   From: 2010.05.17/outbox.cif.g08.bks.cpg/sg12_129_cif.got.tgz:256721.got - 2010.06.03 13:09:07.
