data_PCOD9203560
_publ_section_title
;
Structure prediction by ZEFSAII (Michael W. Deem and Ramdas Pophale) SiO2 
 PCOD9203560
Probable space group: C 2/M
;
_chemical_formula_sum "Si O2"
_cell_formula_units_Z 64
_cell_length_a 18.821045
_cell_length_b 18.753358
_cell_length_c 17.160935
_cell_angle_alpha 90.000000
_cell_angle_beta 154.481621
_cell_angle_gamma 90.000000
_cell_volume 2609.396190
_symmetry_space_group_name_H-M "C 2/M"
_symmetry_group_IT_number 12
_symmetry_cell_setting 'monoclinic'
loop_
_space_group_symop_operation_xyz
x,y,z
-x,y,-z
-x,-y,-z
x,-y,z
1/2+x,1/2+y,z
1/2-x,1/2+y,-z
1/2-x,1/2-y,-z
1/2+x,1/2-y,z
loop_
_atom_site_type_symbol
_atom_site_label
_atom_site_fract_x
_atom_site_fract_y
_atom_site_fract_z
Si Si1 0.425145 0.123048 0.750581
Si Si2 0.413393 0.276262 0.792122
Si Si3 0.737574 0.415957 0.707602
Si Si4 0.076411 0.154394 0.685367
Si Si5 0.280434 0.581048 0.038242
Si Si6 0.618343 0.920590 0.713923
Si Si7 0.254884 0.919504 0.430957
Si Si8 0.737269 0.218149 0.774765
O O1 0.411473 0.209022 0.732149
O O2 0.393101 0.100477 0.807711
O O3 0.600591 0.095025 0.896436
O O4 0.294532 0.088572 0.561993
O O5 0.357426 0.353294 0.705880
O O6 0.289114 0.257312 0.740342
O O7 0.595669 0.278862 0.009310
O O8 0.715154 0.500000 0.692593
O O9 0.587129 0.381410 0.509489
O O10 0.721723 0.381631 0.776906
O O11 0.099902 0.235934 0.684046
O O12 0.103963 0.136664 0.802575
O O13 0.334786 0.500000 0.108982
O O14 0.245532 0.587884 0.912325
O O15 0.434850 0.912842 0.567619
O O16 0.671014 0.861600 0.705394
O O17 0.635466 0.000000 0.699327
O O18 0.191410 0.000000 0.352456
#
# Coordination Sequence:
#
# PCOD9203560 Si02
#       8
#     8   8   8   8   8   8   8   8
#     4  11  21  41  63  92 126 163 203 257 308 374
#     4  11  24  42  62  93 127 164 209 258 310 372
#     4  11  23  37  58  89 125 167 210 254 309 367
#     4  11  22  38  56  87 130 162 210 255 306 367
#     4  10  20  39  64  89 123 164 208 255 306 368
#     4   9  22  42  65  92 122 160 211 262 312 368
#     4  10  23  43  67  94 123 162 211 260 315 372
#     4  11  24  42  63  90 127 167 209 255 311 375
#
# _framework density 24.526748000000001
#
# number of rings (size 3 to 8) (size 9 to 14) (size 15 to 20)
#    0.000    1.500    2.500    3.750    1.750    3.500 
#    0.000    5.000    0.000    0.000    0.000    0.000 
#    0.000    0.000    0.000    0.000    0.000    0.000 
#
# Total GULP energy -179231.846338 kJ/mol
# GULP energy per Si atom -5600.995198 kJ/mol
# Density = 2.447092 g / cm^3
# Si number density = 24.526748 Si / 1000 Ang^3
#
#
#
# Elastic Constant Matrix: (Units=GPa)
#
#
# Indices 1 2 3 4 5 6 
#
# 1 45.2435 17.5440 -2.8790 0.0017 2.1736 0.0006
# 2 17.5440 113.3626 4.5202 0.0009 -2.2605 0.0007
# 3 -2.8790 4.5202 70.8139 0.0020 -11.9703 0.0013
# 4 0.0017 0.0009 0.0020 16.9523 0.0012 -9.5748
# 5 2.1736 -2.2605 -11.9703 0.0012 34.6940 0.0007
# 6 0.0006 0.0007 0.0013 -9.5748 0.0007 26.0116
#
#
#
# Elastic Compliance Matrix: (Units=1/GPa)
#
#
# Indices 1 2 3 4 5 6 
#
# 1 0.023678 -0.003731 0.000965 -0.000003 -0.001393 -0.000002
# 2 -0.003731 0.009437 -0.000648 0.000000 0.000625 0.000000
# 3 0.000965 -0.000648 0.015063 -0.000003 0.005094 -0.000002
# 4 -0.000003 0.000000 -0.000003 0.074472 -0.000004 0.027413
# 5 -0.001393 0.000625 0.005094 -0.000004 0.030709 -0.000003
# 6 -0.000002 0.000000 -0.000002 0.027413 -0.000003 0.048535
#
#
# Mechanical properties :
#
#
# Convention : Reuss Voigt Hill
#
# Bulk Modulus (GPa) = 24.18366 29.75447 26.96907
# Shear Modulus (GPa) = 22.47133 29.54722 26.00927
#
# Velocity S-wave (km/s) = 3.03016 3.47464 3.25998
# Velocity P-wave (km/s) = 4.70362 5.31556 5.01893
#
# Compressibility (1/GPa) = 0.04135023
#
# Stress axis : x y z
#
# Youngs Moduli (GPa) = 42.23398 105.96677 66.38645
#
# Poissons Ratio (x) = 0.39532 -0.06408
# Poissons Ratio (y) = 0.15756 0.04305
# Poissons Ratio (z) = -0.04077 0.06871
#
# Static dielectric constant tensor:
#      x y z
#    x 1.966590 0.000000 0.011120 
#    y 0.000000 1.925020 0.000000 
#    z 0.011120 0.000000 1.947650 
# 
# From -- ./inp_files/285222.got.cif
#   From: 2010.05.17/outbox.cif.g08.bks.cpg/sg12_143_cif.got.tgz:285222.got - 2010.06.03 13:09:07.
