data_PCOD9203033
_publ_section_title
;
Structure prediction by ZEFSAII (Michael W. Deem and Ramdas Pophale) SiO2 
 PCOD9203033
Probable space group: C 2/M
;
_chemical_formula_sum "Si O2"
_cell_formula_units_Z 28
_cell_length_a 5.004738
_cell_length_b 32.220534
_cell_length_c 9.467016
_cell_angle_alpha 90.000000
_cell_angle_beta 122.654228
_cell_angle_gamma 90.000000
_cell_volume 1285.314527
_symmetry_space_group_name_H-M "C 2/M"
_symmetry_group_IT_number 12
_symmetry_cell_setting 'monoclinic'
loop_
_space_group_symop_operation_xyz
x,y,z
-x,y,-z
-x,-y,-z
x,-y,z
1/2+x,1/2+y,z
1/2-x,1/2+y,-z
1/2-x,1/2-y,-z
1/2+x,1/2-y,z
loop_
_atom_site_type_symbol
_atom_site_label
_atom_site_fract_x
_atom_site_fract_y
_atom_site_fract_z
Si Si1 0.943180 0.865841 0.819028
Si Si2 0.316945 0.089839 0.684927
Si Si3 0.375183 0.000000 0.625824
Si Si4 0.217934 0.275197 0.702725
O O1 0.593455 0.884008 0.691343
O O2 0.912934 0.816915 0.783289
O O3 0.202305 0.888719 0.796665
O O4 0.000000 0.873568 0.000000
O O5 0.000000 0.089615 0.500000
O O6 0.448817 0.042695 0.727929
O O7 0.500000 0.000000 0.500000
O O8 0.000000 0.000000 0.500000
O O9 0.466630 0.237918 0.749565
O O10 0.000000 0.280031 0.500000
#
# Coordination Sequence:
#
# PCOD9203033 Si02
#       4
#     8   8   4   8
#     4  12  25  40  60  93 131 163 200 251 314 371
#     4  11  22  41  66  90 120 163 210 255 302 362
#     4  10  20  38  65  96 119 152 211 264 299 348
#     4  10  21  38  61  87 116 157 208 255 300 356
#
# _framework density 21.784552000000001
#
# number of rings (size 3 to 8) (size 9 to 14) (size 15 to 20)
#    0.000    1.143    0.000    8.571    0.000    3.429 
#    0.000    4.286    0.000    0.000    0.000    0.000 
#    0.000    0.000    0.000    0.000    0.000    0.000 
#
# Total GULP energy -78245.298496 kJ/mol
# GULP energy per Si atom -5588.949893 kJ/mol
# Density = 2.173497 g / cm^3
# Si number density = 21.784552 Si / 1000 Ang^3
#
#
#
# Elastic Constant Matrix: (Units=GPa)
#
#
# Indices 1 2 3 4 5 6 
#
# 1 133.2904 33.2477 14.3648 0.0000 -21.5098 0.0000
# 2 33.2477 132.4036 23.7510 0.0000 -17.3767 0.0000
# 3 14.3648 23.7510 55.7763 0.0000 -13.6347 0.0000
# 4 0.0000 0.0000 0.0000 1.2984 0.0000 -3.3432
# 5 -21.5098 -17.3767 -13.6347 0.0000 28.3941 0.0000
# 6 0.0000 0.0000 0.0000 -3.3432 0.0000 69.6849
#
#
#
# Elastic Compliance Matrix: (Units=1/GPa)
#
#
# Indices 1 2 3 4 5 6 
#
# 1 0.008800 -0.001416 -0.000278 0.000000 0.005666 0.000000
# 2 -0.001416 0.008779 -0.002631 0.000000 0.003036 0.000000
# 3 -0.000278 -0.002631 0.021160 0.000000 0.008340 0.000000
# 4 0.000000 0.000000 0.000000 0.878730 0.000000 0.042158
# 5 0.005666 0.003036 0.008340 0.000000 0.045374 0.000000
# 6 0.000000 0.000000 0.000000 0.042158 0.000000 0.016373
#
#
# Mechanical properties :
#
#
# Convention : Reuss Voigt Hill
#
# Bulk Modulus (GPa) = 33.23712 51.57748 42.40730
# Shear Modulus (GPa) = 5.01055 36.54926 20.77990
#
# Velocity S-wave (km/s) = 1.51824 4.10049 3.09185
# Velocity P-wave (km/s) = 4.28529 6.79310 5.67935
#
# Compressibility (1/GPa) = 0.03008684
#
# Stress axis : x y z
#
# Youngs Moduli (GPa) = 113.63591 113.91136 47.25994
#
# Poissons Ratio (x) = 0.16133 0.01315
# Poissons Ratio (y) = 0.16093 0.12436
# Poissons Ratio (z) = 0.03162 0.29974
#
# Static dielectric constant tensor:
#      x y z
#    x 1.762590 0.000000 -0.014180 
#    y 0.000000 1.866610 0.000000 
#    z -0.014180 0.000000 1.855790 
# 
# From -- ./inp_files/33892.got.cif
#   From: 2010.05.17/outbox.cif.g08.bks.cpg/sg12_17_cif.got.tgz:33892.got - 2010.06.03 13:09:07.
