data_PCOD9203973
_publ_section_title
;
Structure prediction by ZEFSAII (Michael W. Deem and Ramdas Pophale) SiO2 
 PCOD9203973
Probable space group: C 2/M
;
_chemical_formula_sum "Si O2"
_cell_formula_units_Z 42
_cell_length_a 12.241775
_cell_length_b 14.212894
_cell_length_c 11.951549
_cell_angle_alpha 90.000000
_cell_angle_beta 108.585517
_cell_angle_gamma 90.000000
_cell_volume 1971.016523
_symmetry_space_group_name_H-M "C 2/M"
_symmetry_group_IT_number 12
_symmetry_cell_setting 'monoclinic'
loop_
_space_group_symop_operation_xyz
x,y,z
-x,y,-z
-x,-y,-z
x,-y,z
1/2+x,1/2+y,z
1/2-x,1/2+y,-z
1/2-x,1/2-y,-z
1/2+x,1/2-y,z
loop_
_atom_site_type_symbol
_atom_site_label
_atom_site_fract_x
_atom_site_fract_y
_atom_site_fract_z
Si Si1 0.712766 0.108233 0.207186
Si Si2 0.452254 0.608316 0.646272
Si Si3 0.500000 0.238207 0.500000
Si Si4 0.000000 0.000000 0.000000
Si Si5 0.500000 0.168255 0.000000
Si Si6 0.410771 0.661608 0.106837
Si Si7 0.801882 0.611329 0.538986
O O1 0.589636 0.113149 0.106093
O O2 0.803289 0.158492 0.155343
O O3 0.703937 0.142277 0.332705
O O4 0.752056 0.000000 0.227307
O O5 0.484623 0.500000 0.631217
O O6 0.525675 0.687484 0.606912
O O7 0.477975 0.627012 0.783944
O O8 0.321888 0.620792 0.561527
O O9 0.395690 0.172857 0.505008
O O10 0.091706 0.917173 0.989253
O O11 0.430335 0.237562 0.059875
O O12 0.831985 0.500000 0.547335
#
# Coordination Sequence:
#
# PCOD9203973 Si02
#       7
#     8   8   4   2   4   8   8
#     4  11  22  43  65  90 129 174 209 263 319 381
#     4  11  22  39  64  97 128 166 210 262 326 388
#     4  12  22  38  62  92 136 170 208 262 310 378
#     4  10  20  40  62  92 114 164 202 262 296 364
#     4  11  25  39  65  96 124 166 225 263 313 377
#     4  11  22  41  67  91 129 162 216 266 320 366
#     4  10  24  42  65  93 132 170 212 259 324 385
#
# _framework density 21.308800000000002
#
# number of rings (size 3 to 8) (size 9 to 14) (size 15 to 20)
#    0.000    1.143    1.905    4.286    0.000    3.048 
#    0.000    3.810    4.190    0.000    0.000    0.000 
#    0.000    0.000    0.000    0.000    0.000    0.000 
#
# Total GULP energy -117096.411880 kJ/mol
# GULP energy per Si atom -5576.019613 kJ/mol
# Density = 2.126030 g / cm^3
# Si number density = 21.308800 Si / 1000 Ang^3
#
#
#
# Elastic Constant Matrix: (Units=GPa)
#
#
# Indices 1 2 3 4 5 6 
#
# 1 124.8755 52.3730 62.7564 0.0000 -7.5454 0.0000
# 2 52.3730 99.6916 29.5224 0.0000 -17.1110 0.0000
# 3 62.7564 29.5224 101.3081 0.0000 6.5553 0.0000
# 4 0.0000 0.0000 0.0000 -501.6207 0.0000 2044.2462
# 5 -7.5454 -17.1110 6.5553 0.0000 43.0388 0.0000
# 6 0.0000 0.0000 0.0000 2044.2462 0.0000-8155.5826
#
#
#
# Elastic Compliance Matrix: (Units=1/GPa)
#
#
# Indices 1 2 3 4 5 6 
#
# 1 0.013751 -0.004812 -0.007219 0.000000 0.001597 0.000000
# 2 -0.004812 0.013791 -0.001352 0.000000 0.004845 0.000000
# 3 -0.007219 -0.001352 0.015001 0.000000 -0.004088 0.000000
# 4 0.000000 0.000000 0.000000 0.092747 0.000000 0.023248
# 5 0.001597 0.004845 -0.004088 0.000000 0.026064 0.000000
# 6 0.000000 0.000000 0.000000 0.023248 0.000000 0.005705
#
#
# Mechanical properties :
#
#
# Convention : Reuss Voigt Hill
#
# Bulk Modulus (GPa) = 63.38130 68.35321 65.86725
# Shear Modulus (GPa) = 25.11529 -1710.75135 -842.81803
#
# Velocity S-wave (km/s) = 3.43685 -28.36513 -19.90941
# Velocity P-wave (km/s) = 6.74967 32.25876 22.30549
#
# Compressibility (1/GPa) = 0.01577752
#
# Stress axis : x y z
#
# Youngs Moduli (GPa) = 72.72452 72.51264 66.66175
#
# Poissons Ratio (x) = 0.34892 0.48123
# Poissons Ratio (y) = 0.34994 0.09009
# Poissons Ratio (z) = 0.52500 0.09800
#
# Static dielectric constant tensor:
#      x y z
#    x 1.796410 0.000000 -0.024770 
#    y 0.000000 1.755570 0.000000 
#    z -0.024770 0.000000 1.858780 
# 
# From -- ./inp_files/129776.got.cif
#   From: 2010.05.17/outbox.cif.g08.bks.cpg/sg12_65_cif.got.tgz:129776.got - 2010.06.03 13:09:07.
