data_PCOD9203473
_publ_section_title
;
Structure prediction by ZEFSAII (Michael W. Deem and Ramdas Pophale) SiO2 
 PCOD9203473
Probable space group: C 2/M
;
_chemical_formula_sum "Si O2"
_cell_formula_units_Z 48
_cell_length_a 7.120186
_cell_length_b 15.575213
_cell_length_c 19.338910
_cell_angle_alpha 90.000000
_cell_angle_beta 92.267323
_cell_angle_gamma 90.000000
_cell_volume 2142.975433
_symmetry_space_group_name_H-M "C 2/M"
_symmetry_group_IT_number 12
_symmetry_cell_setting 'monoclinic'
loop_
_space_group_symop_operation_xyz
x,y,z
-x,y,-z
-x,-y,-z
x,-y,z
1/2+x,1/2+y,z
1/2-x,1/2+y,-z
1/2-x,1/2-y,-z
1/2+x,1/2-y,z
loop_
_atom_site_type_symbol
_atom_site_label
_atom_site_fract_x
_atom_site_fract_y
_atom_site_fract_z
Si Si1 0.302669 0.144795 0.333069
Si Si2 0.307143 0.500000 0.407391
Si Si3 0.863943 0.365618 0.181426
Si Si4 0.358484 0.347315 0.312637
Si Si5 0.735942 0.000000 0.562994
Si Si6 0.622158 0.095501 0.062504
Si Si7 0.073370 0.165354 0.837685
O O1 0.391564 0.112199 0.262400
O O2 0.333092 0.247980 0.335148
O O3 0.341955 0.084699 0.399187
O O4 0.080108 0.136399 0.319604
O O5 0.264170 0.414868 0.362409
O O6 0.210828 0.500000 0.480562
O O7 0.534912 0.500000 0.423442
O O8 0.982764 0.412071 0.125487
O O9 0.930668 0.267154 0.173205
O O10 0.639441 0.369146 0.163620
O O11 0.319052 0.363885 0.231030
O O12 0.805878 0.142420 0.093688
O O13 0.677157 0.000000 0.039265
O O14 0.500000 0.138392 0.000000
#
# Coordination Sequence:
#
# PCOD9203473 Si02
#       7
#     8   4   8   8   4   8   8
#     4   9  19  34  56  85 112 149 199 243 290 350
#     4   9  18  34  55  83 117 154 192 233 294 360
#     4  10  20  39  63  89 117 155 207 251 294 356
#     4   9  19  34  56  85 112 149 199 243 290 350
#     4   9  18  34  55  83 117 154 192 233 294 360
#     4  11  26  42  58  90 125 157 196 245 312 366
#     4  10  20  39  63  89 117 155 207 251 294 356
#
# _framework density 22.398762999999999
#
# number of rings (size 3 to 8) (size 9 to 14) (size 15 to 20)
#    0.000    2.333    1.667    0.000    4.667    2.667 
#    0.000    2.500    0.000    1.000    0.000    0.000 
#    0.000    0.000    0.000    0.000    0.000    0.000 
#
# Total GULP energy -134004.501262 kJ/mol
# GULP energy per Si atom -5583.520886 kJ/mol
# Density = 2.234778 g / cm^3
# Si number density = 22.398763 Si / 1000 Ang^3
#
#
#
# Elastic Constant Matrix: (Units=GPa)
#
#
# Indices 1 2 3 4 5 6 
#
# 1 74.8447 -12.5524 -2.7399 0.0000 -2.2725 0.0000
# 2 -12.5524 56.9371 27.4206 0.0000 0.1591 0.0000
# 3 -2.7399 27.4206 74.6148 0.0000 10.0846 0.0000
# 4 0.0000 0.0000 0.0000 29.3647 0.0000 4.8130
# 5 -2.2725 0.1591 10.0846 0.0000 31.7199 0.0000
# 6 0.0000 0.0000 0.0000 4.8130 0.0000 1.2862
#
#
#
# Elastic Compliance Matrix: (Units=1/GPa)
#
#
# Indices 1 2 3 4 5 6 
#
# 1 0.013958 0.003537 -0.000961 0.000000 0.001288 0.000000
# 2 0.003537 0.022427 -0.008496 0.000000 0.002842 0.000000
# 3 -0.000961 -0.008496 0.017233 0.000000 -0.005505 0.000000
# 4 0.000000 0.000000 0.000000 0.088078 0.000000 -0.329599
# 5 0.001288 0.002842 -0.005505 0.000000 0.033354 0.000000
# 6 0.000000 0.000000 0.000000 -0.329599 0.000000 2.010907
#
#
# Mechanical properties :
#
#
# Convention : Reuss Voigt Hill
#
# Bulk Modulus (GPa) = 23.93685 25.62813 24.78249
# Shear Modulus (GPa) = 2.26068 25.42537 13.84302
#
# Velocity S-wave (km/s) = 1.00572 3.37281 2.48871
# Velocity P-wave (km/s) = 3.47254 5.16086 4.39846
#
# Compressibility (1/GPa) = 0.04177659
#
# Stress axis : x y z
#
# Youngs Moduli (GPa) = 71.64331 44.58997 58.02776
#
# Poissons Ratio (x) = -0.15769 0.05577
# Poissons Ratio (y) = -0.25337 0.49300
# Poissons Ratio (z) = 0.06886 0.37883
#
# Static dielectric constant tensor:
#      x y z
#    x 1.857740 0.000000 0.013950 
#    y 0.000000 1.838900 0.000000 
#    z 0.013950 0.000000 1.828750 
# 
# From -- ./inp_files/255805.got.cif
#   From: 2010.05.17/outbox.cif.g08.bks.cpg/sg12_128_cif.got.tgz:255805.got - 2010.06.03 13:09:07.
