data_PCOD9203963
_publ_section_title
;
Structure prediction by ZEFSAII (Michael W. Deem and Ramdas Pophale) SiO2 
 PCOD9203963
Probable space group: C 2/M
;
_chemical_formula_sum "Si O2"
_cell_formula_units_Z 58
_cell_length_a 13.776511
_cell_length_b 16.727336
_cell_length_c 22.782788
_cell_angle_alpha 90.000000
_cell_angle_beta 28.673348
_cell_angle_gamma 90.000000
_cell_volume 2519.109819
_symmetry_space_group_name_H-M "C 2/M"
_symmetry_group_IT_number 12
_symmetry_cell_setting 'monoclinic'
loop_
_space_group_symop_operation_xyz
x,y,z
-x,y,-z
-x,-y,-z
x,-y,z
1/2+x,1/2+y,z
1/2-x,1/2+y,-z
1/2-x,1/2-y,-z
1/2+x,1/2-y,z
loop_
_atom_site_type_symbol
_atom_site_label
_atom_site_fract_x
_atom_site_fract_y
_atom_site_fract_z
Si Si1 0.572845 0.149752 0.373174
Si Si2 0.445901 0.320921 0.398043
Si Si3 0.269677 0.357196 0.603509
Si Si4 0.603883 0.592608 0.887170
Si Si5 0.000000 0.500000 0.500000
Si Si6 0.791516 0.091098 0.945048
Si Si7 0.830169 0.586313 0.223624
Si Si8 0.427507 0.696510 0.275675
O O1 0.440981 0.228695 0.424670
O O2 0.695818 0.128201 0.248583
O O3 0.745452 0.178069 0.327882
O O4 0.495666 0.071295 0.449670
O O5 0.310367 0.374713 0.513947
O O6 0.679667 0.346080 0.281892
O O7 0.403738 0.338470 0.352976
O O8 0.500000 0.330565 0.500000
O O9 0.205113 0.417713 0.687693
O O10 0.097595 0.290287 0.700677
O O11 0.651495 0.500000 0.875896
O O12 0.433948 0.594262 0.926562
O O13 0.500000 0.629720 0.000000
O O14 0.873613 0.158479 0.857936
O O15 0.815083 0.000000 0.908256
O O16 0.560748 0.102963 0.085541
O O17 0.774582 0.500000 0.227249
#
# Coordination Sequence:
#
# PCOD9203963 Si02
#       8
#     8   8   8   8   2   8   8   8
#     4  11  22  43  64 100 131 169 219 264 334 394
#     4  11  24  42  67  94 132 172 217 272 324 388
#     4  10  20  40  62  89 125 168 209 269 324 379
#     4   9  18  37  61  91 130 168 213 271 326 386
#     4  12  24  40  78  92 134 180 204 274 340 392
#     4   9  21  40  64  95 132 173 220 274 330 398
#     4  10  22  43  66  91 129 174 221 271 326 384
#     4  11  22  41  68  91 133 170 213 271 334 387
#
# _framework density 23.024004999999999
#
# number of rings (size 3 to 8) (size 9 to 14) (size 15 to 20)
#    0.000    1.793    3.448    1.241    0.966    5.241 
#    2.483    1.379    7.586    0.000    0.000    0.000 
#    0.000    0.000    0.000    0.000    0.000    0.000 
#
# Total GULP energy -161466.775003 kJ/mol
# GULP energy per Si atom -5567.819828 kJ/mol
# Density = 2.297160 g / cm^3
# Si number density = 23.024005 Si / 1000 Ang^3
#
#
#
# Elastic Constant Matrix: (Units=GPa)
#
#
# Indices 1 2 3 4 5 6 
#
# 1 68.1236 15.0953 33.4540 -0.0071 28.5787 -0.0007
# 2 15.0953 53.0077 56.9713 -0.0080 4.4311 0.0035
# 3 33.4540 56.9713 143.4766 -0.0422 20.8919 0.0146
# 4 -0.0071 -0.0080 -0.0422 -65.3011 0.0094 6.3231
# 5 28.5787 4.4311 20.8919 0.0094 37.3131 -0.0073
# 6 -0.0007 0.0035 0.0146 6.3231 -0.0073 10.0875
#
#
#
# Elastic Compliance Matrix: (Units=1/GPa)
#
#
# Indices 1 2 3 4 5 6 
#
# 1 0.023120 -0.003462 -0.001630 -0.000004 -0.016384 -0.000004
# 2 -0.003462 0.033908 -0.013562 0.000007 0.006219 0.000008
# 3 -0.001630 -0.013562 0.013412 -0.000009 -0.004650 -0.000013
# 4 -0.000004 0.000007 -0.000009 -0.014437 0.000012 0.009050
# 5 -0.016384 0.006219 -0.004650 0.000012 0.041214 0.000025
# 6 -0.000004 0.000008 -0.000013 0.009050 0.000025 0.093460
#
#
# Mechanical properties :
#
#
# Convention : Reuss Voigt Hill
#
# Bulk Modulus (GPa) = 30.18341 52.84989 41.51665
# Shear Modulus (GPa) = 20.91780 7.02571 13.97176
#
# Velocity S-wave (km/s) = 3.01744 1.74874 2.46607
# Velocity P-wave (km/s) = 5.02771 5.20399 5.11661
#
# Compressibility (1/GPa) = 0.03313079
#
# Stress axis : x y z
#
# Youngs Moduli (GPa) = 43.25178 29.49194 74.55835
#
# Poissons Ratio (x) = 0.10211 0.12156
# Poissons Ratio (y) = 0.14975 1.01117
# Poissons Ratio (z) = 0.07052 0.39997
#
# Static dielectric constant tensor:
#      x y z
#    x 1.924320 0.000000 -0.012090 
#    y 0.000000 1.869660 0.000000 
#    z -0.012090 0.000000 1.876150 
# 
# From -- ./inp_files/340663.got.cif
#   From: 2010.05.17/outbox.cif.g08.bks.cpg/sg12_171_cif.got.tgz:340663.got - 2010.06.03 13:09:07.
