data_PCOD9203504
_publ_section_title
;
Structure prediction by ZEFSAII (Michael W. Deem and Ramdas Pophale) SiO2 
 PCOD9203504
Probable space group: C 2/M
;
_chemical_formula_sum "Si O2"
_cell_formula_units_Z 48
_cell_length_a 11.344039
_cell_length_b 24.406708
_cell_length_c 7.449908
_cell_angle_alpha 90.000000
_cell_angle_beta 93.490128
_cell_angle_gamma 90.000000
_cell_volume 2058.835239
_symmetry_space_group_name_H-M "C 2/M"
_symmetry_group_IT_number 12
_symmetry_cell_setting 'monoclinic'
loop_
_space_group_symop_operation_xyz
x,y,z
-x,y,-z
-x,-y,-z
x,-y,z
1/2+x,1/2+y,z
1/2-x,1/2+y,-z
1/2-x,1/2-y,-z
1/2+x,1/2-y,z
loop_
_atom_site_type_symbol
_atom_site_label
_atom_site_fract_x
_atom_site_fract_y
_atom_site_fract_z
Si Si1 0.960801 0.437172 0.790802
Si Si2 0.453743 0.275557 0.288281
Si Si3 0.006237 0.938853 0.782101
Si Si4 0.227576 0.865391 0.813587
Si Si5 0.908940 0.660108 0.333812
Si Si6 0.166118 0.151188 0.220857
O O1 0.939652 0.500000 0.723366
O O2 0.850237 0.394443 0.769689
O O3 0.068331 0.402735 0.716438
O O4 0.000000 0.442021 0.000000
O O5 0.500000 0.278638 0.500000
O O6 0.329124 0.307849 0.257948
O O7 0.439864 0.213393 0.217181
O O8 0.558405 0.306727 0.193792
O O9 0.895447 0.903374 0.712273
O O10 0.126467 0.908422 0.748658
O O11 0.003274 0.000000 0.716405
O O12 0.000000 0.938940 0.000000
O O13 0.223901 0.859414 0.030996
O O14 0.771516 0.668295 0.359916
O O15 0.000000 0.667953 0.500000
#
# Coordination Sequence:
#
# PCOD9203504 Si02
#       6
#     8   8   8   8   8   8
#     4  11  24  42  65  95 129 166 212 258 312 379
#     4  10  24  40  65  92 126 166 209 263 317 374
#     4   8  15  30  57  84 110 148 195 247 301 353
#     4  10  20  39  63  92 124 160 205 263 311 369
#     4  11  26  42  62  89 128 175 208 255 319 376
#     4  10  21  39  59  94 121 159 210 258 314 368
#
# _framework density 23.314153000000001
#
# number of rings (size 3 to 8) (size 9 to 14) (size 15 to 20)
#    0.000    2.000    1.667    2.000    4.667    5.000 
#    0.000    0.000    0.000    2.500    0.000    0.000 
#    0.000    0.000    0.000    0.000    0.000    0.000 
#
# Total GULP energy -133850.212030 kJ/mol
# GULP energy per Si atom -5577.092168 kJ/mol
# Density = 2.326109 g / cm^3
# Si number density = 23.314153 Si / 1000 Ang^3
#
#
#
# Elastic Constant Matrix: (Units=GPa)
#
#
# Indices 1 2 3 4 5 6 
#
# 1 99.9533 33.4979 23.5804 0.0000 17.1024 0.0000
# 2 33.4979 150.2885 2.9333 0.0000 5.8631 0.0000
# 3 23.5804 2.9333 39.8291 0.0000 12.8366 0.0000
# 4 0.0000 0.0000 0.0000 -2.5235 0.0000 11.1889
# 5 17.1024 5.8631 12.8366 0.0000 33.1224 0.0000
# 6 0.0000 0.0000 0.0000 11.1889 0.0000 15.8398
#
#
#
# Elastic Compliance Matrix: (Units=1/GPa)
#
#
# Indices 1 2 3 4 5 6 
#
# 1 0.013023 -0.002631 -0.006284 0.000000 -0.003823 0.000000
# 2 -0.002631 0.007232 0.001142 0.000000 -0.000365 0.000000
# 3 -0.006284 0.001142 0.031726 0.000000 -0.009253 0.000000
# 4 0.000000 0.000000 0.000000 -0.095904 0.000000 0.067744
# 5 -0.003823 -0.000365 -0.009253 0.000000 0.035816 0.000000
# 6 0.000000 0.000000 0.000000 0.067744 0.000000 0.015279
#
#
# Mechanical properties :
#
#
# Convention : Reuss Voigt Hill
#
# Bulk Modulus (GPa) = 27.44567 45.56600 36.50584
# Shear Modulus (GPa) = 143.42078 24.62501 84.02289
#
# Velocity S-wave (km/s) = 7.85176 3.25349 6.00980
# Velocity P-wave (km/s) = 9.69525 5.80520 7.99056
#
# Compressibility (1/GPa) = 0.03643561
#
# Stress axis : x y z
#
# Youngs Moduli (GPa) = 76.78665 138.27052 31.52016
#
# Poissons Ratio (x) = 0.36378 0.19808
# Poissons Ratio (y) = 0.20202 -0.03601
# Poissons Ratio (z) = 0.48255 -0.15797
#
# Static dielectric constant tensor:
#      x y z
#    x 1.860780 0.000000 -0.025990 
#    y 0.000000 1.907940 0.000000 
#    z -0.025990 0.000000 1.968980 
# 
# From -- ./inp_files/50819.got.cif
#   From: 2010.05.17/outbox.cif.g08.bks.cpg/sg12_26_cif.got.tgz:50819.got - 2010.06.03 13:09:07.
