data_PCOD9203415
_publ_section_title
;
Structure prediction by ZEFSAII (Michael W. Deem and Ramdas Pophale) SiO2 
 PCOD9203415
Probable space group: C 2/M
;
_chemical_formula_sum "Si O2"
_cell_formula_units_Z 50
_cell_length_a 19.298925
_cell_length_b 9.252844
_cell_length_c 14.834803
_cell_angle_alpha 90.000000
_cell_angle_beta 113.818731
_cell_angle_gamma 90.000000
_cell_volume 2423.424224
_symmetry_space_group_name_H-M "C 2/M"
_symmetry_group_IT_number 12
_symmetry_cell_setting 'monoclinic'
loop_
_space_group_symop_operation_xyz
x,y,z
-x,y,-z
-x,-y,-z
x,-y,z
1/2+x,1/2+y,z
1/2-x,1/2+y,-z
1/2-x,1/2-y,-z
1/2+x,1/2-y,z
loop_
_atom_site_type_symbol
_atom_site_label
_atom_site_fract_x
_atom_site_fract_y
_atom_site_fract_z
Si Si1 0.092568 0.671932 0.114273
Si Si2 0.566699 0.326490 0.924695
Si Si3 0.316937 0.169345 0.657788
Si Si4 0.000000 0.000000 0.500000
Si Si5 0.095683 0.336827 0.763101
Si Si6 0.942401 0.736362 0.589141
Si Si7 0.172579 0.660549 0.617067
O O1 0.079429 0.500000 0.092210
O O2 0.154778 0.684369 0.224683
O O3 0.015943 0.749947 0.109531
O O4 0.111613 0.755550 0.032121
O O5 0.561269 0.500000 0.929211
O O6 0.599513 0.275355 0.846518
O O7 0.374820 0.255909 0.625321
O O8 0.232199 0.227593 0.608411
O O9 0.321679 0.000000 0.634642
O O10 0.022639 0.123523 0.437622
O O11 0.113400 0.500000 0.803748
O O12 0.148225 0.299844 0.705444
O O13 0.010445 0.338325 0.678478
O O14 0.901670 0.657767 0.484213
O O15 0.206467 0.500000 0.635886
#
# Coordination Sequence:
#
# PCOD9203415 Si02
#       7
#     8   8   8   2   8   8   8
#     4  10  20  39  62  92 126 166 211 260 319 385
#     4  11  22  35  62  96 127 160 208 269 323 373
#     4  11  25  42  67  94 129 172 214 261 321 385
#     4  12  28  40  66 104 126 172 208 286 312 370
#     4  11  22  41  66  91 125 169 218 263 319 381
#     4  12  24  42  65  94 129 167 214 260 321 372
#     4  11  25  42  63  93 130 173 214 266 318 384
#
# _framework density 20.631964
#
# number of rings (size 3 to 8) (size 9 to 14) (size 15 to 20)
#    0.000    0.960    3.200    4.800    3.360    3.200 
#    0.000    0.800    0.000    0.000    0.000    0.000 
#    0.000    0.000    0.000    0.000    0.000    0.000 
#
# Total GULP energy -139386.694923 kJ/mol
# GULP energy per Si atom -5575.467797 kJ/mol
# Density = 2.058500 g / cm^3
# Si number density = 20.631964 Si / 1000 Ang^3
#
#
#
# Elastic Constant Matrix: (Units=GPa)
#
#
# Indices 1 2 3 4 5 6 
#
# 1 43.4109 24.7554 12.1384 0.0000 -13.2290 0.0000
# 2 24.7554 131.4663 49.1976 0.0000 -15.1598 0.0000
# 3 12.1384 49.1976 102.3044 0.0000 -21.5115 0.0000
# 4 0.0000 0.0000 0.0000 50.4510 0.0000 -4.8066
# 5 -13.2290 -15.1598 -21.5115 0.0000 26.1337 0.0000
# 6 0.0000 0.0000 0.0000 -4.8066 0.0000 -19.2786
#
#
#
# Elastic Compliance Matrix: (Units=1/GPa)
#
#
# Indices 1 2 3 4 5 6 
#
# 1 0.029297 -0.004540 0.001538 0.000000 0.013463 0.000000
# 2 -0.004540 0.010073 -0.004305 0.000000 0.000001 0.000000
# 3 0.001538 -0.004305 0.013666 0.000000 0.009531 0.000000
# 4 0.000000 0.000000 0.000000 0.019361 0.000000 -0.004827
# 5 0.013463 0.000001 0.009531 0.000000 0.052925 0.000000
# 6 0.000000 0.000000 0.000000 -0.004827 0.000000 -0.050667
#
#
# Mechanical properties :
#
#
# Convention : Reuss Voigt Hill
#
# Bulk Modulus (GPa) = 26.02638 49.92937 37.97788
# Shear Modulus (GPa) = 48.98281 24.20057 36.59169
#
# Velocity S-wave (km/s) = 4.87778 3.42857 4.21592
# Velocity P-wave (km/s) = 6.66076 6.31870 6.49198
#
# Compressibility (1/GPa) = 0.03842256
#
# Stress axis : x y z
#
# Youngs Moduli (GPa) = 34.13297 99.28021 73.17174
#
# Poissons Ratio (x) = 0.45071 -0.11253
# Poissons Ratio (y) = 0.15496 0.31500
# Poissons Ratio (z) = -0.05249 0.42739
#
# Static dielectric constant tensor:
#      x y z
#    x 1.728810 0.000000 -0.000490 
#    y 0.000000 1.716210 0.000000 
#    z -0.000490 0.000000 1.762890 
# 
# From -- ./inp_files/230258.got.cif
#   From: 2010.05.17/outbox.cif.g08.bks.cpg/sg12_116_cif.got.tgz:230258.got - 2010.06.03 13:09:07.
