data_PCOD9203329
_publ_section_title
;
Structure prediction by ZEFSAII (Michael W. Deem and Ramdas Pophale) SiO2 
 PCOD9203329
Probable space group: C 2/M
;
_chemical_formula_sum "Si O2"
_cell_formula_units_Z 56
_cell_length_a 32.095633
_cell_length_b 7.773949
_cell_length_c 12.167876
_cell_angle_alpha 90.000000
_cell_angle_beta 120.796774
_cell_angle_gamma 90.000000
_cell_volume 2607.893618
_symmetry_space_group_name_H-M "C 2/M"
_symmetry_group_IT_number 12
_symmetry_cell_setting 'monoclinic'
loop_
_space_group_symop_operation_xyz
x,y,z
-x,y,-z
-x,-y,-z
x,-y,z
1/2+x,1/2+y,z
1/2-x,1/2+y,-z
1/2-x,1/2-y,-z
1/2+x,1/2-y,z
loop_
_atom_site_type_symbol
_atom_site_label
_atom_site_fract_x
_atom_site_fract_y
_atom_site_fract_z
Si Si1 0.068651 0.797061 0.840824
Si Si2 0.101111 0.704435 0.360346
Si Si3 0.022101 0.301016 0.417064
Si Si4 0.329271 0.704431 0.094513
Si Si5 0.287663 0.294892 0.456131
Si Si6 0.746103 0.291429 0.825600
Si Si7 0.943352 0.707897 0.928941
O O1 0.116514 0.727692 0.844342
O O2 0.020439 0.707148 0.731238
O O3 0.062959 0.000000 0.810554
O O4 0.075957 0.773882 0.980771
O O5 0.090894 0.500000 0.344637
O O6 0.069379 0.775456 0.419903
O O7 0.158157 0.729055 0.450904
O O8 0.082998 0.771061 0.217265
O O9 0.033808 0.500000 0.459770
O O10 0.000000 0.223580 0.500000
O O11 0.333791 0.500000 0.116525
O O12 0.295814 0.772230 0.147831
O O13 0.297684 0.734873 0.942697
O O14 0.291304 0.500000 0.453689
O O15 0.250000 0.250000 0.500000
O O16 0.266174 0.230190 0.312026
O O17 0.745953 0.500000 0.827447
O O18 0.939953 0.500000 0.927635
O O19 0.000000 0.755032 0.000000
#
# Coordination Sequence:
#
# PCOD9203329 Si02
#       7
#     8   8   8   8   8   8   8
#     4  11  23  36  58  91 123 152 191 243 298 353
#     4  10  22  41  63  88 118 157 200 246 298 349
#     4  10  22  41  63  89 122 160 204 244 289 357
#     4   9  20  38  59  86 117 147 186 241 294 344
#     4  11  25  42  62  87 119 157 199 246 296 356
#     4   9  20  40  61  82 111 151 195 236 290 352
#     4  10  20  39  62  82 115 156 195 239 286 344
#
# _framework density 21.473268999999998
#
# number of rings (size 3 to 8) (size 9 to 14) (size 15 to 20)
#    0.000    2.000    1.429    0.857    4.000    4.000 
#    0.000    0.000    0.000    0.000    0.000    0.000 
#    0.000    0.000    0.000    0.000    0.000    0.000 
#
# Total GULP energy -156393.227599 kJ/mol
# GULP energy per Si atom -5585.472414 kJ/mol
# Density = 2.142440 g / cm^3
# Si number density = 21.473269 Si / 1000 Ang^3
#
#
#
# Elastic Constant Matrix: (Units=GPa)
#
#
# Indices 1 2 3 4 5 6 
#
# 1 129.2966 -7.3832 43.5421 0.0000 6.0372 0.0000
# 2 -7.3832 29.9360 -14.1206 0.0000 -3.4127 0.0000
# 3 43.5421 -14.1206 92.6191 0.0000 -21.1225 0.0000
# 4 0.0000 0.0000 0.0000 14.1475 0.0000 1.8702
# 5 6.0372 -3.4127 -21.1225 0.0000 30.4880 0.0000
# 6 0.0000 0.0000 0.0000 1.8702 0.0000 9.9873
#
#
#
# Elastic Compliance Matrix: (Units=1/GPa)
#
#
# Indices 1 2 3 4 5 6 
#
# 1 0.010157 -0.001317 -0.006494 0.000000 -0.006658 0.000000
# 2 -0.001317 0.038530 0.008951 0.000000 0.010775 0.000000
# 3 -0.006494 0.008951 0.018689 0.000000 0.015236 0.000000
# 4 0.000000 0.000000 0.000000 0.072478 0.000000 -0.013572
# 5 -0.006658 0.010775 0.015236 0.000000 0.045880 0.000000
# 6 0.000000 0.000000 0.000000 -0.013572 0.000000 0.102668
#
#
# Mechanical properties :
#
#
# Convention : Reuss Voigt Hill
#
# Bulk Modulus (GPa) = 14.35647 32.88092 23.61870
# Shear Modulus (GPa) = 16.16336 26.24545 21.20441
#
# Velocity S-wave (km/s) = 2.74655 3.49985 3.14583
# Velocity P-wave (km/s) = 4.09369 5.62829 4.92118
#
# Compressibility (1/GPa) = 0.06965500
#
# Stress axis : x y z
#
# Youngs Moduli (GPa) = 98.45648 25.95377 53.50678
#
# Poissons Ratio (x) = 0.03419 0.34748
# Poissons Ratio (y) = 0.12969 -0.47893
# Poissons Ratio (z) = 0.63939 -0.23231
#
# Static dielectric constant tensor:
#      x y z
#    x 1.765510 0.000000 -0.033670 
#    y 0.000000 1.792790 0.000000 
#    z -0.033670 0.000000 1.754900 
# 
# From -- ./inp_files/187709.got.cif
#   From: 2010.05.17/outbox.cif.g08.bks.cpg/sg12_94_cif.got.tgz:187709.got - 2010.06.03 13:09:07.
