data_PCOD9203317
_publ_section_title
;
Structure prediction by ZEFSAII (Michael W. Deem and Ramdas Pophale) SiO2 
 PCOD9203317
Probable space group: C 2/M
;
_chemical_formula_sum "Si O2"
_cell_formula_units_Z 44
_cell_length_a 14.240818
_cell_length_b 7.329484
_cell_length_c 15.213793
_cell_angle_alpha 90.000000
_cell_angle_beta 91.269641
_cell_angle_gamma 90.000000
_cell_volume 1587.593103
_symmetry_space_group_name_H-M "C 2/M"
_symmetry_group_IT_number 12
_symmetry_cell_setting 'monoclinic'
loop_
_space_group_symop_operation_xyz
x,y,z
-x,y,-z
-x,-y,-z
x,-y,z
1/2+x,1/2+y,z
1/2-x,1/2+y,-z
1/2-x,1/2-y,-z
1/2+x,1/2-y,z
loop_
_atom_site_type_symbol
_atom_site_label
_atom_site_fract_x
_atom_site_fract_y
_atom_site_fract_z
Si Si1 0.563289 0.704457 0.749200
Si Si2 0.154822 0.211462 0.377003
Si Si3 0.237982 0.292054 0.855510
Si Si4 0.369061 0.720440 0.431427
Si Si5 0.107022 0.777124 0.020200
Si Si6 0.924087 0.500000 0.764695
O O1 0.529953 0.500000 0.761160
O O2 0.671636 0.705048 0.781856
O O3 0.563726 0.769539 0.647966
O O4 0.500351 0.843297 0.799646
O O5 0.265465 0.214304 0.402704
O O6 0.109689 0.277020 0.468864
O O7 0.131472 0.339222 0.294871
O O8 0.128321 0.000000 0.361936
O O9 0.255383 0.500000 0.829119
O O10 0.170853 0.284460 0.939902
O O11 0.335297 0.205924 0.892719
O O12 0.367734 0.500000 0.431872
O O13 0.110781 0.000000 0.023868
O O14 0.000000 0.725515 0.000000
#
# Coordination Sequence:
#
# PCOD9203317 Si02
#       6
#     8   8   8   8   8   4
#     4  11  24  41  61  86 130 169 202 259 324 370
#     4  10  21  38  63  88 121 161 213 269 310 371
#     4  10  20  39  61  90 130 163 205 259 310 371
#     4   9  20  40  61  89 121 164 214 257 315 383
#     4   9  19  38  66  94 122 163 209 248 306 376
#     4  12  24  41  60  94 122 161 214 267 309 390
#
# _framework density 27.714911000000001
#
# number of rings (size 3 to 8) (size 9 to 14) (size 15 to 20)
#    0.000    2.000    1.818    1.091    2.545    2.545 
#    3.273    2.727    0.000    0.000    0.000    0.000 
#    0.000    0.000    0.000    0.000    0.000    0.000 
#
# Total GULP energy -122833.513444 kJ/mol
# GULP energy per Si atom -5583.341520 kJ/mol
# Density = 2.765183 g / cm^3
# Si number density = 27.714911 Si / 1000 Ang^3
#
#
#
# Elastic Constant Matrix: (Units=GPa)
#
#
# Indices 1 2 3 4 5 6 
#
# 1 150.3512 7.8087 35.4759 0.0000 27.2917 0.0000
# 2 7.8087 129.1740 -9.4350 0.0000 20.1319 0.0000
# 3 35.4759 -9.4350 137.9262 0.0000 28.1796 0.0000
# 4 0.0000 0.0000 0.0000 -3.5914 0.0000 18.8842
# 5 27.2917 20.1319 28.1796 0.0000 65.7433 0.0000
# 6 0.0000 0.0000 0.0000 18.8842 0.0000 9.4858
#
#
#
# Elastic Compliance Matrix: (Units=1/GPa)
#
#
# Indices 1 2 3 4 5 6 
#
# 1 0.007437 -0.000177 -0.001431 0.000000 -0.002420 0.000000
# 2 -0.000177 0.008309 0.001226 0.000000 -0.002996 0.000000
# 3 -0.001431 0.001226 0.008392 0.000000 -0.003379 0.000000
# 4 0.000000 0.000000 0.000000 -0.024280 0.000000 0.048337
# 5 -0.002420 -0.002996 -0.003379 0.000000 0.018581 0.000000
# 6 0.000000 0.000000 0.000000 0.048337 0.000000 0.009193
#
#
# Mechanical properties :
#
#
# Convention : Reuss Voigt Hill
#
# Bulk Modulus (GPa) = 42.78006 53.90563 48.34284
# Shear Modulus (GPa) = 138.17242 39.90097 89.03670
#
# Velocity S-wave (km/s) = 7.06846 3.79845 5.67412
# Velocity P-wave (km/s) = 9.06018 6.22333 7.77228
#
# Compressibility (1/GPa) = 0.02337538
#
# Stress axis : x y z
#
# Youngs Moduli (GPa) = 134.46099 120.35534 119.15533
#
# Poissons Ratio (x) = 0.02129 0.17046
# Poissons Ratio (y) = 0.02379 -0.14609
# Poissons Ratio (z) = 0.19236 -0.14756
#
# Static dielectric constant tensor:
#      x y z
#    x 2.206240 0.000000 -0.088840 
#    y 0.000000 2.110820 0.000000 
#    z -0.088840 0.000000 2.248940 
# 
# From -- ./inp_files/267284.got.cif
#   From: 2010.05.17/outbox.cif.g08.bks.cpg/sg12_134_cif.got.tgz:267284.got - 2010.06.03 13:09:07.
