data_PCOD9203047
_publ_section_title
;
Structure prediction by ZEFSAII (Michael W. Deem and Ramdas Pophale) SiO2 
 PCOD9203047
Probable space group: C 2/M
;
_chemical_formula_sum "Si O2"
_cell_formula_units_Z 52
_cell_length_a 18.650064
_cell_length_b 9.220156
_cell_length_c 16.271238
_cell_angle_alpha 90.000000
_cell_angle_beta 58.842575
_cell_angle_gamma 90.000000
_cell_volume 2394.338624
_symmetry_space_group_name_H-M "C 2/M"
_symmetry_group_IT_number 12
_symmetry_cell_setting 'monoclinic'
loop_
_space_group_symop_operation_xyz
x,y,z
-x,y,-z
-x,-y,-z
x,-y,z
1/2+x,1/2+y,z
1/2-x,1/2+y,-z
1/2-x,1/2-y,-z
1/2+x,1/2-y,z
loop_
_atom_site_type_symbol
_atom_site_label
_atom_site_fract_x
_atom_site_fract_y
_atom_site_fract_z
Si Si1 0.538698 0.329801 0.143568
Si Si2 0.852161 0.161156 0.264530
Si Si3 0.445327 0.827933 0.691078
Si Si4 0.703302 0.673272 0.952359
Si Si5 0.780501 0.827867 0.747217
Si Si6 0.260108 0.500000 0.535840
Si Si7 0.132376 0.244466 0.559500
O O1 0.546338 0.500000 0.163951
O O2 0.443050 0.307661 0.172440
O O3 0.555975 0.232497 0.213797
O O4 0.605490 0.305988 0.032134
O O5 0.785776 0.283153 0.283015
O O6 0.868404 0.160414 0.352065
O O7 0.822977 0.000000 0.256494
O O8 0.370829 0.747034 0.688128
O O9 0.537571 0.794110 0.600932
O O10 0.431564 0.000000 0.699732
O O11 0.719849 0.500000 0.938631
O O12 0.736269 0.753893 0.852715
O O13 0.750000 0.750000 0.000000
O O14 0.787258 0.000000 0.751748
O O15 0.194810 0.376566 0.537995
O O16 0.327147 0.627478 0.523633
#
# Coordination Sequence:
#
# PCOD9203047 Si02
#       7
#     8   8   8   8   8   4   8
#     4   9  20  36  61  85 115 154 205 250 297 342
#     4  10  21  40  60  87 121 161 194 244 299 356
#     4  11  21  36  59  89 118 157 200 245 288 355
#     4  11  21  37  58  86 119 158 204 258 293 344
#     4  12  26  38  57  83 122 165 205 245 304 346
#     4  10  20  38  66 100 120 148 188 244 290 354
#     4  10  21  38  67  96 122 149 196 238 292 352
#
# _framework density 21.717897000000001
#
# number of rings (size 3 to 8) (size 9 to 14) (size 15 to 20)
#    0.000    1.538    3.077    2.308    3.231    1.846 
#    0.000    3.077    0.000    5.538    0.000    0.000 
#    0.000    0.000    0.000    0.000    0.000    0.000 
#
# Total GULP energy -144807.551555 kJ/mol
# GULP energy per Si atom -5569.521214 kJ/mol
# Density = 2.166847 g / cm^3
# Si number density = 21.717897 Si / 1000 Ang^3
#
#
#
# Elastic Constant Matrix: (Units=GPa)
#
#
# Indices 1 2 3 4 5 6 
#
# 1 74.5929 52.7612 33.5349 0.0000 -26.9878 0.0000
# 2 52.7612 190.4278 45.5282 0.0000 -35.9430 0.0000
# 3 33.5349 45.5282 79.2863 0.0000 -34.2639 0.0000
# 4 0.0000 0.0000 0.0000 3.1793 0.0000 -2.9080
# 5 -26.9878 -35.9430 -34.2639 0.0000 39.6736 0.0000
# 6 0.0000 0.0000 0.0000 -2.9080 0.0000 34.3200
#
#
#
# Elastic Compliance Matrix: (Units=1/GPa)
#
#
# Indices 1 2 3 4 5 6 
#
# 1 0.020018 -0.003300 -0.003158 0.000000 0.007900 0.000000
# 2 -0.003300 0.007053 -0.001377 0.000000 0.002956 0.000000
# 3 -0.003158 -0.001377 0.021174 0.000000 0.014892 0.000000
# 4 0.000000 0.000000 0.000000 0.340955 0.000000 0.028889
# 5 0.007900 0.002956 0.014892 0.000000 0.046119 0.000000
# 6 0.000000 0.000000 0.000000 0.028889 0.000000 0.031585
#
#
# Mechanical properties :
#
#
# Convention : Reuss Voigt Hill
#
# Bulk Modulus (GPa) = 30.69756 67.55062 49.12409
# Shear Modulus (GPa) = 10.13311 29.60010 19.86660
#
# Velocity S-wave (km/s) = 2.16239 3.69580 3.02778
# Velocity P-wave (km/s) = 4.51663 7.02731 5.90690
#
# Compressibility (1/GPa) = 0.03257588
#
# Stress axis : x y z
#
# Youngs Moduli (GPa) = 49.95387 141.78873 47.22744
#
# Poissons Ratio (x) = 0.46795 0.14913
# Poissons Ratio (y) = 0.16486 0.06502
# Poissons Ratio (z) = 0.15774 0.19520
#
# Static dielectric constant tensor:
#      x y z
#    x 1.801440 0.000000 0.027320 
#    y 0.000000 1.730730 0.000000 
#    z 0.027320 0.000000 1.915960 
# 
# From -- ./inp_files/274219.got.cif
#   From: 2010.05.17/outbox.cif.g08.bks.cpg/sg12_138_cif.got.tgz:274219.got - 2010.06.03 13:09:07.
