data_PCOD9203095
_publ_section_title
;
Structure prediction by ZEFSAII (Michael W. Deem and Ramdas Pophale) SiO2 
 PCOD9203095
Probable space group: C 2/M
;
_chemical_formula_sum "Si O2"
_cell_formula_units_Z 56
_cell_length_a 23.786497
_cell_length_b 13.607974
_cell_length_c 9.016015
_cell_angle_alpha 90.000000
_cell_angle_beta 114.061485
_cell_angle_gamma 90.000000
_cell_volume 2664.777484
_symmetry_space_group_name_H-M "C 2/M"
_symmetry_group_IT_number 12
_symmetry_cell_setting 'monoclinic'
loop_
_space_group_symop_operation_xyz
x,y,z
-x,y,-z
-x,-y,-z
x,-y,z
1/2+x,1/2+y,z
1/2-x,1/2+y,-z
1/2-x,1/2-y,-z
1/2+x,1/2-y,z
loop_
_atom_site_type_symbol
_atom_site_label
_atom_site_fract_x
_atom_site_fract_y
_atom_site_fract_z
Si Si1 0.986982 0.885781 0.309759
Si Si2 0.883502 0.888275 0.717115
Si Si3 0.208307 0.113330 0.660350
Si Si4 0.430852 0.885556 0.489353
Si Si5 0.869448 0.236002 0.202176
Si Si6 0.834132 0.291074 0.851537
Si Si7 0.053924 0.614112 0.159675
O O1 0.932858 0.811531 0.210837
O O2 0.000000 0.870193 0.500000
O O3 0.048696 0.873461 0.280073
O O4 0.967654 0.000000 0.273363
O O5 0.835155 0.881312 0.529875
O O6 0.862991 0.807534 0.812711
O O7 0.881498 0.000000 0.774415
O O8 0.167900 0.151899 0.753592
O O9 0.268342 0.181056 0.714570
O O10 0.226786 0.000000 0.700964
O O11 0.500000 0.881978 0.500000
O O12 0.387802 0.818818 0.341442
O O13 0.434747 0.847284 0.662297
O O14 0.410816 0.000000 0.467242
O O15 0.831884 0.279633 0.025292
O O16 0.883179 0.374557 0.861583
O O17 0.037083 0.500000 0.166194
O O18 0.000000 0.658720 0.000000
#
# Coordination Sequence:
#
# PCOD9203095 Si02
#       7
#     8   8   8   8   8   8   8
#     4  10  20  38  66  98 127 166 214 265 325 386
#     4  10  23  42  67  96 128 166 215 270 327 387
#     4  11  24  46  68  89 123 174 226 269 316 383
#     4  10  22  39  61  92 130 171 216 264 316 381
#     4  12  24  39  66  96 130 173 216 265 323 391
#     4  12  26  40  63  95 134 167 210 263 331 386
#     4  10  22  40  62  90 126 167 215 270 325 377
#
# _framework density 21.014887999999999
#
# number of rings (size 3 to 8) (size 9 to 14) (size 15 to 20)
#    0.000    1.286    1.429    3.857    4.000    3.429 
#    0.000    3.571    0.000    0.000    0.000    0.000 
#    0.000    0.000    0.000    0.000    0.000    0.000 
#
# Total GULP energy -156622.512875 kJ/mol
# GULP energy per Si atom -5593.661174 kJ/mol
# Density = 2.096706 g / cm^3
# Si number density = 21.014888 Si / 1000 Ang^3
#
#
#
# Elastic Constant Matrix: (Units=GPa)
#
#
# Indices 1 2 3 4 5 6 
#
# 1 66.7489 19.2000 19.6767 0.0000 12.1925 0.0000
# 2 19.2000 87.3313 19.6780 0.0000 -5.7572 0.0000
# 3 19.6767 19.6780 63.6873 0.0000 -15.4274 0.0000
# 4 0.0000 0.0000 0.0000 1.2857 0.0000 -10.8944
# 5 12.1925 -5.7572 -15.4274 0.0000 31.3940 0.0000
# 6 0.0000 0.0000 0.0000 -10.8944 0.0000 35.3376
#
#
#
# Elastic Compliance Matrix: (Units=1/GPa)
#
#
# Indices 1 2 3 4 5 6 
#
# 1 0.020855 -0.003525 -0.008482 0.000000 -0.012914 0.000000
# 2 -0.003525 0.012909 -0.002264 0.000000 0.002624 0.000000
# 3 -0.008482 -0.002264 0.022384 0.000000 0.013879 0.000000
# 4 0.000000 0.000000 0.000000 -0.482390 0.000000 -0.148718
# 5 -0.012914 0.002624 0.013879 0.000000 0.044170 0.000000
# 6 0.000000 0.000000 0.000000 -0.148718 0.000000 -0.017550
#
#
# Mechanical properties :
#
#
# Convention : Reuss Voigt Hill
#
# Bulk Modulus (GPa) = 36.22547 37.20853 36.71700
# Shear Modulus (GPa) = -13.81678 24.21765 5.20044
#
# Velocity S-wave (km/s) = -2.56691 3.39839 1.57481
# Velocity P-wave (km/s) = 2.91377 5.75699 4.56251
#
# Compressibility (1/GPa) = 0.02760489
#
# Stress axis : x y z
#
# Youngs Moduli (GPa) = 47.95031 77.46705 44.67500
#
# Poissons Ratio (x) = 0.27307 0.37895
# Poissons Ratio (y) = 0.16903 0.10114
# Poissons Ratio (z) = 0.40673 0.17537
#
# Static dielectric constant tensor:
#      x y z
#    x 1.730810 0.000000 -0.006200 
#    y 0.000000 1.785670 0.000000 
#    z -0.006200 0.000000 1.739370 
# 
# From -- ./inp_files/96968.got.cif
#   From: 2010.05.17/outbox.cif.g08.bks.cpg/sg12_49_cif.got.tgz:96968.got - 2010.06.03 13:09:07.
