data_PCOD9203446
_publ_section_title
;
Structure prediction by ZEFSAII (Michael W. Deem and Ramdas Pophale) SiO2 
 PCOD9203446
Probable space group: C 2/M
;
_chemical_formula_sum "Si O2"
_cell_formula_units_Z 64
_cell_length_a 30.331589
_cell_length_b 9.121228
_cell_length_c 19.062139
_cell_angle_alpha 90.000000
_cell_angle_beta 38.044526
_cell_angle_gamma 90.000000
_cell_volume 3250.077531
_symmetry_space_group_name_H-M "C 2/M"
_symmetry_group_IT_number 12
_symmetry_cell_setting 'monoclinic'
loop_
_space_group_symop_operation_xyz
x,y,z
-x,y,-z
-x,-y,-z
x,-y,z
1/2+x,1/2+y,z
1/2-x,1/2+y,-z
1/2-x,1/2-y,-z
1/2+x,1/2-y,z
loop_
_atom_site_type_symbol
_atom_site_label
_atom_site_fract_x
_atom_site_fract_y
_atom_site_fract_z
Si Si1 0.712139 0.327976 0.947351
Si Si2 0.865268 0.673248 0.830262
Si Si3 0.381140 0.172260 0.473965
Si Si4 0.287526 0.672688 0.316414
Si Si5 0.517520 0.334502 0.060143
Si Si6 0.501090 0.675977 0.415318
Si Si7 0.121905 0.169978 0.668361
Si Si8 0.343344 0.828509 0.112886
O O1 0.695636 0.500000 0.966248
O O2 0.656147 0.247181 0.069036
O O3 0.792202 0.310466 0.876949
O O4 0.707106 0.257375 0.877512
O O5 0.879790 0.500000 0.820863
O O6 0.930817 0.751412 0.708962
O O7 0.296353 0.190697 0.592580
O O8 0.430587 0.261156 0.465611
O O9 0.391390 0.231253 0.382286
O O10 0.398330 0.000000 0.457308
O O11 0.306162 0.500000 0.284336
O O12 0.311553 0.712254 0.365116
O O13 0.329662 0.768715 0.207764
O O14 0.547051 0.500000 0.032997
O O15 0.446439 0.322832 0.194906
O O16 0.500000 0.318425 0.000000
O O17 0.576208 0.216745 0.007635
O O18 0.500000 0.710306 0.500000
O O19 0.504322 0.500000 0.403594
O O20 0.131338 0.000000 0.634140
O O21 0.331527 0.000000 0.123160
#
# Coordination Sequence:
#
# PCOD9203446 Si02
#       8
#     8   8   8   8   8   8   8   8
#     4  10  22  41  66  94 127 165 202 250 312 379
#     4  10  22  42  68  96 124 158 205 260 314 369
#     4  11  25  42  66  95 126 163 210 267 317 370
#     4  10  22  43  65  90 125 169 215 259 317 377
#     4  10  20  39  63  86 121 167 208 249 306 372
#     4  11  26  46  67  92 127 169 211 258 315 380
#     4  10  21  40  67  92 124 168 211 258 314 379
#     4  12  25  37  59  93 129 165 206 260 308 365
#
# _framework density 19.691837
#
# number of rings (size 3 to 8) (size 9 to 14) (size 15 to 20)
#    0.000    1.500    1.250    3.000    3.500    4.750 
#    0.000    0.000    0.000    0.000    0.000    0.000 
#    0.000    0.000    0.000    0.000    0.000    0.000 
#
# Total GULP energy -178871.901500 kJ/mol
# GULP energy per Si atom -5589.746922 kJ/mol
# Density = 1.964702 g / cm^3
# Si number density = 19.691837 Si / 1000 Ang^3
#
#
#
# Elastic Constant Matrix: (Units=GPa)
#
#
# Indices 1 2 3 4 5 6 
#
# 1 108.1170 59.1281 28.7815 0.0006 7.2300 0.0009
# 2 59.1281 92.8435 39.8735 -0.0037 -0.5291 0.0048
# 3 28.7815 39.8735 67.0064 0.0010 -5.6828 0.0019
# 4 0.0006 -0.0037 0.0010 17.4374 -0.0005 -1.1351
# 5 7.2300 -0.5291 -5.6828 -0.0005 20.0407 -0.0011
# 6 0.0009 0.0048 0.0019 -1.1351 -0.0011 27.6279
#
#
#
# Elastic Compliance Matrix: (Units=1/GPa)
#
#
# Indices 1 2 3 4 5 6 
#
# 1 0.014928 -0.008820 -0.001680 -0.000002 -0.006095 0.000001
# 2 -0.008820 0.019767 -0.007849 0.000005 0.001478 -0.000002
# 3 -0.001680 -0.007849 0.020852 -0.000003 0.006312 0.000000
# 4 -0.000002 0.000005 -0.000003 0.057502 0.000002 0.002363
# 5 -0.006095 0.001478 0.006312 0.000002 0.053926 0.000002
# 6 0.000001 -0.000002 0.000000 0.002363 0.000002 0.036292
#
#
# Mechanical properties :
#
#
# Convention : Reuss Voigt Hill
#
# Bulk Modulus (GPa) = 53.05611 58.17034 55.61322
# Shear Modulus (GPa) = 20.30472 22.36677 21.33575
#
# Velocity S-wave (km/s) = 3.21460 3.37388 3.29520
# Velocity P-wave (km/s) = 6.38591 6.69193 6.54071
#
# Compressibility (1/GPa) = 0.01884797
#
# Stress axis : x y z
#
# Youngs Moduli (GPa) = 66.99004 50.58900 47.95749
#
# Poissons Ratio (x) = 0.44618 0.08059
# Poissons Ratio (y) = 0.59084 0.37642
# Poissons Ratio (z) = 0.11257 0.39708
#
# Static dielectric constant tensor:
#      x y z
#    x 1.698000 0.000000 -0.011130 
#    y 0.000000 1.665920 0.000000 
#    z -0.011130 0.000000 1.679800 
# 
# From -- ./inp_files/295600.got.cif
#   From: 2010.05.17/outbox.cif.g08.bks.cpg/sg12_148_cif.got.tgz:295600.got - 2010.06.03 13:09:07.
