data_PCOD9203916
_publ_section_title
;
Structure prediction by ZEFSAII (Michael W. Deem and Ramdas Pophale) SiO2 
 PCOD9203916
Probable space group: C 2/M
;
_chemical_formula_sum "Si O2"
_cell_formula_units_Z 48
_cell_length_a 11.688535
_cell_length_b 23.577687
_cell_length_c 9.006741
_cell_angle_alpha 90.000000
_cell_angle_beta 73.343326
_cell_angle_gamma 90.000000
_cell_volume 2378.002886
_symmetry_space_group_name_H-M "C 2/M"
_symmetry_group_IT_number 12
_symmetry_cell_setting 'monoclinic'
loop_
_space_group_symop_operation_xyz
x,y,z
-x,y,-z
-x,-y,-z
x,-y,z
1/2+x,1/2+y,z
1/2-x,1/2+y,-z
1/2-x,1/2-y,-z
1/2+x,1/2-y,z
loop_
_atom_site_type_symbol
_atom_site_label
_atom_site_fract_x
_atom_site_fract_y
_atom_site_fract_z
Si Si1 0.228337 0.660291 0.099838
Si Si2 0.573634 0.431153 0.327283
Si Si3 0.207968 0.434182 0.565451
Si Si4 0.025136 0.334664 0.649444
Si Si5 0.867344 0.933744 0.203964
Si Si6 0.370424 0.770539 0.125751
O O1 0.099183 0.653010 0.222728
O O2 0.305490 0.604619 0.103115
O O3 0.297623 0.712553 0.150282
O O4 0.201552 0.682826 0.944403
O O5 0.500000 0.411879 0.500000
O O6 0.566452 0.500000 0.326958
O O7 0.708860 0.418238 0.323525
O O8 0.498230 0.413027 0.211276
O O9 0.173338 0.500000 0.593869
O O10 0.902288 0.392371 0.402173
O O11 0.286021 0.430229 0.384626
O O12 0.000000 0.307752 0.500000
O O13 0.103190 0.293930 0.722465
O O14 0.873373 0.000000 0.158207
O O15 0.500000 0.761884 0.000000
#
# Coordination Sequence:
#
# PCOD9203916 Si02
#       6
#     8   8   8   8   8   8
#     4  10  20  40  61  82 113 156 190 230 289 346
#     4   7  12  25  44  72 113 153 182 212 261 330
#     4   9  17  31  52  84 126 158 176 220 297 351
#     4  11  21  36  58  90 117 142 189 245 278 337
#     4   9  16  30  56  88 118 148 187 232 282 341
#     4   9  22  43  61  75 109 159 199 233 285 341
#
# _framework density 20.185006000000001
#
# number of rings (size 3 to 8) (size 9 to 14) (size 15 to 20)
#    0.000    2.833    1.667    2.000    0.000    1.667 
#    9.000    1.667    0.000    3.500    0.000    0.000 
#    0.000    0.000    0.000    0.000    0.000    0.000 
#
# Total GULP energy -133875.510014 kJ/mol
# GULP energy per Si atom -5578.146251 kJ/mol
# Density = 2.013906 g / cm^3
# Si number density = 20.185006 Si / 1000 Ang^3
#
#
#
# Elastic Constant Matrix: (Units=GPa)
#
#
# Indices 1 2 3 4 5 6 
#
# 1 98.4315 56.1903 48.6819 0.0000 30.4261 0.0000
# 2 56.1903 74.7448 45.4628 0.0000 12.9357 0.0000
# 3 48.6819 45.4628 51.9360 0.0000 15.8975 0.0000
# 4 0.0000 0.0000 0.0000 21.0966 0.0000 0.3584
# 5 30.4261 12.9357 15.8975 0.0000 35.6845 0.0000
# 6 0.0000 0.0000 0.0000 0.3584 0.0000 -8.5737
#
#
#
# Elastic Compliance Matrix: (Units=1/GPa)
#
#
# Indices 1 2 3 4 5 6 
#
# 1 0.025439 -0.010251 -0.010850 0.000000 -0.013141 0.000000
# 2 -0.010251 0.032770 -0.020977 0.000000 0.006206 0.000000
# 3 -0.010850 -0.020977 0.049358 0.000000 -0.005134 0.000000
# 4 0.000000 0.000000 0.000000 0.047367 0.000000 0.001980
# 5 -0.013141 0.006206 -0.005134 0.000000 0.039265 0.000000
# 6 0.000000 0.000000 0.000000 0.001980 0.000000 -0.116552
#
#
# Mechanical properties :
#
#
# Convention : Reuss Voigt Hill
#
# Bulk Modulus (GPa) = 42.71168 58.42027 50.56598
# Shear Modulus (GPa) = 29.48023 14.62664 22.05343
#
# Velocity S-wave (km/s) = 3.82580 2.69481 3.30898
# Velocity P-wave (km/s) = 6.38135 6.21996 6.30117
#
# Compressibility (1/GPa) = 0.02341280
#
# Stress axis : x y z
#
# Youngs Moduli (GPa) = 39.30974 30.51602 20.26012
#
# Poissons Ratio (x) = 0.31281 0.21982
# Poissons Ratio (y) = 0.40295 0.42499
# Poissons Ratio (z) = 0.42650 0.64012
#
# Static dielectric constant tensor:
#      x y z
#    x 1.725770 0.000000 0.017000 
#    y 0.000000 1.670490 0.000000 
#    z 0.017000 0.000000 1.749900 
# 
# From -- ./inp_files/50712.got.cif
#   From: 2010.05.17/outbox.cif.g08.bks.cpg/sg12_26_cif.got.tgz:50712.got - 2010.06.03 13:09:07.
