data_PCOD9203874
_publ_section_title
;
Structure prediction by ZEFSAII (Michael W. Deem and Ramdas Pophale) SiO2 
 PCOD9203874
Probable space group: C 2/M
;
_chemical_formula_sum "Si O2"
_cell_formula_units_Z 36
_cell_length_a 8.793494
_cell_length_b 26.564592
_cell_length_c 15.282063
_cell_angle_alpha 90.000000
_cell_angle_beta 31.464827
_cell_angle_gamma 90.000000
_cell_volume 1863.358190
_symmetry_space_group_name_H-M "C 2/M"
_symmetry_group_IT_number 12
_symmetry_cell_setting 'monoclinic'
loop_
_space_group_symop_operation_xyz
x,y,z
-x,y,-z
-x,-y,-z
x,-y,z
1/2+x,1/2+y,z
1/2-x,1/2+y,-z
1/2-x,1/2-y,-z
1/2+x,1/2-y,z
loop_
_atom_site_type_symbol
_atom_site_label
_atom_site_fract_x
_atom_site_fract_y
_atom_site_fract_z
Si Si1 0.865639 0.324053 0.903485
Si Si2 0.331238 0.913077 0.316342
Si Si3 0.000000 0.746265 0.000000
Si Si4 0.160581 0.000000 0.688050
Si Si5 0.634364 0.000000 0.835722
Si Si6 0.605134 0.414098 0.854752
O O1 0.131210 0.358689 0.745113
O O2 0.958704 0.289938 0.938418
O O3 0.767277 0.285534 0.875865
O O4 0.593307 0.363147 0.056798
O O5 0.549180 0.909795 0.292684
O O6 0.000000 0.925359 0.500000
O O7 0.435276 0.952338 0.190736
O O8 0.500000 0.000000 0.500000
O O9 0.077639 0.951365 0.787227
O O10 0.976969 0.000000 0.689645
O O11 0.500000 0.000000 0.000000
O O12 0.500000 0.435924 0.000000
#
# Coordination Sequence:
#
# PCOD9203874 Si02
#       6
#     8   8   4   4   4   8
#     4  10  21  38  66  84 115 150 201 242 291 349
#     4  11  22  39  59  88 125 160 188 235 303 355
#     4  10  20  40  64  90 106 148 206 254 284 338
#     4  12  24  36  56  90 126 152 189 243 290 338
#     4  12  24  36  60  92 120 157 204 240 275 345
#     4  10  20  40  59  84 115 165 194 226 285 360
#
# _framework density 19.319956999999999
#
# number of rings (size 3 to 8) (size 9 to 14) (size 15 to 20)
#    0.000    1.333    3.333    5.333    4.667    0.000 
#    0.000    1.111    0.000    0.000    0.000    0.000 
#    0.000    0.000    0.000    0.000    0.000    0.000 
#
# Total GULP energy -100243.757722 kJ/mol
# GULP energy per Si atom -5569.097651 kJ/mol
# Density = 1.927598 g / cm^3
# Si number density = 19.319957 Si / 1000 Ang^3
#
#
#
# Elastic Constant Matrix: (Units=GPa)
#
#
# Indices 1 2 3 4 5 6 
#
# 1 109.9164 51.7251 20.4368 0.0000 -8.9513 0.0000
# 2 51.7251 115.1822 21.9572 0.0000 14.5467 0.0000
# 3 20.4368 21.9572 71.3675 0.0000 -10.2669 0.0000
# 4 0.0000 0.0000 0.0000 21.1373 0.0000 -8.8268
# 5 -8.9513 14.5467 -10.2669 0.0000 24.8537 0.0000
# 6 0.0000 0.0000 0.0000 -8.8268 0.0000 61.7530
#
#
#
# Elastic Compliance Matrix: (Units=1/GPa)
#
#
# Indices 1 2 3 4 5 6 
#
# 1 0.013120 -0.006903 -0.000396 0.000000 0.008602 0.000000
# 2 -0.006903 0.014156 -0.004176 0.000000 -0.012497 0.000000
# 3 -0.000396 -0.004176 0.016736 0.000000 0.009215 0.000000
# 4 0.000000 0.000000 0.000000 0.050313 0.000000 0.007192
# 5 0.008602 -0.012497 0.009215 0.000000 0.054455 0.000000
# 6 0.000000 0.000000 0.000000 0.007192 0.000000 0.017221
#
#
# Mechanical properties :
#
#
# Convention : Reuss Voigt Hill
#
# Bulk Modulus (GPa) = 47.47856 53.85604 50.66730
# Shear Modulus (GPa) = 25.51374 35.03860 30.27617
#
# Velocity S-wave (km/s) = 3.63793 4.26325 3.96295
# Velocity P-wave (km/s) = 6.50187 7.22289 6.87184
#
# Compressibility (1/GPa) = 0.02106214
#
# Stress axis : x y z
#
# Youngs Moduli (GPa) = 76.21729 70.64029 59.75141
#
# Poissons Ratio (x) = 0.48762 0.02365
# Poissons Ratio (y) = 0.52612 0.24955
# Poissons Ratio (z) = 0.03017 0.29502
#
# Static dielectric constant tensor:
#      x y z
#    x 1.703780 0.000000 -0.044520 
#    y 0.000000 1.689070 0.000000 
#    z -0.044520 0.000000 1.724050 
# 
# From -- ./inp_files/200092.got.cif
#   From: 2010.05.17/outbox.cif.g08.bks.cpg/sg12_101_cif.got.tgz:200092.got - 2010.06.03 13:09:07.
