data_PCOD9203476
_publ_section_title
;
Structure prediction by ZEFSAII (Michael W. Deem and Ramdas Pophale) SiO2 
 PCOD9203476
Probable space group: C 2/M
;
_chemical_formula_sum "Si O2"
_cell_formula_units_Z 52
_cell_length_a 15.786993
_cell_length_b 8.551930
_cell_length_c 32.782806
_cell_angle_alpha 90.000000
_cell_angle_beta 36.520236
_cell_angle_gamma 90.000000
_cell_volume 2633.931571
_symmetry_space_group_name_H-M "C 2/M"
_symmetry_group_IT_number 12
_symmetry_cell_setting 'monoclinic'
loop_
_space_group_symop_operation_xyz
x,y,z
-x,y,-z
-x,-y,-z
x,-y,z
1/2+x,1/2+y,z
1/2-x,1/2+y,-z
1/2-x,1/2-y,-z
1/2+x,1/2-y,z
loop_
_atom_site_type_symbol
_atom_site_label
_atom_site_fract_x
_atom_site_fract_y
_atom_site_fract_z
Si Si1 0.875898 0.323334 0.802570
Si Si2 0.844154 0.812091 0.576642
Si Si3 0.022462 0.500000 0.087483
Si Si4 0.034089 0.254441 0.825059
Si Si5 0.447331 0.685262 0.338955
Si Si6 0.326369 0.312025 0.679893
Si Si7 0.804666 0.000000 0.935812
Si Si8 0.292536 0.000000 0.115827
O O1 0.811633 0.500000 0.823966
O O2 0.967532 0.322242 0.808969
O O3 0.976821 0.289496 0.725051
O O4 0.781095 0.164526 0.841885
O O5 0.718240 0.729237 0.600352
O O6 0.836076 0.775968 0.628183
O O7 0.000000 0.769661 0.500000
O O8 0.827137 0.000000 0.579026
O O9 0.958769 0.362156 0.138669
O O10 0.948383 0.500000 0.073130
O O11 0.193311 0.500000 0.016039
O O12 0.195520 0.215432 0.750158
O O13 0.914493 0.139138 0.887966
O O14 0.464540 0.500000 0.322810
O O15 0.530022 0.713438 0.349571
O O16 0.292792 0.500000 0.696603
O O17 0.714781 0.000000 0.929488
#
# Coordination Sequence:
#
# PCOD9203476 Si02
#       8
#     8   8   4   8   8   8   4   4
#     4  11  20  38  63  94 125 166 216 268 317 373
#     4  10  22  41  64  91 128 170 209 257 318 381
#     4  12  21  42  62  89 127 167 211 261 335 381
#     4  11  21  38  65  89 121 168 213 261 320 376
#     4  11  22  37  62  92 127 165 214 263 317 371
#     4  10  20  39  63  89 121 166 210 258 320 378
#     4  10  25  40  62  91 126 166 211 266 320 395
#     4  10  23  40  64  90 126 169 209 267 330 380
#
# _framework density 19.742349000000001
#
# number of rings (size 3 to 8) (size 9 to 14) (size 15 to 20)
#    0.000    1.385    3.846    2.077    0.000    0.923 
#    6.923    0.000    0.000    1.846    0.000    0.000 
#    0.000    0.000    0.000    0.000    0.000    0.000 
#
# Total GULP energy -144802.146946 kJ/mol
# GULP energy per Si atom -5569.313344 kJ/mol
# Density = 1.969741 g / cm^3
# Si number density = 19.742349 Si / 1000 Ang^3
#
#
#
# Elastic Constant Matrix: (Units=GPa)
#
#
# Indices 1 2 3 4 5 6 
#
# 1 105.0885 26.6626 36.2324 -0.0011 -21.0193 -0.0012
# 2 26.6626 67.5637 18.8441 -0.0021 -9.9574 -0.0001
# 3 36.2324 18.8441 119.6252 0.0008 -18.5745 0.0003
# 4 -0.0011 -0.0021 0.0008 56.5265 -0.0004 -13.9146
# 5 -21.0193 -9.9574 -18.5745 -0.0004 23.0659 -0.0004
# 6 -0.0012 -0.0001 0.0003 -13.9146 -0.0004 10.0055
#
#
#
# Elastic Compliance Matrix: (Units=1/GPa)
#
#
# Indices 1 2 3 4 5 6 
#
# 1 0.012745 -0.003198 -0.002020 0.000001 0.008607 0.000003
# 2 -0.003198 0.016894 -0.001157 0.000001 0.003447 0.000001
# 3 -0.002020 -0.001157 0.010046 0.000000 0.005750 -0.000001
# 4 0.000001 0.000001 0.000000 0.026899 0.000002 0.037409
# 5 0.008607 0.003447 0.005750 0.000002 0.057315 0.000006
# 6 0.000003 0.000001 -0.000001 0.037409 0.000006 0.151969
#
#
# Mechanical properties :
#
#
# Convention : Reuss Voigt Hill
#
# Bulk Modulus (GPa) = 37.12706 50.63952 43.88329
# Shear Modulus (GPa) = 16.80120 31.95548 24.37834
#
# Velocity S-wave (km/s) = 2.92040 4.02758 3.51782
# Velocity P-wave (km/s) = 5.49711 6.88000 6.22706
#
# Compressibility (1/GPa) = 0.02693453
#
# Stress axis : x y z
#
# Youngs Moduli (GPa) = 78.46136 59.19421 99.53826
#
# Poissons Ratio (x) = 0.18928 0.20108
# Poissons Ratio (y) = 0.25089 0.11521
# Poissons Ratio (z) = 0.15850 0.06852
#
# Static dielectric constant tensor:
#      x y z
#    x 1.686790 0.000000 -0.025250 
#    y 0.000000 1.768360 0.000000 
#    z -0.025250 0.000000 1.662260 
# 
# From -- ./inp_files/375357.got.cif
#   From: 2010.05.17/outbox.cif.g08.bks.cpg/sg12_188_cif.got.tgz:375357.got - 2010.06.03 13:09:07.
