data_PCOD9203304
_publ_section_title
;
Structure prediction by ZEFSAII (Michael W. Deem and Ramdas Pophale) SiO2 
 PCOD9203304
Probable space group: C 2/M
;
_chemical_formula_sum "Si O2"
_cell_formula_units_Z 48
_cell_length_a 27.942992
_cell_length_b 8.552548
_cell_length_c 10.335775
_cell_angle_alpha 90.000000
_cell_angle_beta 90.051455
_cell_angle_gamma 90.000000
_cell_volume 2470.081586
_symmetry_space_group_name_H-M "C 2/M"
_symmetry_group_IT_number 12
_symmetry_cell_setting 'monoclinic'
loop_
_space_group_symop_operation_xyz
x,y,z
-x,y,-z
-x,-y,-z
x,-y,z
1/2+x,1/2+y,z
1/2-x,1/2+y,-z
1/2-x,1/2-y,-z
1/2+x,1/2-y,z
loop_
_atom_site_type_symbol
_atom_site_label
_atom_site_fract_x
_atom_site_fract_y
_atom_site_fract_z
Si Si1 0.140805 0.687306 0.486132
Si Si2 0.038954 0.812964 0.393875
Si Si3 0.856196 0.688887 0.972129
Si Si4 0.536850 0.188867 0.112255
Si Si5 0.677884 0.312654 0.753153
Si Si6 0.712141 0.190454 0.262043
O O1 0.141773 0.500000 0.490502
O O2 0.090356 0.740750 0.427938
O O3 0.149229 0.753222 0.628715
O O4 0.183114 0.741017 0.389284
O O5 0.024299 0.759768 0.250758
O O6 0.000000 0.762715 0.500000
O O7 0.042797 0.000000 0.398189
O O8 0.855243 0.500000 0.977006
O O9 0.843754 0.753064 0.112692
O O10 0.909196 0.735582 0.926233
O O11 0.817358 0.740242 0.865074
O O12 0.535893 0.000000 0.123123
O O13 0.500000 0.235013 0.000000
O O14 0.677768 0.500000 0.753310
O O15 0.733061 0.257059 0.741212
O O16 0.712210 0.000000 0.262202
#
# Coordination Sequence:
#
# PCOD9203304 Si02
#       6
#     8   8   8   8   8   8
#     4  11  22  41  65  88 118 161 205 249 296 352
#     4  11  25  43  63  92 125 156 193 246 307 362
#     4  10  20  39  61  87 122 159 203 250 293 354
#     4  10  22  41  66  93 119 156 203 247 295 357
#     4  11  23  37  57  91 127 160 199 248 302 357
#     4   9  19  38  62  86 119 159 205 252 296 349
#
# _framework density 19.432556000000002
#
# number of rings (size 3 to 8) (size 9 to 14) (size 15 to 20)
#    0.000    1.667    1.667    2.500    2.333    2.333 
#    0.000    3.333    0.000    0.000    0.000    0.000 
#    0.000    0.000    0.000    0.000    0.000    0.000 
#
# Total GULP energy -134164.926701 kJ/mol
# GULP energy per Si atom -5590.205279 kJ/mol
# Density = 1.938833 g / cm^3
# Si number density = 19.432556 Si / 1000 Ang^3
#
#
#
# Elastic Constant Matrix: (Units=GPa)
#
#
# Indices 1 2 3 4 5 6 
#
# 1 60.6717 12.3888 22.6044 0.0000 -4.6094 0.0000
# 2 12.3888 19.9646 15.2585 0.0000 -3.3208 0.0000
# 3 22.6044 15.2585 127.6866 0.0000 -5.1616 0.0000
# 4 0.0000 0.0000 0.0000 15.6940 0.0000 2.2502
# 5 -4.6094 -3.3208 -5.1616 0.0000 42.3143 0.0000
# 6 0.0000 0.0000 0.0000 2.2502 0.0000 18.1277
#
#
#
# Elastic Compliance Matrix: (Units=1/GPa)
#
#
# Indices 1 2 3 4 5 6 
#
# 1 0.019465 -0.010238 -0.002180 0.000000 0.001051 0.000000
# 2 -0.010238 0.061041 -0.005360 0.000000 0.003021 0.000000
# 3 -0.002180 -0.005360 0.008875 0.000000 0.000425 0.000000
# 4 0.000000 0.000000 0.000000 0.064873 0.000000 -0.008053
# 5 0.001051 0.003021 0.000425 0.000000 0.024036 0.000000
# 6 0.000000 0.000000 0.000000 -0.008053 0.000000 0.056164
#
#
# Mechanical properties :
#
#
# Convention : Reuss Voigt Hill
#
# Bulk Modulus (GPa) = 18.57854 34.31405 26.44630
# Shear Modulus (GPa) = 17.36411 25.76528 21.56470
#
# Velocity S-wave (km/s) = 2.99249 3.64522 3.33486
# Velocity P-wave (km/s) = 4.63910 5.95090 5.33547
#
# Compressibility (1/GPa) = 0.05382554
#
# Stress axis : x y z
#
# Youngs Moduli (GPa) = 51.37520 16.38255 112.67280
#
# Poissons Ratio (x) = 0.16772 0.24562
# Poissons Ratio (y) = 0.52596 0.60391
# Poissons Ratio (z) = 0.11200 0.08781
#
# Static dielectric constant tensor:
#      x y z
#    x 1.662300 0.000000 -0.004290 
#    y 0.000000 1.656930 0.000000 
#    z -0.004290 0.000000 1.641630 
# 
# From -- ./inp_files/108612.got.cif
#   From: 2010.05.17/outbox.cif.g08.bks.cpg/sg12_55_cif.got.tgz:108612.got - 2010.06.03 13:09:07.
