data_PCOD9203068
_publ_section_title
;
Structure prediction by ZEFSAII (Michael W. Deem and Ramdas Pophale) SiO2 
 PCOD9203068
Probable space group: C 2/M
;
_chemical_formula_sum "Si O2"
_cell_formula_units_Z 48
_cell_length_a 20.466249
_cell_length_b 11.704280
_cell_length_c 29.276127
_cell_angle_alpha 90.000000
_cell_angle_beta 19.572327
_cell_angle_gamma 90.000000
_cell_volume 2349.291399
_symmetry_space_group_name_H-M "C 2/M"
_symmetry_group_IT_number 12
_symmetry_cell_setting 'monoclinic'
loop_
_space_group_symop_operation_xyz
x,y,z
-x,y,-z
-x,-y,-z
x,-y,z
1/2+x,1/2+y,z
1/2-x,1/2+y,-z
1/2-x,1/2-y,-z
1/2+x,1/2-y,z
loop_
_atom_site_type_symbol
_atom_site_label
_atom_site_fract_x
_atom_site_fract_y
_atom_site_fract_z
Si Si1 0.672652 0.369328 0.305400
Si Si2 0.214558 0.131708 0.172878
Si Si3 0.520482 0.368467 0.163443
Si Si4 0.768972 0.127849 0.460381
Si Si5 0.884369 0.312993 0.534060
Si Si6 0.592876 0.789526 0.039338
O O1 0.610556 0.500000 0.345224
O O2 0.688979 0.329868 0.241822
O O3 0.516432 0.297011 0.436010
O O4 0.892676 0.357814 0.178443
O O5 0.996277 0.128988 0.296782
O O6 0.286575 0.000000 0.125007
O O7 0.350538 0.206309 0.051002
O O8 0.465797 0.500000 0.204223
O O9 0.337790 0.296346 0.302893
O O10 0.556295 0.331351 0.087561
O O11 0.722318 0.344738 0.056668
O O12 0.750000 0.250000 0.500000
O O13 0.639529 0.130221 0.499938
O O14 0.739020 0.000000 0.502629
O O15 0.000000 0.370781 0.500000
#
# Coordination Sequence:
#
# PCOD9203068 Si02
#       6
#     8   8   8   8   8   8
#     4  11  23  40  65  99 133 168 217 283 341 392
#     4  10  20  38  66  93 123 165 216 273 331 397
#     4  11  24  42  64  89 125 172 217 265 331 407
#     4  11  23  42  69  99 135 179 230 281 339 406
#     4  12  24  43  64 102 134 180 223 274 332 405
#     4  11  22  41  64  93 124 165 218 271 331 399
#
# _framework density 20.431692999999999
#
# number of rings (size 3 to 8) (size 9 to 14) (size 15 to 20)
#    0.000    1.000    5.000    2.500    0.000    3.000 
#    0.000    1.667    0.000    1.000    0.000    0.000 
#    0.000    0.000    0.000    0.000    0.000    0.000 
#
# Total GULP energy -133779.551747 kJ/mol
# GULP energy per Si atom -5574.147989 kJ/mol
# Density = 2.038519 g / cm^3
# Si number density = 20.431693 Si / 1000 Ang^3
#
#
#
# Elastic Constant Matrix: (Units=GPa)
#
#
# Indices 1 2 3 4 5 6 
#
# 1 112.3829 42.5210 40.1004 -0.0001 -0.0187 0.0040
# 2 42.5210 93.4715 59.0048 0.0045 19.7677 0.0020
# 3 40.1004 59.0048 139.0280 0.0296 -2.3404 0.0080
# 4 -0.0001 0.0045 0.0296 15.1994 0.0040 0.3041
# 5 -0.0187 19.7677 -2.3404 0.0040 42.7048 -0.0003
# 6 0.0040 0.0020 0.0080 0.3041 -0.0003 17.6344
#
#
#
# Elastic Compliance Matrix: (Units=1/GPa)
#
#
# Indices 1 2 3 4 5 6 
#
# 1 0.011119 -0.004801 -0.001133 0.000003 0.002165 -0.000001
# 2 -0.004801 0.019217 -0.006928 0.000010 -0.009277 0.000002
# 3 -0.001133 -0.006928 0.010523 -0.000019 0.003783 -0.000003
# 4 0.000003 0.000010 -0.000019 0.065815 -0.000012 -0.001135
# 5 0.002165 -0.009277 0.003783 -0.000012 0.027919 -0.000001
# 6 -0.000001 0.000002 -0.000003 -0.001135 -0.000001 0.056727
#
#
# Mechanical properties :
#
#
# Convention : Reuss Voigt Hill
#
# Bulk Modulus (GPa) = 66.06280 69.79274 67.92777
# Shear Modulus (GPa) = 22.51342 28.65816 25.58579
#
# Velocity S-wave (km/s) = 3.32307 3.74924 3.54257
# Velocity P-wave (km/s) = 6.86494 7.27843 7.07471
#
# Compressibility (1/GPa) = 0.01513711
#
# Stress axis : x y z
#
# Youngs Moduli (GPa) = 89.93395 52.03610 95.02580
#
# Poissons Ratio (x) = 0.24981 0.10769
# Poissons Ratio (y) = 0.43175 0.65829
# Poissons Ratio (z) = 0.10192 0.36048
#
# Static dielectric constant tensor:
#      x y z
#    x 1.815330 0.000000 -0.009550 
#    y 0.000000 1.731390 0.000010 
#    z -0.009550 0.000010 1.712150 
# 
# From -- ./inp_files/381171.got.cif
#   From: 2010.05.17/outbox.cif.g08.bks.cpg/sg12_191_cif.got.tgz:381171.got - 2010.06.03 13:09:07.
