data_PCOD9203871
_publ_section_title
;
Structure prediction by ZEFSAII (Michael W. Deem and Ramdas Pophale) SiO2 
 PCOD9203871
Probable space group: C 2/M
;
_chemical_formula_sum "Si O2"
_cell_formula_units_Z 64
_cell_length_a 9.959290
_cell_length_b 26.744811
_cell_length_c 24.249475
_cell_angle_alpha 90.000000
_cell_angle_beta 29.971542
_cell_angle_gamma 90.000000
_cell_volume 3226.758221
_symmetry_space_group_name_H-M "C 2/M"
_symmetry_group_IT_number 12
_symmetry_cell_setting 'monoclinic'
loop_
_space_group_symop_operation_xyz
x,y,z
-x,y,-z
-x,-y,-z
x,-y,z
1/2+x,1/2+y,z
1/2-x,1/2+y,-z
1/2-x,1/2-y,-z
1/2+x,1/2-y,z
loop_
_atom_site_type_symbol
_atom_site_label
_atom_site_fract_x
_atom_site_fract_y
_atom_site_fract_z
Si Si1 0.424609 0.878360 0.257672
Si Si2 0.749286 0.388112 0.753295
Si Si3 0.184280 0.780031 0.381702
Si Si4 0.295623 0.768892 0.738364
Si Si5 0.828220 0.558637 0.613219
Si Si6 0.329974 0.872426 0.008194
Si Si7 0.223600 0.299972 0.072998
Si Si8 0.791712 0.441853 0.201225
O O1 0.581158 0.902068 0.253045
O O2 0.209869 0.838798 0.357999
O O3 0.625840 0.842580 0.151052
O O4 0.312473 0.917945 0.254523
O O5 0.759119 0.327962 0.745657
O O6 0.864855 0.412120 0.657000
O O7 0.436487 0.399867 0.874917
O O8 0.483546 0.761231 0.292497
O O9 0.095126 0.751999 0.358509
O O10 0.000000 0.772421 0.500000
O O11 0.018747 0.739284 0.846532
O O12 0.895351 0.500000 0.597178
O O13 0.514383 0.562514 0.709804
O O14 0.000000 0.577483 0.500000
O O15 0.500000 0.853630 0.000000
O O16 0.244710 0.828644 0.996269
O O17 0.516776 0.910066 0.907030
O O18 0.500000 0.279371 0.000000
O O19 0.868234 0.500000 0.174237
#
# Coordination Sequence:
#
# PCOD9203871 Si02
#       8
#     8   8   8   8   8   8   8   8
#     4   9  21  39  59  88 120 155 201 238 295 357
#     4  11  22  39  59  92 123 152 203 249 291 357
#     4  10  21  40  59  82 119 159 202 252 298 348
#     4  10  24  36  57  90 117 159 205 244 295 352
#     4  10  23  43  64  87 118 155 197 252 310 357
#     4  11  22  36  62  92 125 159 197 243 294 357
#     4  10  20  40  59  82 129 166 195 241 290 352
#     4  10  22  40  63  90 120 155 196 246 304 362
#
# _framework density 19.834149
#
# number of rings (size 3 to 8) (size 9 to 14) (size 15 to 20)
#    0.000    1.875    2.500    0.375    1.750    5.750 
#    0.000    0.625    0.000    2.625    0.000    0.000 
#    0.000    0.000    0.000    0.000    0.000    0.000 
#
# Total GULP energy -178807.178547 kJ/mol
# GULP energy per Si atom -5587.724330 kJ/mol
# Density = 1.978901 g / cm^3
# Si number density = 19.834149 Si / 1000 Ang^3
#
#
#
# Elastic Constant Matrix: (Units=GPa)
#
#
# Indices 1 2 3 4 5 6 
#
# 1 135.9357 41.8824 8.4916 0.0030 14.6504 -0.0058
# 2 41.8824 44.5822 18.2891 0.0000 4.7146 -0.0013
# 3 8.4916 18.2891 52.2581 0.0007 18.8487 -0.0042
# 4 0.0030 0.0000 0.0007 19.3892 -0.0003 11.4378
# 5 14.6504 4.7146 18.8487 -0.0003 32.1937 0.0009
# 6 -0.0058 -0.0013 -0.0042 11.4378 0.0009 15.7526
#
#
#
# Elastic Compliance Matrix: (Units=1/GPa)
#
#
# Indices 1 2 3 4 5 6 
#
# 1 0.011403 -0.011921 0.004515 -0.000008 -0.006087 0.000011
# 2 -0.011921 0.038749 -0.014622 0.000010 0.008311 -0.000013
# 3 0.004515 -0.014622 0.029776 -0.000013 -0.017346 0.000019
# 4 -0.000008 0.000010 -0.000013 0.090217 0.000013 -0.065506
# 5 -0.006087 0.008311 -0.017346 0.000013 0.042771 -0.000018
# 6 0.000011 -0.000013 0.000019 -0.065506 -0.000018 0.111044
#
#
# Mechanical properties :
#
#
# Convention : Reuss Voigt Hill
#
# Bulk Modulus (GPa) = 27.87717 41.12247 34.49982
# Shear Modulus (GPa) = 13.15875 24.40795 18.78335
#
# Velocity S-wave (km/s) = 2.57853 3.51180 3.08071
# Velocity P-wave (km/s) = 4.79069 6.10097 5.48510
#
# Compressibility (1/GPa) = 0.03587165
#
# Stress axis : x y z
#
# Youngs Moduli (GPa) = 87.69347 25.80698 33.58394
#
# Poissons Ratio (x) = 0.30765 -0.15162
# Poissons Ratio (y) = 1.04541 0.49106
# Poissons Ratio (z) = -0.39590 0.37735
#
# Static dielectric constant tensor:
#      x y z
#    x 1.683910 0.000000 -0.000380 
#    y 0.000000 1.671770 0.000000 
#    z -0.000380 0.000000 1.727070 
# 
# From -- ./inp_files/334343.got.cif
#   From: 2010.05.17/outbox.cif.g08.bks.cpg/sg12_168_cif.got.tgz:334343.got - 2010.06.03 13:09:07.
