data_PCOD9203660
_publ_section_title
;
Structure prediction by ZEFSAII (Michael W. Deem and Ramdas Pophale) SiO2 
 PCOD9203660
Probable space group: C 2/M
;
_chemical_formula_sum "Si O2"
_cell_formula_units_Z 42
_cell_length_a 16.061265
_cell_length_b 10.573598
_cell_length_c 11.329657
_cell_angle_alpha 90.000000
_cell_angle_beta 107.411572
_cell_angle_gamma 90.000000
_cell_volume 1835.902333
_symmetry_space_group_name_H-M "C 2/M"
_symmetry_group_IT_number 12
_symmetry_cell_setting 'monoclinic'
loop_
_space_group_symop_operation_xyz
x,y,z
-x,y,-z
-x,-y,-z
x,-y,z
1/2+x,1/2+y,z
1/2-x,1/2+y,-z
1/2-x,1/2-y,-z
1/2+x,1/2-y,z
loop_
_atom_site_type_symbol
_atom_site_label
_atom_site_fract_x
_atom_site_fract_y
_atom_site_fract_z
Si Si1 0.000000 0.000000 0.000000
Si Si2 0.691020 0.146452 0.819295
Si Si3 0.584692 0.857855 0.246216
Si Si4 0.292646 0.359983 0.359917
Si Si5 0.383067 0.265871 0.986299
Si Si6 0.557291 0.639729 0.405435
O O1 0.940450 0.888052 0.034457
O O2 0.675085 0.245553 0.707582
O O3 0.789562 0.178320 0.903620
O O4 0.684274 0.000000 0.781710
O O5 0.631791 0.179388 0.906521
O O6 0.688288 0.856381 0.322491
O O7 0.582131 0.815013 0.109539
O O8 0.541092 0.753029 0.310006
O O9 0.552008 0.000000 0.249949
O O10 0.315058 0.500000 0.318258
O O11 0.343110 0.353615 0.504932
O O12 0.500000 0.646991 0.500000
O O13 0.544730 0.500000 0.345533
#
# Coordination Sequence:
#
# PCOD9203660 Si02
#       6
#     2   8   8   8   8   8
#     4  12  24  40  58  96 122 170 208 252 310 386
#     4  10  20  39  65  91 123 163 210 257 302 370
#     4  10  21  39  62  87 120 161 202 259 306 362
#     4   9  20  37  60  90 123 160 208 250 302 362
#     4  10  23  38  61  92 127 160 207 255 313 369
#     4  10  22  39  58  86 121 160 202 256 307 367
#
# _framework density 22.877033999999998
#
# number of rings (size 3 to 8) (size 9 to 14) (size 15 to 20)
#    0.000    2.095    0.952    1.143    2.667    5.714 
#    3.429    3.810    0.000    0.000    0.000    0.000 
#    0.000    0.000    0.000    0.000    0.000    0.000 
#
# Total GULP energy -117222.773428 kJ/mol
# GULP energy per Si atom -5582.036830 kJ/mol
# Density = 2.282496 g / cm^3
# Si number density = 22.877034 Si / 1000 Ang^3
#
#
#
# Elastic Constant Matrix: (Units=GPa)
#
#
# Indices 1 2 3 4 5 6 
#
# 1 48.8579 38.4837 19.4384 0.0000 -2.1781 0.0000
# 2 38.4837 268.3691 74.1439 0.0000 -37.6771 0.0000
# 3 19.4384 74.1439 57.6568 0.0000 -2.5652 0.0000
# 4 0.0000 0.0000 0.0000 24.1638 0.0000 -11.3420
# 5 -2.1781 -37.6771 -2.5652 0.0000 36.3606 0.0000
# 6 0.0000 0.0000 0.0000 -11.3420 0.0000 34.7430
#
#
#
# Elastic Compliance Matrix: (Units=1/GPa)
#
#
# Indices 1 2 3 4 5 6 
#
# 1 0.024278 -0.002117 -0.005513 0.000000 -0.001128 0.000000
# 2 -0.002117 0.007306 -0.008377 0.000000 0.006853 0.000000
# 3 -0.005513 -0.008377 0.029667 0.000000 -0.006917 0.000000
# 4 0.000000 0.000000 0.000000 0.048873 0.000000 0.015955
# 5 -0.001128 0.006853 -0.006917 0.000000 0.034048 0.000000
# 6 0.000000 0.000000 0.000000 0.015955 0.000000 0.033991
#
#
# Mechanical properties :
#
#
# Convention : Reuss Voigt Hill
#
# Bulk Modulus (GPa) = 34.20252 71.00173 52.60213
# Shear Modulus (GPa) = 22.73522 35.24134 28.98828
#
# Velocity S-wave (km/s) = 3.15588 3.92914 3.56355
# Velocity P-wave (km/s) = 5.31625 7.18942 6.32259
#
# Compressibility (1/GPa) = 0.02923761
#
# Stress axis : x y z
#
# Youngs Moduli (GPa) = 41.18970 136.87092 33.70710
#
# Poissons Ratio (x) = 0.28969 0.18584
# Poissons Ratio (y) = 0.08718 0.28236
# Poissons Ratio (z) = 0.22710 1.14655
#
# Static dielectric constant tensor:
#      x y z
#    x 1.916810 0.000000 0.057410 
#    y 0.000000 1.791970 0.000000 
#    z 0.057410 0.000000 1.828490 
# 
# From -- ./inp_files/221142.got.cif
#   From: 2010.05.17/outbox.cif.g08.bks.cpg/sg12_111_cif.got.tgz:221142.got - 2010.06.03 13:09:07.
