data_PCOD9203001
_publ_section_title
;
Structure prediction by ZEFSAII (Michael W. Deem and Ramdas Pophale) SiO2 
 PCOD9203001
Probable space group: C 2/M
;
_chemical_formula_sum "Si O2"
_cell_formula_units_Z 60
_cell_length_a 12.248944
_cell_length_b 16.493955
_cell_length_c 23.273462
_cell_angle_alpha 90.000000
_cell_angle_beta 142.911220
_cell_angle_gamma 90.000000
_cell_volume 2835.561396
_symmetry_space_group_name_H-M "C 2/M"
_symmetry_group_IT_number 12
_symmetry_cell_setting 'monoclinic'
loop_
_space_group_symop_operation_xyz
x,y,z
-x,y,-z
-x,-y,-z
x,-y,z
1/2+x,1/2+y,z
1/2-x,1/2+y,-z
1/2-x,1/2-y,-z
1/2+x,1/2-y,z
loop_
_atom_site_type_symbol
_atom_site_label
_atom_site_fract_x
_atom_site_fract_y
_atom_site_fract_z
Si Si1 0.693414 0.636429 0.022222
Si Si2 0.311428 0.171928 0.950218
Si Si3 0.653079 0.371880 0.611244
Si Si4 0.532357 0.182566 0.332855
Si Si5 0.912766 0.318858 0.401877
Si Si6 0.576998 0.500000 0.680274
Si Si7 0.222902 0.088481 0.157547
Si Si8 0.031742 0.857131 0.276901
O O1 0.685166 0.731633 0.035172
O O2 0.774673 0.593422 0.111946
O O3 0.793958 0.628381 0.004325
O O4 0.490631 0.603683 0.929424
O O5 0.138492 0.154462 0.837521
O O6 0.500000 0.149570 0.000000
O O7 0.500000 0.392906 0.500000
O O8 0.621763 0.278044 0.616259
O O9 0.640930 0.429512 0.660360
O O10 0.840179 0.370995 0.654268
O O11 0.550027 0.163467 0.407457
O O12 0.326491 0.159612 0.232588
O O13 0.560864 0.275165 0.326707
O O14 0.719008 0.363746 0.319635
O O15 0.000000 0.336444 0.500000
O O16 0.509826 0.429592 0.697814
O O17 0.268363 0.000000 0.199994
#
# Coordination Sequence:
#
# PCOD9203001 Si02
#       8
#     8   8   8   8   8   4   8   8
#     4  10  20  38  65  91 130 163 219 268 329 393
#     4  11  21  39  65  95 127 177 219 266 329 403
#     4  10  24  41  70  98 133 178 225 284 337 397
#     4  11  22  43  70  98 135 173 234 272 331 413
#     4  10  23  44  73 101 129 181 229 278 336 407
#     4  12  25  46  64 100 139 186 217 285 344 406
#     4  11  22  41  66  97 127 170 218 282 330 379
#     4  11  24  43  69  98 140 180 225 280 337 405
#
# _framework density 21.159832000000002
#
# number of rings (size 3 to 8) (size 9 to 14) (size 15 to 20)
#    0.000    1.333    4.000    1.800    2.800    3.733 
#    6.000    0.667    0.000    0.000    0.000    0.000 
#    0.000    0.000    0.000    0.000    0.000    0.000 
#
# Total GULP energy -167096.102960 kJ/mol
# GULP energy per Si atom -5569.870099 kJ/mol
# Density = 2.111167 g / cm^3
# Si number density = 21.159832 Si / 1000 Ang^3
#
#
#
# Elastic Constant Matrix: (Units=GPa)
#
#
# Indices 1 2 3 4 5 6 
#
# 1 159.1112 36.9067 22.9428 0.0000 -12.0836 0.0000
# 2 36.9067 78.0210 3.2990 0.0000 -4.5755 0.0000
# 3 22.9428 3.2990 48.2132 0.0000 7.8128 0.0000
# 4 0.0000 0.0000 0.0000 -72.4895 0.0000 -106.0019
# 5 -12.0836 -4.5755 7.8128 0.0000 23.2009 -0.0001
# 6 0.0000 0.0000 0.0000 -106.0019 -0.0001 -129.0772
#
#
#
# Elastic Compliance Matrix: (Units=1/GPa)
#
#
# Indices 1 2 3 4 5 6 
#
# 1 0.008082 -0.003340 -0.004435 0.000000 0.005044 0.000000
# 2 -0.003340 0.014434 0.000447 0.000000 0.000957 0.000000
# 3 -0.004435 0.000447 0.024519 0.000000 -0.010478 0.000000
# 4 0.000000 0.000000 0.000000 0.068670 0.000000 -0.056394
# 5 0.005044 0.000957 -0.010478 0.000000 0.049446 0.000000
# 6 0.000000 0.000000 0.000000 -0.056394 0.000000 0.038565
#
#
# Mechanical properties :
#
#
# Convention : Reuss Voigt Hill
#
# Bulk Modulus (GPa) = 30.88406 45.73803 38.31104
# Shear Modulus (GPa) = 21.81827 -20.86003 0.47912
#
# Velocity S-wave (km/s) = 3.21459 -3.14320 0.47636
# Velocity P-wave (km/s) = 5.32967 2.91367 4.29505
#
# Compressibility (1/GPa) = 0.03237917
#
# Stress axis : x y z
#
# Youngs Moduli (GPa) = 123.72943 69.28021 40.78471
#
# Poissons Ratio (x) = 0.23138 0.18087
# Poissons Ratio (y) = 0.41323 -0.01821
# Poissons Ratio (z) = 0.54872 -0.03094
#
# Static dielectric constant tensor:
#      x y z
#    x 1.795870 0.000000 -0.004860 
#    y 0.000000 1.747080 0.000000 
#    z -0.004860 0.000000 1.772340 
# 
# From -- ./inp_files/336461.got.cif
#   From: 2010.05.17/outbox.cif.g08.bks.cpg/sg12_169_cif.got.tgz:336461.got - 2010.06.03 13:09:07.
