data_PCOD9203753
_publ_section_title
;
Structure prediction by ZEFSAII (Michael W. Deem and Ramdas Pophale) SiO2 
 PCOD9203753
Probable space group: C 2/M
;
_chemical_formula_sum "Si O2"
_cell_formula_units_Z 40
_cell_length_a 22.739862
_cell_length_b 14.277645
_cell_length_c 9.924394
_cell_angle_alpha 90.000000
_cell_angle_beta 32.141347
_cell_angle_gamma 90.000000
_cell_volume 1714.225696
_symmetry_space_group_name_H-M "C 2/M"
_symmetry_group_IT_number 12
_symmetry_cell_setting 'monoclinic'
loop_
_space_group_symop_operation_xyz
x,y,z
-x,y,-z
-x,-y,-z
x,-y,z
1/2+x,1/2+y,z
1/2-x,1/2+y,-z
1/2-x,1/2-y,-z
1/2+x,1/2-y,z
loop_
_atom_site_type_symbol
_atom_site_label
_atom_site_fract_x
_atom_site_fract_y
_atom_site_fract_z
Si Si1 0.449957 0.608993 0.447406
Si Si2 0.583397 0.296500 0.953520
Si Si3 0.214388 0.610706 0.323333
Si Si4 0.722463 0.887184 0.001362
Si Si5 0.045868 0.392022 0.127801
O O1 0.500000 0.611183 0.500000
O O2 0.453184 0.500000 0.395570
O O3 0.521590 0.671698 0.210130
O O4 0.323652 0.641715 0.709392
O O5 0.590711 0.184384 0.937934
O O6 0.500000 0.329350 0.000000
O O7 0.704543 0.339568 0.729626
O O8 0.242134 0.500000 0.270360
O O9 0.085170 0.619037 0.604773
O O10 0.232181 0.647405 0.135365
O O11 0.733359 0.000000 0.991249
O O12 0.606867 0.870830 0.151479
O O13 0.070671 0.500000 0.044320
#
# Coordination Sequence:
#
# PCOD9203753 Si02
#       5
#     8   8   8   8   8
#     4  10  20  39  67 101 137 170 213 273 332 388
#     4  12  27  42  66  96 137 176 226 269 328 391
#     4  10  21  42  69  99 134 169 214 273 334 396
#     4   9  18  38  68  98 129 167 215 270 330 392
#     4  10  24  44  65  93 132 178 222 272 331 390
#
# _framework density 23.334149
#
# number of rings (size 3 to 8) (size 9 to 14) (size 15 to 20)
#    0.000    1.800    2.000    1.200    2.800    7.600 
#    0.000    0.000    0.000    0.000    0.000    0.000 
#    0.000    0.000    0.000    0.000    0.000    0.000 
#
# Total GULP energy -111928.646365 kJ/mol
# GULP energy per Si atom -5596.432318 kJ/mol
# Density = 2.328104 g / cm^3
# Si number density = 23.334149 Si / 1000 Ang^3
#
#
#
# Elastic Constant Matrix: (Units=GPa)
#
#
# Indices 1 2 3 4 5 6 
#
# 1 103.3132 30.2772 38.0101 0.0000 -44.0202 0.0000
# 2 30.2772 98.2083 45.0062 0.0000 -15.5089 0.0000
# 3 38.0101 45.0062 78.1346 0.0000 -35.5355 0.0000
# 4 0.0000 0.0000 0.0000 -418.9472 0.0000 -123.3088
# 5 -44.0202 -15.5089 -35.5355 0.0000 43.4565 0.0000
# 6 0.0000 0.0000 0.0000 -123.3088 0.0000 -14.0249
#
#
#
# Elastic Compliance Matrix: (Units=1/GPa)
#
#
# Indices 1 2 3 4 5 6 
#
# 1 0.017799 -0.003301 0.001444 0.000000 0.018032 0.000000
# 2 -0.003301 0.014621 -0.009495 0.000000 -0.005890 0.000000
# 3 0.001444 -0.009495 0.026571 0.000000 0.019802 0.000000
# 4 0.000000 0.000000 0.000000 0.001503 0.000000 -0.013217
# 5 0.018032 -0.005890 0.019802 0.000000 0.055368 0.000000
# 6 0.000000 0.000000 0.000000 -0.013217 0.000000 0.044906
#
#
# Mechanical properties :
#
#
# Convention : Reuss Voigt Hill
#
# Bulk Modulus (GPa) = 27.55819 56.24923 41.90371
# Shear Modulus (GPa) = 25.56640 -66.81228 -20.62294
#
# Velocity S-wave (km/s) = 3.31367 -5.35677 -2.97612
# Velocity P-wave (km/s) = 5.14553 3.75522 2.48745
#
# Compressibility (1/GPa) = 0.03628686
#
# Stress axis : x y z
#
# Youngs Moduli (GPa) = 56.18337 68.39327 37.63504
#
# Poissons Ratio (x) = 0.22580 -0.05435
# Poissons Ratio (y) = 0.18549 0.35734
# Poissons Ratio (z) = -0.08114 0.64939
#
# Static dielectric constant tensor:
#      x y z
#    x 1.867050 0.000000 -0.011450 
#    y 0.000000 1.922420 0.000000 
#    z -0.011450 0.000000 1.869170 
# 
# From -- ./inp_files/176343.got.cif
#   From: 2010.05.17/outbox.cif.g08.bks.cpg/sg12_89_cif.got.tgz:176343.got - 2010.06.03 13:09:07.
