data_PCOD9203135
_publ_section_title
;
Structure prediction by ZEFSAII (Michael W. Deem and Ramdas Pophale) SiO2 
 PCOD9203135
Probable space group: C 2/M
;
_chemical_formula_sum "Si O2"
_cell_formula_units_Z 36
_cell_length_a 11.514906
_cell_length_b 14.733045
_cell_length_c 14.146364
_cell_angle_alpha 90.000000
_cell_angle_beta 42.190716
_cell_angle_gamma 90.000000
_cell_volume 1611.791198
_symmetry_space_group_name_H-M "C 2/M"
_symmetry_group_IT_number 12
_symmetry_cell_setting 'monoclinic'
loop_
_space_group_symop_operation_xyz
x,y,z
-x,y,-z
-x,-y,-z
x,-y,z
1/2+x,1/2+y,z
1/2-x,1/2+y,-z
1/2-x,1/2-y,-z
1/2+x,1/2-y,z
loop_
_atom_site_type_symbol
_atom_site_label
_atom_site_fract_x
_atom_site_fract_y
_atom_site_fract_z
Si Si1 0.329520 0.236582 0.783585
Si Si2 0.296110 0.100980 0.643501
Si Si3 0.000000 0.337269 0.000000
Si Si4 0.582586 0.896685 0.744524
Si Si5 0.414812 0.604215 0.424098
O O1 0.251940 0.177697 0.744556
O O2 0.452408 0.172169 0.771451
O O3 0.444650 0.318126 0.672644
O O4 0.164070 0.278442 0.934624
O O5 0.500000 0.108483 0.500000
O O6 0.195961 0.108941 0.605845
O O7 0.261981 0.000000 0.702639
O O8 0.937496 0.390095 0.130699
O O9 0.776865 0.878046 0.590359
O O10 0.543991 0.000000 0.736799
O O11 0.480792 0.500000 0.393424
#
# Coordination Sequence:
#
# PCOD9203135 Si02
#       5
#     8   8   4   8   8
#     4  12  24  43  67  97 128 170 211 265 316 381
#     4  10  20  38  68 102 127 155 203 267 327 376
#     4  12  29  42  59  90 134 180 219 250 309 376
#     4  11  24  44  66  93 127 169 214 265 318 376
#     4  10  23  41  68 100 127 160 211 268 325 376
#
# _framework density 22.3354
#
# number of rings (size 3 to 8) (size 9 to 14) (size 15 to 20)
#    0.000    1.111    2.222    3.667    3.111    1.778 
#    0.000    6.667    0.000    0.000    0.000    0.000 
#    0.000    0.000    0.000    0.000    0.000    0.000 
#
# Total GULP energy -100800.857278 kJ/mol
# GULP energy per Si atom -5600.047627 kJ/mol
# Density = 2.228456 g / cm^3
# Si number density = 22.335400 Si / 1000 Ang^3
#
#
#
# Elastic Constant Matrix: (Units=GPa)
#
#
# Indices 1 2 3 4 5 6 
#
# 1 83.7747 51.8862 24.2440 0.0002 8.5910 -0.0002
# 2 51.8862 120.3508 67.3410 0.0002 -11.3111 -0.0002
# 3 24.2440 67.3410 123.0757 0.0005 -0.9809 -0.0006
# 4 0.0002 0.0002 0.0005 12.1014 -0.0003 36.7742
# 5 8.5910 -11.3111 -0.9809 -0.0003 35.8895 0.0003
# 6 -0.0002 -0.0002 -0.0006 36.7742 0.0003 -21.0824
#
#
#
# Elastic Compliance Matrix: (Units=1/GPa)
#
#
# Indices 1 2 3 4 5 6 
#
# 1 0.017972 -0.009238 0.001457 0.000000 -0.007174 0.000000
# 2 -0.009238 0.017206 -0.007535 0.000000 0.007428 0.000000
# 3 0.001457 -0.007535 0.011942 0.000000 -0.002397 0.000000
# 4 0.000000 0.000000 0.000000 0.013115 0.000000 0.022877
# 5 -0.007174 0.007428 -0.002397 0.000000 0.031856 0.000000
# 6 0.000000 0.000000 0.000000 0.022877 0.000000 -0.007528
#
#
# Mechanical properties :
#
#
# Convention : Reuss Voigt Hill
#
# Bulk Modulus (GPa) = 60.65019 68.23818 64.44418
# Shear Modulus (GPa) = 41.42782 17.63037 29.52909
#
# Velocity S-wave (km/s) = 4.31142 2.81258 3.63998
# Velocity P-wave (km/s) = 7.21094 6.41602 6.82507
#
# Compressibility (1/GPa) = 0.01648800
#
# Stress axis : x y z
#
# Youngs Moduli (GPa) = 55.64145 58.11870 83.73798
#
# Poissons Ratio (x) = 0.53688 -0.12201
# Poissons Ratio (y) = 0.51400 0.63101
# Poissons Ratio (z) = -0.08107 0.43795
#
# Static dielectric constant tensor:
#      x y z
#    x 1.843370 0.000000 0.024720 
#    y 0.000000 1.831250 0.000000 
#    z 0.024720 0.000000 1.781210 
# 
# From -- ./inp_files/86434.got.cif
#   From: 2010.05.17/outbox.cif.g08.bks.cpg/sg12_44_cif.got.tgz:86434.got - 2010.06.03 13:09:07.
