data_PCOD9203667
_publ_section_title
;
Structure prediction by ZEFSAII (Michael W. Deem and Ramdas Pophale) SiO2 
 PCOD9203667
Probable space group: C 2/M
;
_chemical_formula_sum "Si O2"
_cell_formula_units_Z 64
_cell_length_a 11.168505
_cell_length_b 24.429863
_cell_length_c 11.899688
_cell_angle_alpha 90.000000
_cell_angle_beta 77.722160
_cell_angle_gamma 90.000000
_cell_volume 3172.510444
_symmetry_space_group_name_H-M "C 2/M"
_symmetry_group_IT_number 12
_symmetry_cell_setting 'monoclinic'
loop_
_space_group_symop_operation_xyz
x,y,z
-x,y,-z
-x,-y,-z
x,-y,z
1/2+x,1/2+y,z
1/2-x,1/2+y,-z
1/2-x,1/2-y,-z
1/2+x,1/2-y,z
loop_
_atom_site_type_symbol
_atom_site_label
_atom_site_fract_x
_atom_site_fract_y
_atom_site_fract_z
Si Si1 0.451130 0.592473 0.629111
Si Si2 0.095912 0.670354 0.383896
Si Si3 0.658275 0.707111 0.309391
Si Si4 0.500974 0.280059 0.128108
Si Si5 0.774742 0.562561 0.172794
Si Si6 0.354675 0.564314 0.037909
Si Si7 0.337377 0.627037 0.260670
Si Si8 0.422286 0.165039 0.214108
O O1 0.500000 0.571489 0.500000
O O2 0.418700 0.657009 0.624950
O O3 0.328732 0.567218 0.708512
O O4 0.559976 0.590680 0.698586
O O5 0.125412 0.735070 0.370077
O O6 0.223160 0.638284 0.363648
O O7 0.000000 0.659183 0.500000
O O8 0.027209 0.654637 0.283224
O O9 0.620683 0.711030 0.183438
O O10 0.799236 0.690547 0.294525
O O11 0.397821 0.314874 0.214223
O O12 0.470300 0.215848 0.131662
O O13 0.500000 0.299846 0.000000
O O14 0.819750 0.500000 0.160389
O O15 0.877292 0.608703 0.168920
O O16 0.706256 0.575778 0.069706
O O17 0.339112 0.500000 0.064350
O O18 0.301599 0.598825 0.151018
O O19 0.500000 0.575001 0.000000
#
# Coordination Sequence:
#
# PCOD9203667 Si02
#       8
#     8   8   8   8   8   8   8   8
#     4  10  21  35  59  91 125 155 200 259 310 352
#     4  11  24  39  60  84 125 171 208 240 293 368
#     4   9  20  38  54  87 118 164 205 242 295 360
#     4  10  21  35  60  90 126 159 193 249 310 362
#     4  10  22  40  65  90 117 161 207 251 310 361
#     4  10  20  39  65  92 121 153 198 256 307 364
#     4  11  22  37  60  96 125 159 203 246 306 363
#     4  10  22  40  55  88 125 157 205 246 299 360
#
# _framework density 20.173297999999999
#
# number of rings (size 3 to 8) (size 9 to 14) (size 15 to 20)
#    0.000    1.875    2.500    0.750    7.000    3.250 
#    0.000    0.625    0.000    2.625    0.000    0.000 
#    0.000    0.000    0.000    0.000    0.000    0.000 
#
# Total GULP energy -178655.533479 kJ/mol
# GULP energy per Si atom -5582.985421 kJ/mol
# Density = 2.012738 g / cm^3
# Si number density = 20.173298 Si / 1000 Ang^3
#
#
#
# Elastic Constant Matrix: (Units=GPa)
#
#
# Indices 1 2 3 4 5 6 
#
# 1 36.1557 6.9838 -22.1362 0.0000 -3.5681 0.0000
# 2 6.9838 83.1451 -4.8923 0.0000 14.5568 0.0000
# 3 -22.1362 -4.8923 49.1086 0.0000 0.1164 0.0000
# 4 0.0000 0.0000 0.0000 11.3637 0.0000 -0.7805
# 5 -3.5681 14.5568 0.1164 0.0000 12.7212 0.0000
# 6 0.0000 0.0000 0.0000 -0.7805 0.0000 21.3339
#
#
#
# Elastic Compliance Matrix: (Units=1/GPa)
#
#
# Indices 1 2 3 4 5 6 
#
# 1 0.041613 -0.005554 0.018162 0.000000 0.017861 0.000000
# 2 -0.005554 0.015899 -0.000873 0.000000 -0.019743 0.000000
# 3 0.018162 -0.000873 0.028449 0.000000 0.005833 0.000000
# 4 0.000000 0.000000 0.000000 0.088221 0.000000 0.003228
# 5 0.017861 -0.019743 0.005833 0.000000 0.106156 0.000000
# 6 0.000000 0.000000 0.000000 0.003228 0.000000 0.046992
#
#
# Mechanical properties :
#
#
# Convention : Reuss Voigt Hill
#
# Bulk Modulus (GPa) = 9.13808 14.25777 11.69792
# Shear Modulus (GPa) = 14.69136 21.64739 18.16937
#
# Velocity S-wave (km/s) = 2.70155 3.27933 3.00436
# Velocity P-wave (km/s) = 3.77767 4.62835 4.22448
#
# Compressibility (1/GPa) = 0.10943222
#
# Stress axis : x y z
#
# Youngs Moduli (GPa) = 24.03083 62.89798 35.15065
#
# Poissons Ratio (x) = 0.34931 -0.63841
# Poissons Ratio (y) = 0.13346 0.03068
# Poissons Ratio (z) = -0.43645 0.05489
#
# Static dielectric constant tensor:
#      x y z
#    x 1.706720 0.000000 0.007880 
#    y 0.000000 1.707700 0.000000 
#    z 0.007880 0.000000 1.726020 
# 
# From -- ./inp_files/135924.got.cif
#   From: 2010.05.17/outbox.cif.g08.bks.cpg/sg12_68_cif.got.tgz:135924.got - 2010.06.03 13:09:07.
