data_PCOD9203422
_publ_section_title
;
Structure prediction by ZEFSAII (Michael W. Deem and Ramdas Pophale) SiO2 
 PCOD9203422
Probable space group: C 2/M
;
_chemical_formula_sum "Si O2"
_cell_formula_units_Z 36
_cell_length_a 5.354986
_cell_length_b 31.777240
_cell_length_c 10.405756
_cell_angle_alpha 90.000000
_cell_angle_beta 70.474651
_cell_angle_gamma 90.000000
_cell_volume 1668.885782
_symmetry_space_group_name_H-M "C 2/M"
_symmetry_group_IT_number 12
_symmetry_cell_setting 'monoclinic'
loop_
_space_group_symop_operation_xyz
x,y,z
-x,y,-z
-x,-y,-z
x,-y,z
1/2+x,1/2+y,z
1/2-x,1/2+y,-z
1/2-x,1/2-y,-z
1/2+x,1/2-y,z
loop_
_atom_site_type_symbol
_atom_site_label
_atom_site_fract_x
_atom_site_fract_y
_atom_site_fract_z
Si Si1 0.432890 0.133361 0.359932
Si Si2 0.833089 0.000000 0.355321
Si Si3 0.312379 0.090642 0.918290
Si Si4 0.452979 0.000000 0.191094
Si Si5 0.649568 0.231928 0.655902
Si Si6 0.500000 0.426691 0.500000
O O1 0.500000 0.129826 0.500000
O O2 0.643587 0.116078 0.221967
O O3 0.363839 0.181862 0.347672
O O4 0.181694 0.103156 0.383656
O O5 0.836054 0.957967 0.438789
O O6 0.131797 0.000000 0.239728
O O7 0.575740 0.000000 0.312534
O O8 0.420957 0.042927 0.883621
O O9 0.500000 0.108967 0.000000
O O10 0.000000 0.089819 0.000000
O O11 0.750000 0.250000 0.500000
O O12 0.359925 0.251293 0.721213
#
# Coordination Sequence:
#
# PCOD9203422 Si02
#       6
#     8   4   8   4   8   4
#     4  12  25  41  76 102 137 178 232 289 341 408
#     4  11  24  39  64  97 143 166 230 294 346 391
#     4  12  28  47  67 100 143 186 234 284 341 404
#     4  12  22  48  66  89 130 200 238 271 325 416
#     4  10  20  39  63 105 132 164 216 281 335 404
#     4  11  24  38  62 104 138 174 220 298 354 387
#
# _framework density 21.571278
#
# number of rings (size 3 to 8) (size 9 to 14) (size 15 to 20)
#    0.000    0.667    4.444    4.667    3.111    0.889 
#    0.000    0.000    0.000    4.000    0.000    0.000 
#    0.000    0.000    0.000    0.000    0.000    0.000 
#
# Total GULP energy -100641.076512 kJ/mol
# GULP energy per Si atom -5591.170917 kJ/mol
# Density = 2.152218 g / cm^3
# Si number density = 21.571278 Si / 1000 Ang^3
#
#
#
# Elastic Constant Matrix: (Units=GPa)
#
#
# Indices 1 2 3 4 5 6 
#
# 1 132.8963 36.0883 42.9617 0.0000 -17.0864 0.0000
# 2 36.0883 177.2969 53.3747 0.0000 -14.5009 0.0000
# 3 42.9617 53.3747 96.4528 0.0000 -16.3304 0.0000
# 4 0.0000 0.0000 0.0000 16.0569 0.0000 -0.0850
# 5 -17.0864 -14.5009 -16.3304 0.0000 48.7527 0.0000
# 6 0.0000 0.0000 0.0000 -0.0850 0.0000 4.0568
#
#
#
# Elastic Compliance Matrix: (Units=1/GPa)
#
#
# Indices 1 2 3 4 5 6 
#
# 1 0.009023 -0.000684 -0.003329 0.000000 0.001844 0.000000
# 2 -0.000684 0.006849 -0.003373 0.000000 0.000668 0.000000
# 3 -0.003329 -0.003373 0.014152 0.000000 0.002571 0.000000
# 4 0.000000 0.000000 0.000000 0.062285 0.000000 0.001305
# 5 0.001844 0.000668 0.002571 0.000000 0.022218 0.000000
# 6 0.000000 0.000000 0.000000 0.001305 0.000000 0.246527
#
#
# Mechanical properties :
#
#
# Convention : Reuss Voigt Hill
#
# Bulk Modulus (GPa) = 65.55322 74.61061 70.08191
# Shear Modulus (GPa) = 13.12645 32.05469 22.59057
#
# Velocity S-wave (km/s) = 2.46949 3.85904 3.23964
# Velocity P-wave (km/s) = 6.21178 7.38371 6.82296
#
# Compressibility (1/GPa) = 0.01525478
#
# Stress axis : x y z
#
# Youngs Moduli (GPa) = 110.82187 145.99833 70.66171
#
# Poissons Ratio (x) = 0.09984 0.23520
# Poissons Ratio (y) = 0.07578 0.23832
# Poissons Ratio (z) = 0.36888 0.49240
#
# Static dielectric constant tensor:
#      x y z
#    x 1.592350 0.000000 0.106870 
#    y 0.000000 1.728420 0.000000 
#    z 0.106870 0.000000 1.823200 
# 
# From -- ./inp_files/115402.got.cif
#   From: 2010.05.17/outbox.cif.g08.bks.cpg/sg12_58_cif.got.tgz:115402.got - 2010.06.03 13:09:07.
