data_PCOD9203360
_publ_section_title
;
Structure prediction by ZEFSAII (Michael W. Deem and Ramdas Pophale) SiO2 
 PCOD9203360
Probable space group: C 2/M
;
_chemical_formula_sum "Si O2"
_cell_formula_units_Z 46
_cell_length_a 20.815828
_cell_length_b 18.478876
_cell_length_c 6.935943
_cell_angle_alpha 90.000000
_cell_angle_beta 79.105626
_cell_angle_gamma 90.000000
_cell_volume 2619.848604
_symmetry_space_group_name_H-M "C 2/M"
_symmetry_group_IT_number 12
_symmetry_cell_setting 'monoclinic'
loop_
_space_group_symop_operation_xyz
x,y,z
-x,y,-z
-x,-y,-z
x,-y,z
1/2+x,1/2+y,z
1/2-x,1/2+y,-z
1/2-x,1/2-y,-z
1/2+x,1/2-y,z
loop_
_atom_site_type_symbol
_atom_site_label
_atom_site_fract_x
_atom_site_fract_y
_atom_site_fract_z
Si Si1 0.239486 0.669609 0.587870
Si Si2 0.835446 0.151047 0.878240
Si Si3 0.274315 0.085082 0.796855
Si Si4 0.500000 0.761584 0.000000
Si Si5 0.488134 0.368997 0.733763
Si Si6 0.500000 0.500000 0.000000
Si Si7 0.141869 0.686832 0.986289
O O1 0.250000 0.750000 0.500000
O O2 0.299967 0.649542 0.692031
O O3 0.231813 0.615713 0.414695
O O4 0.176948 0.670664 0.764031
O O5 0.910097 0.126919 0.818124
O O6 0.792358 0.104106 0.049524
O O7 0.835027 0.233694 0.954973
O O8 0.285920 0.000000 0.793243
O O9 0.330969 0.129096 0.876597
O O10 0.512402 0.706259 0.814843
O O11 0.564243 0.807679 0.007492
O O12 0.500000 0.370731 0.500000
O O13 0.518075 0.436096 0.831067
#
# Coordination Sequence:
#
# PCOD9203360 Si02
#       7
#     8   8   8   4   8   2   8
#     4  11  19  34  63  85 111 152 195 234 291 346
#     4  10  21  37  59  86 114 154 194 240 286 344
#     4  11  23  38  57  88 122 149 189 251 296 342
#     4   9  22  37  63  88 107 152 194 246 289 350
#     4  10  22  37  57  82 118 153 201 239 285 343
#     4  10  22  40  48  74 118 168 192 230 286 338
#     4  10  20  39  62  86 116 149 194 238 292 352
#
# _framework density 17.558268000000002
#
# number of rings (size 3 to 8) (size 9 to 14) (size 15 to 20)
#    0.000    1.739    3.478    1.304    3.652    4.174 
#    0.000    0.435    0.000    1.043    0.000    0.000 
#    0.000    0.000    0.000    0.000    0.000    0.000 
#
# Total GULP energy -128173.129718 kJ/mol
# GULP energy per Si atom -5572.744770 kJ/mol
# Density = 1.751830 g / cm^3
# Si number density = 17.558268 Si / 1000 Ang^3
#
#
#
# Elastic Constant Matrix: (Units=GPa)
#
#
# Indices 1 2 3 4 5 6 
#
# 1 95.0853 34.9948 29.2392 0.0000 7.5038 0.0000
# 2 34.9948 87.6810 36.5084 0.0000 2.9395 0.0000
# 3 29.2392 36.5084 139.5979 0.0000 10.8648 0.0000
# 4 0.0000 0.0000 0.0000 17.9706 0.0000 0.4582
# 5 7.5038 2.9395 10.8648 0.0000 10.1698 0.0000
# 6 0.0000 0.0000 0.0000 0.4582 0.0000 -4.4523
#
#
#
# Elastic Compliance Matrix: (Units=1/GPa)
#
#
# Indices 1 2 3 4 5 6 
#
# 1 0.013073 -0.004567 -0.000977 0.000000 -0.007282 0.000000
# 2 -0.004567 0.014394 -0.002995 0.000000 0.002409 0.000000
# 3 -0.000977 -0.002995 0.008756 0.000000 -0.007768 0.000000
# 4 0.000000 0.000000 0.000000 0.055501 0.000000 0.005711
# 5 -0.007282 0.002409 -0.007768 0.000000 0.111306 0.000000
# 6 0.000000 0.000000 0.000000 0.005711 0.000000 -0.224017
#
#
# Mechanical properties :
#
#
# Convention : Reuss Voigt Hill
#
# Bulk Modulus (GPa) = 52.23407 58.20544 55.21976
# Shear Modulus (GPa) = 2022.46692 19.51242 1020.98967
#
# Velocity S-wave (km/s) = 33.97588 3.33723 24.14019
# Velocity P-wave (km/s) = 39.61012 6.93335 28.43442
#
# Compressibility (1/GPa) = 0.01914459
#
# Stress axis : x y z
#
# Youngs Moduli (GPa) = 76.49568 69.47341 114.20717
#
# Poissons Ratio (x) = 0.31725 0.11159
# Poissons Ratio (y) = 0.34932 0.34210
# Poissons Ratio (z) = 0.07474 0.20810
#
# Static dielectric constant tensor:
#      x y z
#    x 1.612220 0.000000 0.011670 
#    y 0.000000 1.573410 0.000000 
#    z 0.011670 0.000000 1.594090 
# 
# From -- ./inp_files/24817.got.cif
#   From: 2010.05.17/outbox.cif.g08.bks.cpg/sg12_13_cif.got.tgz:24817.got - 2010.06.03 13:09:07.
