data_PCOD9203336
_publ_section_title
;
Structure prediction by ZEFSAII (Michael W. Deem and Ramdas Pophale) SiO2 
 PCOD9203336
Probable space group: C 2/M
;
_chemical_formula_sum "Si O2"
_cell_formula_units_Z 40
_cell_length_a 9.625356
_cell_length_b 12.643525
_cell_length_c 22.591245
_cell_angle_alpha 90.000000
_cell_angle_beta 131.806653
_cell_angle_gamma 90.000000
_cell_volume 2049.338554
_symmetry_space_group_name_H-M "C 2/M"
_symmetry_group_IT_number 12
_symmetry_cell_setting 'monoclinic'
loop_
_space_group_symop_operation_xyz
x,y,z
-x,y,-z
-x,-y,-z
x,-y,z
1/2+x,1/2+y,z
1/2-x,1/2+y,-z
1/2-x,1/2-y,-z
1/2+x,1/2-y,z
loop_
_atom_site_type_symbol
_atom_site_label
_atom_site_fract_x
_atom_site_fract_y
_atom_site_fract_z
Si Si1 0.373765 0.624083 0.223613
Si Si2 0.571981 0.123196 0.426027
Si Si3 0.288389 0.685109 0.604357
Si Si4 0.012304 0.740609 0.857064
Si Si5 0.327688 0.388356 0.994095
O O1 0.333702 0.500000 0.199079
O O2 0.527248 0.630203 0.318820
O O3 0.190012 0.690808 0.189244
O O4 0.465227 0.687683 0.194505
O O5 0.656918 0.194951 0.398022
O O6 0.709834 0.133539 0.521677
O O7 0.377072 0.172102 0.394675
O O8 0.546369 0.000000 0.403727
O O9 0.158539 0.645133 0.903745
O O10 0.095101 0.810742 0.934050
O O11 0.278522 0.500000 0.009265
O O12 0.500000 0.397409 0.000000
#
# Coordination Sequence:
#
# PCOD9203336 Si02
#       5
#     8   8   8   8   8
#     4  12  24  40  60  89 125 156 190 246 303 347
#     4  10  20  40  63  86 118 160 203 244 288 344
#     4  10  21  38  62  89 120 157 201 243 291 353
#     4  11  23  40  59  91 116 153 202 239 291 363
#     4  10  20  39  62  83 113 154 197 244 289 345
#
# _framework density 19.518491999999998
#
# number of rings (size 3 to 8) (size 9 to 14) (size 15 to 20)
#    0.000    1.400    2.000    4.800    0.000    0.000 
#    0.000   18.000    0.000    0.000    0.000    0.000 
#    0.000    0.000    0.000    0.000    0.000    0.000 
#
# Total GULP energy -111480.430143 kJ/mol
# GULP energy per Si atom -5574.021507 kJ/mol
# Density = 1.947407 g / cm^3
# Si number density = 19.518492 Si / 1000 Ang^3
#
#
#
# Elastic Constant Matrix: (Units=GPa)
#
#
# Indices 1 2 3 4 5 6 
#
# 1 80.7693 68.3368 29.3180 0.0000 7.6413 0.0000
# 2 68.3368 152.4900 28.4936 0.0000 7.7882 0.0000
# 3 29.3180 28.4936 88.7855 0.0000 21.0030 0.0000
# 4 0.0000 0.0000 0.0000 32.5774 0.0000 8.0067
# 5 7.6413 7.7882 21.0030 0.0000 16.1203 0.0000
# 6 0.0000 0.0000 0.0000 8.0067 0.0000 47.0458
#
#
#
# Elastic Compliance Matrix: (Units=1/GPa)
#
#
# Indices 1 2 3 4 5 6 
#
# 1 0.021342 -0.008769 -0.004108 0.000000 -0.000527 0.000000
# 2 -0.008769 0.010584 -0.000397 0.000000 -0.000439 0.000000
# 3 -0.004108 -0.000397 0.017695 0.000000 -0.020915 0.000000
# 4 0.000000 0.000000 0.000000 0.032036 0.000000 -0.005452
# 5 -0.000527 -0.000439 -0.020915 0.000000 0.089745 0.000000
# 6 0.000000 0.000000 0.000000 -0.005452 0.000000 0.022184
#
#
# Mechanical properties :
#
#
# Convention : Reuss Voigt Hill
#
# Bulk Modulus (GPa) = 43.34420 63.81576 53.57998
# Shear Modulus (GPa) = 21.94654 32.20845 27.07750
#
# Velocity S-wave (km/s) = 3.35684 4.06661 3.72865
# Velocity P-wave (km/s) = 6.10569 7.40377 6.78584
#
# Compressibility (1/GPa) = 0.02307114
#
# Stress axis : x y z
#
# Youngs Moduli (GPa) = 46.85666 94.47863 56.51387
#
# Poissons Ratio (x) = 0.82853 0.23218
# Poissons Ratio (y) = 0.41091 0.02244
# Poissons Ratio (z) = 0.19250 0.03751
#
# Static dielectric constant tensor:
#      x y z
#    x 1.688210 0.000000 0.006610 
#    y 0.000000 1.807570 0.000000 
#    z 0.006610 0.000000 1.669420 
# 
# From -- ./inp_files/303798.got.cif
#   From: 2010.05.17/outbox.cif.g08.bks.cpg/sg12_152_cif.got.tgz:303798.got - 2010.06.03 13:09:07.
