data_PCOD9203379
_publ_section_title
;
Structure prediction by ZEFSAII (Michael W. Deem and Ramdas Pophale) SiO2 
 PCOD9203379
Probable space group: C 2/M
;
_chemical_formula_sum "Si O2"
_cell_formula_units_Z 56
_cell_length_a 9.117243
_cell_length_b 17.628707
_cell_length_c 26.706152
_cell_angle_alpha 90.000000
_cell_angle_beta 140.534259
_cell_angle_gamma 90.000000
_cell_volume 2728.290583
_symmetry_space_group_name_H-M "C 2/M"
_symmetry_group_IT_number 12
_symmetry_cell_setting 'monoclinic'
loop_
_space_group_symop_operation_xyz
x,y,z
-x,y,-z
-x,-y,-z
x,-y,z
1/2+x,1/2+y,z
1/2-x,1/2+y,-z
1/2-x,1/2-y,-z
1/2+x,1/2-y,z
loop_
_atom_site_type_symbol
_atom_site_label
_atom_site_fract_x
_atom_site_fract_y
_atom_site_fract_z
Si Si1 0.236724 0.681811 0.931067
Si Si2 0.674503 0.171359 0.657180
Si Si3 0.679420 0.411893 0.210781
Si Si4 0.528499 0.334524 0.365922
Si Si5 0.699759 0.409330 0.512360
Si Si6 0.954164 0.410678 0.775430
Si Si7 0.269679 0.145345 0.956949
O O1 0.078435 0.638720 0.850467
O O2 0.239661 0.772125 0.922715
O O3 0.500000 0.654354 0.000000
O O4 0.170758 0.665774 0.970476
O O5 0.835340 0.139643 0.743998
O O6 0.579523 0.253684 0.647291
O O7 0.451643 0.116579 0.596569
O O8 0.806822 0.172534 0.639032
O O9 0.684454 0.500000 0.226447
O O10 0.912899 0.393598 0.241596
O O11 0.465179 0.397697 0.116949
O O12 0.655385 0.368211 0.447907
O O13 0.312504 0.389052 0.297470
O O14 0.500000 0.388164 0.500000
O O15 0.690395 0.500000 0.503671
O O16 0.984586 0.500000 0.793115
O O17 0.500000 0.103857 0.000000
#
# Coordination Sequence:
#
# PCOD9203379 Si02
#       7
#     8   8   8   8   8   8   8
#     4  10  20  39  62  87 122 166 216 266 322 383
#     4  12  26  44  69  97 131 170 215 266 315 377
#     4  11  24  42  62  91 132 172 212 265 326 382
#     4  12  26  44  69  98 130 169 216 266 315 378
#     4  11  24  45  72 101 137 174 209 255 315 377
#     4  11  24  41  64  92 128 171 216 265 323 386
#     4  10  22  37  61  90 123 167 214 270 322 378
#
# _framework density 20.525673000000001
#
# number of rings (size 3 to 8) (size 9 to 14) (size 15 to 20)
#    0.000    1.000    1.429    5.143    2.000    6.286 
#    0.000    0.000    0.000    0.000    0.000    0.000 
#    0.000    0.000    0.000    0.000    0.000    0.000 
#
# Total GULP energy -156531.464499 kJ/mol
# GULP energy per Si atom -5590.409446 kJ/mol
# Density = 2.047896 g / cm^3
# Si number density = 20.525673 Si / 1000 Ang^3
#
#
#
# Elastic Constant Matrix: (Units=GPa)
#
#
# Indices 1 2 3 4 5 6 
#
# 1 130.9330 28.6146 8.1844 0.0001 -1.7352 -0.0001
# 2 28.6146 68.2327 7.4662 0.0002 -18.9822 -0.0001
# 3 8.1844 7.4662 57.9171 0.0003 -13.6924 0.0000
# 4 0.0001 0.0002 0.0003 66.2398 0.0001 -15.2954
# 5 -1.7352 -18.9822 -13.6924 0.0001 36.7135 0.0000
# 6 -0.0001 -0.0001 0.0000 -15.2954 0.0000 29.4783
#
#
#
# Elastic Compliance Matrix: (Units=1/GPa)
#
#
# Indices 1 2 3 4 5 6 
#
# 1 0.008571 -0.004059 -0.001194 0.000000 -0.002138 0.000000
# 2 -0.004059 0.019041 0.000440 0.000000 0.009817 0.000000
# 3 -0.001194 0.000440 0.019103 0.000000 0.007295 0.000000
# 4 0.000000 0.000000 0.000000 0.017152 0.000000 0.008899
# 5 -0.002138 0.009817 0.007295 0.000000 0.034933 0.000000
# 6 0.000000 0.000000 0.000000 0.008899 0.000000 0.038541
#
#
# Mechanical properties :
#
#
# Convention : Reuss Voigt Hill
#
# Bulk Modulus (GPa) = 26.96175 38.40147 32.68161
# Shear Modulus (GPa) = 31.38179 40.67414 36.02797
#
# Velocity S-wave (km/s) = 3.91436 4.45637 4.19413
# Velocity P-wave (km/s) = 5.79601 6.72522 6.27783
#
# Compressibility (1/GPa) = 0.03708958
#
# Stress axis : x y z
#
# Youngs Moduli (GPa) = 116.67600 52.51906 52.34844
#
# Poissons Ratio (x) = 0.21315 0.06248
# Poissons Ratio (y) = 0.47354 -0.02302
# Poissons Ratio (z) = 0.13925 -0.02310
#
# Static dielectric constant tensor:
#      x y z
#    x 1.863620 0.000000 -0.053620 
#    y 0.000000 1.707150 0.000000 
#    z -0.053620 0.000000 1.743930 
# 
# From -- ./inp_files/257066.got.cif
#   From: 2010.05.17/outbox.cif.g08.bks.cpg/sg12_129_cif.got.tgz:257066.got - 2010.06.03 13:09:07.
