data_PCOD9203858
_publ_section_title
;
Structure prediction by ZEFSAII (Michael W. Deem and Ramdas Pophale) SiO2 
 PCOD9203858
Probable space group: C 2/M
;
_chemical_formula_sum "Si O2"
_cell_formula_units_Z 40
_cell_length_a 11.073732
_cell_length_b 34.820886
_cell_length_c 5.199339
_cell_angle_alpha 90.000000
_cell_angle_beta 104.316326
_cell_angle_gamma 90.000000
_cell_volume 1942.590347
_symmetry_space_group_name_H-M "C 2/M"
_symmetry_group_IT_number 12
_symmetry_cell_setting 'monoclinic'
loop_
_space_group_symop_operation_xyz
x,y,z
-x,y,-z
-x,-y,-z
x,-y,z
1/2+x,1/2+y,z
1/2-x,1/2+y,-z
1/2-x,1/2-y,-z
1/2+x,1/2-y,z
loop_
_atom_site_type_symbol
_atom_site_label
_atom_site_fract_x
_atom_site_fract_y
_atom_site_fract_z
Si Si1 0.154545 0.670907 0.388531
Si Si2 0.500000 0.645098 0.000000
Si Si3 0.224576 0.621612 0.923918
Si Si4 0.000000 0.724707 0.000000
Si Si5 0.398115 0.714821 0.643498
Si Si6 0.586721 0.957209 0.794838
O O1 0.168713 0.645707 0.653276
O O2 0.031506 0.694738 0.243903
O O3 0.264552 0.702808 0.468425
O O4 0.181464 0.642608 0.162458
O O5 0.625345 0.622777 0.002011
O O6 0.540288 0.674519 0.243249
O O7 0.178556 0.578301 0.873538
O O8 0.107365 0.756872 0.111796
O O9 0.500000 0.732039 0.500000
O O10 0.500000 0.951392 0.500000
O O11 0.643973 0.000000 0.803382
O O12 0.500000 0.957003 0.000000
#
# Coordination Sequence:
#
# PCOD9203858 Si02
#       6
#     8   4   8   4   8   8
#     4  11  25  39  59  89 118 159 205 254 305 355
#     4   9  20  40  59  86 115 164 207 250 295 358
#     4  11  23  40  64  89 122 158 205 248 299 358
#     4  11  26  36  56  84 118 158 204 268 298 360
#     4  10  20  40  57  77 118 163 203 247 316 361
#     4  10  22  41  65  95 130 161 189 235 303 367
#
# _framework density 20.591062000000001
#
# number of rings (size 3 to 8) (size 9 to 14) (size 15 to 20)
#    0.000    1.600    2.000    1.800    7.000    0.800 
#    0.000    0.500    0.000    0.000    0.000    8.400 
#    0.000    0.000    0.000    0.000    0.000    0.000 
#
# Total GULP energy -111485.437021 kJ/mol
# GULP energy per Si atom -5574.271851 kJ/mol
# Density = 2.054420 g / cm^3
# Si number density = 20.591062 Si / 1000 Ang^3
#
#
#
# Elastic Constant Matrix: (Units=GPa)
#
#
# Indices 1 2 3 4 5 6 
#
# 1 65.1884 75.6276 40.0301 0.0000 8.6316 0.0000
# 2 75.6276 165.8053 53.5218 0.0000 27.8715 0.0000
# 3 40.0301 53.5218 140.5987 0.0000 7.4744 0.0000
# 4 0.0000 0.0000 0.0000 44.5085 0.0000 -9.8793
# 5 8.6316 27.8715 7.4744 0.0000 31.6428 0.0000
# 6 0.0000 0.0000 0.0000 -9.8793 0.0000 74.1911
#
#
#
# Elastic Compliance Matrix: (Units=1/GPa)
#
#
# Indices 1 2 3 4 5 6 
#
# 1 0.035519 -0.015631 -0.004435 0.000000 0.005127 0.000000
# 2 -0.015631 0.014854 -0.000745 0.000000 -0.008644 0.000000
# 3 -0.004435 -0.000745 0.008668 0.000000 -0.000182 0.000000
# 4 0.000000 0.000000 0.000000 0.023152 0.000000 0.003083
# 5 0.005127 -0.008644 -0.000182 0.000000 0.037861 0.000000
# 6 0.000000 0.000000 0.000000 0.003083 0.000000 0.013889
#
#
# Mechanical properties :
#
#
# Convention : Reuss Voigt Hill
#
# Bulk Modulus (GPa) = 57.40521 78.88348 68.14435
# Shear Modulus (GPa) = 27.56756 43.56267 35.56512
#
# Velocity S-wave (km/s) = 3.66295 4.60457 4.16048
# Velocity P-wave (km/s) = 6.76970 8.16469 7.49970
#
# Compressibility (1/GPa) = 0.01742002
#
# Stress axis : x y z
#
# Youngs Moduli (GPa) = 28.15380 67.31991 115.36360
#
# Poissons Ratio (x) = 1.05230 0.51162
# Poissons Ratio (y) = 0.44008 0.08591
# Poissons Ratio (z) = 0.12486 0.05013
#
# Static dielectric constant tensor:
#      x y z
#    x 1.828910 0.000000 -0.027140 
#    y 0.000000 1.722610 0.000000 
#    z -0.027140 0.000000 1.788700 
# 
# From -- ./inp_files/8544.got.cif
#   From: 2010.05.17/outbox.cif.g08.bks.cpg/sg12_5_cif.got.tgz:8544.got - 2010.06.03 13:09:07.
