data_PCOD9203945
_publ_section_title
;
Structure prediction by ZEFSAII (Michael W. Deem and Ramdas Pophale) SiO2 
 PCOD9203945
Probable space group: C 2/M
;
_chemical_formula_sum "Si O2"
_cell_formula_units_Z 58
_cell_length_a 20.196768
_cell_length_b 7.506843
_cell_length_c 23.658866
_cell_angle_alpha 90.000000
_cell_angle_beta 45.101305
_cell_angle_gamma 90.000000
_cell_volume 2540.882950
_symmetry_space_group_name_H-M "C 2/M"
_symmetry_group_IT_number 12
_symmetry_cell_setting 'monoclinic'
loop_
_space_group_symop_operation_xyz
x,y,z
-x,y,-z
-x,-y,-z
x,-y,z
1/2+x,1/2+y,z
1/2-x,1/2+y,-z
1/2-x,1/2-y,-z
1/2+x,1/2-y,z
loop_
_atom_site_type_symbol
_atom_site_label
_atom_site_fract_x
_atom_site_fract_y
_atom_site_fract_z
Si Si1 0.778329 0.795890 0.243269
Si Si2 0.500000 0.000000 0.500000
Si Si3 0.982797 0.715483 0.076308
Si Si4 0.317889 0.213257 0.011379
Si Si5 0.182826 0.793748 0.187751
Si Si6 0.795064 0.783475 0.359877
Si Si7 0.523953 0.716918 0.684422
Si Si8 0.900381 0.205896 0.484410
O O1 0.885643 0.788514 0.158029
O O2 0.714627 0.710998 0.233439
O O3 0.774423 0.720470 0.308598
O O4 0.746651 0.000000 0.265497
O O5 0.434878 0.843533 0.510237
O O6 0.974061 0.500000 0.084412
O O7 0.000000 0.760063 0.000000
O O8 0.075102 0.777488 0.054619
O O9 0.264277 0.283446 0.099299
O O10 0.327714 0.000000 0.010604
O O11 0.250000 0.250000 0.000000
O O12 0.080264 0.714970 0.241224
O O13 0.175704 0.000000 0.174944
O O14 0.896172 0.723798 0.320663
O O15 0.711780 0.719332 0.449856
O O16 0.795959 0.000000 0.359023
O O17 0.521376 0.500000 0.688214
O O18 0.554690 0.760947 0.602338
O O19 0.926154 0.000000 0.480214
#
# Coordination Sequence:
#
# PCOD9203945 Si02
#       8
#     8   2   8   8   8   8   8   8
#     4  11  24  37  61  94 126 164 209 266 324 377
#     4  12  26  44  68 102 144 168 210 300 314 376
#     4  10  20  40  62  83 117 164 209 254 316 384
#     4  10  22  38  62  87 118 161 204 256 319 381
#     4  10  21  41  63  86 123 170 207 257 320 380
#     4  10  22  43  65  94 134 172 212 271 328 380
#     4   9  21  41  68  94 126 170 220 263 318 397
#     4  11  24  43  71 101 131 181 227 261 333 396
#
# _framework density 22.826709999999999
#
# number of rings (size 3 to 8) (size 9 to 14) (size 15 to 20)
#    0.000    1.793    2.069    1.034    3.862    2.483 
#    1.241    0.000    0.000    0.000    0.000    0.000 
#    0.000    0.000    0.000    0.000    0.000    0.000 
#
# Total GULP energy -161868.301275 kJ/mol
# GULP energy per Si atom -5581.665561 kJ/mol
# Density = 2.277476 g / cm^3
# Si number density = 22.826710 Si / 1000 Ang^3
#
#
#
# Elastic Constant Matrix: (Units=GPa)
#
#
# Indices 1 2 3 4 5 6 
#
# 1 0.2110 -50.2567 -345.3458 -0.0125 381.5284 -0.0015
# 2 -50.2567 46.1141 -194.6089 0.0032 231.9989 0.0009
# 3 -345.3458 -194.6089-1118.1734 -0.0470 1356.1515 -0.0065
# 4 -0.0125 0.0032 -0.0470 34.0958 0.0563 3.9030
# 5 381.5284 231.9989 1356.1515 0.0563-1584.4391 0.0077
# 6 -0.0015 0.0009 -0.0065 3.9030 0.0077 4.5749
#
#
#
# Elastic Compliance Matrix: (Units=1/GPa)
#
#
# Indices 1 2 3 4 5 6 
#
# 1 0.012032 -0.001110 0.005412 0.000000 0.007367 0.000000
# 2 -0.001110 0.012647 -0.001667 -0.000004 0.000158 -0.000002
# 3 0.005412 -0.001667 0.026027 -0.000001 0.023336 0.000000
# 4 0.000000 -0.000004 -0.000001 0.032503 0.000000 -0.027730
# 5 0.007367 0.000158 0.023336 0.000000 0.021140 0.000000
# 6 0.000000 -0.000002 0.000000 -0.027730 0.000000 0.242241
#
#
# Mechanical properties :
#
#
# Convention : Reuss Voigt Hill
#
# Bulk Modulus (GPa) = 17.86505 -250.25234 -116.19364
# Shear Modulus (GPa) = 13.88969 -341.26279 -163.68655
#
# Velocity S-wave (km/s) = 2.46942 -12.24035 -8.47726
# Velocity P-wave (km/s) = 3.99676 17.59652 12.11741
#
# Compressibility (1/GPa) = 0.05597521
#
# Stress axis : x y z
#
# Youngs Moduli (GPa) = 83.11310 79.06942 38.42166
#
# Poissons Ratio (x) = 0.08780 -0.20794
# Poissons Ratio (y) = 0.09229 0.06405
# Poissons Ratio (z) = -0.44981 0.13181
#
# Static dielectric constant tensor:
#      x y z
#    x 1.839800 0.000000 -0.015410 
#    y 0.000000 1.892640 0.000000 
#    z -0.015410 0.000000 1.842220 
# 
# From -- ./inp_files/346471.got.cif
#   From: 2010.05.17/outbox.cif.g08.bks.cpg/sg12_174_cif.got.tgz:346471.got - 2010.06.03 13:09:07.
