data_PCOD9203420
_publ_section_title
;
Structure prediction by ZEFSAII (Michael W. Deem and Ramdas Pophale) SiO2 
 PCOD9203420
Probable space group: C 2/M
;
_chemical_formula_sum "Si O2"
_cell_formula_units_Z 42
_cell_length_a 5.697855
_cell_length_b 28.143004
_cell_length_c 10.189929
_cell_angle_alpha 90.000000
_cell_angle_beta 95.407673
_cell_angle_gamma 90.000000
_cell_volume 1626.731206
_symmetry_space_group_name_H-M "C 2/M"
_symmetry_group_IT_number 12
_symmetry_cell_setting 'monoclinic'
loop_
_space_group_symop_operation_xyz
x,y,z
-x,y,-z
-x,-y,-z
x,-y,z
1/2+x,1/2+y,z
1/2-x,1/2+y,-z
1/2-x,1/2-y,-z
1/2+x,1/2-y,z
loop_
_atom_site_type_symbol
_atom_site_label
_atom_site_fract_x
_atom_site_fract_y
_atom_site_fract_z
Si Si1 0.443585 0.628540 0.294709
Si Si2 0.166753 0.448376 0.383884
Si Si3 0.500000 0.000000 0.000000
Si Si4 0.199040 0.578417 0.855647
Si Si5 0.526279 0.732889 0.349220
Si Si6 0.255669 0.826374 0.974117
O O1 0.302543 0.601156 0.398401
O O2 0.594609 0.586167 0.238397
O O3 0.571459 0.676310 0.348243
O O4 0.282127 0.649460 0.169288
O O5 0.290645 0.500000 0.381972
O O6 0.000000 0.450466 0.500000
O O7 0.015103 0.441941 0.243129
O O8 0.695991 0.041542 0.973070
O O9 0.202766 0.630311 0.921294
O O10 0.500000 0.749316 0.500000
O O11 0.755134 0.755743 0.290008
O O12 0.500000 0.798265 0.000000
O O13 0.000000 0.805860 0.000000
#
# Coordination Sequence:
#
# PCOD9203420 Si02
#       6
#     8   8   2   8   8   8
#     4  11  25  42  73 101 143 194 243 306 384 431
#     4  11  25  41  62 101 149 194 248 299 362 447
#     4  12  20  40  68  94 140 190 262 302 342 420
#     4  11  23  40  64  97 140 192 244 301 354 428
#     4  10  25  47  76 113 146 188 251 312 373 455
#     4  10  20  39  62  97 131 180 237 294 341 429
#
# _framework density 25.818648
#
# number of rings (size 3 to 8) (size 9 to 14) (size 15 to 20)
#    0.000    1.333    3.810    0.000    6.667    0.762 
#    0.000    4.286    0.000   14.857    0.000    0.000 
#    0.000    0.000    0.000    0.000    0.000    0.000 
#
# Total GULP energy -116926.365412 kJ/mol
# GULP energy per Si atom -5567.922162 kJ/mol
# Density = 2.575988 g / cm^3
# Si number density = 25.818648 Si / 1000 Ang^3
#
#
#
# Elastic Constant Matrix: (Units=GPa)
#
#
# Indices 1 2 3 4 5 6 
#
# 1 161.4848 64.3699 7.8637 0.0000 -4.7864 0.0000
# 2 64.3699 172.9475 7.9121 0.0000 -20.6052 0.0000
# 3 7.8637 7.9121 69.3284 0.0000 6.3516 0.0000
# 4 0.0000 0.0000 0.0000 -28.7306 0.0000 28.7804
# 5 -4.7864 -20.6052 6.3516 0.0000 43.5429 0.0000
# 6 0.0000 0.0000 0.0000 28.7804 0.0000 6.0266
#
#
#
# Elastic Compliance Matrix: (Units=1/GPa)
#
#
# Indices 1 2 3 4 5 6 
#
# 1 0.007297 -0.002745 -0.000475 0.000000 -0.000428 0.000000
# 2 -0.002745 0.007226 -0.000810 0.000000 0.003236 0.000000
# 3 -0.000475 -0.000810 0.014808 0.000000 -0.002596 0.000000
# 4 0.000000 0.000000 0.000000 -0.006018 0.000000 0.028738
# 5 -0.000428 0.003236 -0.002596 0.000000 0.024829 0.000000
# 6 0.000000 0.000000 0.000000 0.028738 0.000000 0.028689
#
#
# Mechanical properties :
#
#
# Convention : Reuss Voigt Hill
#
# Bulk Modulus (GPa) = 47.01137 62.67244 54.84190
# Shear Modulus (GPa) = 54.35815 25.74213 40.05014
#
# Velocity S-wave (km/s) = 4.59342 3.16101 3.94281
# Velocity P-wave (km/s) = 6.81033 6.13592 6.48190
#
# Compressibility (1/GPa) = 0.02127145
#
# Stress axis : x y z
#
# Youngs Moduli (GPa) = 137.03744 138.38070 67.53002
#
# Poissons Ratio (x) = 0.37988 0.03209
# Poissons Ratio (y) = 0.37620 0.05469
# Poissons Ratio (z) = 0.06512 0.11206
#
# Static dielectric constant tensor:
#      x y z
#    x 2.249960 0.000000 0.019980 
#    y 0.000000 1.963380 0.000000 
#    z 0.019980 0.000000 2.258750 
# 
# From -- ./inp_files/116125.got.cif
#   From: 2010.05.17/outbox.cif.g08.bks.cpg/sg12_59_cif.got.tgz:116125.got - 2010.06.03 13:09:07.
