data_PCOD9203538
_publ_section_title
;
Structure prediction by ZEFSAII (Michael W. Deem and Ramdas Pophale) SiO2 
 PCOD9203538
Probable space group: C 2/M
;
_chemical_formula_sum "Si O2"
_cell_formula_units_Z 56
_cell_length_a 20.416870
_cell_length_b 9.003162
_cell_length_c 26.655191
_cell_angle_alpha 90.000000
_cell_angle_beta 37.747119
_cell_angle_gamma 90.000000
_cell_volume 2999.462285
_symmetry_space_group_name_H-M "C 2/M"
_symmetry_group_IT_number 12
_symmetry_cell_setting 'monoclinic'
loop_
_space_group_symop_operation_xyz
x,y,z
-x,y,-z
-x,-y,-z
x,-y,z
1/2+x,1/2+y,z
1/2-x,1/2+y,-z
1/2-x,1/2-y,-z
1/2+x,1/2-y,z
loop_
_atom_site_type_symbol
_atom_site_label
_atom_site_fract_x
_atom_site_fract_y
_atom_site_fract_z
Si Si1 0.863696 0.323793 0.442143
Si Si2 0.494422 0.677449 0.562637
Si Si3 0.338424 0.677887 0.982904
Si Si4 0.744063 0.676290 0.135285
Si Si5 0.260391 0.321048 0.745777
Si Si6 0.991813 0.824069 0.275848
Si Si7 0.569926 0.678278 0.798942
O O1 0.853893 0.500000 0.449301
O O2 0.750000 0.250000 0.500000
O O3 0.942865 0.270852 0.350083
O O4 0.913896 0.262828 0.463112
O O5 0.500000 0.704710 0.500000
O O6 0.507096 0.500000 0.563389
O O7 0.378641 0.721520 0.654964
O O8 0.329348 0.500000 0.985151
O O9 0.315126 0.734181 0.053022
O O10 0.250000 0.750000 0.000000
O O11 0.457144 0.720442 0.892845
O O12 0.767454 0.500000 0.117046
O O13 0.755522 0.721839 0.186377
O O14 0.619514 0.696180 0.195924
O O15 0.255420 0.500000 0.746537
O O16 0.168976 0.253532 0.766359
O O17 0.939627 0.785004 0.254167
O O18 0.973462 0.000000 0.297074
O O19 0.580054 0.500000 0.796510
#
# Coordination Sequence:
#
# PCOD9203538 Si02
#       7
#     8   8   8   8   8   8   8
#     4  12  26  42  64  95 127 162 207 253 304 363
#     4  10  22  43  67  91 124 163 202 251 308 367
#     4  11  22  38  60  89 122 160 205 253 306 358
#     4  10  20  39  64  87 120 161 201 248 305 360
#     4  10  22  40  62  89 123 162 201 246 303 367
#     4  10  20  41  65  87 122 163 203 252 309 359
#     4  10  23  40  60  88 124 161 199 253 308 356
#
# _framework density 18.670012
#
# number of rings (size 3 to 8) (size 9 to 14) (size 15 to 20)
#    0.000    1.571    2.857    1.714    2.000    4.286 
#    0.000    2.857    0.000    0.000    0.000    0.000 
#    0.000    0.000    0.000    0.000    0.000    0.000 
#
# Total GULP energy -156503.436767 kJ/mol
# GULP energy per Si atom -5589.408456 kJ/mol
# Density = 1.862752 g / cm^3
# Si number density = 18.670012 Si / 1000 Ang^3
#
#
#
# Elastic Constant Matrix: (Units=GPa)
#
#
# Indices 1 2 3 4 5 6 
#
# 1 140.2817 55.6835 29.4954 -0.0001 -0.9763 0.0002
# 2 55.6835 60.8600 43.2254 -0.0002 1.5144 0.0003
# 3 29.4954 43.2254 61.7704 0.0000 6.1493 0.0001
# 4 -0.0001 -0.0002 0.0000 28.5895 0.0000 -1.2086
# 5 -0.9763 1.5144 6.1493 0.0000 33.5226 -0.0001
# 6 0.0002 0.0003 0.0001 -1.2086 -0.0001 38.1008
#
#
#
# Elastic Compliance Matrix: (Units=1/GPa)
#
#
# Indices 1 2 3 4 5 6 
#
# 1 0.011619 -0.013278 0.003718 0.000000 0.000256 0.000000
# 2 -0.013278 0.048094 -0.027564 0.000000 0.002497 0.000000
# 3 0.003718 -0.027564 0.034192 0.000000 -0.004919 0.000000
# 4 0.000000 0.000000 0.000000 0.035025 0.000000 0.001111
# 5 0.000256 0.002497 -0.004919 0.000000 0.030628 0.000000
# 6 0.000000 0.000000 0.000000 0.001111 0.000000 0.026281
#
#
# Mechanical properties :
#
#
# Convention : Reuss Voigt Hill
#
# Bulk Modulus (GPa) = 50.86997 57.74675 54.30836
# Shear Modulus (GPa) = 18.75200 29.00976 23.88088
#
# Velocity S-wave (km/s) = 3.17265 3.94612 3.58034
# Velocity P-wave (km/s) = 6.38177 7.19443 6.80025
#
# Compressibility (1/GPa) = 0.01965796
#
# Stress axis : x y z
#
# Youngs Moduli (GPa) = 86.06558 20.79256 29.24690
#
# Poissons Ratio (x) = 0.27608 -0.10873
# Poissons Ratio (y) = 1.14275 0.80615
# Poissons Ratio (z) = -0.31997 0.57312
#
# Static dielectric constant tensor:
#      x y z
#    x 1.624590 0.000000 0.010650 
#    y 0.000000 1.623410 0.000000 
#    z 0.010650 0.000000 1.637450 
# 
# From -- ./inp_files/362986.got.cif
#   From: 2010.05.17/outbox.cif.g08.bks.cpg/sg12_182_cif.got.tgz:362986.got - 2010.06.03 13:09:07.
