data_PCOD9203750
_publ_section_title
;
Structure prediction by ZEFSAII (Michael W. Deem and Ramdas Pophale) SiO2 
 PCOD9203750
Probable space group: C 2/M
;
_chemical_formula_sum "Si O2"
_cell_formula_units_Z 40
_cell_length_a 14.037180
_cell_length_b 17.470111
_cell_length_c 14.474870
_cell_angle_alpha 90.000000
_cell_angle_beta 150.043467
_cell_angle_gamma 90.000000
_cell_volume 1772.511426
_symmetry_space_group_name_H-M "C 2/M"
_symmetry_group_IT_number 12
_symmetry_cell_setting 'monoclinic'
loop_
_space_group_symop_operation_xyz
x,y,z
-x,y,-z
-x,-y,-z
x,-y,z
1/2+x,1/2+y,z
1/2-x,1/2+y,-z
1/2-x,1/2-y,-z
1/2+x,1/2-y,z
loop_
_atom_site_type_symbol
_atom_site_label
_atom_site_fract_x
_atom_site_fract_y
_atom_site_fract_z
Si Si1 0.285501 0.834848 0.282119
Si Si2 0.000000 0.385104 0.000000
Si Si3 0.820485 0.829506 0.604700
Si Si4 0.736404 0.000000 0.516143
Si Si5 0.720396 0.292651 0.879662
Si Si6 0.221085 0.000000 0.667002
Si Si7 0.730121 0.000000 0.715183
O O1 0.500000 0.838219 0.500000
O O2 0.162415 0.816897 0.270320
O O3 0.289588 0.770836 0.208697
O O4 0.230613 0.920142 0.202142
O O5 0.899201 0.341649 0.998751
O O6 0.830129 0.430504 0.807649
O O7 0.750000 0.750000 0.500000
O O8 0.688760 0.905930 0.482511
O O9 0.026591 0.842037 0.729957
O O10 0.765520 0.000000 0.431621
O O11 0.830977 0.000000 0.699135
O O12 0.750000 0.250000 0.000000
O O13 0.000000 0.000000 0.500000
O O14 0.500000 0.000000 0.500000
#
# Coordination Sequence:
#
# PCOD9203750 Si02
#       7
#     8   4   8   4   8   4   4
#     4  10  20  39  66  98 134 185 244 298 352 434
#     4  11  28  46  66 109 142 182 250 293 358 450
#     4  11  23  42  71 103 135 185 241 288 359 438
#     4  10  23  39  71 101 129 177 234 285 354 423
#     4  12  26  42  66 100 149 185 230 302 364 425
#     4  11  25  48  77  99 141 188 233 306 365 426
#     4   8  18  35  59  96 128 167 244 291 339 418
#
# _framework density 22.566849999999999
#
# number of rings (size 3 to 8) (size 9 to 14) (size 15 to 20)
#    0.000    1.400    2.000    2.400    5.600    1.600 
#    0.000    2.000    0.000    4.200    0.000    0.000 
#    0.000    0.000    0.000    0.000    0.000    0.000 
#
# Total GULP energy -111343.583934 kJ/mol
# GULP energy per Si atom -5567.179197 kJ/mol
# Density = 2.251549 g / cm^3
# Si number density = 22.566850 Si / 1000 Ang^3
#
#
#
# Elastic Constant Matrix: (Units=GPa)
#
#
# Indices 1 2 3 4 5 6 
#
# 1 164.4795 47.0090 42.9311 0.0008 -4.8679 0.0002
# 2 47.0090 125.3032 32.3472 0.0001 4.5094 0.0001
# 3 42.9311 32.3472 77.4138 0.0010 17.4649 0.0005
# 4 0.0008 0.0001 0.0010 46.2603 0.0011 -5.4902
# 5 -4.8679 4.5094 17.4649 0.0011 38.9786 0.0003
# 6 0.0002 0.0001 0.0005 -5.4902 0.0003 33.3247
#
#
#
# Elastic Compliance Matrix: (Units=1/GPa)
#
#
# Indices 1 2 3 4 5 6 
#
# 1 0.007834 -0.001960 -0.004225 0.000000 0.003098 0.000000
# 2 -0.001960 0.009454 -0.002849 0.000000 -0.000062 0.000000
# 3 -0.004225 -0.002849 0.018351 0.000000 -0.008420 0.000000
# 4 0.000000 0.000000 0.000000 0.022048 -0.000001 0.003632
# 5 0.003098 -0.000062 -0.008420 -0.000001 0.029822 0.000000
# 6 0.000000 0.000000 0.000000 0.003632 0.000000 0.030606
#
#
# Mechanical properties :
#
#
# Convention : Reuss Voigt Hill
#
# Bulk Modulus (GPa) = 56.91255 67.97457 62.44356
# Shear Modulus (GPa) = 35.20144 40.04000 37.62072
#
# Velocity S-wave (km/s) = 3.95381 4.21679 4.08742
# Velocity P-wave (km/s) = 6.79101 7.34134 7.07153
#
# Compressibility (1/GPa) = 0.01757082
#
# Stress axis : x y z
#
# Youngs Moduli (GPa) = 127.64323 105.77809 54.49404
#
# Poissons Ratio (x) = 0.20733 0.23022
# Poissons Ratio (y) = 0.25019 0.15527
# Poissons Ratio (z) = 0.53924 0.30139
#
# Static dielectric constant tensor:
#      x y z
#    x 1.837200 0.000000 0.074430 
#    y 0.000000 1.916550 0.000000 
#    z 0.074430 0.000000 1.872020 
# 
# From -- ./inp_files/216987.got.cif
#   From: 2010.05.17/outbox.cif.g08.bks.cpg/sg12_109_cif.got.tgz:216987.got - 2010.06.03 13:09:07.
