data_PCOD9203376
_publ_section_title
;
Structure prediction by ZEFSAII (Michael W. Deem and Ramdas Pophale) SiO2 
 PCOD9203376
Probable space group: C 2/M
;
_chemical_formula_sum "Si O2"
_cell_formula_units_Z 48
_cell_length_a 9.117331
_cell_length_b 17.949463
_cell_length_c 29.601454
_cell_angle_alpha 90.000000
_cell_angle_beta 150.074524
_cell_angle_gamma 90.000000
_cell_volume 2416.697840
_symmetry_space_group_name_H-M "C 2/M"
_symmetry_group_IT_number 12
_symmetry_cell_setting 'monoclinic'
loop_
_space_group_symop_operation_xyz
x,y,z
-x,y,-z
-x,-y,-z
x,-y,z
1/2+x,1/2+y,z
1/2-x,1/2+y,-z
1/2-x,1/2-y,-z
1/2+x,1/2-y,z
loop_
_atom_site_type_symbol
_atom_site_label
_atom_site_fract_x
_atom_site_fract_y
_atom_site_fract_z
Si Si1 0.311130 0.841686 0.908011
Si Si2 0.669540 0.819657 0.426358
Si Si3 0.687235 0.348891 0.440603
Si Si4 0.800076 0.412734 0.256493
Si Si5 0.393586 0.913030 0.755538
Si Si6 0.341443 0.819517 0.093049
O O1 0.505990 0.824776 0.915480
O O2 0.180149 0.764598 0.893472
O O3 0.039571 0.895080 0.825240
O O4 0.500000 0.873620 0.000000
O O5 0.556093 0.736168 0.406985
O O6 0.718404 0.869181 0.483622
O O7 0.485649 0.860916 0.339484
O O8 0.000000 0.805795 0.500000
O O9 0.435718 0.396706 0.350018
O O10 0.000000 0.351033 0.500000
O O11 0.866306 0.500000 0.281165
O O12 0.892258 0.394271 0.229541
O O13 0.477115 0.866140 0.821800
O O14 0.426553 0.000000 0.774379
O O15 0.000000 0.845596 0.000000
#
# Coordination Sequence:
#
# PCOD9203376 Si02
#       6
#     8   8   8   8   8   8
#     4  11  23  42  69  96 123 157 204 257 306 367
#     4  10  20  39  62  87 120 161 211 258 310 362
#     4  10  22  37  61  90 121 162 207 264 311 361
#     4  11  24  40  62  90 126 169 210 254 306 369
#     4  11  24  41  60  89 130 170 206 252 311 368
#     4  11  23  42  69  95 124 159 202 255 308 367
#
# _framework density 19.861813000000001
#
# number of rings (size 3 to 8) (size 9 to 14) (size 15 to 20)
#    0.000    1.333    1.667    5.000    2.333    2.667 
#    0.000    0.000    0.000    0.000    0.000    0.000 
#    0.000    0.000    0.000    0.000    0.000    0.000 
#
# Total GULP energy -133975.677581 kJ/mol
# GULP energy per Si atom -5582.319899 kJ/mol
# Density = 1.981661 g / cm^3
# Si number density = 19.861813 Si / 1000 Ang^3
#
#
#
# Elastic Constant Matrix: (Units=GPa)
#
#
# Indices 1 2 3 4 5 6 
#
# 1 114.6289 7.7068 17.3255 -0.0007 -1.0023 -0.0008
# 2 7.7068 28.9635 13.4270 -0.0001 -6.1813 -0.0003
# 3 17.3255 13.4270 50.2291 0.0155 -2.8170 -0.0031
# 4 -0.0007 -0.0001 0.0155 -35.3755 -0.0035 13.8055
# 5 -1.0023 -6.1813 -2.8170 -0.0035 36.9502 0.0005
# 6 -0.0008 -0.0003 -0.0031 13.8055 0.0005 21.2229
#
#
#
# Elastic Compliance Matrix: (Units=1/GPa)
#
#
# Indices 1 2 3 4 5 6 
#
# 1 0.009236 -0.001154 -0.002886 -0.000001 -0.000163 0.000001
# 2 -0.001154 0.040839 -0.010181 -0.000005 0.006024 0.000002
# 3 -0.002886 -0.010181 0.023627 0.000009 0.000020 -0.000003
# 4 -0.000001 -0.000005 0.000009 -0.022545 -0.000002 0.014665
# 5 -0.000163 0.006024 0.000020 -0.000002 0.028068 0.000001
# 6 0.000001 0.000002 -0.000003 0.014665 0.000001 0.037579
#
#
# Mechanical properties :
#
#
# Convention : Reuss Voigt Hill
#
# Bulk Modulus (GPa) = 22.09507 30.08223 26.08865
# Shear Modulus (GPa) = 31.18494 14.91700 23.05097
#
# Velocity S-wave (km/s) = 3.96674 2.74348 3.41041
# Velocity P-wave (km/s) = 5.66821 5.02138 5.35457
#
# Compressibility (1/GPa) = 0.04525897
#
# Stress axis : x y z
#
# Youngs Moduli (GPa) = 108.26905 24.48657 42.32449
#
# Poissons Ratio (x) = 0.02826 0.12217
# Poissons Ratio (y) = 0.12497 0.43090
# Poissons Ratio (z) = 0.31251 0.24929
#
# Static dielectric constant tensor:
#      x y z
#    x 1.612040 0.000000 -0.026420 
#    y 0.000000 1.697740 0.000000 
#    z -0.026420 0.000000 1.678930 
# 
# From -- ./inp_files/197197.got.cif
#   From: 2010.05.17/outbox.cif.g08.bks.cpg/sg12_99_cif.got.tgz:197197.got - 2010.06.03 13:09:07.
