data_PCOD9203977
_publ_section_title
;
Structure prediction by ZEFSAII (Michael W. Deem and Ramdas Pophale) SiO2 
 PCOD9203977
Probable space group: C 2/M
;
_chemical_formula_sum "Si O2"
_cell_formula_units_Z 36
_cell_length_a 11.210580
_cell_length_b 28.077628
_cell_length_c 5.236526
_cell_angle_alpha 90.000000
_cell_angle_beta 82.048168
_cell_angle_gamma 90.000000
_cell_volume 1632.434233
_symmetry_space_group_name_H-M "C 2/M"
_symmetry_group_IT_number 12
_symmetry_cell_setting 'monoclinic'
loop_
_space_group_symop_operation_xyz
x,y,z
-x,y,-z
-x,-y,-z
x,-y,z
1/2+x,1/2+y,z
1/2-x,1/2+y,-z
1/2-x,1/2-y,-z
1/2+x,1/2-y,z
loop_
_atom_site_type_symbol
_atom_site_label
_atom_site_fract_x
_atom_site_fract_y
_atom_site_fract_z
Si Si1 0.264553 0.596106 0.375124
Si Si2 0.000000 0.787820 0.500000
Si Si3 0.325168 0.655233 0.863365
Si Si4 0.500000 0.875033 0.500000
Si Si5 0.897373 0.288019 0.215053
Si Si6 0.415271 0.500000 0.276277
O O1 0.294124 0.617232 0.646843
O O2 0.118774 0.595559 0.389125
O O3 0.330464 0.546317 0.313150
O O4 0.313918 0.631245 0.140852
O O5 0.051576 0.821529 0.265733
O O6 0.104438 0.752026 0.566561
O O7 0.225314 0.696955 0.879258
O O8 0.452490 0.837737 0.303152
O O9 0.000000 0.269001 0.000000
O O10 0.500000 0.500000 0.500000
O O11 0.500000 0.500000 0.000000
#
# Coordination Sequence:
#
# PCOD9203977 Si02
#       6
#     8   4   8   4   8   4
#     4  11  25  45  73  97 135 176 223 284 336 406
#     4  11  26  36  62  96 138 188 234 274 320 407
#     4  11  25  42  66  99 134 182 228 272 339 397
#     4   9  20  43  68  99 130 177 224 275 342 389
#     4  10  20  40  62  93 140 176 223 289 329 377
#     4  12  28  49  72 105 142 172 216 277 347 410
#
# _framework density 22.052955999999998
#
# number of rings (size 3 to 8) (size 9 to 14) (size 15 to 20)
#    0.000    1.333    2.222    2.000    7.778    1.333 
#    0.000    0.000    0.000    5.333    0.000    0.000 
#    0.000    0.000    0.000    0.000    0.000    0.000 
#
# Total GULP energy -100650.982423 kJ/mol
# GULP energy per Si atom -5591.721246 kJ/mol
# Density = 2.200276 g / cm^3
# Si number density = 22.052956 Si / 1000 Ang^3
#
#
#
# Elastic Constant Matrix: (Units=GPa)
#
#
# Indices 1 2 3 4 5 6 
#
# 1 126.3884 70.7627 36.7701 0.0000 -24.7484 0.0000
# 2 70.7627 97.8664 20.3503 0.0000 -19.7161 0.0000
# 3 36.7701 20.3503 94.8941 0.0000 -15.2102 0.0000
# 4 0.0000 0.0000 0.0000 26.8867 0.0000 -2.6356
# 5 -24.7484 -19.7161 -15.2102 0.0000 34.0211 0.0000
# 6 0.0000 0.0000 0.0000 -2.6356 0.0000 0.5696
#
#
#
# Elastic Compliance Matrix: (Units=1/GPa)
#
#
# Indices 1 2 3 4 5 6 
#
# 1 0.014762 -0.009221 -0.003100 0.000000 0.004008 0.000000
# 2 -0.009221 0.017535 0.000395 0.000000 0.003630 0.000000
# 3 -0.003100 0.000395 0.012204 0.000000 0.003430 0.000000
# 4 0.000000 0.000000 0.000000 0.068068 0.000000 0.314961
# 5 0.004008 0.003630 0.003430 0.000000 0.035947 0.000000
# 6 0.000000 0.000000 0.000000 0.314961 0.000000 3.213000
#
#
# Mechanical properties :
#
#
# Convention : Reuss Voigt Hill
#
# Bulk Modulus (GPa) = 48.43166 63.87946 56.15556
# Shear Modulus (GPa) = 1.47395 25.04654 13.26025
#
# Velocity S-wave (km/s) = 0.81842 3.37374 2.45478
# Velocity P-wave (km/s) = 4.78563 6.64872 5.79257
#
# Compressibility (1/GPa) = 0.02064765
#
# Stress axis : x y z
#
# Youngs Moduli (GPa) = 67.74242 57.02909 81.93765
#
# Poissons Ratio (x) = 0.52589 0.25400
# Poissons Ratio (y) = 0.62468 -0.03234
# Poissons Ratio (z) = 0.21000 -0.02251
#
# Static dielectric constant tensor:
#      x y z
#    x 1.839660 0.000000 0.022110 
#    y 0.000000 1.763480 0.000000 
#    z 0.022110 0.000000 1.955760 
# 
# From -- ./inp_files/8115.got.cif
#   From: 2010.05.17/outbox.cif.g08.bks.cpg/sg12_5_cif.got.tgz:8115.got - 2010.06.03 13:09:07.
