data_PCOD9203793
_publ_section_title
;
Structure prediction by ZEFSAII (Michael W. Deem and Ramdas Pophale) SiO2 
 PCOD9203793
Probable space group: C 2/M
;
_chemical_formula_sum "Si O2"
_cell_formula_units_Z 56
_cell_length_a 10.041684
_cell_length_b 17.131135
_cell_length_c 17.584218
_cell_angle_alpha 90.000000
_cell_angle_beta 115.793121
_cell_angle_gamma 90.000000
_cell_volume 2723.561930
_symmetry_space_group_name_H-M "C 2/M"
_symmetry_group_IT_number 12
_symmetry_cell_setting 'monoclinic'
loop_
_space_group_symop_operation_xyz
x,y,z
-x,y,-z
-x,-y,-z
x,-y,z
1/2+x,1/2+y,z
1/2-x,1/2+y,-z
1/2-x,1/2-y,-z
1/2+x,1/2-y,z
loop_
_atom_site_type_symbol
_atom_site_label
_atom_site_fract_x
_atom_site_fract_y
_atom_site_fract_z
Si Si1 0.661572 0.906908 0.067963
Si Si2 0.328696 0.326062 0.983413
Si Si3 0.699730 0.093181 0.804370
Si Si4 0.658153 0.180067 0.511847
Si Si5 0.190163 0.095458 0.741650
Si Si6 0.385243 0.906592 0.654048
Si Si7 0.353515 0.593259 0.684918
O O1 0.708981 0.876933 0.162821
O O2 0.648061 0.000000 0.070714
O O3 0.500000 0.877640 0.000000
O O4 0.792430 0.888170 0.041128
O O5 0.243164 0.357135 0.888015
O O6 0.500000 0.317584 0.000000
O O7 0.250000 0.250000 0.000000
O O8 0.539965 0.115591 0.731428
O O9 0.811998 0.105349 0.762494
O O10 0.697405 0.000000 0.822763
O O11 0.500000 0.209151 0.500000
O O12 0.750000 0.250000 0.500000
O O13 0.630182 0.121556 0.435128
O O14 0.743952 0.138209 0.601656
O O15 0.256094 0.122181 0.677920
O O16 0.021187 0.118538 0.711187
O O17 0.193471 0.000000 0.743441
O O18 0.381819 0.000000 0.652698
O O19 0.340064 0.500000 0.667297
#
# Coordination Sequence:
#
# PCOD9203793 Si02
#       7
#     8   8   8   8   8   8   8
#     4  10  20  39  67  96 130 171 217 276 331 385
#     4  12  26  43  60  93 133 175 223 266 334 401
#     4  10  21  42  70  97 122 164 226 281 327 384
#     4  12  27  45  62  96 133 171 217 260 335 396
#     4   9  19  35  60  98 126 157 207 260 324 378
#     4  10  21  41  70  97 126 168 222 272 320 383
#     4  10  21  41  69  95 127 168 220 279 325 376
#
# _framework density 20.561309999999999
#
# number of rings (size 3 to 8) (size 9 to 14) (size 15 to 20)
#    0.000    1.571    1.429    3.000    2.000    5.143 
#    7.714    2.143    0.000    0.000    0.000    0.000 
#    0.000    0.000    0.000    0.000    0.000    0.000 
#
# Total GULP energy -156459.741458 kJ/mol
# GULP energy per Si atom -5587.847909 kJ/mol
# Density = 2.051451 g / cm^3
# Si number density = 20.561310 Si / 1000 Ang^3
#
#
#
# Elastic Constant Matrix: (Units=GPa)
#
#
# Indices 1 2 3 4 5 6 
#
# 1 139.4902 14.8676 20.2257 0.0000 -2.4757 0.0000
# 2 14.8676 19.8028 26.3747 0.0000 1.4298 0.0000
# 3 20.2257 26.3747 102.0727 0.0000 -3.8216 0.0000
# 4 0.0000 0.0000 0.0000 1.7383 0.0000 -6.4090
# 5 -2.4757 1.4298 -3.8216 0.0000 30.6069 0.0000
# 6 0.0000 0.0000 0.0000 -6.4090 0.0000 25.3963
#
#
#
# Elastic Compliance Matrix: (Units=1/GPa)
#
#
# Indices 1 2 3 4 5 6 
#
# 1 0.007818 -0.005974 0.000029 0.000000 0.000915 0.000000
# 2 -0.005974 0.082714 -0.020447 0.000000 -0.006900 0.000000
# 3 0.000029 -0.020447 0.015181 0.000000 0.002853 0.000000
# 4 0.000000 0.000000 0.000000 8.271767 0.000000 2.087472
# 5 0.000915 -0.006900 0.002853 0.000000 0.033425 0.000000
# 6 0.000000 0.000000 0.000000 2.087472 0.000000 0.566173
#
#
# Mechanical properties :
#
#
# Convention : Reuss Voigt Hill
#
# Bulk Modulus (GPa) = 18.89331 42.70018 30.79675
# Shear Modulus (GPa) = 0.55264 24.87480 12.71372
#
# Velocity S-wave (km/s) = 0.51900 3.48197 2.48933
# Velocity P-wave (km/s) = 3.09320 6.08094 4.82419
#
# Compressibility (1/GPa) = 0.05292877
#
# Stress axis : x y z
#
# Youngs Moduli (GPa) = 127.91399 12.08982 65.86979
#
# Poissons Ratio (x) = 0.07222 -0.00189
# Poissons Ratio (y) = 0.76413 1.34686
# Poissons Ratio (z) = -0.00368 0.24720
#
# Static dielectric constant tensor:
#      x y z
#    x 1.734880 0.000000 -0.014250 
#    y 0.000000 1.762030 0.000000 
#    z -0.014250 0.000000 1.630600 
# 
# From -- ./inp_files/257208.got.cif
#   From: 2010.05.17/outbox.cif.g08.bks.cpg/sg12_129_cif.got.tgz:257208.got - 2010.06.03 13:09:07.
