data_PCOD9203484
_publ_section_title
;
Structure prediction by ZEFSAII (Michael W. Deem and Ramdas Pophale) SiO2 
 PCOD9203484
Probable space group: C 2/M
;
_chemical_formula_sum "Si O2"
_cell_formula_units_Z 46
_cell_length_a 24.224638
_cell_length_b 15.195054
_cell_length_c 11.962605
_cell_angle_alpha 90.000000
_cell_angle_beta 24.562471
_cell_angle_gamma 90.000000
_cell_volume 1830.416051
_symmetry_space_group_name_H-M "C 2/M"
_symmetry_group_IT_number 12
_symmetry_cell_setting 'monoclinic'
loop_
_space_group_symop_operation_xyz
x,y,z
-x,y,-z
-x,-y,-z
x,-y,z
1/2+x,1/2+y,z
1/2-x,1/2+y,-z
1/2-x,1/2-y,-z
1/2+x,1/2-y,z
loop_
_atom_site_type_symbol
_atom_site_label
_atom_site_fract_x
_atom_site_fract_y
_atom_site_fract_z
Si Si1 0.513550 0.405760 0.731436
Si Si2 0.773207 0.629071 0.352926
Si Si3 0.169365 0.901881 0.145965
Si Si4 0.303420 0.664604 0.267069
Si Si5 0.595779 0.899300 0.465515
Si Si6 0.000000 0.745341 0.500000
Si Si7 0.500000 0.000000 0.000000
O O1 0.472208 0.500000 0.855540
O O2 0.670181 0.398783 0.447715
O O3 0.447293 0.402209 0.733137
O O4 0.441183 0.339722 0.946877
O O5 0.705172 0.613745 0.599861
O O6 0.785364 0.732785 0.320184
O O7 0.909127 0.576508 0.105472
O O8 0.129845 0.808746 0.274084
O O9 0.167551 0.000000 0.203627
O O10 0.302729 0.899118 0.826981
O O11 0.186215 0.625302 0.405025
O O12 0.497960 0.819612 0.612088
O O13 0.543551 0.000000 0.572390
#
# Coordination Sequence:
#
# PCOD9203484 Si02
#       7
#     8   8   8   8   8   4   2
#     4  10  20  39  63  90 113 160 212 250 287 355
#     4  11  24  40  59  87 128 160 194 249 308 360
#     4   9  20  37  61  88 122 154 205 253 295 356
#     4  10  23  39  65  86 115 163 214 246 291 360
#     4  10  22  40  61  90 121 155 204 256 301 358
#     4  12  20  36  62  90 122 162 192 248 322 368
#     4  12  28  40  54  92 130 164 184 254 316 360
#
# _framework density 25.1309
#
# number of rings (size 3 to 8) (size 9 to 14) (size 15 to 20)
#    0.000    1.739    0.870    4.174    7.304    0.696 
#    0.000    0.000    0.000    0.000    0.000    0.000 
#    0.000    0.000    0.000    0.000    0.000    0.000 
#
# Total GULP energy -128248.074995 kJ/mol
# GULP energy per Si atom -5576.003261 kJ/mol
# Density = 2.507370 g / cm^3
# Si number density = 25.130900 Si / 1000 Ang^3
#
#
#
# Elastic Constant Matrix: (Units=GPa)
#
#
# Indices 1 2 3 4 5 6 
#
# 1 84.5850 31.0919 6.4196 0.0000 -29.5516 0.0000
# 2 31.0919 157.1515 8.9053 0.0000 5.9003 0.0000
# 3 6.4196 8.9053 28.3028 0.0000 -9.5740 0.0000
# 4 0.0000 0.0000 0.0000 34.5028 0.0000 -31.4734
# 5 -29.5516 5.9003 -9.5740 0.0000 36.2592 0.0000
# 6 0.0000 0.0000 0.0000 -31.4734 0.0000 23.7012
#
#
#
# Elastic Compliance Matrix: (Units=1/GPa)
#
#
# Indices 1 2 3 4 5 6 
#
# 1 0.019351 -0.004644 0.002924 0.000000 0.017299 0.000000
# 2 -0.004644 0.007696 -0.003373 0.000000 -0.005928 0.000000
# 3 0.002924 -0.003373 0.040324 0.000000 0.013579 0.000000
# 4 0.000000 0.000000 0.000000 -0.137148 0.000000 -0.182122
# 5 0.017299 -0.005928 0.013579 0.000000 0.046228 0.000000
# 6 0.000000 0.000000 0.000000 -0.182122 0.000000 -0.199652
#
#
# Mechanical properties :
#
#
# Convention : Reuss Voigt Hill
#
# Bulk Modulus (GPa) = 17.48735 40.31919 28.90327
# Shear Modulus (GPa) = -25.77952 33.80080 4.01064
#
# Velocity S-wave (km/s) = -3.20630 3.67139 1.26466
# Velocity P-wave (km/s) = 2.59491 5.83529 3.69575
#
# Compressibility (1/GPa) = 0.05718419
#
# Stress axis : x y z
#
# Youngs Moduli (GPa) = 51.67593 129.94181 24.79924
#
# Poissons Ratio (x) = 0.60342 -0.07251
# Poissons Ratio (y) = 0.23997 0.08366
# Poissons Ratio (z) = -0.15109 0.43833
#
# Static dielectric constant tensor:
#      x y z
#    x 1.989150 0.000000 0.007350 
#    y 0.000000 2.057030 0.000000 
#    z 0.007350 0.000000 2.063360 
# 
# From -- ./inp_files/251460.got.cif
#   From: 2010.05.17/outbox.cif.g08.bks.cpg/sg12_126_cif.got.tgz:251460.got - 2010.06.03 13:09:07.
