data_PCOD9203583
_publ_section_title
;
Structure prediction by ZEFSAII (Michael W. Deem and Ramdas Pophale) SiO2 
 PCOD9203583
Probable space group: C 2/M
;
_chemical_formula_sum "Si O2"
_cell_formula_units_Z 56
_cell_length_a 17.344707
_cell_length_b 11.615916
_cell_length_c 16.712749
_cell_angle_alpha 90.000000
_cell_angle_beta 63.051279
_cell_angle_gamma 90.000000
_cell_volume 3001.560026
_symmetry_space_group_name_H-M "C 2/M"
_symmetry_group_IT_number 12
_symmetry_cell_setting 'monoclinic'
loop_
_space_group_symop_operation_xyz
x,y,z
-x,y,-z
-x,-y,-z
x,-y,z
1/2+x,1/2+y,z
1/2-x,1/2+y,-z
1/2-x,1/2-y,-z
1/2+x,1/2-y,z
loop_
_atom_site_type_symbol
_atom_site_label
_atom_site_fract_x
_atom_site_fract_y
_atom_site_fract_z
Si Si1 0.663506 0.267736 0.091131
Si Si2 0.929753 0.000000 0.920420
Si Si3 0.133186 0.000000 0.864619
Si Si4 0.197901 0.630202 0.532456
Si Si5 0.488890 0.862310 0.914600
Si Si6 0.084673 0.627985 0.426541
Si Si7 0.353512 0.865223 0.267122
Si Si8 0.727366 0.204469 0.236260
O O1 0.612677 0.387179 0.099959
O O2 0.599046 0.172434 0.086169
O O3 0.692612 0.249849 0.168291
O O4 0.750000 0.250000 0.000000
O O5 0.036149 0.000000 0.869417
O O6 0.894031 0.000000 0.028933
O O7 0.197341 0.107745 0.813812
O O8 0.239941 0.500000 0.521873
O O9 0.250000 0.750000 0.500000
O O10 0.145237 0.622572 0.475594
O O11 0.141641 0.645860 0.639600
O O12 0.564730 0.820275 0.820832
O O13 0.493574 0.000000 0.917637
O O14 0.500000 0.815311 0.000000
O O15 0.054952 0.500000 0.415560
O O16 0.143599 0.666577 0.325766
O O17 0.000000 0.692913 0.500000
O O18 0.271667 0.800635 0.270216
O O19 0.345789 0.000000 0.253152
#
# Coordination Sequence:
#
# PCOD9203583 Si02
#       8
#     8   4   4   8   8   8   8   8
#     4  12  26  39  63  92 129 169 209 261 319 381
#     4  11  26  46  62  92 136 177 218 259 317 392
#     4  11  24  44  69  92 125 176 222 268 315 383
#     4  10  20  39  64  92 121 164 211 259 318 381
#     4  10  23  41  63  91 122 160 209 263 312 378
#     4  10  22  39  63  94 125 158 209 272 325 376
#     4  10  22  40  64  90 123 167 208 259 315 385
#     4  12  23  40  67  95 128 165 216 263 326 382
#
# _framework density 18.656965
#
# number of rings (size 3 to 8) (size 9 to 14) (size 15 to 20)
#    0.000    1.286    3.571    1.714    7.000    0.000 
#    0.000    0.000    0.000    1.714    0.000    0.000 
#    0.000    0.000    0.000    0.000    0.000    0.000 
#
# Total GULP energy -155965.322398 kJ/mol
# GULP energy per Si atom -5570.190086 kJ/mol
# Density = 1.861450 g / cm^3
# Si number density = 18.656965 Si / 1000 Ang^3
#
#
#
# Elastic Constant Matrix: (Units=GPa)
#
#
# Indices 1 2 3 4 5 6 
#
# 1 49.2280 23.5148 30.7145 0.0000 -5.9367 0.0000
# 2 23.5148 60.8168 38.8658 0.0000 -6.4927 0.0000
# 3 30.7145 38.8658 148.1757 0.0000 -6.8668 0.0000
# 4 0.0000 0.0000 0.0000 20.9683 0.0000 1.6028
# 5 -5.9367 -6.4927 -6.8668 0.0000 43.6159 0.0000
# 6 0.0000 0.0000 0.0000 1.6028 0.0000 33.9137
#
#
#
# Elastic Compliance Matrix: (Units=1/GPa)
#
#
# Indices 1 2 3 4 5 6 
#
# 1 0.026372 -0.007877 -0.003312 0.000000 0.001895 0.000000
# 2 -0.007877 0.022308 -0.004144 0.000000 0.001596 0.000000
# 3 -0.003312 -0.004144 0.008535 0.000000 0.000276 0.000000
# 4 0.000000 0.000000 0.000000 0.047864 0.000000 -0.002262
# 5 0.001895 0.001596 0.000276 0.000000 0.023466 0.000000
# 6 0.000000 0.000000 0.000000 -0.002262 0.000000 0.029594
#
#
# Mechanical properties :
#
#
# Convention : Reuss Voigt Hill
#
# Bulk Modulus (GPa) = 37.67037 49.37901 43.52469
# Shear Modulus (GPa) = 25.29655 30.70792 28.00224
#
# Velocity S-wave (km/s) = 3.68622 4.06140 3.87835
# Velocity P-wave (km/s) = 6.19294 6.96545 6.59052
#
# Compressibility (1/GPa) = 0.02654606
#
# Stress axis : x y z
#
# Youngs Moduli (GPa) = 37.91942 44.82797 117.16220
#
# Poissons Ratio (x) = 0.35313 0.38809
# Poissons Ratio (y) = 0.29871 0.48556
# Poissons Ratio (z) = 0.12560 0.18578
#
# Static dielectric constant tensor:
#      x y z
#    x 1.420020 0.000000 0.083960 
#    y 0.000000 1.660430 0.000000 
#    z 0.083960 0.000000 1.624020 
# 
# From -- ./inp_files/269235.got.cif
#   From: 2010.05.17/outbox.cif.g08.bks.cpg/sg12_135_cif.got.tgz:269235.got - 2010.06.03 13:09:07.
