data_PCOD9203129
_publ_section_title
;
Structure prediction by ZEFSAII (Michael W. Deem and Ramdas Pophale) SiO2 
 PCOD9203129
Probable space group: C 2/M
;
_chemical_formula_sum "Si O2"
_cell_formula_units_Z 60
_cell_length_a 22.084169
_cell_length_b 13.652896
_cell_length_c 13.393551
_cell_angle_alpha 90.000000
_cell_angle_beta 142.017122
_cell_angle_gamma 90.000000
_cell_volume 2485.291836
_symmetry_space_group_name_H-M "C 2/M"
_symmetry_group_IT_number 12
_symmetry_cell_setting 'monoclinic'
loop_
_space_group_symop_operation_xyz
x,y,z
-x,y,-z
-x,-y,-z
x,-y,z
1/2+x,1/2+y,z
1/2-x,1/2+y,-z
1/2-x,1/2-y,-z
1/2+x,1/2-y,z
loop_
_atom_site_type_symbol
_atom_site_label
_atom_site_fract_x
_atom_site_fract_y
_atom_site_fract_z
Si Si1 0.735226 0.635833 0.997399
Si Si2 0.423114 0.000000 0.290275
Si Si3 0.256674 0.397121 0.218969
Si Si4 0.968649 0.108384 0.574332
Si Si5 0.545492 0.203449 0.162702
Si Si6 0.585332 0.393869 0.982963
Si Si7 0.450293 0.174167 0.614627
Si Si8 0.779291 0.784056 0.711940
O O1 0.835948 0.584540 0.162931
O O2 0.652512 0.614167 0.971423
O O3 0.750000 0.750000 0.000000
O O4 0.710253 0.601509 0.852774
O O5 0.507829 0.912551 0.398291
O O6 0.201015 0.500000 0.163392
O O7 0.349876 0.395439 0.413659
O O8 0.207548 0.294159 0.179411
O O9 0.993131 0.216176 0.649259
O O10 0.000000 0.111243 0.500000
O O11 0.998598 0.000000 0.653105
O O12 0.527448 0.145609 0.241175
O O13 0.660728 0.228190 0.296584
O O14 0.500000 0.162978 0.000000
O O15 0.493427 0.308078 0.111724
O O16 0.538711 0.500000 0.928043
O O17 0.659415 0.376804 0.171531
O O18 0.332958 0.187397 0.449828
#
# Coordination Sequence:
#
# PCOD9203129 Si02
#       8
#     8   4   8   8   8   8   8   8
#     4  12  23  41  68  97 143 182 230 290 356 433
#     4  12  28  42  68 112 139 190 230 287 375 443
#     4  10  20  38  67  98 131 176 229 286 349 411
#     4   9  21  40  67 103 136 181 233 281 345 419
#     4  10  24  44  72 100 133 184 247 294 343 412
#     4  11  23  41  67 101 129 181 237 286 349 417
#     4  11  25  46  67 102 151 181 233 292 364 425
#     4  10  23  44  70  95 141 185 223 297 348 426
#
# _framework density 24.142035
#
# number of rings (size 3 to 8) (size 9 to 14) (size 15 to 20)
#    0.000    1.467    2.667    1.200    6.533    2.933 
#    1.200    1.333    2.933    0.000    0.000    0.000 
#    0.000    0.000    0.000    0.000    0.000    0.000 
#
# Total GULP energy -167081.581785 kJ/mol
# GULP energy per Si atom -5569.386060 kJ/mol
# Density = 2.408709 g / cm^3
# Si number density = 24.142035 Si / 1000 Ang^3
#
#
#
# Elastic Constant Matrix: (Units=GPa)
#
#
# Indices 1 2 3 4 5 6 
#
# 1 89.9966 14.1836 13.2316 0.0000 -2.1693 0.0000
# 2 14.1836 130.6155 13.0110 0.0000 1.1232 0.0000
# 3 13.2316 13.0110 66.1246 0.0000 12.9646 0.0000
# 4 0.0000 0.0000 0.0000 29.5647 0.0000 11.0642
# 5 -2.1693 1.1232 12.9646 0.0000 41.5163 0.0000
# 6 0.0000 0.0000 0.0000 11.0642 0.0000 -0.7055
#
#
#
# Elastic Compliance Matrix: (Units=1/GPa)
#
#
# Indices 1 2 3 4 5 6 
#
# 1 0.011662 -0.001039 -0.002401 0.000000 0.001387 0.000000
# 2 -0.001039 0.007905 -0.001379 0.000000 0.000163 0.000000
# 3 -0.002401 -0.001379 0.016929 0.000000 -0.005375 0.000000
# 4 0.000000 0.000000 0.000000 0.004924 0.000000 0.077223
# 5 0.001387 0.000163 -0.005375 0.000000 0.025833 0.000000
# 6 0.000000 0.000000 0.000000 0.077223 0.000000 -0.206348
#
#
# Mechanical properties :
#
#
# Convention : Reuss Voigt Hill
#
# Bulk Modulus (GPa) = 37.23538 40.84324 39.03931
# Shear Modulus (GPa) = -41.49241 30.49580 -5.49830
#
# Velocity S-wave (km/s) = -4.15019 3.55798 -1.51077
# Velocity P-wave (km/s) = 2.74017 5.81667 3.62802
#
# Compressibility (1/GPa) = 0.02685618
#
# Stress axis : x y z
#
# Youngs Moduli (GPa) = 85.75051 126.50383 59.07174
#
# Poissons Ratio (x) = 0.13145 0.14183
# Poissons Ratio (y) = 0.08910 0.08148
# Poissons Ratio (z) = 0.20589 0.17449
#
# Static dielectric constant tensor:
#      x y z
#    x 1.985870 0.000000 -0.031140 
#    y 0.000000 1.913270 0.000000 
#    z -0.031140 0.000000 1.989620 
# 
# From -- ./inp_files/233912.got.cif
#   From: 2010.05.17/outbox.cif.g08.bks.cpg/sg12_117_cif.got.tgz:233912.got - 2010.06.03 13:09:07.
