data_PCOD9203720
_publ_section_title
;
Structure prediction by ZEFSAII (Michael W. Deem and Ramdas Pophale) SiO2 
 PCOD9203720
Probable space group: C 2/M
;
_chemical_formula_sum "Si O2"
_cell_formula_units_Z 36
_cell_length_a 7.039157
_cell_length_b 14.786911
_cell_length_c 18.415531
_cell_angle_alpha 90.000000
_cell_angle_beta 135.537620
_cell_angle_gamma 90.000000
_cell_volume 1342.622098
_symmetry_space_group_name_H-M "C 2/M"
_symmetry_group_IT_number 12
_symmetry_cell_setting 'monoclinic'
loop_
_space_group_symop_operation_xyz
x,y,z
-x,y,-z
-x,-y,-z
x,-y,z
1/2+x,1/2+y,z
1/2-x,1/2+y,-z
1/2-x,1/2-y,-z
1/2+x,1/2-y,z
loop_
_atom_site_type_symbol
_atom_site_label
_atom_site_fract_x
_atom_site_fract_y
_atom_site_fract_z
Si Si1 0.321400 0.652715 0.736064
Si Si2 0.479737 0.000000 0.130158
Si Si3 0.331852 0.355073 0.026312
Si Si4 0.689611 0.858184 0.481882
Si Si5 0.697219 0.365461 0.699462
O O1 0.481246 0.630706 0.852617
O O2 0.508116 0.622171 0.719997
O O3 0.287774 0.761372 0.719029
O O4 0.012144 0.619163 0.639218
O O5 0.547473 0.923435 0.210846
O O6 0.420337 0.920152 0.053780
O O7 0.500000 0.381054 0.000000
O O8 0.250000 0.250000 0.000000
O O9 0.500000 0.878356 0.500000
O O10 0.750000 0.750000 0.500000
O O11 0.990662 0.893898 0.579242
#
# Coordination Sequence:
#
# PCOD9203720 Si02
#       5
#     8   4   8   8   8
#     4  10  20  39  66  92 125 167 213 252 311 377
#     4  12  27  41  65  93 135 161 215 260 319 368
#     4  12  26  45  66  92 128 170 212 260 314 374
#     4   8  16  33  60  93 118 158 205 255 306 371
#     4  10  21  39  65  96 125 163 208 263 315 373
#
# _framework density 26.813202
#
# number of rings (size 3 to 8) (size 9 to 14) (size 15 to 20)
#    0.000    1.778    2.222    1.667    0.000    1.778 
#    0.000    6.111    0.000    1.333    0.000    0.000 
#    0.000    0.000    0.000    0.000    0.000    0.000 
#
# Total GULP energy -100240.747183 kJ/mol
# GULP energy per Si atom -5568.930399 kJ/mol
# Density = 2.675217 g / cm^3
# Si number density = 26.813202 Si / 1000 Ang^3
#
#
#
# Elastic Constant Matrix: (Units=GPa)
#
#
# Indices 1 2 3 4 5 6 
#
# 1 75.1417 -21.7012 23.0774 0.0000 -2.1347 -0.0001
# 2 -21.7012 104.2755 48.5875 0.0000 5.6052 0.0000
# 3 23.0774 48.5875 313.6188 0.0005 -17.0756 0.0001
# 4 0.0000 0.0000 0.0005 -22.0664 0.0001 -68.0154
# 5 -2.1347 5.6052 -17.0756 0.0001 47.9644 -0.0001
# 6 -0.0001 0.0000 0.0001 -68.0154 -0.0001 -42.2949
#
#
#
# Elastic Compliance Matrix: (Units=1/GPa)
#
#
# Indices 1 2 3 4 5 6 
#
# 1 0.014969 0.003946 -0.001735 0.000000 -0.000413 0.000000
# 2 0.003946 0.011533 -0.002183 0.000000 -0.001949 0.000000
# 3 -0.001735 -0.002183 0.003737 0.000000 0.001508 0.000000
# 4 0.000000 0.000000 0.000000 0.011453 0.000000 -0.018418
# 5 -0.000413 -0.001949 0.001508 0.000000 0.021595 0.000000
# 6 0.000000 0.000000 0.000000 -0.018418 0.000000 0.005976
#
#
# Mechanical properties :
#
#
# Convention : Reuss Voigt Hill
#
# Bulk Modulus (GPa) = 33.01004 65.88482 49.44743
# Shear Modulus (GPa) = 63.04686 26.25878 44.65282
#
# Velocity S-wave (km/s) = 4.85432 3.13281 4.08527
# Velocity P-wave (km/s) = 6.61491 6.14094 6.38233
#
# Compressibility (1/GPa) = 0.03029381
#
# Stress axis : x y z
#
# Youngs Moduli (GPa) = 66.80463 86.70533 267.62004
#
# Poissons Ratio (x) = -0.34214 0.46440
# Poissons Ratio (y) = -0.26361 0.58430
# Poissons Ratio (z) = 0.11593 0.18930
#
# Static dielectric constant tensor:
#      x y z
#    x 2.254410 0.000000 0.040820 
#    y 0.000000 2.359840 0.000000 
#    z 0.040820 0.000000 2.134930 
# 
# From -- ./inp_files/300074.got.cif
#   From: 2010.05.17/outbox.cif.g08.bks.cpg/sg12_151_cif.got.tgz:300074.got - 2010.06.03 13:09:07.
