data_PCOD9203002
_publ_section_title
;
Structure prediction by ZEFSAII (Michael W. Deem and Ramdas Pophale) SiO2 
 PCOD9203002
Probable space group: C 2/M
;
_chemical_formula_sum "Si O2"
_cell_formula_units_Z 50
_cell_length_a 9.242697
_cell_length_b 29.978695
_cell_length_c 10.531741
_cell_angle_alpha 90.000000
_cell_angle_beta 59.353593
_cell_angle_gamma 90.000000
_cell_volume 2510.593479
_symmetry_space_group_name_H-M "C 2/M"
_symmetry_group_IT_number 12
_symmetry_cell_setting 'monoclinic'
loop_
_space_group_symop_operation_xyz
x,y,z
-x,y,-z
-x,-y,-z
x,-y,z
1/2+x,1/2+y,z
1/2-x,1/2+y,-z
1/2-x,1/2-y,-z
1/2+x,1/2-y,z
loop_
_atom_site_type_symbol
_atom_site_label
_atom_site_fract_x
_atom_site_fract_y
_atom_site_fract_z
Si Si1 0.912117 0.450318 0.901311
Si Si2 0.441271 0.832356 0.655601
Si Si3 0.181259 0.794919 0.971297
Si Si4 0.500000 0.000000 0.500000
Si Si5 0.200277 0.607557 0.664596
Si Si6 0.736015 0.416708 0.637960
Si Si7 0.368817 0.611170 0.865968
O O1 0.866562 0.500000 0.880388
O O2 0.054668 0.429469 0.749665
O O3 0.754641 0.418376 0.991214
O O4 0.000000 0.452800 0.000000
O O5 0.500000 0.808158 0.500000
O O6 0.308860 0.807999 0.802592
O O7 0.598741 0.847822 0.671314
O O8 0.347879 0.876572 0.644404
O O9 0.250000 0.750000 0.000000
O O10 0.151090 0.838360 0.074254
O O11 0.000000 0.784017 0.000000
O O12 0.351895 0.960658 0.589656
O O13 0.299913 0.593238 0.495106
O O14 0.299762 0.610510 0.751750
O O15 0.553998 0.410883 0.785686
#
# Coordination Sequence:
#
# PCOD9203002 Si02
#       7
#     8   8   8   2   8   8   8
#     4   9  19  33  54  90 133 175 217 271 336 402
#     4  10  21  44  68  92 137 184 218 276 352 419
#     4  12  27  46  72 103 135 177 235 294 358 430
#     4  12  24  40  66 102 144 208 246 270 354 412
#     4  10  20  38  65  91 132 183 224 273 349 403
#     4  11  23  41  63  96 139 187 233 281 334 412
#     4  11  23  41  66  97 136 175 231 296 345 410
#
# _framework density 19.915610999999998
#
# number of rings (size 3 to 8) (size 9 to 14) (size 15 to 20)
#    0.000    1.440    5.600    0.480    4.480    0.000 
#    0.000    3.200    0.000    3.360    0.000    0.000 
#    0.000    0.000    0.000    0.000    0.000    0.000 
#
# Total GULP energy -139272.132340 kJ/mol
# GULP energy per Si atom -5570.885294 kJ/mol
# Density = 1.987028 g / cm^3
# Si number density = 19.915611 Si / 1000 Ang^3
#
#
#
# Elastic Constant Matrix: (Units=GPa)
#
#
# Indices 1 2 3 4 5 6 
#
# 1 105.0439 55.4676 38.4469 0.0000 -8.9958 0.0000
# 2 55.4676 141.4198 69.3966 0.0000 -15.7649 0.0000
# 3 38.4469 69.3966 110.7094 0.0000 -14.8367 0.0000
# 4 0.0000 0.0000 0.0000 21.1381 0.0000 -12.8294
# 5 -8.9958 -15.7649 -14.8367 0.0000 42.3064 0.0000
# 6 0.0000 0.0000 0.0000 -12.8294 0.0000 23.8368
#
#
#
# Elastic Compliance Matrix: (Units=1/GPa)
#
#
# Indices 1 2 3 4 5 6 
#
# 1 0.012260 -0.003891 -0.001745 0.000000 0.000545 0.000000
# 2 -0.003891 0.011557 -0.005694 0.000000 0.001482 0.000000
# 3 -0.001745 -0.005694 0.013509 0.000000 0.002245 0.000000
# 4 0.000000 0.000000 0.000000 0.070259 0.000000 0.037814
# 5 0.000545 0.001482 0.002245 0.000000 0.025092 0.000000
# 6 0.000000 0.000000 0.000000 0.037814 0.000000 0.062304
#
#
# Mechanical properties :
#
#
# Convention : Reuss Voigt Hill
#
# Bulk Modulus (GPa) = 68.19488 75.97726 72.08607
# Shear Modulus (GPa) = 22.46874 30.38039 26.42456
#
# Velocity S-wave (km/s) = 3.36251 3.90995 3.64651
# Velocity P-wave (km/s) = 7.02791 7.65611 7.34873
#
# Compressibility (1/GPa) = 0.01466386
#
# Stress axis : x y z
#
# Youngs Moduli (GPa) = 81.56499 86.52826 74.02508
#
# Poissons Ratio (x) = 0.33672 0.12920
# Poissons Ratio (y) = 0.31741 0.42152
# Poissons Ratio (z) = 0.14236 0.49271
#
# Static dielectric constant tensor:
#      x y z
#    x 1.716830 0.000000 0.017920 
#    y 0.000000 1.660940 0.000000 
#    z 0.017920 0.000000 1.767990 
# 
# From -- ./inp_files/124151.got.cif
#   From: 2010.05.17/outbox.cif.g08.bks.cpg/sg12_63_cif.got.tgz:124151.got - 2010.06.03 13:09:07.
