data_PCOD9203367
_publ_section_title
;
Structure prediction by ZEFSAII (Michael W. Deem and Ramdas Pophale) SiO2 
 PCOD9203367
Probable space group: C 2/M
;
_chemical_formula_sum "Si O2"
_cell_formula_units_Z 44
_cell_length_a 11.212624
_cell_length_b 22.144966
_cell_length_c 11.682398
_cell_angle_alpha 90.000000
_cell_angle_beta 139.659001
_cell_angle_gamma 90.000000
_cell_volume 1877.775211
_symmetry_space_group_name_H-M "C 2/M"
_symmetry_group_IT_number 12
_symmetry_cell_setting 'monoclinic'
loop_
_space_group_symop_operation_xyz
x,y,z
-x,y,-z
-x,-y,-z
x,-y,z
1/2+x,1/2+y,z
1/2-x,1/2+y,-z
1/2-x,1/2-y,-z
1/2+x,1/2-y,z
loop_
_atom_site_type_symbol
_atom_site_label
_atom_site_fract_x
_atom_site_fract_y
_atom_site_fract_z
Si Si1 0.947850 0.163586 0.710851
Si Si2 0.189711 0.245433 0.202511
Si Si3 0.804069 0.651389 0.126674
Si Si4 0.882198 0.614559 0.809577
Si Si5 0.500000 0.378753 0.500000
Si Si6 0.781250 0.571013 0.320915
O O1 0.829572 0.215683 0.686985
O O2 0.959040 0.161084 0.583115
O O3 0.842504 0.103045 0.674276
O O4 0.152823 0.163384 0.917267
O O5 0.335655 0.212015 0.226448
O O6 0.177418 0.316791 0.200831
O O7 0.000000 0.226916 0.000000
O O8 0.731382 0.603155 0.164975
O O9 0.986110 0.624388 0.202084
O O10 0.686512 0.583360 0.651690
O O11 0.000000 0.588915 0.000000
O O12 0.751821 0.500000 0.295959
O O13 0.000000 0.582529 0.500000
#
# Coordination Sequence:
#
# PCOD9203367 Si02
#       6
#     8   8   8   8   4   8
#     4  10  21  38  57  88 120 157 202 247 296 357
#     4   8  19  34  57  82 116 160 204 251 295 342
#     4  10  20  39  62  86 121 158 202 253 300 348
#     4  11  22  37  58  83 124 168 200 250 298 352
#     4  12  24  36  55  88 122 166 207 240 296 364
#     4  10  21  40  66  92 117 149 195 255 308 356
#
# _framework density 23.431984
#
# number of rings (size 3 to 8) (size 9 to 14) (size 15 to 20)
#    0.000    2.000    1.818    2.727    2.545    4.364 
#    6.545    0.455    0.000    1.636    0.000    0.000 
#    0.000    0.000    0.000    0.000    0.000    0.000 
#
# Total GULP energy -122946.597814 kJ/mol
# GULP energy per Si atom -5588.481719 kJ/mol
# Density = 2.337865 g / cm^3
# Si number density = 23.431984 Si / 1000 Ang^3
#
#
#
# Elastic Constant Matrix: (Units=GPa)
#
#
# Indices 1 2 3 4 5 6 
#
# 1 154.2987 5.8380 52.2157 0.0000 -15.7736 0.0000
# 2 5.8380 54.1753 5.0434 0.0000 -3.9056 0.0000
# 3 52.2157 5.0434 107.4042 0.0000 -5.2275 0.0000
# 4 0.0000 0.0000 0.0000 12.5942 0.0000 5.5577
# 5 -15.7736 -3.9056 -5.2275 0.0000 51.5976 0.0000
# 6 0.0000 0.0000 0.0000 5.5577 0.0000 2.2435
#
#
#
# Elastic Compliance Matrix: (Units=1/GPa)
#
#
# Indices 1 2 3 4 5 6 
#
# 1 0.007975 -0.000363 -0.003761 0.000000 0.002029 0.000000
# 2 -0.000363 0.018646 -0.000639 0.000000 0.001236 0.000000
# 3 -0.003761 -0.000639 0.011166 0.000000 -0.000067 0.000000
# 4 0.000000 0.000000 0.000000 -0.852039 0.000000 2.110728
# 5 0.002029 0.001236 -0.000067 0.000000 0.020088 0.000000
# 6 0.000000 0.000000 0.000000 2.110728 0.000000 -4.783100
#
#
# Mechanical properties :
#
#
# Convention : Reuss Voigt Hill
#
# Bulk Modulus (GPa) = 35.38473 49.11915 42.25194
# Shear Modulus (GPa) = -0.89955 30.13913 14.61979
#
# Velocity S-wave (km/s) = -0.62027 3.59031 2.50056
# Velocity P-wave (km/s) = 3.82372 6.18021 5.13887
#
# Compressibility (1/GPa) = 0.02826078
#
# Stress axis : x y z
#
# Youngs Moduli (GPa) = 125.39207 53.63004 89.55786
#
# Poissons Ratio (x) = 0.01946 0.33685
# Poissons Ratio (y) = 0.04551 0.05723
# Poissons Ratio (z) = 0.47164 0.03427
#
# Static dielectric constant tensor:
#      x y z
#    x 1.910410 0.000000 0.049720 
#    y 0.000000 1.843370 0.000000 
#    z 0.049720 0.000000 2.004580 
# 
# From -- ./inp_files/136082.got.cif
#   From: 2010.05.17/outbox.cif.g08.bks.cpg/sg12_69_cif.got.tgz:136082.got - 2010.06.03 13:09:07.
