data_PCOD9203434
_publ_section_title
;
Structure prediction by ZEFSAII (Michael W. Deem and Ramdas Pophale) SiO2 
 PCOD9203434
Probable space group: C 2/M
;
_chemical_formula_sum "Si O2"
_cell_formula_units_Z 58
_cell_length_a 25.608187
_cell_length_b 20.600094
_cell_length_c 9.931278
_cell_angle_alpha 90.000000
_cell_angle_beta 28.924852
_cell_angle_gamma 90.000000
_cell_volume 2533.933445
_symmetry_space_group_name_H-M "C 2/M"
_symmetry_group_IT_number 12
_symmetry_cell_setting 'monoclinic'
loop_
_space_group_symop_operation_xyz
x,y,z
-x,y,-z
-x,-y,-z
x,-y,z
1/2+x,1/2+y,z
1/2-x,1/2+y,-z
1/2-x,1/2-y,-z
1/2+x,1/2-y,z
loop_
_atom_site_type_symbol
_atom_site_label
_atom_site_fract_x
_atom_site_fract_y
_atom_site_fract_z
Si Si1 0.588215 0.203105 0.048932
Si Si2 0.500000 0.000000 0.000000
Si Si3 0.738631 0.651650 0.508744
Si Si4 0.927841 0.156098 0.865956
Si Si5 0.082937 0.073673 0.684834
Si Si6 0.112541 0.428275 0.161305
Si Si7 0.264454 0.423497 0.062996
Si Si8 0.586844 0.878654 0.668410
O O1 0.701165 0.207813 0.711814
O O2 0.562457 0.267973 0.189221
O O3 0.600710 0.137140 0.104055
O O4 0.484935 0.185435 0.188948
O O5 0.481444 0.942987 0.155377
O O6 0.646211 0.659446 0.830319
O O7 0.690229 0.602541 0.508333
O O8 0.836016 0.623591 0.376473
O O9 0.868698 0.115133 0.882697
O O10 0.033900 0.119561 0.679977
O O11 0.093469 0.000000 0.612949
O O12 0.000000 0.072485 0.000000
O O13 0.122866 0.500000 0.073692
O O14 0.219515 0.420982 0.013353
O O15 0.000000 0.430942 0.500000
O O16 0.275142 0.500000 0.076028
O O17 0.166574 0.390222 0.365283
#
# Coordination Sequence:
#
# PCOD9203434 Si02
#       8
#     8   2   8   8   8   8   8   8
#     4  12  23  37  57  88 125 154 189 238 298 367
#     4  12  20  32  52  90 122 152 184 242 302 360
#     4  10  22  36  54  87 120 157 189 237 293 354
#     4  10  23  38  59  84 118 160 198 238 293 352
#     4   9  19  36  57  82 114 154 202 242 279 341
#     4  10  22  39  62  89 118 154 196 249 299 354
#     4  10  20  39  63  85 112 152 201 246 295 345
#     4  11  22  32  57  87 121 151 187 241 298 358
#
# _framework density 22.889315
#
# number of rings (size 3 to 8) (size 9 to 14) (size 15 to 20)
#    0.000    1.655    3.448    0.828    1.931    8.276 
#    0.000    0.000    0.000    0.000    0.000    2.897 
#    0.000    0.000    0.000    0.000    0.000    0.000 
#
# Total GULP energy -161560.009456 kJ/mol
# GULP energy per Si atom -5571.034809 kJ/mol
# Density = 2.283722 g / cm^3
# Si number density = 22.889315 Si / 1000 Ang^3
#
#
#
# Elastic Constant Matrix: (Units=GPa)
#
#
# Indices 1 2 3 4 5 6 
#
# 1 109.0585 51.2460 8.0277 0.0001 -26.5856 -0.0001
# 2 51.2460 129.3927 12.9029 -0.0001 -20.2110 0.0001
# 3 8.0277 12.9029 43.4600 -0.0003 -12.0731 0.0005
# 4 0.0001 -0.0001 -0.0003 -22.6387 0.0000 78.0600
# 5 -26.5856 -20.2110 -12.0731 0.0000 25.1661 0.0001
# 6 -0.0001 0.0001 0.0005 78.0600 0.0001 -106.0941
#
#
#
# Elastic Compliance Matrix: (Units=1/GPa)
#
#
# Indices 1 2 3 4 5 6 
#
# 1 0.013841 -0.003715 0.002053 0.000000 0.012623 0.000000
# 2 -0.003715 0.009855 -0.001305 0.000000 0.003364 0.000000
# 3 0.002053 -0.001305 0.026916 0.000000 0.014033 0.000000
# 4 0.000000 0.000000 0.000000 0.028740 0.000000 0.021146
# 5 0.012623 0.003364 0.014033 0.000000 0.062506 0.000000
# 6 0.000000 0.000000 0.000000 0.021146 0.000000 0.006133
#
#
# Mechanical properties :
#
#
# Convention : Reuss Voigt Hill
#
# Bulk Modulus (GPa) = 22.38198 47.36274 34.87236
# Shear Modulus (GPa) = 29.61776 -6.73104 11.44336
#
# Velocity S-wave (km/s) = 3.60106 -1.71670 2.23837
# Velocity P-wave (km/s) = 5.20478 4.09970 4.68494
#
# Compressibility (1/GPa) = 0.04467880
#
# Stress axis : x y z
#
# Youngs Moduli (GPa) = 72.24906 101.46826 37.15214
#
# Poissons Ratio (x) = 0.37692 -0.07627
# Poissons Ratio (y) = 0.26838 0.04849
# Poissons Ratio (z) = -0.14832 0.13243
#
# Static dielectric constant tensor:
#      x y z
#    x 1.914780 0.000000 0.074220 
#    y 0.000000 1.825790 0.000000 
#    z 0.074220 0.000000 1.984000 
# 
# From -- ./inp_files/184439.got.cif
#   From: 2010.05.17/outbox.cif.g08.bks.cpg/sg12_93_cif.got.tgz:184439.got - 2010.06.03 13:09:07.
