data_PCOD9203614
_publ_section_title
;
Structure prediction by ZEFSAII (Michael W. Deem and Ramdas Pophale) SiO2 
 PCOD9203614
Probable space group: C 2/M
;
_chemical_formula_sum "Si O2"
_cell_formula_units_Z 48
_cell_length_a 13.215080
_cell_length_b 21.862407
_cell_length_c 12.129565
_cell_angle_alpha 90.000000
_cell_angle_beta 42.634976
_cell_angle_gamma 90.000000
_cell_volume 2373.614717
_symmetry_space_group_name_H-M "C 2/M"
_symmetry_group_IT_number 12
_symmetry_cell_setting 'monoclinic'
loop_
_space_group_symop_operation_xyz
x,y,z
-x,y,-z
-x,-y,-z
x,-y,z
1/2+x,1/2+y,z
1/2-x,1/2+y,-z
1/2-x,1/2-y,-z
1/2+x,1/2-y,z
loop_
_atom_site_type_symbol
_atom_site_label
_atom_site_fract_x
_atom_site_fract_y
_atom_site_fract_z
Si Si1 0.854980 0.149727 0.678594
Si Si2 0.680422 0.187294 0.605985
Si Si3 0.361363 0.233255 0.811223
Si Si4 0.199131 0.930138 0.622110
Si Si5 0.176023 0.132004 0.869004
Si Si6 0.340156 0.569676 0.885636
O O1 0.742495 0.175494 0.678292
O O2 0.911604 0.204983 0.710503
O O3 0.784843 0.102056 0.819603
O O4 0.000000 0.123450 0.500000
O O5 0.750000 0.250000 0.500000
O O6 0.503787 0.197900 0.742900
O O7 0.724201 0.126137 0.502800
O O8 0.275386 0.192457 0.789890
O O9 0.250000 0.250000 0.000000
O O10 0.212844 0.914136 0.740868
O O11 0.021863 0.928082 0.737248
O O12 0.250547 0.000000 0.558187
O O13 0.203055 0.103101 0.967181
O O14 0.000000 0.147141 0.000000
O O15 0.292651 0.500000 0.928878
#
# Coordination Sequence:
#
# PCOD9203614 Si02
#       6
#     8   8   8   8   8   8
#     4  12  23  40  66  97 127 166 212 264 331 382
#     4  12  25  42  66  97 137 168 216 277 327 394
#     4  12  26  42  65  95 129 170 214 267 333 392
#     4  10  21  39  67  98 132 176 221 270 328 384
#     4  10  22  40  65  95 130 170 220 270 321 386
#     4  10  20  39  64  96 129 171 222 264 309 388
#
# _framework density 20.222321999999998
#
# number of rings (size 3 to 8) (size 9 to 14) (size 15 to 20)
#    0.000    1.000    5.000    1.500    4.667    3.000 
#    0.000    2.500    0.000    1.000    0.000    0.000 
#    0.000    0.000    0.000    0.000    0.000    0.000 
#
# Total GULP energy -134116.931463 kJ/mol
# GULP energy per Si atom -5588.205478 kJ/mol
# Density = 2.017630 g / cm^3
# Si number density = 20.222322 Si / 1000 Ang^3
#
#
#
# Elastic Constant Matrix: (Units=GPa)
#
#
# Indices 1 2 3 4 5 6 
#
# 1 80.0675 13.5243 27.1853 0.0000 13.2521 0.0000
# 2 13.5243 103.0397 26.2355 0.0000 0.1285 0.0000
# 3 27.1853 26.2355 59.0274 0.0000 10.4612 0.0000
# 4 0.0000 0.0000 0.0000 26.2435 0.0000 2.3946
# 5 13.2521 0.1285 10.4612 0.0000 31.2351 -0.0001
# 6 0.0000 0.0000 0.0000 2.3946 -0.0001 26.6520
#
#
#
# Elastic Compliance Matrix: (Units=1/GPa)
#
#
# Indices 1 2 3 4 5 6 
#
# 1 0.015374 -0.000464 -0.006079 0.000000 -0.004485 0.000000
# 2 -0.000464 0.011041 -0.005018 0.000000 0.001832 0.000000
# 3 -0.006079 -0.005018 0.022868 0.000000 -0.005059 0.000000
# 4 0.000000 0.000000 0.000000 0.038420 0.000000 -0.003452
# 5 -0.004485 0.001832 -0.005059 0.000000 0.035605 0.000000
# 6 0.000000 0.000000 0.000000 -0.003452 0.000000 0.037831
#
#
# Mechanical properties :
#
#
# Convention : Reuss Voigt Hill
#
# Bulk Modulus (GPa) = 38.22693 41.78053 40.00373
# Shear Modulus (GPa) = 25.90894 28.50543 27.20718
#
# Velocity S-wave (km/s) = 3.58328 3.75854 3.67195
# Velocity P-wave (km/s) = 6.00535 6.28816 6.14838
#
# Compressibility (1/GPa) = 0.02615957
#
# Stress axis : x y z
#
# Youngs Moduli (GPa) = 65.04342 90.56812 43.72878
#
# Poissons Ratio (x) = 0.04206 0.26585
# Poissons Ratio (y) = 0.03021 0.21945
# Poissons Ratio (z) = 0.39543 0.45450
#
# Static dielectric constant tensor:
#      x y z
#    x 1.705940 0.000000 0.003610 
#    y 0.000000 1.720220 0.000000 
#    z 0.003610 0.000000 1.718870 
# 
# From -- ./inp_files/51429.got.cif
#   From: 2010.05.17/outbox.cif.g08.bks.cpg/sg12_26_cif.got.tgz:51429.got - 2010.06.03 13:09:07.
