data_PCOD9203182
_publ_section_title
;
Structure prediction by ZEFSAII (Michael W. Deem and Ramdas Pophale) SiO2 
 PCOD9203182
Probable space group: C 2/M
;
_chemical_formula_sum "Si O2"
_cell_formula_units_Z 36
_cell_length_a 11.710133
_cell_length_b 8.625576
_cell_length_c 21.163427
_cell_angle_alpha 90.000000
_cell_angle_beta 55.605482
_cell_angle_gamma 90.000000
_cell_volume 1763.916688
_symmetry_space_group_name_H-M "C 2/M"
_symmetry_group_IT_number 12
_symmetry_cell_setting 'monoclinic'
loop_
_space_group_symop_operation_xyz
x,y,z
-x,y,-z
-x,-y,-z
x,-y,z
1/2+x,1/2+y,z
1/2-x,1/2+y,-z
1/2-x,1/2-y,-z
1/2+x,1/2-y,z
loop_
_atom_site_type_symbol
_atom_site_label
_atom_site_fract_x
_atom_site_fract_y
_atom_site_fract_z
Si Si1 0.796147 0.748716 0.134062
Si Si2 0.923297 0.000000 0.311085
Si Si3 0.413254 0.500000 0.857790
Si Si4 0.988068 0.500000 0.927511
Si Si5 0.171710 0.000000 0.978878
Si Si6 0.392977 0.000000 0.590222
Si Si7 0.435979 0.170105 0.699187
O O1 0.682034 0.641711 0.135095
O O2 0.845741 0.856231 0.061953
O O3 0.708532 0.823440 0.217650
O O4 0.923333 0.648950 0.121090
O O5 0.765278 0.000000 0.380952
O O6 0.949364 0.000000 0.227039
O O7 0.990899 0.835716 0.311787
O O8 0.422877 0.500000 0.929726
O O9 0.831071 0.500000 0.954044
O O10 0.000000 0.500000 0.000000
O O11 0.500000 0.000000 0.500000
O O12 0.414258 0.855382 0.631369
O O13 0.501550 0.000000 0.698549
#
# Coordination Sequence:
#
# PCOD9203182 Si02
#       7
#     8   4   4   4   4   4   8
#     4  10  20  39  56  84 121 158 208 255 298 361
#     4  10  21  43  66  88 130 172 195 258 332 359
#     4   9  20  33  57  83 112 156 205 245 294 359
#     4  11  24  37  56  86 118 166 213 258 310 349
#     4  12  20  38  58  77 121 160 205 259 302 347
#     4  10  23  44  68 100 129 154 210 263 309 401
#     4   9  21  44  62  96 131 160 214 262 307 392
#
# _framework density 20.409127000000002
#
# number of rings (size 3 to 8) (size 9 to 14) (size 15 to 20)
#    0.667    1.333    3.333    1.333    0.000    4.444 
#    2.000    3.333    0.000    0.000    0.000    0.000 
#    0.000    0.000    0.000    0.000    0.000    0.000 
#
# Total GULP energy -100407.589112 kJ/mol
# GULP energy per Si atom -5578.199395 kJ/mol
# Density = 2.036268 g / cm^3
# Si number density = 20.409127 Si / 1000 Ang^3
#
#
#
# Elastic Constant Matrix: (Units=GPa)
#
#
# Indices 1 2 3 4 5 6 
#
# 1 95.1481 40.5960 31.1343 0.0000 -8.8866 0.0000
# 2 40.5960 133.8175 23.4213 0.0000 0.4166 0.0000
# 3 31.1343 23.4213 109.3489 0.0000 12.4306 0.0000
# 4 0.0000 0.0000 0.0000 -108.5808 0.0000 -73.9215
# 5 -8.8866 0.4166 12.4306 0.0000 29.7558 0.0000
# 6 0.0000 0.0000 0.0000 -73.9215 0.0000 -31.3375
#
#
#
# Elastic Compliance Matrix: (Units=1/GPa)
#
#
# Indices 1 2 3 4 5 6 
#
# 1 0.013812 -0.003538 -0.003832 0.000000 0.005775 0.000000
# 2 -0.003538 0.008681 -0.000754 0.000000 -0.000863 0.000000
# 3 -0.003832 -0.000754 0.011051 0.000000 -0.005750 0.000000
# 4 0.000000 0.000000 0.000000 0.015200 0.000000 -0.035854
# 5 0.005775 -0.000863 -0.005750 0.000000 0.037746 0.000000
# 6 0.000000 0.000000 0.000000 -0.035854 0.000000 0.052665
#
#
# Mechanical properties :
#
#
# Convention : Reuss Voigt Hill
#
# Bulk Modulus (GPa) = 57.80988 58.73530 58.27259
# Shear Modulus (GPa) = 31.02376 -5.82163 12.60107
#
# Velocity S-wave (km/s) = 3.90307 -1.69076 2.48750
# Velocity P-wave (km/s) = 6.97846 5.00299 6.07160
#
# Compressibility (1/GPa) = 0.01729808
#
# Stress axis : x y z
#
# Youngs Moduli (GPa) = 72.39849 115.19783 90.48830
#
# Poissons Ratio (x) = 0.40753 0.34671
# Poissons Ratio (y) = 0.25612 0.06822
# Poissons Ratio (z) = 0.27740 0.08685
#
# Static dielectric constant tensor:
#      x y z
#    x 1.742670 0.000000 -0.008870 
#    y 0.000000 2.127150 0.000000 
#    z -0.008870 0.000000 1.690790 
# 
# From -- ./inp_files/334594.got.cif
#   From: 2010.05.17/outbox.cif.g08.bks.cpg/sg12_168_cif.got.tgz:334594.got - 2010.06.03 13:09:07.
