data_PCOD9203942
_publ_section_title
;
Structure prediction by ZEFSAII (Michael W. Deem and Ramdas Pophale) SiO2 
 PCOD9203942
Probable space group: C 2/M
;
_chemical_formula_sum "Si O2"
_cell_formula_units_Z 44
_cell_length_a 14.131189
_cell_length_b 11.851487
_cell_length_c 12.879699
_cell_angle_alpha 90.000000
_cell_angle_beta 65.826661
_cell_angle_gamma 90.000000
_cell_volume 1967.886570
_symmetry_space_group_name_H-M "C 2/M"
_symmetry_group_IT_number 12
_symmetry_cell_setting 'monoclinic'
loop_
_space_group_symop_operation_xyz
x,y,z
-x,y,-z
-x,-y,-z
x,-y,z
1/2+x,1/2+y,z
1/2-x,1/2+y,-z
1/2-x,1/2-y,-z
1/2+x,1/2-y,z
loop_
_atom_site_type_symbol
_atom_site_label
_atom_site_fract_x
_atom_site_fract_y
_atom_site_fract_z
Si Si1 0.372508 0.740763 0.968914
Si Si2 0.797267 0.500000 0.800701
Si Si3 0.181939 0.212282 0.777178
Si Si4 0.569998 0.363174 0.624255
Si Si5 0.442929 0.000000 0.910527
Si Si6 0.904857 0.000000 0.961123
Si Si7 0.351694 0.366013 0.633062
O O1 0.381951 0.718618 0.088288
O O2 0.416339 0.863720 0.926832
O O3 0.409222 0.621152 0.901984
O O4 0.250000 0.750000 0.000000
O O5 0.764662 0.610532 0.751804
O O6 0.710319 0.500000 0.933951
O O7 0.910858 0.500000 0.798543
O O8 0.113512 0.190953 0.707955
O O9 0.248292 0.324093 0.732967
O O10 0.571076 0.500000 0.635500
O O11 0.454745 0.325022 0.644995
O O12 0.639533 0.333633 0.491987
O O13 0.500000 0.000000 0.000000
O O14 0.000000 0.000000 0.000000
O O15 0.356664 0.500000 0.633517
#
# Coordination Sequence:
#
# PCOD9203942 Si02
#       7
#     8   4   8   8   4   4   8
#     4  11  22  41  58  84 121 150 195 247 284 344
#     4  10  22  40  56  85 115 150 197 235 280 347
#     4  11  20  36  62  82 115 151 191 230 287 341
#     4   9  18  37  60  84 113 148 189 232 283 342
#     4  12  24  42  60  79 117 164 189 243 304 331
#     4  10  20  40  62  82 106 152 203 238 280 343
#     4   9  20  36  58  89 115 141 187 240 285 335
#
# _framework density 22.359012
#
# number of rings (size 3 to 8) (size 9 to 14) (size 15 to 20)
#    0.000    1.818    4.545    2.182    1.273    1.455 
#    6.545    0.000    2.000    1.091    0.000    0.000 
#    0.000    0.000    0.000    0.000    0.000    0.000 
#
# Total GULP energy -122509.710126 kJ/mol
# GULP energy per Si atom -5568.623188 kJ/mol
# Density = 2.230812 g / cm^3
# Si number density = 22.359012 Si / 1000 Ang^3
#
#
#
# Elastic Constant Matrix: (Units=GPa)
#
#
# Indices 1 2 3 4 5 6 
#
# 1 59.8564 22.7593 24.0199 0.0000 21.9502 0.0000
# 2 22.7593 137.2618 9.4515 0.0000 15.0602 0.0000
# 3 24.0199 9.4515 85.5847 0.0000 23.5300 0.0000
# 4 0.0000 0.0000 0.0000 27.2280 0.0000 8.1137
# 5 21.9502 15.0602 23.5300 0.0000 42.5025 0.0000
# 6 0.0000 0.0000 0.0000 8.1137 0.0000 37.5171
#
#
#
# Elastic Compliance Matrix: (Units=1/GPa)
#
#
# Indices 1 2 3 4 5 6 
#
# 1 0.022262 -0.002498 -0.003603 0.000000 -0.008618 0.000000
# 2 -0.002498 0.007861 0.000288 0.000000 -0.001655 0.000000
# 3 -0.003603 0.000288 0.014367 0.000000 -0.006195 0.000000
# 4 0.000000 0.000000 0.000000 0.039257 0.000000 -0.008490
# 5 -0.008618 -0.001655 -0.006195 0.000000 0.031995 0.000000
# 6 0.000000 0.000000 0.000000 -0.008490 0.000000 0.028491
#
#
# Mechanical properties :
#
#
# Convention : Reuss Voigt Hill
#
# Bulk Modulus (GPa) = 30.42758 43.90715 37.16736
# Shear Modulus (GPa) = 29.97359 36.54766 33.26063
#
# Velocity S-wave (km/s) = 3.66534 4.04738 3.86109
# Velocity P-wave (km/s) = 5.61704 6.44373 6.04454
#
# Compressibility (1/GPa) = 0.03286492
#
# Stress axis : x y z
#
# Youngs Moduli (GPa) = 44.91872 127.20622 69.60420
#
# Poissons Ratio (x) = 0.31772 0.25078
# Poissons Ratio (y) = 0.11219 -0.02004
# Poissons Ratio (z) = 0.16184 -0.03662
#
# Static dielectric constant tensor:
#      x y z
#    x 1.906940 0.000000 -0.015310 
#    y 0.000000 1.840550 0.000000 
#    z -0.015310 0.000000 1.844430 
# 
# From -- ./inp_files/212006.got.cif
#   From: 2010.05.17/outbox.cif.g08.bks.cpg/sg12_107_cif.got.tgz:212006.got - 2010.06.03 13:09:07.
