data_PCOD9203056
_publ_section_title
;
Structure prediction by ZEFSAII (Michael W. Deem and Ramdas Pophale) SiO2 
 PCOD9203056
Probable space group: C 2/M
;
_chemical_formula_sum "Si O2"
_cell_formula_units_Z 44
_cell_length_a 13.104626
_cell_length_b 27.519475
_cell_length_c 5.123500
_cell_angle_alpha 90.000000
_cell_angle_beta 98.772353
_cell_angle_gamma 90.000000
_cell_volume 1826.086006
_symmetry_space_group_name_H-M "C 2/M"
_symmetry_group_IT_number 12
_symmetry_cell_setting 'monoclinic'
loop_
_space_group_symop_operation_xyz
x,y,z
-x,y,-z
-x,-y,-z
x,-y,z
1/2+x,1/2+y,z
1/2-x,1/2+y,-z
1/2-x,1/2-y,-z
1/2+x,1/2-y,z
loop_
_atom_site_type_symbol
_atom_site_label
_atom_site_fract_x
_atom_site_fract_y
_atom_site_fract_z
Si Si1 0.000000 0.308685 0.000000
Si Si2 0.938224 0.558382 0.719756
Si Si3 0.799546 0.688273 0.671321
Si Si4 0.601776 0.267868 0.647082
Si Si5 0.109518 0.058066 0.908895
Si Si6 0.219275 0.906109 0.457878
O O1 0.098935 0.335477 0.160752
O O2 0.942336 0.272969 0.179626
O O3 0.946134 0.500000 0.715762
O O4 0.818554 0.569143 0.629119
O O5 0.000000 0.580015 0.500000
O O6 0.000000 0.573080 0.000000
O O7 0.698035 0.702273 0.799228
O O8 0.847954 0.736967 0.568668
O O9 0.750807 0.650383 0.449042
O O10 0.500000 0.295375 0.500000
O O11 0.191287 0.072211 0.166696
O O12 0.112364 0.000000 0.862079
O O13 0.131733 0.084656 0.643653
O O14 0.000000 0.070231 0.000000
#
# Coordination Sequence:
#
# PCOD9203056 Si02
#       6
#     4   8   8   8   8   8
#     4  10  20  38  66  90 125 182 217 268 334 406
#     4  10  21  37  59  88 126 169 211 257 319 390
#     4  10  23  38  63  93 135 169 223 275 335 400
#     4   9  20  41  62  90 127 176 220 271 337 399
#     4  11  25  47  71  96 132 178 226 278 340 402
#     4  12  25  41  69 101 134 172 222 284 333 396
#
# _framework density 24.095254000000001
#
# number of rings (size 3 to 8) (size 9 to 14) (size 15 to 20)
#    0.000    1.636    0.000    3.818    3.818    6.545 
#    1.636    0.000    0.000    0.000    0.000    0.000 
#    0.000    0.000    0.000    0.000    0.000    0.000 
#
# Total GULP energy -122837.473388 kJ/mol
# GULP energy per Si atom -5583.521518 kJ/mol
# Density = 2.404041 g / cm^3
# Si number density = 24.095254 Si / 1000 Ang^3
#
#
#
# Elastic Constant Matrix: (Units=GPa)
#
#
# Indices 1 2 3 4 5 6 
#
# 1 143.4662 22.6840 22.9951 0.0000 9.8740 0.0000
# 2 22.6840 35.7562 -0.8287 0.0000 13.5904 0.0000
# 3 22.9951 -0.8287 79.5728 0.0000 5.9720 0.0000
# 4 0.0000 0.0000 0.0000 30.7992 0.0000 34.6364
# 5 9.8740 13.5904 5.9720 0.0000 31.8059 0.0000
# 6 0.0000 0.0000 0.0000 34.6364 0.0000 17.1460
#
#
#
# Elastic Compliance Matrix: (Units=1/GPa)
#
#
# Indices 1 2 3 4 5 6 
#
# 1 0.008190 -0.005324 -0.002436 0.000000 0.000190 0.000000
# 2 -0.005324 0.037015 0.003030 0.000000 -0.014732 0.000000
# 3 -0.002436 0.003030 0.013534 0.000000 -0.003079 0.000000
# 4 0.000000 0.000000 0.000000 -0.025530 0.000000 0.051573
# 5 0.000190 -0.014732 -0.003079 0.000000 0.038255 0.000000
# 6 0.000000 0.000000 0.000000 0.051573 0.000000 -0.045860
#
#
# Mechanical properties :
#
#
# Convention : Reuss Voigt Hill
#
# Bulk Modulus (GPa) = 20.29374 38.72179 29.50777
# Shear Modulus (GPa) = 97.10607 30.21320 63.65964
#
# Velocity S-wave (km/s) = 6.35519 3.54490 5.14561
# Velocity P-wave (km/s) = 7.89251 5.73238 6.89754
#
# Compressibility (1/GPa) = 0.04927627
#
# Stress axis : x y z
#
# Youngs Moduli (GPa) = 122.10705 27.01638 73.88897
#
# Poissons Ratio (x) = 0.14384 0.18002
# Poissons Ratio (y) = 0.65012 -0.22386
# Poissons Ratio (z) = 0.29749 -0.08185
#
# Static dielectric constant tensor:
#      x y z
#    x 2.038720 0.000000 0.014150 
#    y 0.000000 1.936550 0.000000 
#    z 0.014150 0.000000 1.960020 
# 
# From -- ./inp_files/8491.got.cif
#   From: 2010.05.17/outbox.cif.g08.bks.cpg/sg12_5_cif.got.tgz:8491.got - 2010.06.03 13:09:07.
