data_PCOD9203260
_publ_section_title
;
Structure prediction by ZEFSAII (Michael W. Deem and Ramdas Pophale) SiO2 
 PCOD9203260
Probable space group: C 2/M
;
_chemical_formula_sum "Si O2"
_cell_formula_units_Z 44
_cell_length_a 7.493944
_cell_length_b 14.493551
_cell_length_c 16.287084
_cell_angle_alpha 90.000000
_cell_angle_beta 76.224195
_cell_angle_gamma 90.000000
_cell_volume 1718.117543
_symmetry_space_group_name_H-M "C 2/M"
_symmetry_group_IT_number 12
_symmetry_cell_setting 'monoclinic'
loop_
_space_group_symop_operation_xyz
x,y,z
-x,y,-z
-x,-y,-z
x,-y,z
1/2+x,1/2+y,z
1/2-x,1/2+y,-z
1/2-x,1/2-y,-z
1/2+x,1/2-y,z
loop_
_atom_site_type_symbol
_atom_site_label
_atom_site_fract_x
_atom_site_fract_y
_atom_site_fract_z
Si Si1 0.816909 0.858956 0.311730
Si Si2 0.215555 0.639915 0.497644
Si Si3 0.752837 0.778350 0.094984
Si Si4 0.928908 0.101700 0.859132
Si Si5 0.954494 0.344691 0.252204
Si Si6 0.246916 0.000000 0.355332
O O1 0.828488 0.888812 0.403993
O O2 0.610623 0.872957 0.302452
O O3 0.953254 0.908176 0.235667
O O4 0.869728 0.752397 0.290433
O O5 0.250000 0.750000 0.500000
O O6 0.267639 0.581327 0.571037
O O7 0.000000 0.625580 0.500000
O O8 0.732318 0.676077 0.136841
O O9 0.582513 0.831227 0.157062
O O10 0.926784 0.841737 0.098216
O O11 0.750000 0.750000 0.000000
O O12 0.877201 0.000000 0.896162
O O13 0.802588 0.421150 0.280196
#
# Coordination Sequence:
#
# PCOD9203260 Si02
#       6
#     8   8   8   8   8   4
#     4  10  20  39  60  89 122 166 199 258 310 366
#     4  12  23  37  62  86 125 160 210 255 296 368
#     4  10  22  40  65  96 126 162 212 271 320 388
#     4  10  23  41  69  94 130 171 211 262 332 394
#     4  10  22  38  64  83 126 157 207 251 316 371
#     4  12  23  36  61  96 117 166 214 246 313 369
#
# _framework density 25.609423
#
# number of rings (size 3 to 8) (size 9 to 14) (size 15 to 20)
#    0.000    1.455    3.636    0.818    6.364    1.455 
#    0.000    1.364   26.000    2.182    0.000    0.000 
#    0.000    0.000    0.000    0.000    0.000    0.000 
#
# Total GULP energy -122574.204583 kJ/mol
# GULP energy per Si atom -5571.554754 kJ/mol
# Density = 2.555113 g / cm^3
# Si number density = 25.609423 Si / 1000 Ang^3
#
#
#
# Elastic Constant Matrix: (Units=GPa)
#
#
# Indices 1 2 3 4 5 6 
#
# 1 121.0542 7.7461 0.6824 0.0000 6.4388 0.0000
# 2 7.7461 199.3202 33.7441 0.0000 4.8354 0.0000
# 3 0.6824 33.7441 213.3455 0.0000 -5.7700 0.0000
# 4 0.0000 0.0000 0.0000 31.2813 0.0000 1.2629
# 5 6.4388 4.8354 -5.7700 0.0000 12.6393 0.0000
# 6 0.0000 0.0000 0.0000 1.2629 0.0000 -15.6635
#
#
#
# Elastic Compliance Matrix: (Units=1/GPa)
#
#
# Indices 1 2 3 4 5 6 
#
# 1 0.008504 -0.000207 -0.000111 0.000000 -0.004303 0.000000
# 2 -0.000207 0.005231 -0.000889 0.000000 -0.002302 0.000000
# 3 -0.000111 -0.000889 0.004899 0.000000 0.002633 0.000000
# 4 0.000000 0.000000 0.000000 0.031864 0.000000 0.002569
# 5 -0.004303 -0.002302 0.002633 0.000000 0.083393 0.000000
# 6 0.000000 0.000000 0.000000 0.002569 0.000000 -0.063636
#
#
# Mechanical properties :
#
#
# Convention : Reuss Voigt Hill
#
# Bulk Modulus (GPa) = 61.65176 68.67391 65.16283
# Shear Modulus (GPa) = 64.03914 38.42125 51.23020
#
# Velocity S-wave (km/s) = 5.00603 3.87754 4.47748
# Velocity P-wave (km/s) = 7.58551 6.84991 7.22707
#
# Compressibility (1/GPa) = 0.01622014
#
# Stress axis : x y z
#
# Youngs Moduli (GPa) = 117.59812 191.15142 204.10596
#
# Poissons Ratio (x) = 0.03963 0.02261
# Poissons Ratio (y) = 0.02438 0.18146
# Poissons Ratio (z) = 0.01303 0.16994
#
# Static dielectric constant tensor:
#      x y z
#    x 2.236750 0.000000 0.186320 
#    y 0.000000 2.019670 0.000000 
#    z 0.186320 0.000000 2.204130 
# 
# From -- ./inp_files/255284.got.cif
#   From: 2010.05.17/outbox.cif.g08.bks.cpg/sg12_128_cif.got.tgz:255284.got - 2010.06.03 13:09:07.
