data_PCOD9203885
_publ_section_title
;
Structure prediction by ZEFSAII (Michael W. Deem and Ramdas Pophale) SiO2 
 PCOD9203885
Probable space group: C 2/M
;
_chemical_formula_sum "Si O2"
_cell_formula_units_Z 64
_cell_length_a 23.159770
_cell_length_b 9.142629
_cell_length_c 18.193870
_cell_angle_alpha 90.000000
_cell_angle_beta 85.123666
_cell_angle_gamma 90.000000
_cell_volume 3838.447831
_symmetry_space_group_name_H-M "C 2/M"
_symmetry_group_IT_number 12
_symmetry_cell_setting 'monoclinic'
loop_
_space_group_symop_operation_xyz
x,y,z
-x,y,-z
-x,-y,-z
x,-y,z
1/2+x,1/2+y,z
1/2-x,1/2+y,-z
1/2-x,1/2-y,-z
1/2+x,1/2-y,z
loop_
_atom_site_type_symbol
_atom_site_label
_atom_site_fract_x
_atom_site_fract_y
_atom_site_fract_z
Si Si1 0.343328 0.322662 0.713499
Si Si2 0.190033 0.826822 0.027719
Si Si3 0.500309 0.325440 0.087583
Si Si4 0.791922 0.676157 0.251446
Si Si5 0.827659 0.168699 0.552160
Si Si6 0.812118 0.331015 0.409240
Si Si7 0.368519 0.671066 0.122631
Si Si8 0.891675 0.324841 0.847046
O O1 0.348957 0.500000 0.717947
O O2 0.276279 0.285799 0.740570
O O3 0.352894 0.278808 0.627327
O O4 0.383769 0.241066 0.766662
O O5 0.159827 0.745261 0.098466
O O6 0.197734 0.000000 0.042707
O O7 0.250000 0.750000 0.000000
O O8 0.148932 0.812870 0.960791
O O9 0.511601 0.500000 0.096166
O O10 0.435995 0.291063 0.123634
O O11 0.549314 0.233047 0.122553
O O12 0.500000 0.298460 0.000000
O O13 0.794460 0.500000 0.251502
O O14 0.819791 0.728653 0.325868
O O15 0.826155 0.737941 0.178806
O O16 0.840269 0.251690 0.475489
O O17 0.757740 0.173381 0.571258
O O18 0.843905 0.000000 0.541555
O O19 0.829658 0.500000 0.408220
O O20 0.361253 0.500000 0.141507
O O21 0.888553 0.500000 0.847755
#
# Coordination Sequence:
#
# PCOD9203885 Si02
#       8
#     8   8   8   8   8   8   8   8
#     4   9  18  33  50  70 102 141 171 201 245 297
#     4  11  22  37  53  74 102 133 166 202 247 301
#     4  10  20  40  60  71  90 127 167 211 261 302
#     4   9  18  31  48  72 104 137 166 199 244 296
#     4   8  14  25  43  67  94 129 171 203 233 281
#     4   8  14  25  41  65  98 133 163 194 239 289
#     4  10  21  35  53  73  94 125 167 207 249 296
#     4  12  24  35  51  77 101 128 167 210 253 299
#
# _framework density 16.673406
#
# number of rings (size 3 to 8) (size 9 to 14) (size 15 to 20)
#    0.000    2.375    1.250    3.750    0.000    5.250 
#    0.000    2.500    0.000    0.000    0.000    0.875 
#    0.000    7.000    0.000    0.000    0.000    0.000 
#
# Total GULP energy -178413.209379 kJ/mol
# GULP energy per Si atom -5575.412793 kJ/mol
# Density = 1.663546 g / cm^3
# Si number density = 16.673406 Si / 1000 Ang^3
#
#
#
# Elastic Constant Matrix: (Units=GPa)
#
#
# Indices 1 2 3 4 5 6 
#
# 1 46.6345 25.6715 10.5249 0.0000 19.8583 0.0000
# 2 25.6715 56.7669 38.6574 0.0000 19.6793 0.0000
# 3 10.5249 38.6574 84.0711 0.0000 28.5284 0.0000
# 4 0.0000 0.0000 0.0000 28.5515 0.0000 0.6780
# 5 19.8583 19.6793 28.5284 0.0000 20.6324 0.0000
# 6 0.0000 0.0000 0.0000 0.6780 0.0000 20.2735
#
#
#
# Elastic Compliance Matrix: (Units=1/GPa)
#
#
# Indices 1 2 3 4 5 6 
#
# 1 0.056824 -0.017948 0.026166 0.000000 -0.073753 0.000000
# 2 -0.017948 0.034191 -0.015581 0.000000 0.006207 0.000000
# 3 0.026166 -0.015581 0.036335 0.000000 -0.060563 0.000000
# 4 0.000000 0.000000 0.000000 0.035052 0.000000 -0.001172
# 5 -0.073753 0.006207 -0.060563 0.000000 0.197273 0.000000
# 6 0.000000 0.000000 0.000000 -0.001172 0.000000 0.049365
#
#
# Mechanical properties :
#
#
# Convention : Reuss Voigt Hill
#
# Bulk Modulus (GPa) = 8.87915 37.46446 23.17180
# Shear Modulus (GPa) = 10.83876 21.39940 16.11908
#
# Velocity S-wave (km/s) = 2.55240 3.58641 3.11264
# Velocity P-wave (km/s) = 3.74476 6.29826 5.18128
#
# Compressibility (1/GPa) = 0.11262345
#
# Stress axis : x y z
#
# Youngs Moduli (GPa) = 17.59813 29.24721 27.52202
#
# Poissons Ratio (x) = 0.52494 -0.72014
# Poissons Ratio (y) = 0.31586 0.42882
# Poissons Ratio (z) = -0.46047 0.45570
#
# Static dielectric constant tensor:
#      x y z
#    x 1.548090 0.000000 0.017460 
#    y 0.000000 1.556930 0.000000 
#    z 0.017460 0.000000 1.579690 
# 
# From -- ./inp_files/281232.got.cif
#   From: 2010.05.17/outbox.cif.g08.bks.cpg/sg12_141_cif.got.tgz:281232.got - 2010.06.03 13:09:07.
