data_PCOD9203032
_publ_section_title
;
Structure prediction by ZEFSAII (Michael W. Deem and Ramdas Pophale) SiO2 
 PCOD9203032
Probable space group: C 2/M
;
_chemical_formula_sum "Si O2"
_cell_formula_units_Z 46
_cell_length_a 8.490700
_cell_length_b 26.585850
_cell_length_c 13.844307
_cell_angle_alpha 90.000000
_cell_angle_beta 137.977010
_cell_angle_gamma 90.000000
_cell_volume 2092.038253
_symmetry_space_group_name_H-M "C 2/M"
_symmetry_group_IT_number 12
_symmetry_cell_setting 'monoclinic'
loop_
_space_group_symop_operation_xyz
x,y,z
-x,y,-z
-x,-y,-z
x,-y,z
1/2+x,1/2+y,z
1/2-x,1/2+y,-z
1/2-x,1/2-y,-z
1/2+x,1/2-y,z
loop_
_atom_site_type_symbol
_atom_site_label
_atom_site_fract_x
_atom_site_fract_y
_atom_site_fract_z
Si Si1 0.821750 0.188939 0.705533
Si Si2 0.778444 0.554423 0.971289
Si Si3 0.073877 0.294114 0.315748
Si Si4 0.500000 0.000000 0.500000
Si Si5 0.123141 0.917137 0.362208
Si Si6 0.000000 0.872071 0.500000
Si Si7 0.334061 0.164942 0.019625
O O1 0.832303 0.237227 0.641316
O O2 0.619666 0.197273 0.691120
O O3 0.789505 0.136970 0.634838
O O4 0.076535 0.183494 0.872443
O O5 0.765067 0.500000 0.016309
O O6 0.549350 0.561484 0.799511
O O7 0.808607 0.606544 0.042392
O O8 0.000000 0.552631 0.000000
O O9 0.277516 0.335540 0.410494
O O10 0.948064 0.302316 0.154845
O O11 0.331571 0.955991 0.470754
O O12 0.982312 0.905893 0.396265
O O13 0.500000 0.165709 0.000000
#
# Coordination Sequence:
#
# PCOD9203032 Si02
#       7
#     8   8   8   2   8   4   8
#     4  11  24  42  68  94 133 172 222 279 331 389
#     4   9  17  35  63  91 121 162 212 267 320 371
#     4  12  24  41  64  98 134 176 218 270 334 398
#     4  12  24  44  66  88 134 168 220 264 330 380
#     4  11  24  43  65  95 127 176 219 271 327 388
#     4  12  26  42  66  96 134 170 226 266 324 410
#     4  10  20  38  65  95 132 170 219 274 330 391
#
# _framework density 21.988123999999999
#
# number of rings (size 3 to 8) (size 9 to 14) (size 15 to 20)
#    0.000    1.217    0.870    7.304    0.000    3.826 
#    0.000    0.000    7.652    2.087    0.000    0.000 
#    0.000    0.000    0.000    0.000    0.000    0.000 
#
# Total GULP energy -128473.117728 kJ/mol
# GULP energy per Si atom -5585.787727 kJ/mol
# Density = 2.193808 g / cm^3
# Si number density = 21.988124 Si / 1000 Ang^3
#
#
#
# Elastic Constant Matrix: (Units=GPa)
#
#
# Indices 1 2 3 4 5 6 
#
# 1 135.3275 48.2319 24.3546 0.0000 17.0566 0.0000
# 2 48.2319 167.5717 17.3412 0.0000 -3.8287 0.0000
# 3 24.3546 17.3412 55.3992 0.0000 10.8583 0.0000
# 4 0.0000 0.0000 0.0000 18.8019 0.0000 15.5562
# 5 17.0566 -3.8287 10.8583 0.0000 31.2714 0.0000
# 6 0.0000 0.0000 0.0000 15.5562 0.0000 45.9021
#
#
#
# Elastic Compliance Matrix: (Units=1/GPa)
#
#
# Indices 1 2 3 4 5 6 
#
# 1 0.009297 -0.002531 -0.002404 0.000000 -0.004546 0.000000
# 2 -0.002531 0.006925 -0.001601 0.000000 0.002784 0.000000
# 3 -0.002404 -0.001601 0.020806 0.000000 -0.006109 0.000000
# 4 0.000000 0.000000 0.000000 0.073910 0.000000 -0.025048
# 5 -0.004546 0.002784 -0.006109 0.000000 0.036920 0.000000
# 6 0.000000 0.000000 0.000000 -0.025048 0.000000 0.030274
#
#
# Mechanical properties :
#
#
# Convention : Reuss Voigt Hill
#
# Bulk Modulus (GPa) = 41.74125 59.79489 50.76807
# Shear Modulus (GPa) = 25.10157 37.08647 31.09402
#
# Velocity S-wave (km/s) = 3.38242 4.11135 3.76457
# Velocity P-wave (km/s) = 5.85483 7.05626 6.48344
#
# Compressibility (1/GPa) = 0.02395712
#
# Stress axis : x y z
#
# Youngs Moduli (GPa) = 107.55912 144.39604 48.06282
#
# Poissons Ratio (x) = 0.36548 0.11554
# Poissons Ratio (y) = 0.27224 0.07694
# Poissons Ratio (z) = 0.25856 0.23115
#
# Static dielectric constant tensor:
#      x y z
#    x 1.752980 0.000000 -0.002230 
#    y 0.000000 1.814630 0.000000 
#    z -0.002230 0.000000 1.824880 
# 
# From -- ./inp_files/200250.got.cif
#   From: 2010.05.17/outbox.cif.g08.bks.cpg/sg12_101_cif.got.tgz:200250.got - 2010.06.03 13:09:07.
