data_PCOD9203904
_publ_section_title
;
Structure prediction by ZEFSAII (Michael W. Deem and Ramdas Pophale) SiO2 
 PCOD9203904
Probable space group: C 2/M
;
_chemical_formula_sum "Si O2"
_cell_formula_units_Z 48
_cell_length_a 17.479693
_cell_length_b 15.637792
_cell_length_c 20.927186
_cell_angle_alpha 90.000000
_cell_angle_beta 25.270797
_cell_angle_gamma 90.000000
_cell_volume 2441.986044
_symmetry_space_group_name_H-M "C 2/M"
_symmetry_group_IT_number 12
_symmetry_cell_setting 'monoclinic'
loop_
_space_group_symop_operation_xyz
x,y,z
-x,y,-z
-x,-y,-z
x,-y,z
1/2+x,1/2+y,z
1/2-x,1/2+y,-z
1/2-x,1/2-y,-z
1/2+x,1/2-y,z
loop_
_atom_site_type_symbol
_atom_site_label
_atom_site_fract_x
_atom_site_fract_y
_atom_site_fract_z
Si Si1 0.725886 0.212130 0.948216
Si Si2 0.173899 0.903416 0.226813
Si Si3 0.494280 0.167403 0.331780
Si Si4 0.297290 0.404741 0.184077
Si Si5 0.807473 0.822789 0.540058
Si Si6 0.188514 0.722189 0.768813
O O1 0.783984 0.118732 0.879188
O O2 0.854852 0.269224 0.808116
O O3 0.750000 0.250000 0.000000
O O4 0.520881 0.222129 0.086210
O O5 0.272763 0.837591 0.199735
O O6 0.966388 0.885307 0.399055
O O7 0.224303 0.000000 0.203213
O O8 0.622199 0.098668 0.269516
O O9 0.368232 0.147342 0.366297
O O10 0.367081 0.226458 0.472943
O O11 0.301195 0.500000 0.210753
O O12 0.263741 0.321005 0.252787
O O13 0.500000 0.393729 0.000000
O O14 0.781041 0.816010 0.635743
#
# Coordination Sequence:
#
# PCOD9203904 Si02
#       6
#     8   8   8   8   8   8
#     4  11  21  40  68  90 123 166 215 259 313 367
#     4  11  25  43  64  96 133 167 205 259 320 381
#     4  10  20  40  60  90 123 170 210 256 313 375
#     4  11  22  38  62  92 126 165 211 265 318 370
#     4  10  22  37  66  90 128 168 209 254 317 377
#     4  12  21  39  67  95 125 167 212 263 316 374
#
# _framework density 19.656133000000001
#
# number of rings (size 3 to 8) (size 9 to 14) (size 15 to 20)
#    0.000    1.167    6.667    1.000    0.000    3.333 
#    0.000    3.333    0.000    0.000    0.000    0.000 
#    0.000    0.000    0.000    0.000    0.000    0.000 
#
# Total GULP energy -133654.619522 kJ/mol
# GULP energy per Si atom -5568.942480 kJ/mol
# Density = 1.961139 g / cm^3
# Si number density = 19.656133 Si / 1000 Ang^3
#
#
#
# Elastic Constant Matrix: (Units=GPa)
#
#
# Indices 1 2 3 4 5 6 
#
# 1 117.6499 43.8242 61.7616 -0.0068 -7.3795 0.0012
# 2 43.8242 105.2766 19.1071 -0.0081 2.4331 0.0009
# 3 61.7616 19.1071 58.0246 -0.0103 -10.7859 0.0034
# 4 -0.0068 -0.0081 -0.0103 10.2639 0.0053 -0.1186
# 5 -7.3795 2.4331 -10.7859 0.0053 45.1650 -0.0008
# 6 0.0012 0.0009 0.0034 -0.1186 -0.0008 7.1328
#
#
#
# Elastic Compliance Matrix: (Units=1/GPa)
#
#
# Indices 1 2 3 4 5 6 
#
# 1 0.021659 -0.005057 -0.021641 -0.000011 -0.001357 0.000007
# 2 -0.005057 0.011369 0.001435 0.000008 -0.001096 -0.000001
# 3 -0.021641 0.001435 0.040942 0.000025 0.006164 -0.000015
# 4 -0.000011 0.000008 0.000025 0.097447 -0.000008 0.001621
# 5 -0.001357 -0.001096 0.006164 -0.000008 0.023450 0.000000
# 6 0.000007 -0.000001 -0.000015 0.001621 0.000000 0.140224
#
#
# Mechanical properties :
#
#
# Convention : Reuss Voigt Hill
#
# Bulk Modulus (GPa) = 42.65388 58.92632 50.79010
# Shear Modulus (GPa) = 12.70869 22.92957 17.81913
#
# Velocity S-wave (km/s) = 2.54549 3.41916 3.01415
# Velocity P-wave (km/s) = 5.51240 6.75509 6.16514
#
# Compressibility (1/GPa) = 0.02344452
#
# Stress axis : x y z
#
# Youngs Moduli (GPa) = 46.16990 87.96045 24.42480
#
# Poissons Ratio (x) = 0.44483 0.52858
# Poissons Ratio (y) = 0.23349 -0.03506
# Poissons Ratio (z) = 0.99916 -0.12626
#
# Static dielectric constant tensor:
#      x y z
#    x 1.826610 0.000000 -0.000640 
#    y 0.000000 1.727090 0.000000 
#    z -0.000640 0.000000 1.711900 
# 
# From -- ./inp_files/271614.got.cif
#   From: 2010.05.17/outbox.cif.g08.bks.cpg/sg12_136_cif.got.tgz:271614.got - 2010.06.03 13:09:07.
