data_PCOD9203181
_publ_section_title
;
Structure prediction by ZEFSAII (Michael W. Deem and Ramdas Pophale) SiO2 
 PCOD9203181
Probable space group: C 2/M
;
_chemical_formula_sum "Si O2"
_cell_formula_units_Z 64
_cell_length_a 9.663275
_cell_length_b 29.585672
_cell_length_c 15.519880
_cell_angle_alpha 90.000000
_cell_angle_beta 51.898839
_cell_angle_gamma 90.000000
_cell_volume 3491.613061
_symmetry_space_group_name_H-M "C 2/M"
_symmetry_group_IT_number 12
_symmetry_cell_setting 'monoclinic'
loop_
_space_group_symop_operation_xyz
x,y,z
-x,y,-z
-x,-y,-z
x,-y,z
1/2+x,1/2+y,z
1/2-x,1/2+y,-z
1/2-x,1/2-y,-z
1/2+x,1/2-y,z
loop_
_atom_site_type_symbol
_atom_site_label
_atom_site_fract_x
_atom_site_fract_y
_atom_site_fract_z
Si Si1 0.746210 0.401334 0.901243
Si Si2 0.165581 0.821656 0.810477
Si Si3 0.550351 0.232367 0.077229
Si Si4 0.470378 0.378954 0.741420
Si Si5 0.557416 0.864728 0.877186
Si Si6 0.482769 0.446780 0.139592
Si Si7 0.600246 0.317250 0.549588
Si Si8 0.013562 0.281611 0.598649
O O1 0.687508 0.351601 0.888479
O O2 0.700288 0.432742 0.836798
O O3 0.942687 0.398354 0.862223
O O4 0.627166 0.420464 0.025164
O O5 0.356183 0.810648 0.697936
O O6 0.074098 0.773437 0.851631
O O7 0.039451 0.848985 0.794826
O O8 0.499819 0.184661 0.138503
O O9 0.500000 0.221621 0.000000
O O10 0.750000 0.250000 0.000000
O O11 0.266514 0.370888 0.797119
O O12 0.501796 0.428522 0.769024
O O13 0.581806 0.359801 0.619110
O O14 0.500000 0.870626 0.000000
O O15 0.509998 0.500000 0.122832
O O16 0.500000 0.325980 0.500000
O O17 0.799394 0.303530 0.452331
O O18 0.517535 0.271391 0.624694
O O19 0.000000 0.280551 0.500000
#
# Coordination Sequence:
#
# PCOD9203181 Si02
#       8
#     8   8   8   8   8   8   8   8
#     4  10  21  35  60  83 115 151 198 240 287 355
#     4  11  22  35  56  81 115 172 208 245 276 333
#     4  11  23  32  47  75 120 167 203 231 271 338
#     4  11  22  37  59  83 118 151 197 243 304 358
#     4  11  21  35  48  82 121 158 192 234 285 345
#     4  10  22  42  66  86 110 147 191 249 304 375
#     4  10  22  37  58  84 118 159 202 258 296 338
#     4  10  20  39  56  81 118 162 219 251 281 327
#
# _framework density 18.329637999999999
#
# number of rings (size 3 to 8) (size 9 to 14) (size 15 to 20)
#    0.000    1.500    2.500    3.750    8.750    1.000 
#    0.000    1.875    0.000    0.375    0.000    7.875 
#    0.000    0.000    0.000    0.000    0.000    0.000 
#
# Total GULP energy -178440.979808 kJ/mol
# GULP energy per Si atom -5576.280619 kJ/mol
# Density = 1.828792 g / cm^3
# Si number density = 18.329638 Si / 1000 Ang^3
#
#
#
# Elastic Constant Matrix: (Units=GPa)
#
#
# Indices 1 2 3 4 5 6 
#
# 1 135.5167 42.2993 24.8298 0.0000 -5.4368 0.0000
# 2 42.2993 93.1252 39.3438 0.0000 -1.3845 0.0000
# 3 24.8298 39.3438 44.3312 0.0000 -1.8239 0.0000
# 4 0.0000 0.0000 0.0000 12.7336 0.0000 14.7370
# 5 -5.4368 -1.3845 -1.8239 0.0000 24.6576 0.0000
# 6 0.0000 0.0000 0.0000 14.7370 0.0000 -64.1961
#
#
#
# Elastic Compliance Matrix: (Units=1/GPa)
#
#
# Indices 1 2 3 4 5 6 
#
# 1 0.008793 -0.003067 -0.002136 0.000000 0.001608 0.000000
# 2 -0.003067 0.018251 -0.014509 0.000000 -0.000725 0.000000
# 3 -0.002136 -0.014509 0.036690 0.000000 0.001428 0.000000
# 4 0.000000 0.000000 0.000000 0.062047 0.000000 0.014244
# 5 0.001608 -0.000725 0.001428 0.000000 0.040975 0.000000
# 6 0.000000 0.000000 0.000000 0.014244 0.000000 -0.012307
#
#
# Mechanical properties :
#
#
# Convention : Reuss Voigt Hill
#
# Bulk Modulus (GPa) = 41.14006 53.99100 47.56553
# Shear Modulus (GPa) = 24.75548 5.73904 15.24726
#
# Velocity S-wave (km/s) = 3.67900 1.77139 2.88729
# Velocity P-wave (km/s) = 6.36710 5.80545 6.09275
#
# Compressibility (1/GPa) = 0.02430721
#
# Stress axis : x y z
#
# Youngs Moduli (GPa) = 113.73311 54.79293 27.25571
#
# Poissons Ratio (x) = 0.16806 0.05823
# Poissons Ratio (y) = 0.34885 0.39546
# Poissons Ratio (z) = 0.24297 0.79500
#
# Static dielectric constant tensor:
#      x y z
#    x 1.658520 0.000000 0.011520 
#    y 0.000000 1.733700 0.000000 
#    z 0.011520 0.000000 1.657010 
# 
# From -- ./inp_files/200892.got.cif
#   From: 2010.05.17/outbox.cif.g08.bks.cpg/sg12_101_cif.got.tgz:200892.got - 2010.06.03 13:09:07.
