data_PCOD9203534
_publ_section_title
;
Structure prediction by ZEFSAII (Michael W. Deem and Ramdas Pophale) SiO2 
 PCOD9203534
Probable space group: C 2/M
;
_chemical_formula_sum "Si O2"
_cell_formula_units_Z 56
_cell_length_a 20.352306
_cell_length_b 8.998541
_cell_length_c 16.550461
_cell_angle_alpha 90.000000
_cell_angle_beta 91.972120
_cell_angle_gamma 90.000000
_cell_volume 3029.273641
_symmetry_space_group_name_H-M "C 2/M"
_symmetry_group_IT_number 12
_symmetry_cell_setting 'monoclinic'
loop_
_space_group_symop_operation_xyz
x,y,z
-x,y,-z
-x,-y,-z
x,-y,z
1/2+x,1/2+y,z
1/2-x,1/2+y,-z
1/2-x,1/2-y,-z
1/2+x,1/2-y,z
loop_
_atom_site_type_symbol
_atom_site_label
_atom_site_fract_x
_atom_site_fract_y
_atom_site_fract_z
Si Si1 0.678633 0.678884 0.482613
Si Si2 0.630681 0.322448 0.301555
Si Si3 0.881823 0.178006 0.352937
Si Si4 0.256786 0.324496 0.236419
Si Si5 0.506990 0.178145 0.752058
Si Si6 0.305686 0.676168 0.056751
Si Si7 0.946281 0.321140 0.065036
O O1 0.686351 0.500000 0.484882
O O2 0.750000 0.750000 0.500000
O O3 0.649197 0.720380 0.394544
O O4 0.630405 0.719363 0.554458
O O5 0.623487 0.500000 0.297886
O O6 0.691969 0.269441 0.250412
O O7 0.563923 0.245863 0.270328
O O8 0.813582 0.210397 0.303530
O O9 0.940310 0.260423 0.309863
O O10 0.893082 0.000000 0.348196
O O11 0.240898 0.500000 0.243098
O O12 0.286441 0.298232 0.149359
O O13 0.529940 0.220319 0.843768
O O14 0.504311 0.000000 0.748130
O O15 0.307676 0.500000 0.042853
O O16 0.376667 0.746562 0.044244
O O17 0.250000 0.750000 0.000000
O O18 0.938645 0.500000 0.062629
O O19 0.000000 0.279904 0.000000
#
# Coordination Sequence:
#
# PCOD9203534 Si02
#       7
#     8   8   8   8   8   8   8
#     4  10  21  37  60  89 120 157 198 248 301 353
#     4  11  24  39  60  91 124 158 201 248 297 355
#     4  10  20  39  64  87 118 159 201 246 300 356
#     4  10  21  39  63  88 120 160 199 244 298 353
#     4  11  24  41  62  88 121 160 202 247 301 358
#     4  11  24  41  63  93 124 157 199 246 297 354
#     4  10  23  43  64  87 119 159 199 246 302 357
#
# _framework density 18.486280000000001
#
# number of rings (size 3 to 8) (size 9 to 14) (size 15 to 20)
#    0.000    1.571    2.857    1.286    2.000    4.286 
#    0.000    2.857    0.000    0.000    0.000    0.000 
#    0.000    0.000    0.000    0.000    0.000    0.000 
#
# Total GULP energy -156487.617740 kJ/mol
# GULP energy per Si atom -5588.843491 kJ/mol
# Density = 1.844420 g / cm^3
# Si number density = 18.486280 Si / 1000 Ang^3
#
#
#
# Elastic Constant Matrix: (Units=GPa)
#
#
# Indices 1 2 3 4 5 6 
#
# 1 169.1171 64.8619 69.2122 0.0000 -6.2730 0.0000
# 2 64.8619 38.5572 41.1685 0.0000 -4.8067 0.0000
# 3 69.2122 41.1685 84.6851 0.0000 -6.9134 0.0000
# 4 0.0000 0.0000 0.0000 28.3892 0.0000 -2.0511
# 5 -6.2730 -4.8067 -6.9134 0.0000 32.5773 0.0000
# 6 0.0000 0.0000 0.0000 -2.0511 0.0000 43.1190
#
#
#
# Elastic Compliance Matrix: (Units=1/GPa)
#
#
# Indices 1 2 3 4 5 6 
#
# 1 0.016694 -0.028176 -0.000024 0.000000 -0.000948 0.000000
# 2 -0.028176 0.101671 -0.026068 0.000000 0.004044 0.000000
# 3 -0.000024 -0.026068 0.024613 0.000000 0.001372 0.000000
# 4 0.000000 0.000000 0.000000 0.035346 0.000000 0.001681
# 5 -0.000948 0.004044 0.001372 0.000000 0.031402 0.000000
# 6 0.000000 0.000000 0.000000 0.001681 0.000000 0.023272
#
#
# Mechanical properties :
#
#
# Convention : Reuss Voigt Hill
#
# Bulk Modulus (GPa) = 29.03417 71.42718 50.23067
# Shear Modulus (GPa) = 14.16377 28.62488 21.39432
#
# Velocity S-wave (km/s) = 2.77099 3.93929 3.40561
# Velocity P-wave (km/s) = 5.09684 7.70795 6.53415
#
# Compressibility (1/GPa) = 0.03444218
#
# Stress axis : x y z
#
# Youngs Moduli (GPa) = 59.90180 9.83565 40.62928
#
# Poissons Ratio (x) = 0.27712 0.00098
# Poissons Ratio (y) = 1.68777 1.05913
# Poissons Ratio (z) = 0.00144 0.25640
#
# Static dielectric constant tensor:
#      x y z
#    x 1.589360 0.000000 -0.001780 
#    y 0.000000 1.620650 0.000000 
#    z -0.001780 0.000000 1.640490 
# 
# From -- ./inp_files/231015.got.cif
#   From: 2010.05.17/outbox.cif.g08.bks.cpg/sg12_116_cif.got.tgz:231015.got - 2010.06.03 13:09:07.
