data_PCOD9203141
_publ_section_title
;
Structure prediction by ZEFSAII (Michael W. Deem and Ramdas Pophale) SiO2 
 PCOD9203141
Probable space group: C 2/M
;
_chemical_formula_sum "Si O2"
_cell_formula_units_Z 44
_cell_length_a 13.149835
_cell_length_b 30.254299
_cell_length_c 5.512859
_cell_angle_alpha 90.000000
_cell_angle_beta 103.898162
_cell_angle_gamma 90.000000
_cell_volume 2129.021926
_symmetry_space_group_name_H-M "C 2/M"
_symmetry_group_IT_number 12
_symmetry_cell_setting 'monoclinic'
loop_
_space_group_symop_operation_xyz
x,y,z
-x,y,-z
-x,-y,-z
x,-y,z
1/2+x,1/2+y,z
1/2-x,1/2+y,-z
1/2-x,1/2-y,-z
1/2+x,1/2-y,z
loop_
_atom_site_type_symbol
_atom_site_label
_atom_site_fract_x
_atom_site_fract_y
_atom_site_fract_z
Si Si1 0.000000 0.278101 0.000000
Si Si2 0.959801 0.550802 0.728225
Si Si3 0.803141 0.682206 0.615671
Si Si4 0.657693 0.249449 0.750601
Si Si5 0.123926 0.052506 0.032989
Si Si6 0.231622 0.918384 0.595481
O O1 0.098814 0.306103 0.152414
O O2 0.953578 0.247340 0.184923
O O3 0.000140 0.500000 0.750568
O O4 0.835300 0.551648 0.665040
O O5 0.000000 0.571685 0.500000
O O6 0.000000 0.572261 0.000000
O O7 0.697320 0.710883 0.604771
O O8 0.840443 0.702425 0.382549
O O9 0.773614 0.631619 0.612778
O O10 0.750000 0.250000 0.000000
O O11 0.176204 0.071430 0.307718
O O12 0.146171 0.000000 0.033417
O O13 0.164328 0.073028 0.801315
O O14 0.000000 0.058471 0.000000
#
# Coordination Sequence:
#
# PCOD9203141 Si02
#       6
#     4   8   8   8   8   8
#     4  10  20  38  68  92 129 180 221 262 338 408
#     4  10  21  37  58  91 134 177 216 257 323 400
#     4  10  23  39  64  96 135 170 223 276 333 403
#     4   9  20  41  62  88 128 175 218 268 327 402
#     4  11  25  48  72  97 132 181 232 285 350 409
#     4  12  25  41  72 102 137 174 228 291 338 401
#
# _framework density 20.666768000000001
#
# number of rings (size 3 to 8) (size 9 to 14) (size 15 to 20)
#    0.000    1.636    0.000    3.818    6.364    4.364 
#    1.636    5.455    0.000    0.000    0.000    0.000 
#    0.000    0.000    0.000    0.000    0.000    0.000 
#
# Total GULP energy -122728.747285 kJ/mol
# GULP energy per Si atom -5578.579422 kJ/mol
# Density = 2.061973 g / cm^3
# Si number density = 20.666768 Si / 1000 Ang^3
#
#
#
# Elastic Constant Matrix: (Units=GPa)
#
#
# Indices 1 2 3 4 5 6 
#
# 1 115.5331 42.5476 51.6841 0.0000 -23.8244 0.0000
# 2 42.5476 72.9701 30.8266 0.0000 0.2959 0.0000
# 3 51.6841 30.8266 153.4278 0.0000 -12.8803 0.0000
# 4 0.0000 0.0000 0.0000 15.2214 0.0000 9.6111
# 5 -23.8244 0.2959 -12.8803 0.0000 50.1355 0.0000
# 6 0.0000 0.0000 0.0000 9.6111 0.0000 11.5564
#
#
#
# Elastic Compliance Matrix: (Units=1/GPa)
#
#
# Indices 1 2 3 4 5 6 
#
# 1 0.013564 -0.006783 -0.002721 0.000000 0.005787 0.000000
# 2 -0.006783 0.018405 -0.001730 0.000000 -0.003776 0.000000
# 3 -0.002721 -0.001730 0.007843 0.000000 0.000732 0.000000
# 4 0.000000 0.000000 0.000000 0.138349 0.000000 -0.115060
# 5 0.005787 -0.003776 0.000732 0.000000 0.022906 0.000000
# 6 0.000000 0.000000 0.000000 -0.115060 0.000000 0.182224
#
#
# Mechanical properties :
#
#
# Convention : Reuss Voigt Hill
#
# Bulk Modulus (GPa) = 57.65243 65.78308 61.71775
# Shear Modulus (GPa) = 12.14946 29.84083 20.99515
#
# Velocity S-wave (km/s) = 2.42724 3.80400 3.19076
# Velocity P-wave (km/s) = 5.98432 7.15495 6.59566
#
# Compressibility (1/GPa) = 0.01734532
#
# Stress axis : x y z
#
# Youngs Moduli (GPa) = 73.72545 54.33160 127.49791
#
# Poissons Ratio (x) = 0.36853 0.34686
# Poissons Ratio (y) = 0.50008 0.22058
# Poissons Ratio (z) = 0.20057 0.09400
#
# Static dielectric constant tensor:
#      x y z
#    x 1.705420 0.000000 0.020820 
#    y 0.000000 1.735180 0.000000 
#    z 0.020820 0.000000 1.733940 
# 
# From -- ./inp_files/8492.got.cif
#   From: 2010.05.17/outbox.cif.g08.bks.cpg/sg12_5_cif.got.tgz:8492.got - 2010.06.03 13:09:07.
