data_PCOD9203252
_publ_section_title
;
Structure prediction by ZEFSAII (Michael W. Deem and Ramdas Pophale) SiO2 
 PCOD9203252
Probable space group: C 2/M
;
_chemical_formula_sum "Si O2"
_cell_formula_units_Z 34
_cell_length_a 13.094909
_cell_length_b 14.320971
_cell_length_c 14.455504
_cell_angle_alpha 90.000000
_cell_angle_beta 146.390837
_cell_angle_gamma 90.000000
_cell_volume 1500.531891
_symmetry_space_group_name_H-M "C 2/M"
_symmetry_group_IT_number 12
_symmetry_cell_setting 'monoclinic'
loop_
_space_group_symop_operation_xyz
x,y,z
-x,y,-z
-x,-y,-z
x,-y,z
1/2+x,1/2+y,z
1/2-x,1/2+y,-z
1/2-x,1/2-y,-z
1/2+x,1/2-y,z
loop_
_atom_site_type_symbol
_atom_site_label
_atom_site_fract_x
_atom_site_fract_y
_atom_site_fract_z
Si Si1 0.761052 0.606357 0.991067
Si Si2 0.500000 0.000000 0.500000
Si Si3 0.357529 0.319720 0.466460
Si Si4 0.944635 0.634622 0.628774
Si Si5 0.006071 0.229068 0.108068
O O1 0.748733 0.500000 0.947607
O O2 0.869437 0.680695 0.009152
O O3 0.882694 0.608525 0.176951
O O4 0.569193 0.652010 0.877519
O O5 0.552421 0.920734 0.462813
O O6 0.500000 0.361552 0.500000
O O7 0.234847 0.382144 0.442460
O O8 0.451062 0.243132 0.603867
O O9 0.203993 0.264568 0.290127
O O10 0.000000 0.191086 0.000000
#
# Coordination Sequence:
#
# PCOD9203252 Si02
#       5
#     8   2   8   8   8
#     4  10  21  41  60  88 121 150 204 255 298 357
#     4  12  20  36  62  98 114 150 196 262 302 364
#     4  10  20  39  60  86 123 164 198 242 299 371
#     4  10  21  35  64  90 118 155 199 249 309 348
#     4  10  22  37  63  87 116 162 198 244 305 356
#
# _framework density 22.658632000000001
#
# number of rings (size 3 to 8) (size 9 to 14) (size 15 to 20)
#    0.000    1.882    2.353    1.412    0.000    2.824 
#    2.118    0.588    0.000    0.000    0.000    0.000 
#    0.000    0.000    0.000    0.000    0.000    0.000 
#
# Total GULP energy -94753.100607 kJ/mol
# GULP energy per Si atom -5573.711800 kJ/mol
# Density = 2.260706 g / cm^3
# Si number density = 22.658632 Si / 1000 Ang^3
#
#
#
# Elastic Constant Matrix: (Units=GPa)
#
#
# Indices 1 2 3 4 5 6 
#
# 1 166.4466 2.4676 30.8777 -0.0001 3.8055 0.0005
# 2 2.4676 65.4369 0.1442 0.0007 1.5362 0.0005
# 3 30.8777 0.1442 58.0470 0.0011 7.3464 -0.0002
# 4 -0.0001 0.0007 0.0011 -0.4652 0.0005 -15.1387
# 5 3.8055 1.5362 7.3464 0.0005 24.2771 0.0003
# 6 0.0005 0.0005 -0.0002 -15.1387 0.0003 69.2077
#
#
#
# Elastic Compliance Matrix: (Units=1/GPa)
#
#
# Indices 1 2 3 4 5 6 
#
# 1 0.006670 -0.000245 -0.003553 -0.000001 0.000045 0.000000
# 2 -0.000245 0.015314 0.000218 0.000003 -0.000997 0.000001
# 3 -0.003553 0.000218 0.019807 0.000005 -0.005451 0.000001
# 4 -0.000001 0.000003 0.000005 -0.264779 0.000005 -0.057919
# 5 0.000045 -0.000997 -0.005451 0.000005 0.042897 0.000001
# 6 0.000000 0.000001 0.000001 -0.057919 0.000001 0.001780
#
#
# Mechanical properties :
#
#
# Convention : Reuss Voigt Hill
#
# Bulk Modulus (GPa) = 28.87541 39.65661 34.26601
# Shear Modulus (GPa) = -31.32649 35.69998 2.18674
#
# Velocity S-wave (km/s) = -3.72229 3.97364 0.98345
# Velocity P-wave (km/s) = 2.38800 6.21231 4.05526
#
# Compressibility (1/GPa) = 0.03463154
#
# Stress axis : x y z
#
# Youngs Moduli (GPa) = 149.93302 65.29952 50.48799
#
# Poissons Ratio (x) = 0.01598 0.17938
# Poissons Ratio (y) = 0.03670 -0.01102
# Poissons Ratio (z) = 0.53271 -0.01426
#
# Static dielectric constant tensor:
#      x y z
#    x 1.832030 0.000000 0.037190 
#    y 0.000000 1.836220 0.000000 
#    z 0.037190 0.000000 1.868390 
# 
# From -- ./inp_files/204782.got.cif
#   From: 2010.05.17/outbox.cif.g08.bks.cpg/sg12_103_cif.got.tgz:204782.got - 2010.06.03 13:09:07.
