data_PCOD9203016
_publ_section_title
;
Structure prediction by ZEFSAII (Michael W. Deem and Ramdas Pophale) SiO2 
 PCOD9203016
Probable space group: C 2/M
;
_chemical_formula_sum "Si O2"
_cell_formula_units_Z 56
_cell_length_a 15.449587
_cell_length_b 21.886812
_cell_length_c 15.054339
_cell_angle_alpha 90.000000
_cell_angle_beta 32.640292
_cell_angle_gamma 90.000000
_cell_volume 2745.631791
_symmetry_space_group_name_H-M "C 2/M"
_symmetry_group_IT_number 12
_symmetry_cell_setting 'monoclinic'
loop_
_space_group_symop_operation_xyz
x,y,z
-x,y,-z
-x,-y,-z
x,-y,z
1/2+x,1/2+y,z
1/2-x,1/2+y,-z
1/2-x,1/2-y,-z
1/2+x,1/2-y,z
loop_
_atom_site_type_symbol
_atom_site_label
_atom_site_fract_x
_atom_site_fract_y
_atom_site_fract_z
Si Si1 0.601670 0.171268 0.332293
Si Si2 0.148174 0.069907 0.940231
Si Si3 0.664594 0.573632 0.312912
Si Si4 0.279518 0.816023 0.514088
Si Si5 0.128953 0.230453 0.812151
Si Si6 0.744399 0.072498 0.961546
Si Si7 0.401093 0.135082 0.242223
O O1 0.500000 0.143174 0.500000
O O2 0.725819 0.121142 0.194696
O O3 0.466269 0.186671 0.379892
O O4 0.700169 0.229168 0.284343
O O5 0.208042 0.000000 0.877984
O O6 0.136721 0.079347 0.056855
O O7 0.000000 0.075019 0.000000
O O8 0.500000 0.595917 0.500000
O O9 0.664291 0.500000 0.316088
O O10 0.678730 0.592457 0.198019
O O11 0.816098 0.597329 0.237733
O O12 0.250000 0.750000 0.500000
O O13 0.165120 0.817740 0.700274
O O14 0.282651 0.863930 0.430718
O O15 0.085840 0.295433 0.806196
O O16 0.000000 0.215372 0.000000
O O17 0.707411 0.000000 0.987369
O O18 0.575003 0.107960 0.116762
#
# Coordination Sequence:
#
# PCOD9203016 Si02
#       7
#     8   8   8   8   8   8   8
#     4  10  20  39  60  82 124 166 203 259 313 365
#     4  10  21  39  64  92 124 162 208 263 321 377
#     4  10  22  39  58  89 128 161 199 256 316 374
#     4   9  20  37  57  86 121 157 205 259 307 369
#     4  10  21  37  60  86 122 166 209 257 311 373
#     4  10  20  38  65  93 124 162 206 258 315 379
#     4  11  20  38  63  91 123 162 215 254 309 381
#
# _framework density 20.396034
#
# number of rings (size 3 to 8) (size 9 to 14) (size 15 to 20)
#    0.000    2.000    1.429    2.143    0.000    4.286 
#    7.714    2.857    0.000    0.000    0.000    0.000 
#    0.000    0.000    0.000    0.000    0.000    0.000 
#
# Total GULP energy -155982.947499 kJ/mol
# GULP energy per Si atom -5570.819554 kJ/mol
# Density = 2.034961 g / cm^3
# Si number density = 20.396034 Si / 1000 Ang^3
#
#
#
# Elastic Constant Matrix: (Units=GPa)
#
#
# Indices 1 2 3 4 5 6 
#
# 1 148.8150 35.2783 51.7372 -0.0004 7.6042 -0.0102
# 2 35.2783 48.5326 29.9208 -0.0013 -5.2044 -0.0167
# 3 51.7372 29.9208 119.6100 0.0008 28.6063 -0.0183
# 4 -0.0004 -0.0013 0.0008 22.7349 -0.0047 -0.6578
# 5 7.6042 -5.2044 28.6063 -0.0047 37.3143 0.0076
# 6 -0.0102 -0.0167 -0.0183 -0.6578 0.0076 15.8480
#
#
#
# Elastic Compliance Matrix: (Units=1/GPa)
#
#
# Indices 1 2 3 4 5 6 
#
# 1 0.008761 -0.004960 -0.002396 0.000000 -0.000641 -0.000002
# 2 -0.004960 0.030560 -0.008278 0.000005 0.011619 0.000014
# 3 -0.002396 -0.008278 0.014237 -0.000003 -0.011581 0.000012
# 4 0.000000 0.000005 -0.000003 0.044038 0.000008 0.001828
# 5 -0.000641 0.011619 -0.011581 0.000008 0.037429 -0.000019
# 6 -0.000002 0.000014 0.000012 0.001828 -0.000019 0.063175
#
#
# Mechanical properties :
#
#
# Convention : Reuss Voigt Hill
#
# Bulk Modulus (GPa) = 44.86209 61.20335 53.03272
# Shear Modulus (GPa) = 21.10605 28.51418 24.81012
#
# Velocity S-wave (km/s) = 3.22034 3.74307 3.49150
# Velocity P-wave (km/s) = 5.98921 6.98237 6.50477
#
# Compressibility (1/GPa) = 0.02229054
#
# Stress axis : x y z
#
# Youngs Moduli (GPa) = 114.13897 32.72275 70.23832
#
# Poissons Ratio (x) = 0.16232 0.16826
# Poissons Ratio (y) = 0.56617 0.58143
# Poissons Ratio (z) = 0.27343 0.27088
#
# Static dielectric constant tensor:
#      x y z
#    x 1.779080 -0.000010 0.026790 
#    y -0.000010 1.714520 0.000010 
#    z 0.026790 0.000010 1.753110 
# 
# From -- ./inp_files/218657.got.cif
#   From: 2010.05.17/outbox.cif.g08.bks.cpg/sg12_110_cif.got.tgz:218657.got - 2010.06.03 13:09:07.
