data_PCOD9203608
_publ_section_title
;
Structure prediction by ZEFSAII (Michael W. Deem and Ramdas Pophale) SiO2 
 PCOD9203608
Probable space group: C 2/M
;
_chemical_formula_sum "Si O2"
_cell_formula_units_Z 46
_cell_length_a 14.300858
_cell_length_b 19.593559
_cell_length_c 13.994022
_cell_angle_alpha 90.000000
_cell_angle_beta 151.351837
_cell_angle_gamma 90.000000
_cell_volume 1879.935425
_symmetry_space_group_name_H-M "C 2/M"
_symmetry_group_IT_number 12
_symmetry_cell_setting 'monoclinic'
loop_
_space_group_symop_operation_xyz
x,y,z
-x,y,-z
-x,-y,-z
x,-y,z
1/2+x,1/2+y,z
1/2-x,1/2+y,-z
1/2-x,1/2-y,-z
1/2+x,1/2-y,z
loop_
_atom_site_type_symbol
_atom_site_label
_atom_site_fract_x
_atom_site_fract_y
_atom_site_fract_z
Si Si1 0.193505 0.855654 0.766763
Si Si2 0.209955 0.500000 0.900624
Si Si3 0.389941 0.854665 0.750363
Si Si4 0.283126 0.383989 0.836408
Si Si5 0.580101 0.233048 0.770849
Si Si6 0.809013 0.500000 0.580902
Si Si7 0.000000 0.500000 0.500000
Si Si8 0.392491 0.500000 0.249203
O O1 0.049950 0.804977 0.692825
O O2 0.750266 0.833743 0.289005
O O3 0.115800 0.932170 0.697658
O O4 0.396306 0.857119 0.008062
O O5 0.211045 0.500000 0.014501
O O6 0.305633 0.431441 0.950709
O O7 0.983278 0.500000 0.657250
O O8 0.413192 0.803785 0.682051
O O9 0.340149 0.929888 0.666472
O O10 0.159006 0.319464 0.761036
O O11 0.171456 0.437581 0.667520
O O12 0.500000 0.363205 0.000000
O O13 0.750000 0.250000 0.000000
O O14 0.583055 0.500000 0.352661
#
# Coordination Sequence:
#
# PCOD9203608 Si02
#       8
#     8   4   8   8   8   4   2   4
#     4  10  21  39  67  94 133 182 228 284 351 423
#     4  11  20  43  63  97 138 170 232 288 345 410
#     4  10  20  39  64  94 131 175 221 283 350 411
#     4  11  24  43  73 100 137 191 239 295 358 430
#     4  10  21  40  69 101 136 182 235 286 358 425
#     4  12  22  38  66  94 131 174 216 288 347 408
#     4  10  24  46  66 106 142 182 242 292 354 424
#     4  12  24  41  67 101 129 179 236 282 350 430
#
# _framework density 24.468926
#
# number of rings (size 3 to 8) (size 9 to 14) (size 15 to 20)
#    0.000    1.391    3.478    2.609    4.870    5.565 
#    0.000    2.609    0.000    0.000    0.000    0.000 
#    0.000    0.000    0.000    0.000    0.000    0.000 
#
# Total GULP energy -128373.225747 kJ/mol
# GULP energy per Si atom -5581.444598 kJ/mol
# Density = 2.441323 g / cm^3
# Si number density = 24.468926 Si / 1000 Ang^3
#
#
#
# Elastic Constant Matrix: (Units=GPa)
#
#
# Indices 1 2 3 4 5 6 
#
# 1 112.5061 73.0506 14.8084 0.0000 35.6451 0.0000
# 2 73.0506 149.4432 24.9083 0.0000 -12.3660 0.0000
# 3 14.8084 24.9083 87.6944 0.0000 -4.8980 0.0000
# 4 0.0000 0.0000 0.0000 8.5457 0.0000 0.7325
# 5 35.6451 -12.3660 -4.8980 0.0000 33.5724 0.0000
# 6 0.0000 0.0000 0.0000 0.7325 0.0000 28.5846
#
#
#
# Elastic Compliance Matrix: (Units=1/GPa)
#
#
# Indices 1 2 3 4 5 6 
#
# 1 0.043613 -0.025418 -0.003281 0.000000 -0.056147 0.000000
# 2 -0.025418 0.022021 -0.000002 0.000000 0.035098 0.000000
# 3 -0.003281 -0.000002 0.012252 0.000000 0.005270 0.000000
# 4 0.000000 0.000000 0.000000 0.117276 0.000000 -0.003005
# 5 -0.056147 0.035098 0.005270 0.000000 0.103097 0.000000
# 6 0.000000 0.000000 0.000000 -0.003005 0.000000 0.035061
#
#
# Mechanical properties :
#
#
# Convention : Reuss Voigt Hill
#
# Bulk Modulus (GPa) = 48.81895 63.90869 56.36382
# Shear Modulus (GPa) = 12.57699 29.93229 21.25464
#
# Velocity S-wave (km/s) = 2.26961 3.50133 2.95046
# Velocity P-wave (km/s) = 5.18294 6.52080 5.88998
#
# Compressibility (1/GPa) = 0.02048385
#
# Stress axis : x y z
#
# Youngs Moduli (GPa) = 22.92872 45.41113 81.61750
#
# Poissons Ratio (x) = 1.15427 0.26779
# Poissons Ratio (y) = 0.58281 0.00018
# Poissons Ratio (z) = 0.07523 0.00010
#
# Static dielectric constant tensor:
#      x y z
#    x 1.941330 0.000000 0.031130 
#    y 0.000000 1.880580 0.000000 
#    z 0.031130 0.000000 1.922360 
# 
# From -- ./inp_files/279281.got.cif
#   From: 2010.05.17/outbox.cif.g08.bks.cpg/sg12_140_cif.got.tgz:279281.got - 2010.06.03 13:09:07.
