data_PCOD9203378
_publ_section_title
;
Structure prediction by ZEFSAII (Michael W. Deem and Ramdas Pophale) SiO2 
 PCOD9203378
Probable space group: C 2/M
;
_chemical_formula_sum "Si O2"
_cell_formula_units_Z 44
_cell_length_a 13.742111
_cell_length_b 18.107674
_cell_length_c 8.274003
_cell_angle_alpha 90.000000
_cell_angle_beta 95.454758
_cell_angle_gamma 90.000000
_cell_volume 2049.560085
_symmetry_space_group_name_H-M "C 2/M"
_symmetry_group_IT_number 12
_symmetry_cell_setting 'monoclinic'
loop_
_space_group_symop_operation_xyz
x,y,z
-x,y,-z
-x,-y,-z
x,-y,z
1/2+x,1/2+y,z
1/2-x,1/2+y,-z
1/2-x,1/2-y,-z
1/2+x,1/2-y,z
loop_
_atom_site_type_symbol
_atom_site_label
_atom_site_fract_x
_atom_site_fract_y
_atom_site_fract_z
Si Si1 0.584543 0.000000 0.645003
Si Si2 0.888289 0.500000 0.919332
Si Si3 0.536462 0.131064 0.256258
Si Si4 0.114371 0.747629 0.825480
Si Si5 0.865862 0.245971 0.536918
Si Si6 0.326509 0.334889 0.853800
Si Si7 0.769691 0.000000 0.819492
O O1 0.500000 0.000000 0.500000
O O2 0.553255 0.923635 0.721149
O O3 0.700270 0.000000 0.647948
O O4 0.886152 0.576631 0.818260
O O5 0.808910 0.500000 0.045823
O O6 0.000000 0.500000 0.000000
O O7 0.477840 0.195137 0.157639
O O8 0.591097 0.173400 0.409674
O O9 0.098890 0.776035 0.637374
O O10 0.215438 0.699248 0.838566
O O11 0.127458 0.806364 0.970654
O O12 0.750000 0.250000 0.500000
O O13 0.877817 0.196262 0.699389
O O14 0.324920 0.423108 0.841333
#
# Coordination Sequence:
#
# PCOD9203378 Si02
#       7
#     4   4   8   8   8   8   4
#     4  11  21  32  56  88 125 160 183 246 319 382
#     4  11  22  34  58  98 130 160 196 247 321 399
#     4  11  22  37  60  92 126 159 204 251 314 383
#     4  10  20  39  62  87 122 163 203 254 309 366
#     4  10  23  37  58  88 123 159 212 251 297 373
#     4  10  23  38  60  85 123 167 205 253 302 365
#     4  12  23  41  56  88 134 167 209 250 314 385
#
# _framework density 21.468021
#
# number of rings (size 3 to 8) (size 9 to 14) (size 15 to 20)
#    0.000    1.455    3.636    1.636   12.727    0.000 
#    0.000    0.909    0.000    2.182    0.000    2.545 
#    0.000    0.000    0.000    0.000    0.000    0.000 
#
# Total GULP energy -122614.149811 kJ/mol
# GULP energy per Si atom -5573.370446 kJ/mol
# Density = 2.141916 g / cm^3
# Si number density = 21.468021 Si / 1000 Ang^3
#
#
#
# Elastic Constant Matrix: (Units=GPa)
#
#
# Indices 1 2 3 4 5 6 
#
# 1 56.0543 40.4567 34.7963 0.0000 -2.3924 0.0000
# 2 40.4567 163.8669 87.2317 0.0000 4.9393 0.0000
# 3 34.7963 87.2317 182.6578 0.0000 -4.0229 0.0000
# 4 0.0000 0.0000 0.0000 28.1442 0.0000 11.1513
# 5 -2.3924 4.9393 -4.0229 0.0000 34.5479 0.0000
# 6 0.0000 0.0000 0.0000 11.1513 0.0000 26.7019
#
#
#
# Elastic Compliance Matrix: (Units=1/GPa)
#
#
# Indices 1 2 3 4 5 6 
#
# 1 0.022463 -0.004492 -0.002091 0.000000 0.001954 0.000000
# 2 -0.004492 0.009173 -0.003570 0.000000 -0.002038 0.000000
# 3 -0.002091 -0.003570 0.007606 0.000000 0.001251 0.000000
# 4 0.000000 0.000000 0.000000 0.042576 0.000000 -0.017781
# 5 0.001954 -0.002038 0.001251 0.000000 0.029518 0.000000
# 6 0.000000 0.000000 0.000000 -0.017781 0.000000 0.044876
#
#
# Mechanical properties :
#
#
# Convention : Reuss Voigt Hill
#
# Bulk Modulus (GPa) = 52.80847 80.83870 66.82359
# Shear Modulus (GPa) = 27.34773 33.88510 30.61641
#
# Velocity S-wave (km/s) = 3.57302 3.97722 3.78052
# Velocity P-wave (km/s) = 6.45554 7.66995 7.08880
#
# Compressibility (1/GPa) = 0.01893635
#
# Stress axis : x y z
#
# Youngs Moduli (GPa) = 44.51740 109.01099 131.48144
#
# Poissons Ratio (x) = 0.48963 0.27495
# Poissons Ratio (y) = 0.19995 0.46941
# Poissons Ratio (z) = 0.09309 0.38919
#
# Static dielectric constant tensor:
#      x y z
#    x 1.790210 0.000000 -0.004100 
#    y 0.000000 1.821670 0.000000 
#    z -0.004100 0.000000 1.903460 
# 
# From -- ./inp_files/73242.got.cif
#   From: 2010.05.17/outbox.cif.g08.bks.cpg/sg12_37_cif.got.tgz:73242.got - 2010.06.03 13:09:07.
