data_PCOD9203044
_publ_section_title
;
Structure prediction by ZEFSAII (Michael W. Deem and Ramdas Pophale) SiO2 
 PCOD9203044
Probable space group: C 2/M
;
_chemical_formula_sum "Si O2"
_cell_formula_units_Z 56
_cell_length_a 21.722136
_cell_length_b 14.422111
_cell_length_c 9.537166
_cell_angle_alpha 90.000000
_cell_angle_beta 87.016462
_cell_angle_gamma 90.000000
_cell_volume 2983.744502
_symmetry_space_group_name_H-M "C 2/M"
_symmetry_group_IT_number 12
_symmetry_cell_setting 'monoclinic'
loop_
_space_group_symop_operation_xyz
x,y,z
-x,y,-z
-x,-y,-z
x,-y,z
1/2+x,1/2+y,z
1/2-x,1/2+y,-z
1/2-x,1/2-y,-z
1/2+x,1/2-y,z
loop_
_atom_site_type_symbol
_atom_site_label
_atom_site_fract_x
_atom_site_fract_y
_atom_site_fract_z
Si Si1 0.995790 0.109275 0.332726
Si Si2 0.179324 0.747733 0.960136
Si Si3 0.700695 0.389191 0.432279
Si Si4 0.145028 0.890167 0.734064
Si Si5 0.926867 0.390420 0.525853
Si Si6 0.891048 0.766820 0.744569
Si Si7 0.664671 0.890467 0.708747
O O1 0.926348 0.129261 0.293042
O O2 0.000000 0.123832 0.500000
O O3 0.045790 0.174734 0.255198
O O4 0.008676 0.000000 0.305303
O O5 0.165426 0.838693 0.870500
O O6 0.166771 0.665072 0.852551
O O7 0.250000 0.750000 0.000000
O O8 0.136620 0.744099 0.101314
O O9 0.687187 0.500000 0.421276
O O10 0.685286 0.361812 0.593771
O O11 0.657031 0.331528 0.334544
O O12 0.771390 0.374201 0.382022
O O13 0.151674 0.000000 0.749576
O O14 0.914483 0.500000 0.552827
O O15 0.903010 0.325218 0.652458
O O16 0.891235 0.363829 0.387369
O O17 0.000000 0.378115 0.500000
O O18 0.660145 0.000000 0.736894
#
# Coordination Sequence:
#
# PCOD9203044 Si02
#       7
#     8   8   8   8   8   8   8
#     4  10  20  38  65  98 128 161 202 249 311 376
#     4  12  27  41  57  91 132 168 204 249 312 377
#     4  10  20  38  67  97 122 158 208 257 310 369
#     4  10  23  41  64  93 129 165 205 253 305 373
#     4  10  24  45  68  93 117 158 219 271 308 352
#     4  12  23  37  64  94 129 165 201 256 311 372
#     4  10  23  44  67  89 122 165 210 261 313 364
#
# _framework density 18.768363999999998
#
# number of rings (size 3 to 8) (size 9 to 14) (size 15 to 20)
#    0.000    1.429    2.857    1.714    4.000    4.000 
#    0.000    1.429    0.000    2.571    0.000    0.000 
#    0.000    0.000    0.000    0.000    0.000    0.000 
#
# Total GULP energy -156595.078914 kJ/mol
# GULP energy per Si atom -5592.681390 kJ/mol
# Density = 1.872565 g / cm^3
# Si number density = 18.768364 Si / 1000 Ang^3
#
#
#
# Elastic Constant Matrix: (Units=GPa)
#
#
# Indices 1 2 3 4 5 6 
#
# 1 103.2579 66.4925 90.7138 0.0000 2.4608 0.0000
# 2 66.4925 92.4677 79.1488 0.0000 -2.4440 0.0000
# 3 90.7138 79.1488 171.5737 0.0000 -6.7360 0.0000
# 4 0.0000 0.0000 0.0000 -44.8549 0.0000 -5.8752
# 5 2.4608 -2.4440 -6.7360 0.0000 33.2339 0.0000
# 6 0.0000 0.0000 0.0000 -5.8752 0.0000 15.8659
#
#
#
# Elastic Compliance Matrix: (Units=1/GPa)
#
#
# Indices 1 2 3 4 5 6 
#
# 1 0.023018 -0.010091 -0.007672 0.000000 -0.004001 0.000000
# 2 -0.010091 0.022299 -0.004897 0.000000 0.001394 0.000000
# 3 -0.007672 -0.004897 0.012249 0.000000 0.002691 0.000000
# 4 0.000000 0.000000 0.000000 -0.021263 0.000000 -0.007874
# 5 -0.004001 0.001394 0.002691 0.000000 0.031034 0.000000
# 6 0.000000 0.000000 0.000000 -0.007874 0.000000 0.060112
#
#
# Mechanical properties :
#
#
# Convention : Reuss Voigt Hill
#
# Bulk Modulus (GPa) = 81.65288 93.33440 87.49364
# Shear Modulus (GPa) = 28.27236 9.57861 18.92548
#
# Velocity S-wave (km/s) = 3.88543 2.26156 3.17893
# Velocity P-wave (km/s) = 7.98303 7.52709 7.75841
#
# Compressibility (1/GPa) = 0.01224697
#
# Stress axis : x y z
#
# Youngs Moduli (GPa) = 43.44508 44.84483 81.63653
#
# Poissons Ratio (x) = 0.45251 0.62632
# Poissons Ratio (y) = 0.43838 0.39978
# Poissons Ratio (z) = 0.33331 0.21961
#
# Static dielectric constant tensor:
#      x y z
#    x 1.629410 0.000000 0.002280 
#    y 0.000000 1.674040 0.000000 
#    z 0.002280 0.000000 1.600110 
# 
# From -- ./inp_files/86367.got.cif
#   From: 2010.05.17/outbox.cif.g08.bks.cpg/sg12_44_cif.got.tgz:86367.got - 2010.06.03 13:09:07.
