data_PCOD9203913
_publ_section_title
;
Structure prediction by ZEFSAII (Michael W. Deem and Ramdas Pophale) SiO2 
 PCOD9203913
Probable space group: C 2/M
;
_chemical_formula_sum "Si O2"
_cell_formula_units_Z 48
_cell_length_a 24.051069
_cell_length_b 8.841100
_cell_length_c 17.603634
_cell_angle_alpha 90.000000
_cell_angle_beta 132.892050
_cell_angle_gamma 90.000000
_cell_volume 2742.408015
_symmetry_space_group_name_H-M "C 2/M"
_symmetry_group_IT_number 12
_symmetry_cell_setting 'monoclinic'
loop_
_space_group_symop_operation_xyz
x,y,z
-x,y,-z
-x,-y,-z
x,-y,z
1/2+x,1/2+y,z
1/2-x,1/2+y,-z
1/2-x,1/2-y,-z
1/2+x,1/2-y,z
loop_
_atom_site_type_symbol
_atom_site_label
_atom_site_fract_x
_atom_site_fract_y
_atom_site_fract_z
Si Si1 0.281361 0.819798 0.298406
Si Si2 0.065114 0.817685 0.622753
Si Si3 0.995787 0.681728 0.872643
Si Si4 0.124487 0.682563 0.112167
Si Si5 0.196754 0.818111 0.515382
Si Si6 0.475978 0.318365 0.689193
O O1 0.356894 0.761288 0.327043
O O2 0.205418 0.761147 0.187043
O O3 0.281923 0.748636 0.383195
O O4 0.281469 0.000000 0.303317
O O5 0.000000 0.783242 0.500000
O O6 0.033332 0.772250 0.675593
O O7 0.075848 0.000000 0.631212
O O8 0.994490 0.500000 0.866078
O O9 0.922833 0.725590 0.855919
O O10 0.993738 0.750592 0.787566
O O11 0.070150 0.722662 0.990922
O O12 0.133325 0.500000 0.121074
O O13 0.250000 0.750000 0.500000
O O14 0.109486 0.778236 0.415569
O O15 0.203550 0.000000 0.523658
O O16 0.478851 0.500000 0.696848
#
# Coordination Sequence:
#
# PCOD9203913 Si02
#       6
#     8   8   8   8   8   8
#     4  12  24  36  55  86 115 146 189 237 282 331
#     4  10  20  40  61  77 106 154 195 229 282 340
#     4   9  19  36  60  86 112 145 188 232 280 333
#     4   9  19  38  60  82 112 153 189 225 279 342
#     4  11  22  37  55  82 116 150 185 228 281 341
#     4  10  21  36  57  82 110 145 187 229 281 339
#
# _framework density 17.502866000000001
#
# number of rings (size 3 to 8) (size 9 to 14) (size 15 to 20)
#    0.000    1.833    1.667    4.000    0.000    6.333 
#    0.000    2.500    0.000    0.000    0.000    0.000 
#    0.000    0.000    0.000    0.000    0.000    0.000 
#
# Total GULP energy -134063.440288 kJ/mol
# GULP energy per Si atom -5585.976679 kJ/mol
# Density = 1.746303 g / cm^3
# Si number density = 17.502866 Si / 1000 Ang^3
#
#
#
# Elastic Constant Matrix: (Units=GPa)
#
#
# Indices 1 2 3 4 5 6 
#
# 1 82.7248 38.1630 36.2282 0.0000 27.7535 0.0000
# 2 38.1630 47.4521 36.2899 0.0000 13.8111 0.0000
# 3 36.2282 36.2899 81.8276 0.0000 19.3588 0.0000
# 4 0.0000 0.0000 0.0000 25.4111 0.0000 -6.0162
# 5 27.7535 13.8111 19.3588 0.0000 30.9460 0.0000
# 6 0.0000 0.0000 0.0000 -6.0162 0.0000 31.2319
#
#
#
# Elastic Compliance Matrix: (Units=1/GPa)
#
#
# Indices 1 2 3 4 5 6 
#
# 1 0.023986 -0.014471 -0.000752 0.000000 -0.014583 0.000000
# 2 -0.014471 0.041710 -0.012626 0.000000 0.002262 0.000000
# 3 -0.000752 -0.012626 0.019555 0.000000 -0.005924 0.000000
# 4 0.000000 0.000000 0.000000 0.041233 0.000000 0.007943
# 5 -0.014583 0.002262 -0.005924 0.000000 0.048089 0.000000
# 6 0.000000 0.000000 0.000000 0.007943 0.000000 0.033548
#
#
# Mechanical properties :
#
#
# Convention : Reuss Voigt Hill
#
# Bulk Modulus (GPa) = 33.83821 48.15187 40.99504
# Shear Modulus (GPa) = 18.27017 24.27270 21.27143
#
# Velocity S-wave (km/s) = 3.23435 3.72800 3.48991
# Velocity P-wave (km/s) = 5.77261 6.78978 6.30175
#
# Compressibility (1/GPa) = 0.02955239
#
# Stress axis : x y z
#
# Youngs Moduli (GPa) = 41.69149 23.97497 51.13874
#
# Poissons Ratio (x) = 0.34695 0.03843
# Poissons Ratio (y) = 0.60333 0.64569
# Poissons Ratio (z) = 0.03133 0.30271
#
# Static dielectric constant tensor:
#      x y z
#    x 1.576870 0.000000 0.003780 
#    y 0.000000 1.583360 0.000000 
#    z 0.003780 0.000000 1.576520 
# 
# From -- ./inp_files/280767.got.cif
#   From: 2010.05.17/outbox.cif.g08.bks.cpg/sg12_141_cif.got.tgz:280767.got - 2010.06.03 13:09:07.
