data_PCOD9203405
_publ_section_title
;
Structure prediction by ZEFSAII (Michael W. Deem and Ramdas Pophale) SiO2 
 PCOD9203405
Probable space group: C 2/M
;
_chemical_formula_sum "Si O2"
_cell_formula_units_Z 40
_cell_length_a 27.924402
_cell_length_b 12.140772
_cell_length_c 20.989054
_cell_angle_alpha 90.000000
_cell_angle_beta 12.338845
_cell_angle_gamma 90.000000
_cell_volume 1520.592463
_symmetry_space_group_name_H-M "C 2/M"
_symmetry_group_IT_number 12
_symmetry_cell_setting 'monoclinic'
loop_
_space_group_symop_operation_xyz
x,y,z
-x,y,-z
-x,-y,-z
x,-y,z
1/2+x,1/2+y,z
1/2-x,1/2+y,-z
1/2-x,1/2-y,-z
1/2+x,1/2-y,z
loop_
_atom_site_type_symbol
_atom_site_label
_atom_site_fract_x
_atom_site_fract_y
_atom_site_fract_z
Si Si1 0.509993 0.876002 0.182382
Si Si2 0.577419 0.685614 0.178742
Si Si3 0.471119 0.616701 0.447723
Si Si4 0.627064 0.000000 0.266760
Si Si5 0.427788 0.741716 0.019302
Si Si6 0.361096 0.500000 0.117051
O O1 0.777065 0.879544 0.852640
O O2 0.473681 0.829174 0.158970
O O3 0.833810 0.776508 0.644418
O O4 0.423377 0.000000 0.303600
O O5 0.435759 0.780221 0.327735
O O6 0.719438 0.605393 0.948698
O O7 0.750000 0.750000 0.000000
O O8 0.456026 0.615922 0.390637
O O9 0.370366 0.500000 0.601166
O O10 0.500000 0.000000 0.500000
O O11 0.399156 0.000000 0.521604
O O12 0.430659 0.614590 0.993944
O O13 0.500000 0.750568 0.000000
O O14 0.500000 0.500000 0.000000
#
# Coordination Sequence:
#
# PCOD9203405 Si02
#       6
#     8   8   8   4   8   4
#     4  10  21  37  60  91 125 157 205 259 309 369
#     4  10  21  36  60  93 129 157 206 262 318 370
#     4  10  20  39  62  90 128 162 200 260 317 367
#     4  12  22  38  68  96 122 166 218 260 314 382
#     4  11  23  40  62  90 124 167 211 256 309 378
#     4  10  22  38  56  86 124 158 203 254 304 358
#
# _framework density 26.305534999999999
#
# number of rings (size 3 to 8) (size 9 to 14) (size 15 to 20)
#    0.000    1.600    1.000    4.800    1.400    3.200 
#    1.800    1.000    0.000    4.800    0.000    0.000 
#    0.000    0.000    0.000    0.000    0.000    0.000 
#
# Total GULP energy -111768.488497 kJ/mol
# GULP energy per Si atom -5588.424425 kJ/mol
# Density = 2.624566 g / cm^3
# Si number density = 26.305535 Si / 1000 Ang^3
#
#
#
# Elastic Constant Matrix: (Units=GPa)
#
#
# Indices 1 2 3 4 5 6 
#
# 1 174.3931 74.3304 23.1839 0.0020 21.7405 -0.0009
# 2 74.3304 232.4688 41.2877 0.0418 8.5529 -0.0139
# 3 23.1839 41.2877 49.0489 0.0309 -10.8866 -0.0110
# 4 0.0020 0.0418 0.0309 33.5856 -0.0035 1.0839
# 5 21.7405 8.5529 -10.8866 -0.0035 39.7107 0.0037
# 6 -0.0009 -0.0139 -0.0110 1.0839 0.0037 30.7227
#
#
#
# Elastic Compliance Matrix: (Units=1/GPa)
#
#
# Indices 1 2 3 4 5 6 
#
# 1 0.007423 -0.001649 -0.003135 0.000004 -0.004568 -0.000001
# 2 -0.001649 0.005649 -0.004308 -0.000003 -0.001495 0.000001
# 3 -0.003135 -0.004308 0.027772 -0.000019 0.010258 0.000007
# 4 0.000004 -0.000003 -0.000019 0.029809 -0.000004 -0.001052
# 5 -0.004568 -0.001495 0.010258 -0.000004 0.030817 -0.000001
# 6 -0.000001 0.000001 0.000007 -0.001052 -0.000001 0.032586
#
#
# Mechanical properties :
#
#
# Convention : Reuss Voigt Hill
#
# Bulk Modulus (GPa) = 44.12646 81.50163 62.81405
# Shear Modulus (GPa) = 31.29058 41.94439 36.61749
#
# Velocity S-wave (km/s) = 3.45266 3.99746 3.73501
# Velocity P-wave (km/s) = 5.71887 7.23576 6.52157
#
# Compressibility (1/GPa) = 0.02266214
#
# Stress axis : x y z
#
# Youngs Moduli (GPa) = 134.71442 177.02728 36.00715
#
# Poissons Ratio (x) = 0.29186 0.11288
# Poissons Ratio (y) = 0.22210 0.15510
# Poissons Ratio (z) = 0.42231 0.76255
#
# Static dielectric constant tensor:
#      x y z
#    x 2.131430 -0.000020 0.020690 
#    y -0.000020 2.198540 -0.000010 
#    z 0.020690 -0.000010 2.181540 
# 
# From -- ./inp_files/289845.got.cif
#   From: 2010.05.17/outbox.cif.g08.bks.cpg/sg12_145_cif.got.tgz:289845.got - 2010.06.03 13:09:07.
