data_PCOD9203079
_publ_section_title
;
Structure prediction by ZEFSAII (Michael W. Deem and Ramdas Pophale) SiO2 
 PCOD9203079
Probable space group: C 2/M
;
_chemical_formula_sum "Si O2"
_cell_formula_units_Z 56
_cell_length_a 23.244266
_cell_length_b 14.527203
_cell_length_c 8.792759
_cell_angle_alpha 90.000000
_cell_angle_beta 126.087269
_cell_angle_gamma 90.000000
_cell_volume 2399.381397
_symmetry_space_group_name_H-M "C 2/M"
_symmetry_group_IT_number 12
_symmetry_cell_setting 'monoclinic'
loop_
_space_group_symop_operation_xyz
x,y,z
-x,y,-z
-x,-y,-z
x,-y,z
1/2+x,1/2+y,z
1/2-x,1/2+y,-z
1/2-x,1/2-y,-z
1/2+x,1/2-y,z
loop_
_atom_site_type_symbol
_atom_site_label
_atom_site_fract_x
_atom_site_fract_y
_atom_site_fract_z
Si Si1 0.907047 0.296756 0.184844
Si Si2 0.829555 0.245646 0.351080
Si Si3 0.090018 0.103131 0.310227
Si Si4 0.801954 0.397356 0.515684
Si Si5 0.973446 0.607649 0.791629
Si Si6 0.720551 0.894977 0.164223
Si Si7 0.417873 0.397130 0.054936
O O1 0.878749 0.301072 0.311570
O O2 0.986035 0.331411 0.269529
O O3 0.897389 0.191037 0.119766
O O4 0.856873 0.361694 0.005610
O O5 0.876377 0.182204 0.535759
O O6 0.781022 0.316254 0.370902
O O7 0.777598 0.174826 0.185382
O O8 0.004374 0.103992 0.188015
O O9 0.113956 0.000000 0.394665
O O10 0.106984 0.114793 0.158319
O O11 0.783744 0.500000 0.432830
O O12 0.774556 0.388156 0.644629
O O13 0.888198 0.388735 0.655789
O O14 0.993634 0.500000 0.804940
O O15 0.000000 0.639043 0.000000
O O16 0.731810 0.000000 0.137056
O O17 0.396329 0.500000 0.073564
#
# Coordination Sequence:
#
# PCOD9203079 Si02
#       7
#     8   8   8   8   8   8   8
#     4  12  24  38  63  95 127 166 209 263 326 382
#     4  12  25  40  59  94 133 168 201 261 327 377
#     4   9  19  38  61  87 121 165 213 259 306 368
#     4  10  22  40  65  94 122 162 215 263 313 375
#     4  10  20  38  66  95 122 162 210 258 312 372
#     4  11  24  45  67  86 118 173 228 263 303 374
#     4   9  20  37  61  90 122 164 213 258 307 373
#
# _framework density 23.339348000000001
#
# number of rings (size 3 to 8) (size 9 to 14) (size 15 to 20)
#    0.000    1.571    1.429    4.286    2.000    4.571 
#    0.000    5.000    0.000    0.000    0.000    0.000 
#    0.000    0.000    0.000    0.000    0.000    0.000 
#
# Total GULP energy -156755.453819 kJ/mol
# GULP energy per Si atom -5598.409065 kJ/mol
# Density = 2.328623 g / cm^3
# Si number density = 23.339348 Si / 1000 Ang^3
#
#
#
# Elastic Constant Matrix: (Units=GPa)
#
#
# Indices 1 2 3 4 5 6 
#
# 1 79.0778 21.6080 3.5911 0.0000 -1.9427 0.0000
# 2 21.6080 111.0557 16.4384 0.0000 -8.9900 0.0000
# 3 3.5911 16.4384 19.5323 0.0000 -0.2657 0.0000
# 4 0.0000 0.0000 0.0000 3.9280 0.0000 6.1791
# 5 -1.9427 -8.9900 -0.2657 0.0000 22.2411 0.0000
# 6 0.0000 0.0000 0.0000 6.1791 0.0000 37.4168
#
#
#
# Elastic Compliance Matrix: (Units=1/GPa)
#
#
# Indices 1 2 3 4 5 6 
#
# 1 0.013358 -0.002541 -0.000315 0.000000 0.000136 0.000000
# 2 -0.002541 0.011148 -0.008858 0.000000 0.004178 0.000000
# 3 -0.000315 -0.008858 0.058671 0.000000 -0.002907 0.000000
# 4 0.000000 0.000000 0.000000 0.343933 0.000000 -0.056798
# 5 0.000136 0.004178 -0.002907 0.000000 0.046628 0.000000
# 6 0.000000 0.000000 0.000000 -0.056798 0.000000 0.036106
#
#
# Mechanical properties :
#
#
# Convention : Reuss Voigt Hill
#
# Bulk Modulus (GPa) = 16.73718 32.54897 24.64308
# Shear Modulus (GPa) = 9.03848 23.91905 16.47877
#
# Velocity S-wave (km/s) = 1.97004 3.20478 2.66004
# Velocity P-wave (km/s) = 3.51590 5.26027 4.47392
#
# Compressibility (1/GPa) = 0.05974722
#
# Stress axis : x y z
#
# Youngs Moduli (GPa) = 74.86238 89.69862 17.04417
#
# Poissons Ratio (x) = 0.22796 0.00537
# Poissons Ratio (y) = 0.19025 0.15099
# Poissons Ratio (z) = 0.02360 0.79459
#
# Static dielectric constant tensor:
#      x y z
#    x 1.869870 0.000000 0.034690 
#    y 0.000000 1.872130 0.000000 
#    z 0.034690 0.000000 1.878660 
# 
# From -- ./inp_files/96996.got.cif
#   From: 2010.05.17/outbox.cif.g08.bks.cpg/sg12_49_cif.got.tgz:96996.got - 2010.06.03 13:09:07.
