data_PCOD9203603
_publ_section_title
;
Structure prediction by ZEFSAII (Michael W. Deem and Ramdas Pophale) SiO2 
 PCOD9203603
Probable space group: C 2/M
;
_chemical_formula_sum "Si O2"
_cell_formula_units_Z 48
_cell_length_a 30.834340
_cell_length_b 17.488068
_cell_length_c 8.789228
_cell_angle_alpha 90.000000
_cell_angle_beta 25.182692
_cell_angle_gamma 90.000000
_cell_volume 2016.660763
_symmetry_space_group_name_H-M "C 2/M"
_symmetry_group_IT_number 12
_symmetry_cell_setting 'monoclinic'
loop_
_space_group_symop_operation_xyz
x,y,z
-x,y,-z
-x,-y,-z
x,-y,z
1/2+x,1/2+y,z
1/2-x,1/2+y,-z
1/2-x,1/2-y,-z
1/2+x,1/2-y,z
loop_
_atom_site_type_symbol
_atom_site_label
_atom_site_fract_x
_atom_site_fract_y
_atom_site_fract_z
Si Si1 0.975931 0.276789 0.407455
Si Si2 0.168204 0.913661 0.394782
Si Si3 0.911868 0.878284 0.653051
Si Si4 0.879503 0.590447 0.531776
Si Si5 0.825092 0.811490 0.339986
Si Si6 0.280330 0.917824 0.552548
O O1 0.888221 0.212712 0.711498
O O2 0.952237 0.348500 0.379682
O O3 0.000000 0.305741 0.500000
O O4 0.066449 0.222467 0.057544
O O5 0.080384 0.907798 0.543532
O O6 0.163643 0.842247 0.524550
O O7 0.162757 0.000000 0.478422
O O8 0.275966 0.907010 0.962561
O O9 0.000000 0.886957 0.500000
O O10 0.817530 0.920703 0.026913
O O11 0.908848 0.500000 0.434261
O O12 0.858974 0.618529 0.423108
O O13 0.750000 0.750000 0.500000
O O14 0.770311 0.883472 0.434636
O O15 0.323444 0.000000 0.377066
#
# Coordination Sequence:
#
# PCOD9203603 Si02
#       6
#     8   8   8   8   8   8
#     4  11  22  41  63  98 126 166 218 259 316 384
#     4  10  23  41  65  97 130 166 210 270 331 376
#     4  10  20  39  64  94 124 164 212 259 316 380
#     4   9  21  42  71  95 120 167 220 270 316 374
#     4  12  25  42  62  95 130 173 205 263 328 379
#     4  10  21  41  65  91 125 168 213 259 317 383
#
# _framework density 23.801722000000002
#
# number of rings (size 3 to 8) (size 9 to 14) (size 15 to 20)
#    0.000    1.667    3.333    3.000    2.333    3.667 
#    0.000    2.500    0.000    2.000    0.000    0.000 
#    0.000    0.000    0.000    0.000    0.000    0.000 
#
# Total GULP energy -133676.615277 kJ/mol
# GULP energy per Si atom -5569.858970 kJ/mol
# Density = 2.374755 g / cm^3
# Si number density = 23.801722 Si / 1000 Ang^3
#
#
#
# Elastic Constant Matrix: (Units=GPa)
#
#
# Indices 1 2 3 4 5 6 
#
# 1 163.0633 56.1899 21.2091 0.0000 -1.1498 0.0000
# 2 56.1899 79.1972 27.7602 0.0000 -15.4642 0.0000
# 3 21.2091 27.7602 45.9647 0.0000 0.1438 0.0000
# 4 0.0000 0.0000 0.0000 29.2634 0.0000 2.9070
# 5 -1.1498 -15.4642 0.1438 0.0000 14.7635 0.0000
# 6 0.0000 0.0000 0.0000 2.9070 0.0000 52.6536
#
#
#
# Elastic Compliance Matrix: (Units=1/GPa)
#
#
# Indices 1 2 3 4 5 6 
#
# 1 0.008719 -0.007971 0.000815 0.000000 -0.007678 0.000000
# 2 -0.007971 0.029003 -0.013932 0.000000 0.029894 0.000000
# 3 0.000815 -0.013932 0.029840 0.000000 -0.014820 0.000000
# 4 0.000000 0.000000 0.000000 0.034361 0.000000 -0.001897
# 5 -0.007678 0.029894 -0.014820 0.000000 0.098594 0.000000
# 6 0.000000 0.000000 0.000000 -0.001897 0.000000 0.019097
#
#
# Mechanical properties :
#
#
# Convention : Reuss Voigt Hill
#
# Bulk Modulus (GPa) = 39.39109 55.39376 47.39243
# Shear Modulus (GPa) = 18.50133 31.54049 25.02091
#
# Velocity S-wave (km/s) = 2.79105 3.64419 3.24577
# Velocity P-wave (km/s) = 5.19348 6.40549 5.83106
#
# Compressibility (1/GPa) = 0.02538645
#
# Stress axis : x y z
#
# Youngs Moduli (GPa) = 114.68887 34.47957 33.51197
#
# Poissons Ratio (x) = 0.27484 -0.02731
# Poissons Ratio (y) = 0.91421 0.46687
# Poissons Ratio (z) = -0.09347 0.48035
#
# Static dielectric constant tensor:
#      x y z
#    x 1.914650 0.000000 -0.030190 
#    y 0.000000 1.844890 0.000000 
#    z -0.030190 0.000000 2.033940 
# 
# From -- ./inp_files/112747.got.cif
#   From: 2010.05.17/outbox.cif.g08.bks.cpg/sg12_57_cif.got.tgz:112747.got - 2010.06.03 13:09:07.
