data_PCOD9203540
_publ_section_title
;
Structure prediction by ZEFSAII (Michael W. Deem and Ramdas Pophale) SiO2 
 PCOD9203540
Probable space group: C 2/M
;
_chemical_formula_sum "Si O2"
_cell_formula_units_Z 36
_cell_length_a 13.546453
_cell_length_b 18.100107
_cell_length_c 15.686465
_cell_angle_alpha 90.000000
_cell_angle_beta 23.733749
_cell_angle_gamma 90.000000
_cell_volume 1548.045583
_symmetry_space_group_name_H-M "C 2/M"
_symmetry_group_IT_number 12
_symmetry_cell_setting 'monoclinic'
loop_
_space_group_symop_operation_xyz
x,y,z
-x,y,-z
-x,-y,-z
x,-y,z
1/2+x,1/2+y,z
1/2-x,1/2+y,-z
1/2-x,1/2-y,-z
1/2+x,1/2-y,z
loop_
_atom_site_type_symbol
_atom_site_label
_atom_site_fract_x
_atom_site_fract_y
_atom_site_fract_z
Si Si1 0.407120 0.082896 0.450805
Si Si2 0.043342 0.175573 0.153539
Si Si3 0.500000 0.664239 0.500000
Si Si4 0.539638 0.083068 0.789441
Si Si5 0.654489 0.231558 0.223174
O O1 0.360524 0.079661 0.386248
O O2 0.596807 0.150123 0.304724
O O3 0.167341 0.115050 0.685484
O O4 0.478054 0.000000 0.421009
O O5 0.001017 0.234968 0.262614
O O6 0.292796 0.131842 0.981155
O O7 0.087678 0.219223 0.030196
O O8 0.261289 0.616178 0.667367
O O9 0.414643 0.713520 0.647281
O O10 0.476495 0.000000 0.867065
#
# Coordination Sequence:
#
# PCOD9203540 Si02
#       5
#     8   8   4   8   8
#     4  10  20  40  65  88 117 157 202 251 292 344
#     4  10  20  39  64  88 114 158 210 243 278 357
#     4  12  23  40  57  88 132 162 184 248 303 356
#     4  10  22  38  60  92 126 156 192 241 304 361
#     4  10  23  37  61  89 119 157 205 240 294 350
#
# _framework density 23.255129
#
# number of rings (size 3 to 8) (size 9 to 14) (size 15 to 20)
#    0.000    1.778    2.222    1.667    6.222    1.778 
#    0.000    1.667    0.000    1.333    0.000    0.000 
#    0.000    0.000    0.000    0.000    0.000    0.000 
#
# Total GULP energy -100509.217259 kJ/mol
# GULP energy per Si atom -5583.845403 kJ/mol
# Density = 2.320220 g / cm^3
# Si number density = 23.255129 Si / 1000 Ang^3
#
#
#
# Elastic Constant Matrix: (Units=GPa)
#
#
# Indices 1 2 3 4 5 6 
#
# 1 65.8984 23.5647 30.8068 0.0181 19.5133 -0.0194
# 2 23.5647 154.5812 37.0920 0.0362 10.6479 -0.0452
# 3 30.8068 37.0920 115.7972 -0.0806 13.1296 0.0157
# 4 0.0181 0.0362 -0.0806 36.1318 -0.0373 1.9006
# 5 19.5133 10.6479 13.1296 -0.0373 22.7405 0.0137
# 6 -0.0194 -0.0452 0.0157 1.9006 0.0137 17.0815
#
#
#
# Elastic Compliance Matrix: (Units=1/GPa)
#
#
# Indices 1 2 3 4 5 6 
#
# 1 0.022187 -0.001394 -0.003608 -0.000037 -0.016303 0.000042
# 2 -0.001394 0.007192 -0.001805 -0.000013 -0.001130 0.000021
# 3 -0.003608 -0.001805 0.010408 0.000026 -0.002068 -0.000020
# 4 -0.000037 -0.000013 0.000026 0.027840 0.000070 -0.003098
# 5 -0.016303 -0.001130 -0.002068 0.000070 0.059687 -0.000075
# 6 0.000042 0.000021 -0.000020 -0.003098 -0.000075 0.058888
#
#
# Mechanical properties :
#
#
# Convention : Reuss Voigt Hill
#
# Bulk Modulus (GPa) = 38.20401 57.68932 47.94666
# Shear Modulus (GPa) = 23.97610 31.51164 27.74387
#
# Velocity S-wave (km/s) = 3.21441 3.68508 3.45776
# Velocity P-wave (km/s) = 5.49913 6.55495 6.05012
#
# Compressibility (1/GPa) = 0.02617527
#
# Stress axis : x y z
#
# Youngs Moduli (GPa) = 45.07055 139.03393 96.07662
#
# Poissons Ratio (x) = 0.19375 0.34663
# Poissons Ratio (y) = 0.06281 0.17342
# Poissons Ratio (z) = 0.16261 0.25096
#
# Static dielectric constant tensor:
#      x y z
#    x 1.917740 -0.000030 -0.020680 
#    y -0.000030 1.889640 0.000060 
#    z -0.020680 0.000060 1.889150 
# 
# From -- ./inp_files/278652.got.cif
#   From: 2010.05.17/outbox.cif.g08.bks.cpg/sg12_140_cif.got.tgz:278652.got - 2010.06.03 13:09:07.
