data_PCOD9203960
_publ_section_title
;
Structure prediction by ZEFSAII (Michael W. Deem and Ramdas Pophale) SiO2 
 PCOD9203960
Probable space group: C 2/M
;
_chemical_formula_sum "Si O2"
_cell_formula_units_Z 50
_cell_length_a 9.380578
_cell_length_b 21.041564
_cell_length_c 13.215964
_cell_angle_alpha 90.000000
_cell_angle_beta 82.104817
_cell_angle_gamma 90.000000
_cell_volume 2583.867012
_symmetry_space_group_name_H-M "C 2/M"
_symmetry_group_IT_number 12
_symmetry_cell_setting 'monoclinic'
loop_
_space_group_symop_operation_xyz
x,y,z
-x,y,-z
-x,-y,-z
x,-y,z
1/2+x,1/2+y,z
1/2-x,1/2+y,-z
1/2-x,1/2-y,-z
1/2+x,1/2-y,z
loop_
_atom_site_type_symbol
_atom_site_label
_atom_site_fract_x
_atom_site_fract_y
_atom_site_fract_z
Si Si1 0.500000 0.222796 0.500000
Si Si2 0.234198 0.574847 0.972913
Si Si3 0.932123 0.240620 0.192320
Si Si4 0.157857 0.803205 0.324403
Si Si5 0.380950 0.110084 0.377462
Si Si6 0.985369 0.617534 0.843488
Si Si7 0.000000 0.842290 0.000000
Si Si8 0.500000 0.000000 0.500000
O O1 0.612546 0.266731 0.430419
O O2 0.431198 0.176142 0.423642
O O3 0.258379 0.500000 0.959575
O O4 0.123373 0.598409 0.897912
O O5 0.380442 0.614342 0.958137
O O6 0.151514 0.588707 0.086738
O O7 0.781967 0.264236 0.253221
O O8 0.018228 0.306039 0.161149
O O9 0.019617 0.199078 0.265305
O O10 0.922205 0.201718 0.090199
O O11 0.226429 0.871354 0.345378
O O12 0.486184 0.094400 0.273160
O O13 0.398356 0.055670 0.457487
#
# Coordination Sequence:
#
# PCOD9203960 Si02
#       8
#     4   8   8   8   8   8   4   2
#     4  11  20  39  64  93 124 155 196 254 314 367
#     4  11  24  38  60  85 120 167 206 242 298 365
#     4  11  23  37  63  94 124 154 200 252 322 363
#     4  11  21  39  61  97 125 158 197 252 315 375
#     4  10  22  37  63  91 120 158 204 254 295 352
#     4  10  20  40  62  89 115 153 209 255 296 358
#     4  12  23  38  58  90 129 160 188 258 308 374
#     4  10  24  40  60  92 116 166 216 248 284 344
#
# _framework density 19.350840999999999
#
# number of rings (size 3 to 8) (size 9 to 14) (size 15 to 20)
#    0.000    1.280    3.200    5.520    2.240    1.920 
#    0.000    0.000    0.000    0.480    0.000    0.000 
#    0.000    0.000    0.000    0.000    0.000    0.000 
#
# Total GULP energy -139362.408577 kJ/mol
# GULP energy per Si atom -5574.496343 kJ/mol
# Density = 1.930680 g / cm^3
# Si number density = 19.350841 Si / 1000 Ang^3
#
#
#
# Elastic Constant Matrix: (Units=GPa)
#
#
# Indices 1 2 3 4 5 6 
#
# 1 42.3407 13.3193 3.3999 0.0000 -6.3671 0.0000
# 2 13.3193 91.3352 11.7096 0.0000 -3.8833 0.0000
# 3 3.3999 11.7096 78.5527 0.0000 -10.7768 0.0000
# 4 0.0000 0.0000 0.0000 9.7266 0.0000 7.0089
# 5 -6.3671 -3.8833 -10.7768 0.0000 23.4287 0.0000
# 6 0.0000 0.0000 0.0000 7.0089 0.0000 15.3804
#
#
#
# Elastic Compliance Matrix: (Units=1/GPa)
#
#
# Indices 1 2 3 4 5 6 
#
# 1 0.025680 -0.003506 0.000308 0.000000 0.006540 0.000000
# 2 -0.003506 0.011670 -0.001551 0.000000 0.000268 0.000000
# 3 0.000308 -0.001551 0.013795 0.000000 0.006172 0.000000
# 4 0.000000 0.000000 0.000000 0.153078 0.000000 -0.069758
# 5 0.006540 0.000268 0.006172 0.000000 0.047343 0.000000
# 6 0.000000 0.000000 0.000000 -0.069758 0.000000 0.096807
#
#
# Mechanical properties :
#
#
# Convention : Reuss Voigt Hill
#
# Bulk Modulus (GPa) = 24.01154 29.89846 26.95500
# Shear Modulus (GPa) = 13.44976 21.96046 17.70511
#
# Velocity S-wave (km/s) = 2.63924 3.37242 3.02810
# Velocity P-wave (km/s) = 4.66078 5.53611 5.11720
#
# Compressibility (1/GPa) = 0.04164665
#
# Stress axis : x y z
#
# Youngs Moduli (GPa) = 38.94147 85.68790 72.49031
#
# Poissons Ratio (x) = 0.30045 -0.02235
# Poissons Ratio (y) = 0.13654 0.11244
# Poissons Ratio (z) = -0.01201 0.13291
#
# Static dielectric constant tensor:
#      x y z
#    x 1.696470 0.000000 0.023480 
#    y 0.000000 1.646440 0.000000 
#    z 0.023480 0.000000 1.704480 
# 
# From -- ./inp_files/197046.got.cif
#   From: 2010.05.17/outbox.cif.g08.bks.cpg/sg12_99_cif.got.tgz:197046.got - 2010.06.03 13:09:07.
