data_PCOD9203247
_publ_section_title
;
Structure prediction by ZEFSAII (Michael W. Deem and Ramdas Pophale) SiO2 
 PCOD9203247
Probable space group: C 2/M
;
_chemical_formula_sum "Si O2"
_cell_formula_units_Z 64
_cell_length_a 26.754404
_cell_length_b 24.338682
_cell_length_c 13.468094
_cell_angle_alpha 90.000000
_cell_angle_beta 158.059161
_cell_angle_gamma 90.000000
_cell_volume 3276.893530
_symmetry_space_group_name_H-M "C 2/M"
_symmetry_group_IT_number 12
_symmetry_cell_setting 'monoclinic'
loop_
_space_group_symop_operation_xyz
x,y,z
-x,y,-z
-x,-y,-z
x,-y,z
1/2+x,1/2+y,z
1/2-x,1/2+y,-z
1/2-x,1/2-y,-z
1/2+x,1/2-y,z
loop_
_atom_site_type_symbol
_atom_site_label
_atom_site_fract_x
_atom_site_fract_y
_atom_site_fract_z
Si Si1 0.901747 0.334832 0.412447
Si Si2 0.814052 0.890423 0.117484
Si Si3 0.607167 0.734867 0.285579
Si Si4 0.080059 0.062584 0.511917
Si Si5 0.008809 0.346657 0.207382
Si Si6 0.139554 0.437546 0.318389
Si Si7 0.849667 0.223941 0.262431
Si Si8 0.284990 0.373498 0.418354
O O1 0.979230 0.352591 0.652610
O O2 0.848593 0.272744 0.340589
O O3 0.000000 0.328724 0.500000
O O4 0.790401 0.375567 0.161846
O O5 0.815022 0.937835 0.201984
O O6 0.952595 0.901955 0.314430
O O7 0.961806 0.000000 0.584043
O O8 0.750000 0.750000 0.500000
O O9 0.557430 0.787411 0.257001
O O10 0.631507 0.680147 0.395315
O O11 0.500000 0.725487 0.000000
O O12 0.193755 0.161163 0.819175
O O13 0.141173 0.090254 0.527654
O O14 0.104996 0.393735 0.339568
O O15 0.858545 0.354851 0.890635
O O16 0.172422 0.500000 0.409854
O O17 0.249123 0.410810 0.447760
O O18 0.000000 0.440446 0.000000
O O19 0.000000 0.219193 0.500000
O O20 0.750000 0.250000 0.000000
#
# Coordination Sequence:
#
# PCOD9203247 Si02
#       8
#     8   8   8   8   8   8   8   8
#     4  10  22  37  59  93 132 163 210 265 313 382
#     4  10  20  39  60  85 127 170 214 262 320 376
#     4  12  23  43  67  99 133 168 210 266 336 400
#     4  11  23  40  65  91 122 173 226 273 325 388
#     4  11  22  40  64  97 131 170 211 264 327 390
#     4   9  18  37  64  89 119 161 211 267 315 377
#     4   9  17  32  53  81 116 155 199 244 300 362
#     4  11  23  40  67  94 128 162 218 267 326 397
#
# _framework density 19.530692999999999
#
# number of rings (size 3 to 8) (size 9 to 14) (size 15 to 20)
#    0.000    1.625    3.750    2.250    1.750    1.500 
#    4.500    1.250    0.000    3.375    0.000    0.000 
#    0.000    0.000    0.000    0.000    0.000    0.000 
#
# Total GULP energy -178156.847051 kJ/mol
# GULP energy per Si atom -5567.401470 kJ/mol
# Density = 1.948624 g / cm^3
# Si number density = 19.530693 Si / 1000 Ang^3
#
#
#
# Elastic Constant Matrix: (Units=GPa)
#
#
# Indices 1 2 3 4 5 6 
#
# 1 109.4839 51.1737 30.4143 0.0000 -9.1753 0.0000
# 2 51.1737 140.4122 35.8808 0.0000 -3.9351 0.0000
# 3 30.4143 35.8808 93.3150 0.0000 -11.0467 0.0000
# 4 0.0000 0.0000 0.0000 18.3367 0.0000 -4.9543
# 5 -9.1753 -3.9351 -11.0467 0.0000 29.6270 0.0000
# 6 0.0000 0.0000 0.0000 -4.9543 0.0000 8.8481
#
#
#
# Elastic Compliance Matrix: (Units=1/GPa)
#
#
# Indices 1 2 3 4 5 6 
#
# 1 0.011611 -0.003626 -0.002115 0.000000 0.002326 0.000000
# 2 -0.003626 0.009031 -0.002387 0.000000 -0.000813 0.000000
# 3 -0.002115 -0.002387 0.012772 0.000000 0.003790 0.000000
# 4 0.000000 0.000000 0.000000 0.064256 0.000000 0.035979
# 5 0.002326 -0.000813 0.003790 0.000000 0.035778 0.000000
# 6 0.000000 0.000000 0.000000 0.035979 0.000000 0.133165
#
#
# Mechanical properties :
#
#
# Convention : Reuss Voigt Hill
#
# Bulk Modulus (GPa) = 58.28078 64.23873 61.25975
# Shear Modulus (GPa) = 17.32572 26.41183 21.86878
#
# Velocity S-wave (km/s) = 2.98166 3.68139 3.34984
# Velocity P-wave (km/s) = 6.46213 7.14372 6.81145
#
# Compressibility (1/GPa) = 0.01715832
#
# Stress axis : x y z
#
# Youngs Moduli (GPa) = 86.12519 110.73521 78.29546
#
# Poissons Ratio (x) = 0.40153 0.16558
# Poissons Ratio (y) = 0.31230 0.18688
# Poissons Ratio (z) = 0.18214 0.26430
#
# Static dielectric constant tensor:
#      x y z
#    x 1.692490 0.000000 0.002190 
#    y 0.000000 1.765920 0.000000 
#    z 0.002190 0.000000 1.705630 
# 
# From -- ./inp_files/251949.got.cif
#   From: 2010.05.17/outbox.cif.g08.bks.cpg/sg12_126_cif.got.tgz:251949.got - 2010.06.03 13:09:07.
