data_PCOD9203197
_publ_section_title
;
Structure prediction by ZEFSAII (Michael W. Deem and Ramdas Pophale) SiO2 
 PCOD9203197
Probable space group: C 2/M
;
_chemical_formula_sum "Si O2"
_cell_formula_units_Z 56
_cell_length_a 11.953552
_cell_length_b 14.873526
_cell_length_c 18.482442
_cell_angle_alpha 90.000000
_cell_angle_beta 59.888902
_cell_angle_gamma 90.000000
_cell_volume 2842.586015
_symmetry_space_group_name_H-M "C 2/M"
_symmetry_group_IT_number 12
_symmetry_cell_setting 'monoclinic'
loop_
_space_group_symop_operation_xyz
x,y,z
-x,y,-z
-x,-y,-z
x,-y,z
1/2+x,1/2+y,z
1/2-x,1/2+y,-z
1/2-x,1/2-y,-z
1/2+x,1/2-y,z
loop_
_atom_site_type_symbol
_atom_site_label
_atom_site_fract_x
_atom_site_fract_y
_atom_site_fract_z
Si Si1 0.305476 0.394789 0.286048
Si Si2 0.602968 0.230444 0.274493
Si Si3 0.765351 0.102760 0.692733
Si Si4 0.062072 0.363965 0.874507
Si Si5 0.813085 0.737286 0.401999
Si Si6 0.288577 0.098742 0.026255
Si Si7 0.960894 0.195052 0.857871
O O1 0.279913 0.500000 0.307757
O O2 0.201706 0.347091 0.266415
O O3 0.301623 0.328472 0.357294
O O4 0.448650 0.382025 0.205202
O O5 0.651532 0.328392 0.285842
O O6 0.464765 0.215075 0.356456
O O7 0.581113 0.242451 0.196251
O O8 0.628376 0.102866 0.779775
O O9 0.750480 0.155247 0.622187
O O10 0.811460 0.000000 0.672473
O O11 0.149691 0.393981 0.913272
O O12 0.054446 0.256151 0.875817
O O13 0.913907 0.391277 0.935200
O O14 0.750000 0.750000 0.500000
O O15 0.168039 0.164917 0.060195
O O16 0.233682 0.000000 0.034039
#
# Coordination Sequence:
#
# PCOD9203197 Si02
#       7
#     8   8   8   8   8   8   8
#     4  10  21  37  58  85 114 148 192 235 282 344
#     4  10  20  39  58  83 113 150 187 234 291 335
#     4  11  21  37  61  87 116 150 194 237 285 343
#     4  11  20  36  54  86 117 151 194 238 286 333
#     4  10  23  42  61  84 117 148 186 235 290 349
#     4  11  22  34  56  85 117 153 195 244 284 330
#     4  11  19  37  57  82 114 157 193 235 284 341
#
# _framework density 19.700371000000001
#
# number of rings (size 3 to 8) (size 9 to 14) (size 15 to 20)
#    0.000    1.429    5.714    2.571    0.000    5.714 
#    0.000    1.429    0.000    0.000    0.000    8.000 
#    0.000    0.000    0.000    0.000    0.000    0.000 
#
# Total GULP energy -156200.860162 kJ/mol
# GULP energy per Si atom -5578.602149 kJ/mol
# Density = 1.965553 g / cm^3
# Si number density = 19.700371 Si / 1000 Ang^3
#
#
#
# Elastic Constant Matrix: (Units=GPa)
#
#
# Indices 1 2 3 4 5 6 
#
# 1 43.8075 5.1192 -11.4639 0.0000 -2.1283 0.0000
# 2 5.1192 107.1454 -15.5950 0.0000 11.0697 0.0000
# 3 -11.4639 -15.5950 43.9674 0.0000 9.0010 0.0000
# 4 0.0000 0.0000 0.0000 19.8086 0.0000 0.8133
# 5 -2.1283 11.0697 9.0010 0.0000 17.3075 0.0000
# 6 0.0000 0.0000 0.0000 0.8133 0.0000 23.2566
#
#
#
# Elastic Compliance Matrix: (Units=1/GPa)
#
#
# Indices 1 2 3 4 5 6 
#
# 1 0.024505 -0.000236 0.006332 0.000000 -0.000129 0.000000
# 2 -0.000236 0.011307 0.006083 0.000000 -0.010424 0.000000
# 3 0.006332 0.006083 0.030430 0.000000 -0.018937 0.000000
# 4 0.000000 0.000000 0.000000 0.050556 0.000000 -0.001768
# 5 -0.000129 -0.010424 -0.018937 0.000000 0.074279 0.000000
# 6 0.000000 0.000000 0.000000 -0.001768 0.000000 0.043060
#
#
# Mechanical properties :
#
#
# Convention : Reuss Voigt Hill
#
# Bulk Modulus (GPa) = 11.03745 16.78231 13.90988
# Shear Modulus (GPa) = 20.83522 26.53186 23.68354
#
# Velocity S-wave (km/s) = 3.25561 3.67382 3.47102
# Velocity P-wave (km/s) = 4.44374 5.15104 4.81041
#
# Compressibility (1/GPa) = 0.09060060
#
# Stress axis : x y z
#
# Youngs Moduli (GPa) = 40.80717 88.44272 32.86268
#
# Poissons Ratio (x) = 0.02086 -0.20809
# Poissons Ratio (y) = 0.00963 -0.19990
# Poissons Ratio (z) = -0.25840 -0.53800
#
# Static dielectric constant tensor:
#      x y z
#    x 1.702520 0.000000 -0.002660 
#    y 0.000000 1.716270 0.000000 
#    z -0.002660 0.000000 1.697170 
# 
# From -- ./inp_files/263236.got.cif
#   From: 2010.05.17/outbox.cif.g08.bks.cpg/sg12_132_cif.got.tgz:263236.got - 2010.06.03 13:09:07.
