data_PCOD9203213
_publ_section_title
;
Structure prediction by ZEFSAII (Michael W. Deem and Ramdas Pophale) SiO2 
 PCOD9203213
Probable space group: C 2/M
;
_chemical_formula_sum "Si O2"
_cell_formula_units_Z 56
_cell_length_a 12.270468
_cell_length_b 18.052778
_cell_length_c 14.416761
_cell_angle_alpha 90.000000
_cell_angle_beta 112.886467
_cell_angle_gamma 90.000000
_cell_volume 2942.139311
_symmetry_space_group_name_H-M "C 2/M"
_symmetry_group_IT_number 12
_symmetry_cell_setting 'monoclinic'
loop_
_space_group_symop_operation_xyz
x,y,z
-x,y,-z
-x,-y,-z
x,-y,z
1/2+x,1/2+y,z
1/2-x,1/2+y,-z
1/2-x,1/2-y,-z
1/2+x,1/2-y,z
loop_
_atom_site_type_symbol
_atom_site_label
_atom_site_fract_x
_atom_site_fract_y
_atom_site_fract_z
Si Si1 0.807668 0.673215 0.984621
Si Si2 0.931750 0.912584 0.066742
Si Si3 0.559645 0.670135 0.267533
Si Si4 0.323439 0.911808 0.635404
Si Si5 0.294386 0.180734 0.451314
Si Si6 0.402772 0.311441 0.392092
Si Si7 0.560130 0.172122 0.166422
O O1 0.701413 0.616316 0.966673
O O2 0.849904 0.669882 0.891260
O O3 0.750000 0.750000 0.000000
O O4 0.928004 0.663109 0.082878
O O5 0.010828 0.889124 0.179910
O O6 0.927473 0.000000 0.056619
O O7 0.000000 0.879704 0.000000
O O8 0.680273 0.649417 0.360442
O O9 0.459211 0.682208 0.310799
O O10 0.576651 0.747790 0.219853
O O11 0.349810 0.877098 0.542055
O O12 0.206467 0.866680 0.629501
O O13 0.415259 0.888118 0.745588
O O14 0.307784 0.000000 0.625757
O O15 0.250000 0.250000 0.500000
O O16 0.372696 0.225390 0.403380
O O17 0.500000 0.333456 0.500000
#
# Coordination Sequence:
#
# PCOD9203213 Si02
#       7
#     8   8   8   8   8   8   8
#     4  11  23  40  66  95 127 166 219 269 319 385
#     4  11  26  45  65  96 135 168 209 271 332 381
#     4  12  21  37  66  92 126 162 210 260 315 378
#     4  11  23  40  60  90 132 169 211 260 315 386
#     4  10  20  39  58  89 127 162 203 256 316 369
#     4  11  20  36  61  92 121 164 209 258 317 368
#     4  11  23  39  63  98 125 169 220 264 316 382
#
# _framework density 19.033768999999999
#
# number of rings (size 3 to 8) (size 9 to 14) (size 15 to 20)
#    0.000    1.000    7.143    1.714    0.000    4.857 
#    0.000    1.429    0.000    3.857    0.000    0.000 
#    0.000    0.000    0.000    0.000    0.000    0.000 
#
# Total GULP energy -156308.363997 kJ/mol
# GULP energy per Si atom -5582.441571 kJ/mol
# Density = 1.899045 g / cm^3
# Si number density = 19.033769 Si / 1000 Ang^3
#
#
#
# Elastic Constant Matrix: (Units=GPa)
#
#
# Indices 1 2 3 4 5 6 
#
# 1 43.9221 22.8709 28.9569 0.0000 7.7578 0.0000
# 2 22.8709 100.2209 36.3450 0.0000 0.6382 0.0000
# 3 28.9569 36.3450 114.9491 0.0000 8.6875 0.0000
# 4 0.0000 0.0000 0.0000 30.1691 0.0000 3.5324
# 5 7.7578 0.6382 8.6875 0.0000 30.5710 0.0000
# 6 0.0000 0.0000 0.0000 3.5324 0.0000 21.4063
#
#
#
# Elastic Compliance Matrix: (Units=1/GPa)
#
#
# Indices 1 2 3 4 5 6 
#
# 1 0.029991 -0.004776 -0.005597 0.000000 -0.005920 0.000000
# 2 -0.004776 0.012050 -0.002738 0.000000 0.001739 0.000000
# 3 -0.005597 -0.002738 0.011102 0.000000 -0.001677 0.000000
# 4 0.000000 0.000000 0.000000 0.033800 0.000000 -0.005578
# 5 -0.005920 0.001739 -0.001677 0.000000 0.034653 0.000000
# 6 0.000000 0.000000 0.000000 -0.005578 0.000000 0.047636
#
#
# Mechanical properties :
#
#
# Convention : Reuss Voigt Hill
#
# Bulk Modulus (GPa) = 37.14880 48.38198 42.76539
# Shear Modulus (GPa) = 24.45851 27.82390 26.14120
#
# Velocity S-wave (km/s) = 3.58859 3.82752 3.70998
# Velocity P-wave (km/s) = 6.06055 6.70876 6.39288
#
# Compressibility (1/GPa) = 0.02691877
#
# Stress axis : x y z
#
# Youngs Moduli (GPa) = 33.34377 82.98839 90.07355
#
# Poissons Ratio (x) = 0.39639 0.50417
# Poissons Ratio (y) = 0.15927 0.24663
# Poissons Ratio (z) = 0.18663 0.22723
#
# Static dielectric constant tensor:
#      x y z
#    x 1.820170 0.000000 -0.007030 
#    y 0.000000 1.640680 0.000000 
#    z -0.007030 0.000000 1.708560 
# 
# From -- ./inp_files/206255.got.cif
#   From: 2010.05.17/outbox.cif.g08.bks.cpg/sg12_104_cif.got.tgz:206255.got - 2010.06.03 13:09:07.
