data_PCOD9203581
_publ_section_title
;
Structure prediction by ZEFSAII (Michael W. Deem and Ramdas Pophale) SiO2 
 PCOD9203581
Probable space group: C 2/M
;
_chemical_formula_sum "Si O2"
_cell_formula_units_Z 56
_cell_length_a 16.682959
_cell_length_b 20.019247
_cell_length_c 9.509806
_cell_angle_alpha 90.000000
_cell_angle_beta 131.647305
_cell_angle_gamma 90.000000
_cell_volume 2373.330472
_symmetry_space_group_name_H-M "C 2/M"
_symmetry_group_IT_number 12
_symmetry_cell_setting 'monoclinic'
loop_
_space_group_symop_operation_xyz
x,y,z
-x,y,-z
-x,-y,-z
x,-y,z
1/2+x,1/2+y,z
1/2-x,1/2+y,-z
1/2-x,1/2-y,-z
1/2+x,1/2-y,z
loop_
_atom_site_type_symbol
_atom_site_label
_atom_site_fract_x
_atom_site_fract_y
_atom_site_fract_z
Si Si1 0.707163 0.574006 0.886771
Si Si2 0.896989 0.861387 0.468100
Si Si3 0.409512 0.575008 0.986474
Si Si4 0.550862 0.079253 0.217356
Si Si5 0.781692 0.882967 0.596832
Si Si6 0.254709 0.235573 0.234080
Si Si7 0.615025 0.179855 0.877959
O O1 0.735420 0.500000 0.964340
O O2 0.642654 0.575914 0.668627
O O3 0.632644 0.606295 0.919807
O O4 0.810260 0.618005 0.991005
O O5 0.885005 0.881600 0.614746
O O6 0.812371 0.801699 0.355987
O O7 0.000000 0.838369 0.500000
O O8 0.447708 0.500000 0.066831
O O9 0.309274 0.571595 0.763275
O O10 0.500000 0.610031 0.000000
O O11 0.678290 0.092504 0.388185
O O12 0.498681 0.142216 0.243610
O O13 0.531027 0.000000 0.234410
O O14 0.500000 0.085765 0.000000
O O15 0.765936 0.812595 0.658942
O O16 0.337946 0.203159 0.217880
O O17 0.148169 0.260809 0.024934
#
# Coordination Sequence:
#
# PCOD9203581 Si02
#       7
#     8   8   8   8   8   8   8
#     4  10  20  39  64  91 127 171 222 275 340 413
#     4  11  25  41  64  95 132 178 226 283 343 412
#     4  10  21  39  64  95 133 174 223 290 356 417
#     4  11  25  44  70 105 145 190 236 294 364 432
#     4  12  24  44  69 104 139 179 240 294 355 422
#     4  10  23  43  66  96 134 181 232 287 343 413
#     4  10  21  43  68  95 135 181 229 279 352 412
#
# _framework density 23.595534000000001
#
# number of rings (size 3 to 8) (size 9 to 14) (size 15 to 20)
#    0.000    1.429    1.429    3.857    2.000    2.571 
#    0.000    0.714    0.000    0.000    0.000    0.000 
#    0.000    0.000    0.000    0.000    0.000    0.000 
#
# Total GULP energy -156079.135192 kJ/mol
# GULP energy per Si atom -5574.254828 kJ/mol
# Density = 2.354183 g / cm^3
# Si number density = 23.595534 Si / 1000 Ang^3
#
#
#
# Elastic Constant Matrix: (Units=GPa)
#
#
# Indices 1 2 3 4 5 6 
#
# 1 102.6901 17.1252 36.2413 0.0000 -13.2142 0.0000
# 2 17.1252 99.7159 10.4318 0.0000 -2.0826 0.0000
# 3 36.2413 10.4318 87.8130 0.0000 -22.7287 0.0000
# 4 0.0000 0.0000 0.0000 23.6845 0.0000 11.9121
# 5 -13.2142 -2.0826 -22.7287 0.0000 39.1159 0.0000
# 6 0.0000 0.0000 0.0000 11.9121 0.0000 -4.9527
#
#
#
# Elastic Compliance Matrix: (Units=1/GPa)
#
#
# Indices 1 2 3 4 5 6 
#
# 1 0.011682 -0.001529 -0.004283 0.000000 0.001376 0.000000
# 2 -0.001529 0.010356 -0.000695 0.000000 -0.000369 0.000000
# 3 -0.004283 -0.000695 0.015129 0.000000 0.007307 0.000000
# 4 0.000000 0.000000 0.000000 0.019108 0.000000 0.045957
# 5 0.001376 -0.000369 0.007307 0.000000 0.030256 0.000000
# 6 0.000000 0.000000 0.000000 0.045957 0.000000 -0.091376
#
#
# Mechanical properties :
#
#
# Convention : Reuss Voigt Hill
#
# Bulk Modulus (GPa) = 41.40306 46.42396 43.91351
# Shear Modulus (GPa) = 308.24028 26.66427 167.45227
#
# Velocity S-wave (km/s) = 11.44197 3.36528 8.43338
# Velocity P-wave (km/s) = 13.86157 5.90065 10.65272
#
# Compressibility (1/GPa) = 0.02415280
#
# Stress axis : x y z
#
# Youngs Moduli (GPa) = 85.60302 96.56136 66.09639
#
# Poissons Ratio (x) = 0.14768 0.28311
# Poissons Ratio (y) = 0.13092 0.04591
# Poissons Ratio (z) = 0.36667 0.06707
#
# Static dielectric constant tensor:
#      x y z
#    x 1.965210 0.000000 0.036870 
#    y 0.000000 1.953670 0.000000 
#    z 0.036870 0.000000 1.952290 
# 
# From -- ./inp_files/79176.got.cif
#   From: 2010.05.17/outbox.cif.g08.bks.cpg/sg12_40_cif.got.tgz:79176.got - 2010.06.03 13:09:07.
