data_PCOD9203901
_publ_section_title
;
Structure prediction by ZEFSAII (Michael W. Deem and Ramdas Pophale) SiO2 
 PCOD9203901
Probable space group: C 2/M
;
_chemical_formula_sum "Si O2"
_cell_formula_units_Z 56
_cell_length_a 11.983501
_cell_length_b 27.379237
_cell_length_c 13.088046
_cell_angle_alpha 90.000000
_cell_angle_beta 35.771803
_cell_angle_gamma 90.000000
_cell_volume 2510.197061
_symmetry_space_group_name_H-M "C 2/M"
_symmetry_group_IT_number 12
_symmetry_cell_setting 'monoclinic'
loop_
_space_group_symop_operation_xyz
x,y,z
-x,y,-z
-x,-y,-z
x,-y,z
1/2+x,1/2+y,z
1/2-x,1/2+y,-z
1/2-x,1/2-y,-z
1/2+x,1/2-y,z
loop_
_atom_site_type_symbol
_atom_site_label
_atom_site_fract_x
_atom_site_fract_y
_atom_site_fract_z
Si Si1 0.823792 0.298242 0.700325
Si Si2 0.505043 0.154265 0.220495
Si Si3 0.452449 0.054754 0.726380
Si Si4 0.269238 0.782287 0.088478
Si Si5 0.944669 0.155026 0.425575
Si Si6 0.155841 0.103145 0.798982
Si Si7 0.590175 0.445525 0.644802
O O1 0.894035 0.323384 0.753676
O O2 0.705271 0.252640 0.831575
O O3 0.724967 0.343039 0.713470
O O4 0.000000 0.281661 0.500000
O O5 0.562296 0.097263 0.178820
O O6 0.282514 0.161858 0.408947
O O7 0.573431 0.178983 0.065305
O O8 0.329616 0.073128 0.720632
O O9 0.677922 0.053962 0.533851
O O10 0.393244 0.000000 0.798895
O O11 0.071915 0.810927 0.258358
O O12 0.250000 0.750000 0.000000
O O13 0.983463 0.098160 0.370745
O O14 0.000000 0.165057 0.500000
O O15 0.057447 0.071818 0.784493
O O16 0.000000 0.112927 0.000000
O O17 0.520459 0.500000 0.674369
#
# Coordination Sequence:
#
# PCOD9203901 Si02
#       7
#     8   8   8   8   8   8   8
#     4  10  20  40  60  89 123 166 206 249 325 391
#     4   9  21  41  62  88 129 163 205 270 313 368
#     4   9  18  36  61  89 124 163 200 243 319 400
#     4  10  23  41  64  92 120 164 220 264 324 378
#     4  11  24  43  63  89 125 168 221 272 309 363
#     4  11  22  34  57  97 134 156 196 254 320 397
#     4  10  22  40  65  90 123 169 207 256 322 380
#
# _framework density 22.309006
#
# number of rings (size 3 to 8) (size 9 to 14) (size 15 to 20)
#    0.000    2.000    0.000    3.857    6.000    5.429 
#    5.143    0.000    0.000    0.000    0.000    5.000 
#    0.000    0.000    0.000    0.000    0.000    0.000 
#
# Total GULP energy -156431.035459 kJ/mol
# GULP energy per Si atom -5586.822695 kJ/mol
# Density = 2.225823 g / cm^3
# Si number density = 22.309006 Si / 1000 Ang^3
#
#
#
# Elastic Constant Matrix: (Units=GPa)
#
#
# Indices 1 2 3 4 5 6 
#
# 1 29.6190 25.2819 8.7137 0.0000 2.3962 0.0000
# 2 25.2819 163.4831 77.7495 0.0000 4.9561 0.0000
# 3 8.7137 77.7495 115.2394 0.0000 12.1882 0.0000
# 4 0.0000 0.0000 0.0000 23.2856 0.0000 7.2362
# 5 2.3962 4.9561 12.1882 0.0000 24.5538 0.0000
# 6 0.0000 0.0000 0.0000 7.2362 0.0000 14.2206
#
#
#
# Elastic Compliance Matrix: (Units=1/GPa)
#
#
# Indices 1 2 3 4 5 6 
#
# 1 0.039388 -0.006986 0.002103 0.000000 -0.003477 0.000000
# 2 -0.006986 0.010283 -0.006609 0.000000 0.001887 0.000000
# 3 0.002103 -0.006609 0.013571 0.000000 -0.005608 0.000000
# 4 0.000000 0.000000 0.000000 0.051011 0.000000 -0.025957
# 5 -0.003477 0.001887 -0.005608 0.000000 0.043469 0.000000
# 6 0.000000 0.000000 0.000000 -0.025957 0.000000 0.083529
#
#
# Mechanical properties :
#
#
# Convention : Reuss Voigt Hill
#
# Bulk Modulus (GPa) = 24.84032 59.09241 41.96637
# Shear Modulus (GPa) = 18.00801 25.51842 21.76322
#
# Velocity S-wave (km/s) = 2.84422 3.38577 3.12674
# Velocity P-wave (km/s) = 4.68455 6.46763 5.64691
#
# Compressibility (1/GPa) = 0.04025713
#
# Stress axis : x y z
#
# Youngs Moduli (GPa) = 25.38866 97.24679 73.68810
#
# Poissons Ratio (x) = 0.67933 -0.15494
# Poissons Ratio (y) = 0.17736 0.48701
# Poissons Ratio (z) = -0.05338 0.64272
#
# Static dielectric constant tensor:
#      x y z
#    x 1.850690 0.000000 -0.013630 
#    y 0.000000 1.882170 0.000000 
#    z -0.013630 0.000000 1.823350 
# 
# From -- ./inp_files/219068.got.cif
#   From: 2010.05.17/outbox.cif.g08.bks.cpg/sg12_110_cif.got.tgz:219068.got - 2010.06.03 13:09:07.
