data_PCOD9203401
_publ_section_title
;
Structure prediction by ZEFSAII (Michael W. Deem and Ramdas Pophale) SiO2 
 PCOD9203401
Probable space group: C 2/M
;
_chemical_formula_sum "Si O2"
_cell_formula_units_Z 32
_cell_length_a 13.282852
_cell_length_b 17.249131
_cell_length_c 10.555413
_cell_angle_alpha 90.000000
_cell_angle_beta 146.590271
_cell_angle_gamma 90.000000
_cell_volume 1331.642760
_symmetry_space_group_name_H-M "C 2/M"
_symmetry_group_IT_number 12
_symmetry_cell_setting 'monoclinic'
loop_
_space_group_symop_operation_xyz
x,y,z
-x,y,-z
-x,-y,-z
x,-y,z
1/2+x,1/2+y,z
1/2-x,1/2+y,-z
1/2-x,1/2-y,-z
1/2+x,1/2-y,z
loop_
_atom_site_type_symbol
_atom_site_label
_atom_site_fract_x
_atom_site_fract_y
_atom_site_fract_z
Si Si1 0.916674 0.653957 0.596008
Si Si2 0.063297 0.913846 0.197570
Si Si3 0.718199 0.405595 0.899016
Si Si4 0.207153 0.293376 0.257742
O O1 0.780423 0.585230 0.417165
O O2 0.836677 0.674651 0.649583
O O3 0.851900 0.723872 0.435352
O O4 0.121718 0.626076 0.838220
O O5 0.967989 0.881475 0.223667
O O6 0.986445 0.000000 0.118396
O O7 0.000000 0.878521 0.000000
O O8 0.732821 0.500000 0.892419
O O9 0.731972 0.357645 0.782028
O O10 0.000000 0.271401 0.000000
#
# Coordination Sequence:
#
# PCOD9203401 Si02
#       4
#     8   8   8   8
#     4  10  20  39  62  89 129 169 204 256 323 382
#     4  10  22  40  62  91 127 167 215 267 319 381
#     4  10  22  41  67  96 125 165 217 268 317 375
#     4   9  20  39  62  93 129 165 208 259 318 382
#
# _framework density 24.030469
#
# number of rings (size 3 to 8) (size 9 to 14) (size 15 to 20)
#    0.000    2.250    0.000    1.500    0.000    7.500 
#    0.000   36.250    0.000    0.000    0.000    0.000 
#    0.000    0.000    0.000    0.000    0.000    0.250 
#
# Total GULP energy -89086.620214 kJ/mol
# GULP energy per Si atom -5567.913763 kJ/mol
# Density = 2.397577 g / cm^3
# Si number density = 24.030469 Si / 1000 Ang^3
#
#
#
# Elastic Constant Matrix: (Units=GPa)
#
#
# Indices 1 2 3 4 5 6 
#
# 1 96.2232 42.0772 25.0645 0.0000 -7.5346 0.0000
# 2 42.0772 143.1832 47.2711 0.0000 -13.2497 0.0000
# 3 25.0645 47.2711 133.9541 0.0000 0.5102 0.0000
# 4 0.0000 0.0000 0.0000 93.9736 0.0000 93.5307
# 5 -7.5346 -13.2497 0.5102 0.0000 38.0292 0.0000
# 6 0.0000 0.0000 0.0000 93.5307 0.0000 91.1783
#
#
#
# Elastic Compliance Matrix: (Units=1/GPa)
#
#
# Indices 1 2 3 4 5 6 
#
# 1 0.012144 -0.003046 -0.001203 0.000000 0.001361 0.000000
# 2 -0.003046 0.008977 -0.002608 0.000000 0.002559 0.000000
# 3 -0.001203 -0.002608 0.008615 0.000000 -0.001262 0.000000
# 4 0.000000 0.000000 0.000000 -0.507566 0.000000 0.520661
# 5 0.001361 0.002559 -0.001262 0.000000 0.027474 0.000000
# 6 0.000000 0.000000 0.000000 0.520661 0.000000 -0.523127
#
#
# Mechanical properties :
#
#
# Convention : Reuss Voigt Hill
#
# Bulk Modulus (GPa) = 62.40619 66.90957 64.65788
# Shear Modulus (GPa) = -5.23874 61.89940 28.33033
#
# Velocity S-wave (km/s) = -1.47810 5.08081 3.43729
# Velocity P-wave (km/s) = 4.80759 7.89453 6.53592
#
# Compressibility (1/GPa) = 0.01602405
#
# Stress axis : x y z
#
# Youngs Moduli (GPa) = 82.34346 111.39757 116.07236
#
# Poissons Ratio (x) = 0.33930 0.13960
# Poissons Ratio (y) = 0.25080 0.30268
# Poissons Ratio (z) = 0.09903 0.29049
#
# Static dielectric constant tensor:
#      x y z
#    x 1.945740 0.000000 -0.068950 
#    y 0.000000 1.935750 0.000000 
#    z -0.068950 0.000000 2.165600 
# 
# From -- ./inp_files/145904.got.cif
#   From: 2010.05.17/outbox.cif.g08.bks.cpg/sg12_73_cif.got.tgz:145904.got - 2010.06.03 13:09:07.
