data_PCOD9203676
_publ_section_title
;
Structure prediction by ZEFSAII (Michael W. Deem and Ramdas Pophale) SiO2 
 PCOD9203676
Probable space group: C 2/M
;
_chemical_formula_sum "Si O2"
_cell_formula_units_Z 56
_cell_length_a 11.671328
_cell_length_b 18.959785
_cell_length_c 14.975788
_cell_angle_alpha 90.000000
_cell_angle_beta 120.200868
_cell_angle_gamma 90.000000
_cell_volume 2864.121173
_symmetry_space_group_name_H-M "C 2/M"
_symmetry_group_IT_number 12
_symmetry_cell_setting 'monoclinic'
loop_
_space_group_symop_operation_xyz
x,y,z
-x,y,-z
-x,-y,-z
x,-y,z
1/2+x,1/2+y,z
1/2-x,1/2+y,-z
1/2-x,1/2-y,-z
1/2+x,1/2-y,z
loop_
_atom_site_type_symbol
_atom_site_label
_atom_site_fract_x
_atom_site_fract_y
_atom_site_fract_z
Si Si1 0.906700 0.082436 0.049315
Si Si2 0.362301 0.080593 0.162327
Si Si3 0.931028 0.916713 0.563293
Si Si4 0.189208 0.678973 0.513211
Si Si5 0.380771 0.653823 0.222595
Si Si6 0.403454 0.083280 0.878779
Si Si7 0.899226 0.692846 0.321739
O O1 0.922920 0.136877 0.137061
O O2 0.929825 0.000000 0.086180
O O3 0.754978 0.086981 0.956007
O O4 0.000000 0.095979 0.000000
O O5 0.503922 0.093642 0.171219
O O6 0.341134 0.135129 0.232498
O O7 0.359008 0.000000 0.193544
O O8 0.789235 0.882764 0.526660
O O9 0.000000 0.887958 0.500000
O O10 0.028951 0.896130 0.681089
O O11 0.917625 0.000000 0.549468
O O12 0.250000 0.750000 0.500000
O O13 0.177484 0.690750 0.614680
O O14 0.047259 0.671401 0.410427
O O15 0.227874 0.629784 0.171711
O O16 0.398706 0.732345 0.269619
O O17 0.366587 0.000000 0.869651
O O18 0.500000 0.098262 0.000000
#
# Coordination Sequence:
#
# PCOD9203676 Si02
#       7
#     8   8   8   8   8   8   8
#     4  10  22  41  65  95 136 177 215 266 330 398
#     4  10  23  43  65  95 129 169 220 266 322 396
#     4  11  25  42  69 104 131 168 227 285 331 397
#     4  11  24  48  65  89 131 176 216 270 343 396
#     4  12  23  41  66  97 133 173 220 277 331 393
#     4  10  20  39  65  92 128 172 212 261 321 384
#     4  11  27  42  69  95 126 177 222 272 335 400
#
# _framework density 19.552246
#
# number of rings (size 3 to 8) (size 9 to 14) (size 15 to 20)
#    0.000    1.286    2.857    2.143    6.000    1.714 
#    0.000    1.429    0.000    0.000    0.000    0.000 
#    0.000    0.000    0.000    0.000    0.000    0.000 
#
# Total GULP energy -156451.717398 kJ/mol
# GULP energy per Si atom -5587.561336 kJ/mol
# Density = 1.950774 g / cm^3
# Si number density = 19.552246 Si / 1000 Ang^3
#
#
#
# Elastic Constant Matrix: (Units=GPa)
#
#
# Indices 1 2 3 4 5 6 
#
# 1 117.7974 53.9108 50.5197 0.0000 -9.9221 0.0000
# 2 53.9108 86.5220 56.7475 0.0000 -14.8846 0.0000
# 3 50.5197 56.7475 101.1016 0.0000 -18.2889 0.0000
# 4 0.0000 0.0000 0.0000 25.1332 0.0000 -1.3938
# 5 -9.9221 -14.8846 -18.2889 0.0000 28.5056 0.0000
# 6 0.0000 0.0000 0.0000 -1.3938 0.0000 30.0370
#
#
#
# Elastic Compliance Matrix: (Units=1/GPa)
#
#
# Indices 1 2 3 4 5 6 
#
# 1 0.012417 -0.005862 -0.003039 0.000000 -0.000689 0.000000
# 2 -0.005862 0.021347 -0.008378 0.000000 0.003731 0.000000
# 3 -0.003039 -0.008378 0.017116 0.000000 0.005549 0.000000
# 4 0.000000 0.000000 0.000000 0.039891 0.000000 0.001851
# 5 -0.000689 0.003731 0.005549 0.000000 0.040349 0.000000
# 6 0.000000 0.000000 0.000000 0.001851 0.000000 0.033378
#
#
# Mechanical properties :
#
#
# Convention : Reuss Voigt Hill
#
# Bulk Modulus (GPa) = 61.26624 69.75302 65.50963
# Shear Modulus (GPa) = 24.45022 26.35137 25.40080
#
# Velocity S-wave (km/s) = 3.54009 3.67514 3.60825
# Velocity P-wave (km/s) = 6.93630 7.33223 7.13701
#
# Compressibility (1/GPa) = 0.01632220
#
# Stress axis : x y z
#
# Youngs Moduli (GPa) = 80.53186 46.84478 58.42618
#
# Poissons Ratio (x) = 0.27463 0.17755
# Poissons Ratio (y) = 0.47212 0.48947
# Poissons Ratio (z) = 0.24473 0.39245
#
# Static dielectric constant tensor:
#      x y z
#    x 1.615450 0.000000 -0.046130 
#    y 0.000000 1.671450 0.000000 
#    z -0.046130 0.000000 1.678680 
# 
# From -- ./inp_files/133887.got.cif
#   From: 2010.05.17/outbox.cif.g08.bks.cpg/sg12_67_cif.got.tgz:133887.got - 2010.06.03 13:09:07.
