data_PCOD9203240
_publ_section_title
;
Structure prediction by ZEFSAII (Michael W. Deem and Ramdas Pophale) SiO2 
 PCOD9203240
Probable space group: C 2/M
;
_chemical_formula_sum "Si O2"
_cell_formula_units_Z 52
_cell_length_a 9.592795
_cell_length_b 20.192815
_cell_length_c 19.337949
_cell_angle_alpha 90.000000
_cell_angle_beta 41.128345
_cell_angle_gamma 90.000000
_cell_volume 2463.836885
_symmetry_space_group_name_H-M "C 2/M"
_symmetry_group_IT_number 12
_symmetry_cell_setting 'monoclinic'
loop_
_space_group_symop_operation_xyz
x,y,z
-x,y,-z
-x,-y,-z
x,-y,z
1/2+x,1/2+y,z
1/2-x,1/2+y,-z
1/2-x,1/2-y,-z
1/2+x,1/2-y,z
loop_
_atom_site_type_symbol
_atom_site_label
_atom_site_fract_x
_atom_site_fract_y
_atom_site_fract_z
Si Si1 0.257713 0.606112 0.480796
Si Si2 0.902813 0.000000 0.617315
Si Si3 0.972840 0.286809 0.932346
Si Si4 0.389025 0.871840 0.249294
Si Si5 0.743592 0.923820 0.326779
Si Si6 0.019241 0.230981 0.415931
Si Si7 0.218485 0.325263 0.230589
O O1 0.407654 0.556681 0.466748
O O2 0.306129 0.591428 0.382060
O O3 0.329040 0.680602 0.470084
O O4 0.011773 0.587582 0.582787
O O5 0.734449 0.940848 0.702035
O O6 0.030439 0.342938 0.854235
O O7 0.142190 0.227454 0.861453
O O8 0.750000 0.250000 0.000000
O O9 0.000000 0.312746 0.000000
O O10 0.225232 0.816670 0.339169
O O11 0.584988 0.870112 0.228638
O O12 0.845661 0.872844 0.235278
O O13 0.789993 0.000000 0.294832
O O14 0.070656 0.281612 0.336069
O O15 0.000000 0.260916 0.500000
#
# Coordination Sequence:
#
# PCOD9203240 Si02
#       7
#     8   4   8   8   8   8   8
#     4  10  20  39  60  84 130 182 217 258 307 377
#     4  10  20  41  64  89 135 167 223 258 310 394
#     4  11  23  46  75  96 126 163 215 280 345 391
#     4  10  23  40  65  98 126 171 210 270 323 396
#     4  11  22  37  61  88 129 179 218 255 316 379
#     4  10  23  38  59  91 129 172 215 266 318 370
#     4  11  25  39  65  97 127 165 222 266 329 392
#
# _framework density 21.105293
#
# number of rings (size 3 to 8) (size 9 to 14) (size 15 to 20)
#    0.000    1.538    3.077    1.385    7.538    2.462 
#    0.000    2.692    1.692    1.385    0.000    0.000 
#    0.000    0.000    0.000    0.000    0.000    0.000 
#
# Total GULP energy -144888.089703 kJ/mol
# GULP energy per Si atom -5572.618835 kJ/mol
# Density = 2.105726 g / cm^3
# Si number density = 21.105293 Si / 1000 Ang^3
#
#
#
# Elastic Constant Matrix: (Units=GPa)
#
#
# Indices 1 2 3 4 5 6 
#
# 1 77.2681 3.6894 17.9023 -0.0009 13.2591 0.0004
# 2 3.6894 100.3578 2.3185 -0.0001 5.7569 0.0003
# 3 17.9023 2.3185 72.0776 -0.0001 13.2902 0.0007
# 4 -0.0009 -0.0001 -0.0001 14.3976 0.0005 -7.6453
# 5 13.2591 5.7569 13.2902 0.0005 36.8117 -0.0006
# 6 0.0004 0.0003 0.0007 -7.6453 -0.0006 25.4264
#
#
#
# Elastic Compliance Matrix: (Units=1/GPa)
#
#
# Indices 1 2 3 4 5 6 
#
# 1 0.014304 -0.000226 -0.002788 0.000001 -0.004110 0.000000
# 2 -0.000226 0.010058 0.000008 0.000000 -0.001495 0.000000
# 3 -0.002788 0.000008 0.015407 0.000000 -0.004560 -0.000001
# 4 0.000001 0.000000 0.000000 0.082653 -0.000001 0.024853
# 5 -0.004110 -0.001495 -0.004560 -0.000001 0.030526 0.000001
# 6 0.000000 0.000000 -0.000001 0.024853 0.000001 0.046802
#
#
# Mechanical properties :
#
#
# Convention : Reuss Voigt Hill
#
# Bulk Modulus (GPa) = 29.62208 33.05820 31.34014
# Shear Modulus (GPa) = 23.04009 30.38001 26.71005
#
# Velocity S-wave (km/s) = 3.30763 3.79812 3.56133
# Velocity P-wave (km/s) = 5.35286 5.91031 5.63848
#
# Compressibility (1/GPa) = 0.03375861
#
# Stress axis : x y z
#
# Youngs Moduli (GPa) = 69.91095 99.42146 64.90655
#
# Poissons Ratio (x) = 0.02243 0.18093
# Poissons Ratio (y) = 0.01578 -0.00053
# Poissons Ratio (z) = 0.19488 -0.00080
#
# Static dielectric constant tensor:
#      x y z
#    x 1.855260 0.000000 0.007310 
#    y 0.000000 1.771020 0.000000 
#    z 0.007310 0.000000 1.784290 
# 
# From -- ./inp_files/258437.got.cif
#   From: 2010.05.17/outbox.cif.g08.bks.cpg/sg12_130_cif.got.tgz:258437.got - 2010.06.03 13:09:07.
