data_PCOD9203131
_publ_section_title
;
Structure prediction by ZEFSAII (Michael W. Deem and Ramdas Pophale) SiO2 
 PCOD9203131
Probable space group: C 2/M
;
_chemical_formula_sum "Si O2"
_cell_formula_units_Z 42
_cell_length_a 24.067176
_cell_length_b 15.706783
_cell_length_c 14.348881
_cell_angle_alpha 90.000000
_cell_angle_beta 162.969439
_cell_angle_gamma 90.000000
_cell_volume 1588.629845
_symmetry_space_group_name_H-M "C 2/M"
_symmetry_group_IT_number 12
_symmetry_cell_setting 'monoclinic'
loop_
_space_group_symop_operation_xyz
x,y,z
-x,y,-z
-x,-y,-z
x,-y,z
1/2+x,1/2+y,z
1/2-x,1/2+y,-z
1/2-x,1/2-y,-z
1/2+x,1/2-y,z
loop_
_atom_site_type_symbol
_atom_site_label
_atom_site_fract_x
_atom_site_fract_y
_atom_site_fract_z
Si Si1 0.920080 0.407213 0.266424
Si Si2 0.037374 0.168897 0.675280
Si Si3 0.212510 0.907334 0.277214
Si Si4 0.984817 0.596437 0.865916
Si Si5 0.500000 0.500000 0.500000
Si Si6 0.164511 0.236772 0.072810
O O1 0.818860 0.500000 0.086734
O O2 0.756430 0.338319 0.991208
O O3 0.093817 0.407066 0.474606
O O4 0.000000 0.408825 0.500000
O O5 0.959244 0.078436 0.513481
O O6 0.886966 0.242805 0.408342
O O7 0.067374 0.185376 0.833203
O O8 0.274802 0.902168 0.484074
O O9 0.124076 0.821819 0.097548
O O10 0.124692 0.000000 0.117081
O O11 0.054284 0.500000 0.959122
O O12 0.087816 0.670981 0.975836
O O13 0.000000 0.611110 0.000000
#
# Coordination Sequence:
#
# PCOD9203131 Si02
#       6
#     8   8   8   8   2   8
#     4  10  20  38  67  99 143 196 245 296 360 431
#     4  12  28  47  67 109 147 204 243 312 352 446
#     4  10  22  41  70 103 142 191 244 300 368 438
#     4  10  24  48  75 104 143 191 244 309 387 451
#     4  12  32  44  74 100 162 196 252 286 372 420
#     4  12  26  46  75 108 144 190 252 314 371 439
#
# _framework density 26.437877
#
# number of rings (size 3 to 8) (size 9 to 14) (size 15 to 20)
#    0.000    1.143    4.762    0.000    5.333    3.810 
#    0.000    0.000    0.000    0.571    0.000    0.000 
#    0.000    0.000    0.000    0.000    0.000    0.000 
#
# Total GULP energy -117209.168407 kJ/mol
# GULP energy per Si atom -5581.388972 kJ/mol
# Density = 2.637770 g / cm^3
# Si number density = 26.437877 Si / 1000 Ang^3
#
#
#
# Elastic Constant Matrix: (Units=GPa)
#
#
# Indices 1 2 3 4 5 6 
#
# 1 109.6898 54.2547 55.1006 0.0000 -14.6864 0.0000
# 2 54.2547 209.3469 62.8870 0.0000 -5.6002 0.0000
# 3 55.1006 62.8870 96.8888 0.0000 -39.5674 0.0000
# 4 0.0000 0.0000 0.0000 38.4971 0.0000 -16.0279
# 5 -14.6864 -5.6002 -39.5674 0.0000 59.1597 0.0000
# 6 0.0000 0.0000 0.0000 -16.0279 0.0000 30.3917
#
#
#
# Elastic Compliance Matrix: (Units=1/GPa)
#
#
# Indices 1 2 3 4 5 6 
#
# 1 0.013236 -0.001234 -0.007473 0.000000 -0.001829 0.000000
# 2 -0.001234 0.006398 -0.004580 0.000000 -0.002764 0.000000
# 3 -0.007473 -0.004580 0.022850 0.000000 0.012994 0.000000
# 4 0.000000 0.000000 0.000000 0.033284 0.000000 0.017553
# 5 -0.001829 -0.002764 0.012994 0.000000 0.024878 0.000000
# 6 0.000000 0.000000 0.000000 0.017553 0.000000 0.042161
#
#
# Mechanical properties :
#
#
# Convention : Reuss Voigt Hill
#
# Bulk Modulus (GPa) = 62.85287 84.48999 73.67143
# Shear Modulus (GPa) = 28.62270 41.85524 35.23897
#
# Velocity S-wave (km/s) = 3.29392 3.98320 3.65485
# Velocity P-wave (km/s) = 6.18805 7.29259 6.76291
#
# Compressibility (1/GPa) = 0.01591017
#
# Stress axis : x y z
#
# Youngs Moduli (GPa) = 75.54965 156.28824 43.76331
#
# Poissons Ratio (x) = 0.19291 0.32706
# Poissons Ratio (y) = 0.09325 0.20042
# Poissons Ratio (z) = 0.56461 0.71575
#
# Static dielectric constant tensor:
#      x y z
#    x 2.059280 0.000000 -0.005600 
#    y 0.000000 2.107950 0.000000 
#    z -0.005600 0.000000 1.619060 
# 
# From -- ./inp_files/251344.got.cif
#   From: 2010.05.17/outbox.cif.g08.bks.cpg/sg12_126_cif.got.tgz:251344.got - 2010.06.03 13:09:07.
