data_PCOD9203185
_publ_section_title
;
Structure prediction by ZEFSAII (Michael W. Deem and Ramdas Pophale) SiO2 
 PCOD9203185
Probable space group: C 2/M
;
_chemical_formula_sum "Si O2"
_cell_formula_units_Z 60
_cell_length_a 19.679619
_cell_length_b 7.988510
_cell_length_c 16.004998
_cell_angle_alpha 90.000000
_cell_angle_beta 107.572538
_cell_angle_gamma 90.000000
_cell_volume 2398.743728
_symmetry_space_group_name_H-M "C 2/M"
_symmetry_group_IT_number 12
_symmetry_cell_setting 'monoclinic'
loop_
_space_group_symop_operation_xyz
x,y,z
-x,y,-z
-x,-y,-z
x,-y,z
1/2+x,1/2+y,z
1/2-x,1/2+y,-z
1/2-x,1/2-y,-z
1/2+x,1/2-y,z
loop_
_atom_site_type_symbol
_atom_site_label
_atom_site_fract_x
_atom_site_fract_y
_atom_site_fract_z
Si Si1 0.218385 0.700337 0.093120
Si Si2 0.367623 0.182255 0.153130
Si Si3 0.998083 0.500000 0.864913
Si Si4 0.123581 0.800065 0.561121
Si Si5 0.734118 0.796805 0.295410
Si Si6 0.888651 0.693378 0.633374
Si Si7 0.570082 0.315624 0.083861
Si Si8 0.035999 0.809592 0.677653
O O1 0.210900 0.500000 0.077914
O O2 0.294502 0.760320 0.083576
O O3 0.233303 0.740076 0.197593
O O4 0.142079 0.789646 0.056332
O O5 0.396599 0.303096 0.236010
O O6 0.352871 0.000000 0.187498
O O7 0.437150 0.142239 0.123356
O O8 0.939734 0.648972 0.864414
O O9 0.196929 0.736141 0.628133
O O10 0.117311 0.767106 0.461355
O O11 0.059996 0.738627 0.597205
O O12 0.122101 0.000000 0.572594
O O13 0.665240 0.731981 0.319730
O O14 0.734747 0.000000 0.299347
O O15 0.870137 0.500000 0.617729
O O16 0.971052 0.704656 0.690320
O O17 0.573292 0.500000 0.126366
O O18 0.500000 0.315313 0.000000
O O19 0.010666 0.000000 0.659957
#
# Coordination Sequence:
#
# PCOD9203185 Si02
#       8
#     8   8   4   8   8   8   8   8
#     4  11  21  41  73 102 136 187 232 283 354 417
#     4  10  23  40  63  97 140 170 223 285 340 412
#     4  10  25  46  74 108 150 188 226 299 340 406
#     4  10  20  39  57  76 111 162 217 270 335 409
#     4   9  20  37  59  85 118 161 214 271 336 404
#     4  11  23  35  54  84 119 158 212 280 344 406
#     4  11  25  47  79 110 147 190 237 280 341 415
#     4  11  22  38  60  82 118 169 222 273 341 410
#
# _framework density 25.013092
#
# number of rings (size 3 to 8) (size 9 to 14) (size 15 to 20)
#    0.400    1.200    2.000    2.600    1.867    3.733 
#    0.000    3.333    0.000    0.000    0.000    0.000 
#    0.000    0.000    0.000    0.000    0.000    0.000 
#
# Total GULP energy -167213.574086 kJ/mol
# GULP energy per Si atom -5573.785803 kJ/mol
# Density = 2.495616 g / cm^3
# Si number density = 25.013092 Si / 1000 Ang^3
#
#
#
# Elastic Constant Matrix: (Units=GPa)
#
#
# Indices 1 2 3 4 5 6 
#
# 1 161.6652 25.9555 9.0009 0.0000 4.3875 0.0000
# 2 25.9555 100.8176 2.9082 0.0000 -8.5177 0.0000
# 3 9.0009 2.9082 55.9913 0.0000 21.9930 0.0000
# 4 0.0000 0.0000 0.0000 -10.3432 0.0000 -14.7492
# 5 4.3875 -8.5177 21.9930 0.0000 38.6725 0.0000
# 6 0.0000 0.0000 0.0000 -14.7492 0.0000 -3.4381
#
#
#
# Elastic Compliance Matrix: (Units=1/GPa)
#
#
# Indices 1 2 3 4 5 6 
#
# 1 0.006519 -0.001722 -0.000668 0.000000 -0.000739 0.000000
# 2 -0.001722 0.010705 -0.001651 0.000000 0.003492 0.000000
# 3 -0.000668 -0.001651 0.023391 0.000000 -0.013590 0.000000
# 4 0.000000 0.000000 0.000000 0.018893 0.000000 -0.081049
# 5 -0.000739 0.003492 -0.013590 0.000000 0.034440 0.000000
# 6 0.000000 0.000000 0.000000 -0.081049 0.000000 0.056837
#
#
# Mechanical properties :
#
#
# Convention : Reuss Voigt Hill
#
# Bulk Modulus (GPa) = 30.73734 43.80035 37.26884
# Shear Modulus (GPa) = 29.46173 23.68555 26.57364
#
# Velocity S-wave (km/s) = 3.43571 3.08055 3.26297
# Velocity P-wave (km/s) = 5.29660 5.49564 5.39704
#
# Compressibility (1/GPa) = 0.03253372
#
# Stress axis : x y z
#
# Youngs Moduli (GPa) = 153.39125 93.41657 42.75087
#
# Poissons Ratio (x) = 0.16082 0.02858
# Poissons Ratio (y) = 0.26406 0.07058
# Poissons Ratio (z) = 0.10253 0.15422
#
# Static dielectric constant tensor:
#      x y z
#    x 2.026160 0.000000 -0.033220 
#    y 0.000000 1.947330 0.000000 
#    z -0.033220 0.000000 2.027610 
# 
# From -- ./inp_files/314312.got.cif
#   From: 2010.05.17/outbox.cif.g08.bks.cpg/sg12_158_cif.got.tgz:314312.got - 2010.06.03 13:09:07.
