data_PCOD9203605
_publ_section_title
;
Structure prediction by ZEFSAII (Michael W. Deem and Ramdas Pophale) SiO2 
 PCOD9203605
Probable space group: C 2/M
;
_chemical_formula_sum "Si O2"
_cell_formula_units_Z 60
_cell_length_a 12.683065
_cell_length_b 20.662248
_cell_length_c 26.560524
_cell_angle_alpha 90.000000
_cell_angle_beta 154.105375
_cell_angle_gamma 90.000000
_cell_volume 3039.757371
_symmetry_space_group_name_H-M "C 2/M"
_symmetry_group_IT_number 12
_symmetry_cell_setting 'monoclinic'
loop_
_space_group_symop_operation_xyz
x,y,z
-x,y,-z
-x,-y,-z
x,-y,z
1/2+x,1/2+y,z
1/2-x,1/2+y,-z
1/2-x,1/2-y,-z
1/2+x,1/2-y,z
loop_
_atom_site_type_symbol
_atom_site_label
_atom_site_fract_x
_atom_site_fract_y
_atom_site_fract_z
Si Si1 0.400810 0.753321 0.615618
Si Si2 0.984749 0.810604 0.934661
Si Si3 0.000000 0.170701 0.500000
Si Si4 0.075309 0.338036 0.950898
Si Si5 0.911545 0.925553 0.162409
Si Si6 0.619177 0.572399 0.471963
Si Si7 0.072215 0.888244 0.716069
Si Si8 0.839583 0.375177 0.278481
O O1 0.250000 0.750000 0.500000
O O2 0.233288 0.787331 0.585765
O O3 0.473957 0.684384 0.667384
O O4 0.619480 0.799162 0.691626
O O5 0.963161 0.732218 0.917286
O O6 0.782318 0.861414 0.827791
O O7 0.223870 0.827054 0.005536
O O8 0.000000 0.819943 0.000000
O O9 0.037125 0.124196 0.563962
O O10 0.861623 0.382706 0.838001
O O11 0.214027 0.374695 0.056134
O O12 0.973192 0.914602 0.247495
O O13 0.151147 0.910927 0.232963
O O14 0.833058 0.000000 0.121335
O O15 0.578684 0.500000 0.472669
O O16 0.550590 0.576059 0.383716
O O17 0.898292 0.592294 0.602969
#
# Coordination Sequence:
#
# PCOD9203605 Si02
#       8
#     8   8   4   8   8   8   8   8
#     4  11  22  40  61  96 128 157 206 262 324 370
#     4  10  20  39  64  94 125 157 208 260 319 372
#     4  10  23  40  60  84 125 170 194 252 312 370
#     4  10  23  39  60  94 126 163 204 263 314 365
#     4  11  25  42  63  89 129 178 211 247 307 374
#     4  11  24  42  62  90 127 167 211 249 306 377
#     4  12  23  38  64  95 125 164 210 262 311 370
#     4  10  22  41  63  92 125 166 202 263 316 365
#
# _framework density 19.738417999999999
#
# number of rings (size 3 to 8) (size 9 to 14) (size 15 to 20)
#    0.000    1.333    4.000    2.200    1.867    4.267 
#    0.000    1.333    0.000   10.000    0.000    0.000 
#    0.000    0.000    0.000    0.000    0.000    0.000 
#
# Total GULP energy -167228.345437 kJ/mol
# GULP energy per Si atom -5574.278181 kJ/mol
# Density = 1.969349 g / cm^3
# Si number density = 19.738418 Si / 1000 Ang^3
#
#
#
# Elastic Constant Matrix: (Units=GPa)
#
#
# Indices 1 2 3 4 5 6 
#
# 1 85.4101 30.1169 49.4192 -0.0003 -25.8665 0.0002
# 2 30.1169 96.6365 17.8956 0.0009 -6.7077 -0.0013
# 3 49.4192 17.8956 104.2610 0.0148 -21.1987 0.0026
# 4 -0.0003 0.0009 0.0148 12.1418 0.0019 -2.8924
# 5 -25.8665 -6.7077 -21.1987 0.0019 28.9533 0.0001
# 6 0.0002 -0.0013 0.0026 -2.8924 0.0001 14.6755
#
#
#
# Elastic Compliance Matrix: (Units=1/GPa)
#
#
# Indices 1 2 3 4 5 6 
#
# 1 0.020972 -0.004426 -0.006556 0.000007 0.012911 0.000002
# 2 -0.004426 0.011666 -0.000187 0.000000 -0.001388 0.000001
# 3 -0.006556 -0.000187 0.013548 -0.000019 0.004019 -0.000006
# 4 0.000007 0.000000 -0.000019 0.086418 -0.000013 0.017032
# 5 0.012911 -0.001388 0.004019 -0.000013 0.048694 -0.000004
# 6 0.000002 0.000001 -0.000006 0.017032 -0.000004 0.071498
#
#
# Mechanical properties :
#
#
# Convention : Reuss Voigt Hill
#
# Bulk Modulus (GPa) = 41.93072 53.46344 47.69708
# Shear Modulus (GPa) = 17.66273 23.74584 20.70428
#
# Velocity S-wave (km/s) = 2.99463 3.47223 3.24224
# Velocity P-wave (km/s) = 5.76597 6.57419 6.18330
#
# Compressibility (1/GPa) = 0.02384887
#
# Stress axis : x y z
#
# Youngs Moduli (GPa) = 47.68201 85.72214 73.81114
#
# Poissons Ratio (x) = 0.37939 0.48391
# Poissons Ratio (y) = 0.21103 0.01378
# Poissons Ratio (z) = 0.31260 0.01601
#
# Static dielectric constant tensor:
#      x y z
#    x 1.705260 0.000000 -0.047200 
#    y 0.000000 1.708880 0.000000 
#    z -0.047200 0.000000 1.907480 
# 
# From -- ./inp_files/336873.got.cif
#   From: 2010.05.17/outbox.cif.g08.bks.cpg/sg12_169_cif.got.tgz:336873.got - 2010.06.03 13:09:07.
