data_PCOD9203176
_publ_section_title
;
Structure prediction by ZEFSAII (Michael W. Deem and Ramdas Pophale) SiO2 
 PCOD9203176
Probable space group: C 2/M
;
_chemical_formula_sum "Si O2"
_cell_formula_units_Z 58
_cell_length_a 16.718183
_cell_length_b 28.899731
_cell_length_c 21.531909
_cell_angle_alpha 90.000000
_cell_angle_beta 161.590323
_cell_angle_gamma 90.000000
_cell_volume 3285.415613
_symmetry_space_group_name_H-M "C 2/M"
_symmetry_group_IT_number 12
_symmetry_cell_setting 'monoclinic'
loop_
_space_group_symop_operation_xyz
x,y,z
-x,y,-z
-x,-y,-z
x,-y,z
1/2+x,1/2+y,z
1/2-x,1/2+y,-z
1/2-x,1/2-y,-z
1/2+x,1/2-y,z
loop_
_atom_site_type_symbol
_atom_site_label
_atom_site_fract_x
_atom_site_fract_y
_atom_site_fract_z
Si Si1 0.980639 0.710547 0.764210
Si Si2 0.358834 0.428087 0.305208
Si Si3 0.803185 0.448537 0.950232
Si Si4 0.844457 0.146080 0.110807
Si Si5 0.000000 0.000000 0.500000
Si Si6 0.221988 0.727533 0.812034
Si Si7 0.552066 0.672165 0.669534
Si Si8 0.810556 0.697340 0.417526
O O1 0.741046 0.683337 0.559018
O O2 0.858873 0.755984 0.705711
O O3 0.159491 0.726813 0.839060
O O4 0.133614 0.678285 0.923807
O O5 0.355307 0.442167 0.230295
O O6 0.552977 0.458772 0.486775
O O7 0.374941 0.372460 0.317529
O O8 0.091889 0.443582 0.138798
O O9 0.769533 0.500000 0.950438
O O10 0.738221 0.407091 0.948230
O O11 0.888605 0.160155 0.215251
O O12 0.109920 0.156110 0.272643
O O13 0.197079 0.779523 0.765516
O O14 0.994012 0.699503 0.612235
O O15 0.500000 0.709818 0.000000
O O16 0.000000 0.696618 0.500000
#
# Coordination Sequence:
#
# PCOD9203176 Si02
#       8
#     8   8   8   8   2   8   8   8
#     4  11  22  38  55  83 115 153 194 240 284 346
#     4  10  21  33  54  80 113 152 190 232 284 340
#     4  10  20  39  54  79 113 152 193 236 291 348
#     4  11  22  35  60  77 111 152 188 239 286 345
#     4  12  20  34  56  80 124 150 194 252 276 346
#     4  11  22  37  57  80 119 154 190 242 288 342
#     4  10  22  36  51  80 114 147 194 231 278 338
#     4  11  22  37  55  84 115 148 196 240 286 347
#
# _framework density 17.653779
#
# number of rings (size 3 to 8) (size 9 to 14) (size 15 to 20)
#    0.000    1.379    4.138    2.483    7.724    1.103 
#    1.241    0.000    0.000    0.414    0.000    0.000 
#    0.000    2.207    0.000    0.000    0.000    0.000 
#
# Total GULP energy -161621.799232 kJ/mol
# GULP energy per Si atom -5573.165491 kJ/mol
# Density = 1.761360 g / cm^3
# Si number density = 17.653779 Si / 1000 Ang^3
#
#
#
# Elastic Constant Matrix: (Units=GPa)
#
#
# Indices 1 2 3 4 5 6 
#
# 1 62.3722 31.2344 24.3384 -0.0027 3.2616 -0.0022
# 2 31.2344 113.6005 36.2668 -0.0014 3.9094 -0.0003
# 3 24.3384 36.2668 85.2719 -0.0018 -2.5178 0.0021
# 4 -0.0027 -0.0014 -0.0018 24.6791 0.0006 -1.3183
# 5 3.2616 3.9094 -2.5178 0.0006 29.2575 -0.0032
# 6 -0.0022 -0.0003 0.0021 -1.3183 -0.0032 29.4792
#
#
#
# Elastic Compliance Matrix: (Units=1/GPa)
#
#
# Indices 1 2 3 4 5 6 
#
# 1 0.019728 -0.004095 -0.003948 0.000002 -0.001992 0.000002
# 2 -0.004095 0.011125 -0.003602 0.000000 -0.001340 0.000000
# 3 -0.003948 -0.003602 0.014450 0.000000 0.002165 -0.000001
# 4 0.000002 0.000000 0.000000 0.040617 -0.000001 0.001816
# 5 -0.001992 -0.001340 0.002165 -0.000001 0.034767 0.000003
# 6 0.000002 0.000000 -0.000001 0.001816 0.000003 0.034003
#
#
# Mechanical properties :
#
#
# Convention : Reuss Voigt Hill
#
# Bulk Modulus (GPa) = 45.42915 49.43597 47.43256
# Shear Modulus (GPa) = 26.98052 27.97681 27.47866
#
# Velocity S-wave (km/s) = 3.91361 3.98521 3.94957
# Velocity P-wave (km/s) = 6.79787 7.01710 6.90835
#
# Compressibility (1/GPa) = 0.02201230
#
# Stress axis : x y z
#
# Youngs Moduli (GPa) = 50.68850 89.88843 69.20434
#
# Poissons Ratio (x) = 0.36813 0.27321
# Poissons Ratio (y) = 0.20759 0.24929
# Poissons Ratio (z) = 0.20011 0.32379
#
# Static dielectric constant tensor:
#      x y z
#    x 1.621260 -0.000010 -0.049380 
#    y -0.000010 1.626060 -0.000020 
#    z -0.049380 -0.000020 1.665090 
# 
# From -- ./inp_files/312890.got.cif
#   From: 2010.05.17/outbox.cif.g08.bks.cpg/sg12_157_cif.got.tgz:312890.got - 2010.06.03 13:09:07.
