data_PCOD9203870
_publ_section_title
;
Structure prediction by ZEFSAII (Michael W. Deem and Ramdas Pophale) SiO2 
 PCOD9203870
Probable space group: C 2/M
;
_chemical_formula_sum "Si O2"
_cell_formula_units_Z 56
_cell_length_a 11.292691
_cell_length_b 19.707036
_cell_length_c 12.529015
_cell_angle_alpha 90.000000
_cell_angle_beta 71.195185
_cell_angle_gamma 90.000000
_cell_volume 2639.443424
_symmetry_space_group_name_H-M "C 2/M"
_symmetry_group_IT_number 12
_symmetry_cell_setting 'monoclinic'
loop_
_space_group_symop_operation_xyz
x,y,z
-x,y,-z
-x,-y,-z
x,-y,z
1/2+x,1/2+y,z
1/2-x,1/2+y,-z
1/2-x,1/2-y,-z
1/2+x,1/2-y,z
loop_
_atom_site_type_symbol
_atom_site_label
_atom_site_fract_x
_atom_site_fract_y
_atom_site_fract_z
Si Si1 0.557123 0.714685 0.372165
Si Si2 0.868598 0.785660 0.069935
Si Si3 0.708731 0.919321 0.425925
Si Si4 0.415762 0.919179 0.122748
Si Si5 0.511927 0.918582 0.669210
Si Si6 0.325683 0.710828 0.326416
Si Si7 0.680155 0.660667 0.132215
O O1 0.500000 0.688332 0.500000
O O2 0.435224 0.753011 0.355528
O O3 0.689236 0.752330 0.361591
O O4 0.591459 0.667376 0.260975
O O5 0.868593 0.805968 0.193297
O O6 0.755793 0.732010 0.103740
O O7 0.860592 0.843328 0.980186
O O8 0.000000 0.751308 0.000000
O O9 0.628386 0.909220 0.556422
O O10 0.614384 0.900101 0.355976
O O11 0.811905 0.861474 0.389649
O O12 0.741436 0.000000 0.408969
O O13 0.464871 0.889755 0.220353
O O14 0.277325 0.896373 0.136064
O O15 0.420570 0.000000 0.128393
O O16 0.500000 0.897876 0.000000
O O17 0.500652 0.000000 0.683299
#
# Coordination Sequence:
#
# PCOD9203870 Si02
#       7
#     8   8   8   8   8   8   8
#     4  11  25  42  60  92 126 163 208 261 316 372
#     4  10  20  40  59  82 115 154 207 244 303 363
#     4   9  19  36  60  89 120 160 206 251 308 372
#     4  10  21  36  58  90 124 160 205 258 314 365
#     4   8  17  34  55  83 118 159 203 246 296 362
#     4  11  24  40  65  92 125 164 207 263 313 372
#     4  10  22  38  61  84 115 159 201 256 305 373
#
# _framework density 21.216595000000002
#
# number of rings (size 3 to 8) (size 9 to 14) (size 15 to 20)
#    0.000    2.143    1.429    1.714    6.000    2.286 
#    0.000    0.714    0.000    1.714    0.000    1.000 
#    0.000    0.000    0.000    0.000    0.000    0.000 
#
# Total GULP energy -155913.994689 kJ/mol
# GULP energy per Si atom -5568.356953 kJ/mol
# Density = 2.116831 g / cm^3
# Si number density = 21.216595 Si / 1000 Ang^3
#
#
#
# Elastic Constant Matrix: (Units=GPa)
#
#
# Indices 1 2 3 4 5 6 
#
# 1 105.5458 13.7956 61.3814 0.0000 4.6513 0.0000
# 2 13.7956 28.9579 14.3786 0.0000 -1.3469 0.0000
# 3 61.3814 14.3786 153.3370 0.0000 14.5653 0.0000
# 4 0.0000 0.0000 0.0000 1.6602 0.0000 -4.5645
# 5 4.6513 -1.3469 14.5653 0.0000 38.5940 0.0000
# 6 0.0000 0.0000 0.0000 -4.5645 0.0000 31.8373
#
#
#
# Elastic Compliance Matrix: (Units=1/GPa)
#
#
# Indices 1 2 3 4 5 6 
#
# 1 0.012718 -0.003690 -0.004758 0.000000 0.000134 0.000000
# 2 -0.003690 0.037551 -0.002293 0.000000 0.002621 0.000000
# 3 -0.004758 -0.002293 0.008914 0.000000 -0.002871 0.000000
# 4 0.000000 0.000000 0.000000 0.994200 0.000000 0.142538
# 5 0.000134 0.002621 -0.002871 0.000000 0.027069 0.000000
# 6 0.000000 0.000000 0.000000 0.142538 0.000000 0.051845
#
#
# Mechanical properties :
#
#
# Convention : Reuss Voigt Hill
#
# Bulk Modulus (GPa) = 26.52433 51.88354 39.20394
# Shear Modulus (GPa) = 4.28689 27.63732 15.96211
#
# Velocity S-wave (km/s) = 1.42300 3.61311 2.74586
# Velocity P-wave (km/s) = 3.90240 6.47406 5.34519
#
# Compressibility (1/GPa) = 0.03770124
#
# Stress axis : x y z
#
# Youngs Moduli (GPa) = 78.62943 26.63024 112.18543
#
# Poissons Ratio (x) = 0.09827 0.53375
# Poissons Ratio (y) = 0.29016 0.25724
# Poissons Ratio (z) = 0.37410 0.06106
#
# Static dielectric constant tensor:
#      x y z
#    x 1.897250 0.000000 0.035840 
#    y 0.000000 1.752510 0.000000 
#    z 0.035840 0.000000 1.737390 
# 
# From -- ./inp_files/133876.got.cif
#   From: 2010.05.17/outbox.cif.g08.bks.cpg/sg12_67_cif.got.tgz:133876.got - 2010.06.03 13:09:07.
