data_PCOD9203430
_publ_section_title
;
Structure prediction by ZEFSAII (Michael W. Deem and Ramdas Pophale) SiO2 
 PCOD9203430
Probable space group: C 2/M
;
_chemical_formula_sum "Si O2"
_cell_formula_units_Z 64
_cell_length_a 19.223011
_cell_length_b 8.584780
_cell_length_c 33.455431
_cell_angle_alpha 90.000000
_cell_angle_beta 142.851511
_cell_angle_gamma 90.000000
_cell_volume 3334.032629
_symmetry_space_group_name_H-M "C 2/M"
_symmetry_group_IT_number 12
_symmetry_cell_setting 'monoclinic'
loop_
_space_group_symop_operation_xyz
x,y,z
-x,y,-z
-x,-y,-z
x,-y,z
1/2+x,1/2+y,z
1/2-x,1/2+y,-z
1/2-x,1/2-y,-z
1/2+x,1/2-y,z
loop_
_atom_site_type_symbol
_atom_site_label
_atom_site_fract_x
_atom_site_fract_y
_atom_site_fract_z
Si Si1 0.972979 0.685444 0.779855
Si Si2 0.945625 0.811193 0.411967
Si Si3 0.287414 0.686577 0.473777
Si Si4 0.338082 0.312679 0.279912
Si Si5 0.340467 0.313616 0.193159
Si Si6 0.565997 0.813623 0.150248
Si Si7 0.761423 0.185019 0.631642
Si Si8 0.416230 0.685130 0.925334
O O1 0.954080 0.500000 0.771877
O O2 0.989618 0.735742 0.833464
O O3 0.861561 0.759533 0.707594
O O4 0.083355 0.730435 0.804789
O O5 0.899275 0.754586 0.347588
O O6 0.860112 0.745865 0.406294
O O7 0.079613 0.769057 0.474532
O O8 0.937884 0.000000 0.410536
O O9 0.280028 0.500000 0.471432
O O10 0.250000 0.750000 0.500000
O O11 0.218469 0.749856 0.403842
O O12 0.351427 0.500000 0.286426
O O13 0.379663 0.259423 0.255502
O O14 0.202048 0.281278 0.218955
O O15 0.355119 0.500000 0.197361
O O16 0.205949 0.272433 0.127630
O O17 0.530713 0.729854 0.093388
O O18 0.552845 0.000000 0.138799
O O19 0.760196 0.000000 0.629403
O O20 0.395484 0.500000 0.917258
O O21 0.500000 0.727966 0.000000
#
# Coordination Sequence:
#
# PCOD9203430 Si02
#       8
#     8   8   8   8   8   8   8   8
#     4  11  22  39  61  88 122 155 194 245 299 351
#     4  10  20  39  63  84 113 152 195 243 300 358
#     4  11  25  42  62  86 116 156 199 249 306 362
#     4   8  15  32  56  82 111 145 186 234 289 346
#     4  10  21  36  58  89 123 156 194 240 294 351
#     4   9  18  35  60  86 116 152 191 240 293 347
#     4  12  25  40  60  86 118 156 199 246 296 357
#     4  10  21  38  61  89 122 159 200 242 284 340
#
# _framework density 19.195972000000001
#
# number of rings (size 3 to 8) (size 9 to 14) (size 15 to 20)
#    0.000    1.875    1.250    3.750    1.750    4.500 
#    0.000    1.250    0.000    0.000    0.000    0.000 
#    0.000    0.000    0.000    0.000    0.000    0.000 
#
# Total GULP energy -178680.756360 kJ/mol
# GULP energy per Si atom -5583.773636 kJ/mol
# Density = 1.915228 g / cm^3
# Si number density = 19.195972 Si / 1000 Ang^3
#
#
#
# Elastic Constant Matrix: (Units=GPa)
#
#
# Indices 1 2 3 4 5 6 
#
# 1 131.4351 19.7502 36.8529 -0.0001 -30.4820 0.0003
# 2 19.7502 37.5400 17.6470 -0.0003 -8.8370 0.0006
# 3 36.8529 17.6470 83.4095 0.0000 -33.7019 0.0001
# 4 -0.0001 -0.0003 0.0000 19.4590 0.0000 -3.1004
# 5 -30.4820 -8.8370 -33.7019 0.0000 32.3231 -0.0001
# 6 0.0003 0.0006 0.0001 -3.1004 -0.0001 32.6812
#
#
#
# Elastic Compliance Matrix: (Units=1/GPa)
#
#
# Indices 1 2 3 4 5 6 
#
# 1 0.010115 -0.003165 -0.000510 0.000000 0.008142 0.000000
# 2 -0.003165 0.030708 -0.005032 0.000000 0.000163 0.000000
# 3 -0.000510 -0.005032 0.021650 0.000000 0.020717 0.000000
# 4 0.000000 0.000000 0.000000 0.052179 0.000000 0.004950
# 5 0.008142 0.000163 0.020717 0.000000 0.060261 0.000000
# 6 0.000000 0.000000 0.000000 0.004950 0.000000 0.031068
#
#
# Mechanical properties :
#
#
# Convention : Reuss Voigt Hill
#
# Bulk Modulus (GPa) = 22.19370 44.54277 33.36824
# Shear Modulus (GPa) = 20.97186 28.76828 24.87007
#
# Velocity S-wave (km/s) = 3.30890 3.87546 3.60333
# Velocity P-wave (km/s) = 5.11715 6.57876 5.89344
#
# Compressibility (1/GPa) = 0.04505782
#
# Stress axis : x y z
#
# Youngs Moduli (GPa) = 98.86120 32.56519 46.19036
#
# Poissons Ratio (x) = 0.10308 0.02354
# Poissons Ratio (y) = 0.31294 0.23244
# Poissons Ratio (z) = 0.05037 0.16388
#
# Static dielectric constant tensor:
#      x y z
#    x 1.674020 0.000000 -0.022000 
#    y 0.000000 1.649920 0.000000 
#    z -0.022000 0.000000 1.666150 
# 
# From -- ./inp_files/378539.got.cif
#   From: 2010.05.17/outbox.cif.g08.bks.cpg/sg12_190_cif.got.tgz:378539.got - 2010.06.03 13:09:07.
