data_PCOD9203263
_publ_section_title
;
Structure prediction by ZEFSAII (Michael W. Deem and Ramdas Pophale) SiO2 
 PCOD9203263
Probable space group: C 2/M
;
_chemical_formula_sum "Si O2"
_cell_formula_units_Z 48
_cell_length_a 19.133953
_cell_length_b 20.258224
_cell_length_c 13.804321
_cell_angle_alpha 90.000000
_cell_angle_beta 25.452664
_cell_angle_gamma 90.000000
_cell_volume 2299.600688
_symmetry_space_group_name_H-M "C 2/M"
_symmetry_group_IT_number 12
_symmetry_cell_setting 'monoclinic'
loop_
_space_group_symop_operation_xyz
x,y,z
-x,y,-z
-x,-y,-z
x,-y,z
1/2+x,1/2+y,z
1/2-x,1/2+y,-z
1/2-x,1/2-y,-z
1/2+x,1/2-y,z
loop_
_atom_site_type_symbol
_atom_site_label
_atom_site_fract_x
_atom_site_fract_y
_atom_site_fract_z
Si Si1 0.574358 0.120200 0.501883
Si Si2 0.879558 0.077134 0.230790
Si Si3 0.826094 0.617038 0.172147
Si Si4 0.971632 0.076878 0.328831
Si Si5 0.313289 0.742754 0.718161
Si Si6 0.788165 0.651648 0.005659
O O1 0.500000 0.084808 0.500000
O O2 0.699746 0.083001 0.413014
O O3 0.670310 0.183108 0.337247
O O4 0.427917 0.145432 0.752008
O O5 0.906678 0.101797 0.305561
O O6 0.920174 0.000000 0.187277
O O7 0.000000 0.107497 0.000000
O O8 0.678082 0.580355 0.408971
O O9 0.778262 0.694969 0.242263
O O10 0.827856 0.608976 0.053607
O O11 0.000000 0.601878 0.000000
O O12 0.025238 0.000000 0.255809
O O13 0.120810 0.122505 0.174341
O O14 0.500000 0.719060 0.500000
O O15 0.228436 0.724543 0.925905
#
# Coordination Sequence:
#
# PCOD9203263 Si02
#       6
#     8   8   8   8   8   8
#     4  11  23  39  67  94 120 169 214 248 319 373
#     4  10  23  43  62  91 129 162 210 264 304 366
#     4  10  20  39  60  89 132 161 201 260 311 357
#     4  11  22  40  68  92 123 171 206 250 320 374
#     4   9  20  40  58  87 126 163 200 251 306 362
#     4  10  21  41  61  91 132 158 205 267 300 366
#
# _framework density 20.873189
#
# number of rings (size 3 to 8) (size 9 to 14) (size 15 to 20)
#    1.000    0.833    1.667    2.500    0.000    6.000 
#    3.000    1.667    0.000    0.000    0.000    0.000 
#    0.000    0.000    0.000    0.000    0.000    0.000 
#
# Total GULP energy -133765.215192 kJ/mol
# GULP energy per Si atom -5573.550633 kJ/mol
# Density = 2.082568 g / cm^3
# Si number density = 20.873189 Si / 1000 Ang^3
#
#
#
# Elastic Constant Matrix: (Units=GPa)
#
#
# Indices 1 2 3 4 5 6 
#
# 1 144.6390 11.9231 37.3420 0.0142 10.0006 -0.0070
# 2 11.9231 36.7627 -0.6951 0.0106 5.0685 -0.0107
# 3 37.3420 -0.6951 93.5399 0.0095 14.1712 -0.0087
# 4 0.0142 0.0106 0.0095 11.3194 -0.0102 -3.1222
# 5 10.0006 5.0685 14.1712 -0.0102 42.6940 0.0073
# 6 -0.0070 -0.0107 -0.0087 -3.1222 0.0073 25.4733
#
#
#
# Elastic Compliance Matrix: (Units=1/GPa)
#
#
# Indices 1 2 3 4 5 6 
#
# 1 0.007968 -0.002571 -0.003120 -0.000006 -0.000525 0.000000
# 2 -0.002571 0.028532 0.001748 -0.000025 -0.003365 0.000010
# 3 -0.003120 0.001748 0.012498 -0.000010 -0.003625 0.000004
# 4 -0.000006 -0.000025 -0.000010 0.091435 0.000028 0.011207
# 5 -0.000525 -0.003365 -0.003625 0.000028 0.025148 -0.000007
# 6 0.000000 0.000010 0.000004 0.011207 -0.000007 0.040630
#
#
# Mechanical properties :
#
#
# Convention : Reuss Voigt Hill
#
# Bulk Modulus (GPa) = 24.32339 41.34243 32.83291
# Shear Modulus (GPa) = 21.94890 30.98878 26.46884
#
# Velocity S-wave (km/s) = 3.24626 3.85726 3.56487
# Velocity P-wave (km/s) = 5.07239 6.29979 5.71911
#
# Compressibility (1/GPa) = 0.04111270
#
# Stress axis : x y z
#
# Youngs Moduli (GPa) = 125.50886 35.04808 80.00991
#
# Poissons Ratio (x) = 0.09010 0.24965
# Poissons Ratio (y) = 0.32264 -0.13986
# Poissons Ratio (z) = 0.39162 -0.06127
#
# Static dielectric constant tensor:
#      x y z
#    x 1.767140 0.000000 0.030120 
#    y 0.000000 1.779770 0.000000 
#    z 0.030120 0.000000 1.733760 
# 
# From -- ./inp_files/160426.got.cif
#   From: 2010.05.17/outbox.cif.g08.bks.cpg/sg12_81_cif.got.tgz:160426.got - 2010.06.03 13:09:07.
