data_PCOD9203518
_publ_section_title
;
Structure prediction by ZEFSAII (Michael W. Deem and Ramdas Pophale) SiO2 
 PCOD9203518
Probable space group: C 2/M
;
_chemical_formula_sum "Si O2"
_cell_formula_units_Z 48
_cell_length_a 16.892240
_cell_length_b 26.303746
_cell_length_c 12.344519
_cell_angle_alpha 90.000000
_cell_angle_beta 31.120743
_cell_angle_gamma 90.000000
_cell_volume 2834.901033
_symmetry_space_group_name_H-M "C 2/M"
_symmetry_group_IT_number 12
_symmetry_cell_setting 'monoclinic'
loop_
_space_group_symop_operation_xyz
x,y,z
-x,y,-z
-x,-y,-z
x,-y,z
1/2+x,1/2+y,z
1/2-x,1/2+y,-z
1/2-x,1/2-y,-z
1/2+x,1/2-y,z
loop_
_atom_site_type_symbol
_atom_site_label
_atom_site_fract_x
_atom_site_fract_y
_atom_site_fract_z
Si Si1 0.681030 0.317263 0.306145
Si Si2 0.958004 0.559063 0.422462
Si Si3 0.176032 0.701518 0.254071
Si Si4 0.603926 0.148916 0.121550
Si Si5 0.232488 0.309715 0.545622
Si Si6 0.163454 0.125133 0.768310
O O1 0.500000 0.324808 0.500000
O O2 0.720502 0.259743 0.221262
O O3 0.723233 0.320295 0.382667
O O4 0.783183 0.353695 0.112086
O O5 0.971123 0.500000 0.378505
O O6 0.786482 0.580511 0.610669
O O7 0.000000 0.565086 0.500000
O O8 0.064024 0.595690 0.226071
O O9 0.178643 0.684139 0.127092
O O10 0.273152 0.664188 0.215411
O O11 0.000000 0.696501 0.500000
O O12 0.441949 0.173511 0.275379
O O13 0.250000 0.250000 0.500000
O O14 0.337948 0.342301 0.340574
O O15 0.000000 0.106712 0.000000
#
# Coordination Sequence:
#
# PCOD9203518 Si02
#       6
#     8   8   8   8   8   8
#     4  11  24  33  52  81 118 158 186 225 273 337
#     4  10  20  39  64  84 107 146 192 239 289 336
#     4  11  18  37  51  81 114 152 184 221 278 335
#     4  11  21  37  57  78 115 148 193 234 273 341
#     4  11  21  35  51  78 114 154 193 223 267 335
#     4  11  22  33  58  83 118 142 180 241 282 332
#
# _framework density 16.931806999999999
#
# number of rings (size 3 to 8) (size 9 to 14) (size 15 to 20)
#    0.000    1.167    6.667    2.000    4.667    0.333 
#    0.000    0.000    0.000    8.500    0.000    0.000 
#    0.000    0.000    0.000    0.000    0.000    0.000 
#
# Total GULP energy -134062.184040 kJ/mol
# GULP energy per Si atom -5585.924335 kJ/mol
# Density = 1.689327 g / cm^3
# Si number density = 16.931807 Si / 1000 Ang^3
#
#
#
# Elastic Constant Matrix: (Units=GPa)
#
#
# Indices 1 2 3 4 5 6 
#
# 1 133.8077 45.0298 38.8845 -0.0005 28.0746 0.0004
# 2 45.0298 97.9909 33.3446 0.0002 3.0587 -0.0002
# 3 38.8845 33.3446 68.6188 -0.0012 18.6268 0.0003
# 4 -0.0005 0.0002 -0.0012 8.7229 0.0007 3.1519
# 5 28.0746 3.0587 18.6268 0.0007 22.0263 -0.0005
# 6 0.0004 -0.0002 0.0003 3.1519 -0.0005 16.3037
#
#
#
# Elastic Compliance Matrix: (Units=1/GPa)
#
#
# Indices 1 2 3 4 5 6 
#
# 1 0.012411 -0.005035 -0.000626 0.000002 -0.014591 -0.000001
# 2 -0.005035 0.014594 -0.007049 -0.000003 0.010352 0.000001
# 3 -0.000626 -0.007049 0.023196 0.000006 -0.017839 -0.000002
# 4 0.000002 -0.000003 0.000006 0.123250 -0.000012 -0.023827
# 5 -0.014591 0.010352 -0.017839 -0.000012 0.077646 0.000005
# 6 -0.000001 0.000001 -0.000002 -0.023827 0.000005 0.065942
#
#
# Mechanical properties :
#
#
# Convention : Reuss Voigt Hill
#
# Bulk Modulus (GPa) = 40.35149 59.43724 49.89436
# Shear Modulus (GPa) = 14.25647 21.62115 17.93881
#
# Velocity S-wave (km/s) = 2.90486 3.57733 3.25849
# Velocity P-wave (km/s) = 5.92743 7.22794 6.60975
#
# Compressibility (1/GPa) = 0.02478223
#
# Stress axis : x y z
#
# Youngs Moduli (GPa) = 80.57444 68.52072 43.11164
#
# Poissons Ratio (x) = 0.34499 0.02697
# Poissons Ratio (y) = 0.40568 0.30388
# Poissons Ratio (z) = 0.05041 0.48298
#
# Static dielectric constant tensor:
#      x y z
#    x 1.577210 0.000000 -0.001700 
#    y 0.000000 1.553370 0.000000 
#    z -0.001700 0.000000 1.585510 
# 
# From -- ./inp_files/52428.got.cif
#   From: 2010.05.17/outbox.cif.g08.bks.cpg/sg12_27_cif.got.tgz:52428.got - 2010.06.03 13:09:07.
