data_PCOD9203097
_publ_section_title
;
Structure prediction by ZEFSAII (Michael W. Deem and Ramdas Pophale) SiO2 
 PCOD9203097
Probable space group: C 2/M
;
_chemical_formula_sum "Si O2"
_cell_formula_units_Z 48
_cell_length_a 16.891002
_cell_length_b 27.574029
_cell_length_c 8.877846
_cell_angle_alpha 90.000000
_cell_angle_beta 32.100205
_cell_angle_gamma 90.000000
_cell_volume 2197.283603
_symmetry_space_group_name_H-M "C 2/M"
_symmetry_group_IT_number 12
_symmetry_cell_setting 'monoclinic'
loop_
_space_group_symop_operation_xyz
x,y,z
-x,y,-z
-x,-y,-z
x,-y,z
1/2+x,1/2+y,z
1/2-x,1/2+y,-z
1/2-x,1/2-y,-z
1/2+x,1/2-y,z
loop_
_atom_site_type_symbol
_atom_site_label
_atom_site_fract_x
_atom_site_fract_y
_atom_site_fract_z
Si Si1 0.927753 0.406307 0.275199
Si Si2 0.500000 0.757043 0.000000
Si Si3 0.395928 0.187384 0.436381
Si Si4 0.110521 0.177095 0.056087
Si Si5 0.531145 0.000000 0.274381
Si Si6 0.000000 0.231582 0.500000
Si Si7 0.596152 0.411956 0.700702
Si Si8 0.365583 0.500000 0.595919
O O1 0.001510 0.358314 0.229929
O O2 0.756154 0.396918 0.508211
O O3 0.951445 0.452547 0.338328
O O4 0.000000 0.417605 0.000000
O O5 0.386749 0.789295 0.282890
O O6 0.578722 0.721708 0.992209
O O7 0.434429 0.232428 0.480961
O O8 0.269274 0.161090 0.739512
O O9 0.109258 0.197459 0.227421
O O10 0.989199 0.135204 0.227536
O O11 0.500000 0.000000 0.500000
O O12 0.704379 0.000000 0.939578
O O13 0.618384 0.453055 0.538729
O O14 0.500000 0.429461 0.000000
O O15 0.500000 0.500000 0.500000
#
# Coordination Sequence:
#
# PCOD9203097 Si02
#       8
#     8   4   8   8   4   4   8   4
#     4  12  24  49  76 104 141 188 244 300 352 422
#     4  10  20  38  66  98 130 178 240 290 344 412
#     4  11  22  41  67 100 138 185 238 289 356 418
#     4  11  22  43  65 102 140 183 238 291 356 415
#     4  12  30  51  76 108 147 187 234 296 363 441
#     4  10  26  42  62 100 148 198 230 296 356 428
#     4  12  25  47  77 106 141 190 239 302 354 427
#     4  12  30  50  74 112 147 184 235 293 370 436
#
# _framework density 21.845154999999998
#
# number of rings (size 3 to 8) (size 9 to 14) (size 15 to 20)
#    0.000    0.667    5.000    2.000    4.667    1.333 
#    3.000    0.000    0.000    0.000    0.000    0.000 
#    0.000    0.000    0.000    0.000    0.000    0.000 
#
# Total GULP energy -133883.751684 kJ/mol
# GULP energy per Si atom -5578.489653 kJ/mol
# Density = 2.179543 g / cm^3
# Si number density = 21.845155 Si / 1000 Ang^3
#
#
#
# Elastic Constant Matrix: (Units=GPa)
#
#
# Indices 1 2 3 4 5 6 
#
# 1 74.7126 43.7365 39.2765 0.0000 36.1691 0.0000
# 2 43.7365 134.3601 30.0880 0.0000 30.0285 0.0000
# 3 39.2765 30.0880 73.0211 -0.0001 39.7114 0.0001
# 4 0.0000 0.0000 -0.0001 35.0459 0.0000 13.4825
# 5 36.1691 30.0285 39.7114 0.0000 48.1882 0.0000
# 6 0.0000 0.0000 0.0001 13.4825 0.0000 45.1162
#
#
#
# Elastic Compliance Matrix: (Units=1/GPa)
#
#
# Indices 1 2 3 4 5 6 
#
# 1 0.023878 -0.004143 -0.005062 0.000000 -0.011169 0.000000
# 2 -0.004143 0.009419 -0.000275 0.000000 -0.002533 0.000000
# 3 -0.005062 -0.000275 0.026043 0.000000 -0.017491 0.000000
# 4 0.000000 0.000000 0.000000 0.032241 0.000000 -0.009635
# 5 -0.011169 -0.002533 -0.017491 0.000000 0.045127 0.000000
# 6 0.000000 0.000000 0.000000 -0.009635 0.000000 0.025044
#
#
# Mechanical properties :
#
#
# Convention : Reuss Voigt Hill
#
# Bulk Modulus (GPa) = 24.76515 56.47733 40.62124
# Shear Modulus (GPa) = 25.75021 36.93623 31.34322
#
# Velocity S-wave (km/s) = 3.43703 4.11642 3.79197
# Velocity P-wave (km/s) = 5.20694 6.96440 6.14878
#
# Compressibility (1/GPa) = 0.04037932
#
# Stress axis : x y z
#
# Youngs Moduli (GPa) = 41.87926 106.16812 38.39808
#
# Poissons Ratio (x) = 0.43985 0.19439
# Poissons Ratio (y) = 0.17350 0.01056
# Poissons Ratio (z) = 0.21201 0.02920
#
# Static dielectric constant tensor:
#      x y z
#    x 1.816710 0.000000 -0.056800 
#    y 0.000000 1.805010 0.000000 
#    z -0.056800 0.000000 1.898200 
# 
# From -- ./inp_files/80677.got.cif
#   From: 2010.05.17/outbox.cif.g08.bks.cpg/sg12_41_cif.got.tgz:80677.got - 2010.06.03 13:09:07.
