data_PCOD9203326
_publ_section_title
;
Structure prediction by ZEFSAII (Michael W. Deem and Ramdas Pophale) SiO2 
 PCOD9203326
Probable space group: C 2/M
;
_chemical_formula_sum "Si O2"
_cell_formula_units_Z 48
_cell_length_a 18.576326
_cell_length_b 17.314677
_cell_length_c 19.731536
_cell_angle_alpha 90.000000
_cell_angle_beta 21.871727
_cell_angle_gamma 90.000000
_cell_volume 2364.265455
_symmetry_space_group_name_H-M "C 2/M"
_symmetry_group_IT_number 12
_symmetry_cell_setting 'monoclinic'
loop_
_space_group_symop_operation_xyz
x,y,z
-x,y,-z
-x,-y,-z
x,-y,z
1/2+x,1/2+y,z
1/2-x,1/2+y,-z
1/2-x,1/2-y,-z
1/2+x,1/2-y,z
loop_
_atom_site_type_symbol
_atom_site_label
_atom_site_fract_x
_atom_site_fract_y
_atom_site_fract_z
Si Si1 0.704128 0.000000 0.103990
Si Si2 0.306226 0.629551 0.643508
Si Si3 0.814689 0.500000 0.354364
Si Si4 0.770107 0.833265 0.094585
Si Si5 0.576584 0.500000 0.692816
Si Si6 0.500000 0.775012 0.000000
Si Si7 0.950660 0.834062 0.268528
Si Si8 0.912309 0.233392 0.435723
O O1 0.750224 0.925732 0.110104
O O2 0.495534 0.000000 0.249214
O O3 0.851921 0.000000 0.910747
O O4 0.500000 0.586716 0.500000
O O5 0.195293 0.574535 0.686349
O O6 0.406841 0.698880 0.514144
O O7 0.157235 0.668696 0.826427
O O8 0.634359 0.500000 0.563920
O O9 0.902073 0.783508 0.030960
O O10 0.557696 0.801876 0.293447
O O11 0.862394 0.819525 0.939789
O O12 0.642313 0.417712 0.666381
O O13 0.980575 0.831472 0.322780
O O14 0.803100 0.764723 0.386088
#
# Coordination Sequence:
#
# PCOD9203326 Si02
#       8
#     4   8   4   8   4   4   8   8
#     4  10  26  42  67 105 131 171 219 282 343 379
#     4  12  26  45  66  97 135 185 219 266 331 403
#     4  12  25  45  70  97 137 173 221 281 333 388
#     4  11  23  41  65  95 136 169 220 272 327 397
#     4  10  20  39  61  95 136 160 211 272 340 388
#     4  12  26  44  68  96 140 182 222 266 322 410
#     4  10  21  36  62  98 124 172 214 283 329 375
#     4  11  21  37  65  92 128 167 228 271 329 380
#
# _framework density 20.302288000000001
#
# number of rings (size 3 to 8) (size 9 to 14) (size 15 to 20)
#    0.000    1.000    5.000    1.750    2.333    4.667 
#    0.000    0.000    0.000    1.000    0.000    0.000 
#    0.000    0.000    0.000    0.000    0.000    0.000 
#
# Total GULP energy -133612.897015 kJ/mol
# GULP energy per Si atom -5567.204042 kJ/mol
# Density = 2.025608 g / cm^3
# Si number density = 20.302288 Si / 1000 Ang^3
#
#
#
# Elastic Constant Matrix: (Units=GPa)
#
#
# Indices 1 2 3 4 5 6 
#
# 1 57.1063 28.7448 26.4252 0.0120 12.5111 -0.0005
# 2 28.7448 120.8266 48.3208 -0.0022 13.6349 0.0012
# 3 26.4252 48.3208 125.4563 -0.0064 28.3146 -0.0036
# 4 0.0120 -0.0022 -0.0064 24.2955 0.0001 3.4268
# 5 12.5111 13.6349 28.3146 0.0001 31.8937 0.0076
# 6 -0.0005 0.0012 -0.0036 3.4268 0.0076 28.9778
#
#
#
# Elastic Compliance Matrix: (Units=1/GPa)
#
#
# Indices 1 2 3 4 5 6 
#
# 1 0.021401 -0.003751 -0.001913 -0.000012 -0.005092 0.000003
# 2 -0.003751 0.010469 -0.003207 0.000002 -0.000157 -0.000001
# 3 -0.001913 -0.003207 0.011418 0.000003 -0.008015 0.000003
# 4 -0.000012 0.000002 0.000003 0.041858 0.000002 -0.004950
# 5 -0.005092 -0.000157 -0.008015 0.000002 0.040535 -0.000012
# 6 0.000003 -0.000001 0.000003 -0.004950 -0.000012 0.035095
#
#
# Mechanical properties :
#
#
# Convention : Reuss Voigt Hill
#
# Bulk Modulus (GPa) = 39.14705 56.70787 47.92746
# Shear Modulus (GPa) = 26.73333 30.35995 28.54664
#
# Velocity S-wave (km/s) = 3.63266 3.87123 3.75384
# Velocity P-wave (km/s) = 6.07609 6.92635 6.51511
#
# Compressibility (1/GPa) = 0.02554471
#
# Stress axis : x y z
#
# Youngs Moduli (GPa) = 46.72778 95.52121 87.58138
#
# Poissons Ratio (x) = 0.35833 0.16758
# Poissons Ratio (y) = 0.17529 0.28083
# Poissons Ratio (z) = 0.08941 0.30629
#
# Static dielectric constant tensor:
#      x y z
#    x 1.819760 -0.000010 -0.022520 
#    y -0.000010 1.755010 0.000030 
#    z -0.022520 0.000030 1.701310 
# 
# From -- ./inp_files/322558.got.cif
#   From: 2010.05.17/outbox.cif.g08.bks.cpg/sg12_162_cif.got.tgz:322558.got - 2010.06.03 13:09:07.
