data_PCOD9203561
_publ_section_title
;
Structure prediction by ZEFSAII (Michael W. Deem and Ramdas Pophale) SiO2 
 PCOD9203561
Probable space group: C 2/M
;
_chemical_formula_sum "Si O2"
_cell_formula_units_Z 48
_cell_length_a 18.845022
_cell_length_b 17.340848
_cell_length_c 15.288341
_cell_angle_alpha 90.000000
_cell_angle_beta 149.180971
_cell_angle_gamma 90.000000
_cell_volume 2559.620201
_symmetry_space_group_name_H-M "C 2/M"
_symmetry_group_IT_number 12
_symmetry_cell_setting 'monoclinic'
loop_
_space_group_symop_operation_xyz
x,y,z
-x,y,-z
-x,-y,-z
x,-y,z
1/2+x,1/2+y,z
1/2-x,1/2+y,-z
1/2-x,1/2-y,-z
1/2+x,1/2-y,z
loop_
_atom_site_type_symbol
_atom_site_label
_atom_site_fract_x
_atom_site_fract_y
_atom_site_fract_z
Si Si1 0.646435 0.589567 0.107279
Si Si2 0.389368 0.800876 0.654869
Si Si3 0.677008 0.735221 0.015045
Si Si4 0.884001 0.664661 0.454086
Si Si5 0.836307 0.825577 0.332255
Si Si6 0.883951 0.411330 0.810703
O O1 0.644903 0.500000 0.076864
O O2 0.681346 0.651681 0.067817
O O3 0.766840 0.603345 0.306278
O O4 0.500000 0.606763 0.000000
O O5 0.250000 0.750000 0.500000
O O6 0.430953 0.836100 0.604036
O O7 0.372808 0.868252 0.707651
O O8 0.516032 0.751458 0.827119
O O9 0.757049 0.796085 0.162204
O O10 0.750000 0.750000 0.000000
O O11 0.819976 0.750386 0.376451
O O12 0.000000 0.659383 0.500000
O O13 0.759397 0.897982 0.290927
O O14 0.000000 0.838266 0.500000
O O15 0.917250 0.500000 0.831579
O O16 0.000000 0.377740 0.000000
#
# Coordination Sequence:
#
# PCOD9203561 Si02
#       6
#     8   8   8   8   8   8
#     4  10  22  40  62  91 128 162 200 261 324 368
#     4  12  22  37  66  94 121 165 212 258 309 374
#     4  11  23  39  64  94 124 166 214 257 308 382
#     4  10  21  38  63  93 119 159 209 250 308 374
#     4  10  20  39  64  89 124 164 209 257 308 373
#     4  11  24  42  62  91 127 167 210 260 316 370
#
# _framework density 18.752780999999999
#
# number of rings (size 3 to 8) (size 9 to 14) (size 15 to 20)
#    0.000    1.333    3.333    4.000    2.333    1.333 
#    0.000    4.167    0.000    0.000    0.000    0.000 
#    0.000    0.000    0.000    0.000    0.000    0.000 
#
# Total GULP energy -133785.671719 kJ/mol
# GULP energy per Si atom -5574.402988 kJ/mol
# Density = 1.871010 g / cm^3
# Si number density = 18.752781 Si / 1000 Ang^3
#
#
#
# Elastic Constant Matrix: (Units=GPa)
#
#
# Indices 1 2 3 4 5 6 
#
# 1 107.3365 39.6189 41.6568 0.0000 -26.6486 0.0000
# 2 39.6189 58.0972 25.8822 0.0000 -9.0687 0.0000
# 3 41.6568 25.8822 127.8172 0.0000 -7.8823 0.0000
# 4 0.0000 0.0000 0.0000 22.0311 0.0000 -0.9658
# 5 -26.6486 -9.0687 -7.8823 0.0000 39.0199 0.0000
# 6 0.0000 0.0000 0.0000 -0.9658 0.0000 18.9571
#
#
#
# Elastic Compliance Matrix: (Units=1/GPa)
#
#
# Indices 1 2 3 4 5 6 
#
# 1 0.015376 -0.007930 -0.002908 0.000000 0.008070 0.000000
# 2 -0.007930 0.023543 -0.002207 0.000000 -0.000390 0.000000
# 3 -0.002908 -0.002207 0.009178 0.000000 -0.000645 0.000000
# 4 0.000000 0.000000 0.000000 0.045492 0.000000 0.002318
# 5 0.008070 -0.000390 -0.000645 0.000000 0.030919 0.000000
# 6 0.000000 0.000000 0.000000 0.002318 0.000000 0.052869
#
#
# Mechanical properties :
#
#
# Convention : Reuss Voigt Hill
#
# Bulk Modulus (GPa) = 45.43882 56.39631 50.91757
# Shear Modulus (GPa) = 23.71899 28.40780 26.06339
#
# Velocity S-wave (km/s) = 3.56030 3.89634 3.73210
# Velocity P-wave (km/s) = 6.41748 7.09794 6.76627
#
# Compressibility (1/GPa) = 0.02200761
#
# Stress axis : x y z
#
# Youngs Moduli (GPa) = 65.03769 42.47600 108.95160
#
# Poissons Ratio (x) = 0.33685 0.31678
# Poissons Ratio (y) = 0.51577 0.24043
# Poissons Ratio (z) = 0.18910 0.09373
#
# Static dielectric constant tensor:
#      x y z
#    x 1.688250 0.000000 0.026270 
#    y 0.000000 1.643310 0.000000 
#    z 0.026270 0.000000 1.754120 
# 
# From -- ./inp_files/226936.got.cif
#   From: 2010.05.17/outbox.cif.g08.bks.cpg/sg12_114_cif.got.tgz:226936.got - 2010.06.03 13:09:07.
