data_PCOD9203090
_publ_section_title
;
Structure prediction by ZEFSAII (Michael W. Deem and Ramdas Pophale) SiO2 
 PCOD9203090
Probable space group: C 2/M
;
_chemical_formula_sum "Si O2"
_cell_formula_units_Z 48
_cell_length_a 12.876865
_cell_length_b 24.463976
_cell_length_c 11.764162
_cell_angle_alpha 90.000000
_cell_angle_beta 33.112979
_cell_angle_gamma 90.000000
_cell_volume 2024.523363
_symmetry_space_group_name_H-M "C 2/M"
_symmetry_group_IT_number 12
_symmetry_cell_setting 'monoclinic'
loop_
_space_group_symop_operation_xyz
x,y,z
-x,y,-z
-x,-y,-z
x,-y,z
1/2+x,1/2+y,z
1/2-x,1/2+y,-z
1/2-x,1/2-y,-z
1/2+x,1/2-y,z
loop_
_atom_site_type_symbol
_atom_site_label
_atom_site_fract_x
_atom_site_fract_y
_atom_site_fract_z
Si Si1 0.719903 0.617575 0.796871
Si Si2 0.764307 0.563317 0.521387
Si Si3 0.316912 0.262285 0.115065
Si Si4 0.894096 0.064329 0.716057
Si Si5 0.978268 0.251902 0.287403
Si Si6 0.406055 0.876956 0.868896
O O1 0.800869 0.590971 0.609366
O O2 0.730610 0.683285 0.771659
O O3 0.809816 0.605198 0.836796
O O4 0.500000 0.601330 0.000000
O O5 0.808278 0.500000 0.490918
O O6 0.550815 0.569618 0.672238
O O7 0.898413 0.590360 0.305005
O O8 0.112350 0.237243 0.272275
O O9 0.500000 0.231304 0.000000
O O10 0.420709 0.283120 0.903954
O O11 0.000000 0.075974 0.500000
O O12 0.832539 0.000000 0.769208
O O13 0.727400 0.105349 0.905387
O O14 0.750000 0.250000 0.500000
O O15 0.037704 0.313763 0.199511
#
# Coordination Sequence:
#
# PCOD9203090 Si02
#       6
#     8   8   8   8   8   8
#     4  10  20  38  66  96 136 179 220 279 352 420
#     4  11  24  40  66 103 142 182 226 284 347 420
#     4   9  21  41  65  90 133 178 233 281 346 420
#     4  10  23  45  69  95 135 189 240 288 342 405
#     4  10  23  40  66  97 133 181 230 286 353 422
#     4  11  23  40  68  98 139 178 226 288 346 420
#
# _framework density 23.709285000000001
#
# number of rings (size 3 to 8) (size 9 to 14) (size 15 to 20)
#    0.000    1.833    1.667    1.000    4.667    5.000 
#    3.000    2.500    0.000    0.000    0.000    0.000 
#    0.000    0.000    0.000    0.000    0.000    0.000 
#
# Total GULP energy -133985.222001 kJ/mol
# GULP energy per Si atom -5582.717583 kJ/mol
# Density = 2.365532 g / cm^3
# Si number density = 23.709285 Si / 1000 Ang^3
#
#
#
# Elastic Constant Matrix: (Units=GPa)
#
#
# Indices 1 2 3 4 5 6 
#
# 1 80.3668 17.4291 22.9680 0.0001 -17.5212 -0.0001
# 2 17.4291 80.0336 54.4824 -0.0001 -1.5426 0.0000
# 3 22.9680 54.4824 133.6020 0.0001 -18.4268 -0.0001
# 4 0.0001 -0.0001 0.0001 35.6842 0.0000 1.4977
# 5 -17.5212 -1.5426 -18.4268 0.0000 49.3562 0.0000
# 6 -0.0001 0.0000 -0.0001 1.4977 0.0000 26.6845
#
#
#
# Elastic Compliance Matrix: (Units=1/GPa)
#
#
# Indices 1 2 3 4 5 6 
#
# 1 0.014224 -0.002467 -0.000795 0.000000 0.004676 0.000000
# 2 -0.002467 0.017955 -0.007318 0.000000 -0.003047 0.000000
# 3 -0.000795 -0.007318 0.011107 0.000000 0.003636 0.000000
# 4 0.000000 0.000000 0.000000 0.028090 0.000000 -0.001577
# 5 0.004676 -0.003047 0.003636 0.000000 0.023183 0.000000
# 6 0.000000 0.000000 0.000000 -0.001577 0.000000 0.037563
#
#
# Mechanical properties :
#
#
# Convention : Reuss Voigt Hill
#
# Bulk Modulus (GPa) = 45.19170 53.75128 49.47149
# Shear Modulus (GPa) = 31.12209 35.61983 33.37096
#
# Velocity S-wave (km/s) = 3.62699 3.88023 3.75574
# Velocity P-wave (km/s) = 6.05328 6.54180 6.30227
#
# Compressibility (1/GPa) = 0.02212796
#
# Stress axis : x y z
#
# Youngs Moduli (GPa) = 70.30187 55.69490 90.03079
#
# Poissons Ratio (x) = 0.13738 0.07154
# Poissons Ratio (y) = 0.17341 0.65886
# Poissons Ratio (z) = 0.05586 0.40758
#
# Static dielectric constant tensor:
#      x y z
#    x 2.017540 0.000000 0.012560 
#    y 0.000000 1.925420 0.000000 
#    z 0.012560 0.000000 1.898090 
# 
# From -- ./inp_files/150190.got.cif
#   From: 2010.05.17/outbox.cif.g08.bks.cpg/sg12_76_cif.got.tgz:150190.got - 2010.06.03 13:09:07.
