data_PCOD9203726
_publ_section_title
;
Structure prediction by ZEFSAII (Michael W. Deem and Ramdas Pophale) SiO2 
 PCOD9203726
Probable space group: C 2/M
;
_chemical_formula_sum "Si O2"
_cell_formula_units_Z 64
_cell_length_a 11.827802
_cell_length_b 14.936235
_cell_length_c 30.334308
_cell_angle_alpha 90.000000
_cell_angle_beta 29.938513
_cell_angle_gamma 90.000000
_cell_volume 2674.490337
_symmetry_space_group_name_H-M "C 2/M"
_symmetry_group_IT_number 12
_symmetry_cell_setting 'monoclinic'
loop_
_space_group_symop_operation_xyz
x,y,z
-x,y,-z
-x,-y,-z
x,-y,z
1/2+x,1/2+y,z
1/2-x,1/2+y,-z
1/2-x,1/2-y,-z
1/2+x,1/2-y,z
loop_
_atom_site_type_symbol
_atom_site_label
_atom_site_fract_x
_atom_site_fract_y
_atom_site_fract_z
Si Si1 0.628977 0.103290 0.177594
Si Si2 0.752286 0.103366 0.424044
Si Si3 0.988364 0.600209 0.134391
Si Si4 0.641910 0.852540 0.645650
Si Si5 0.119222 0.163184 0.525745
Si Si6 0.454847 0.391165 0.754605
Si Si7 0.902837 0.839064 0.947185
Si Si8 0.330504 0.609383 0.226829
O O1 0.508479 0.143533 0.175355
O O2 0.462764 0.098765 0.275507
O O3 0.855154 0.159188 0.110549
O O4 0.700541 0.000000 0.144602
O O5 0.500000 0.140671 0.500000
O O6 0.853690 0.105685 0.438818
O O7 0.920492 0.144152 0.331244
O O8 0.735724 0.000000 0.416867
O O9 0.903452 0.500000 0.172901
O O10 0.803479 0.638978 0.163663
O O11 0.231942 0.596208 0.030236
O O12 0.757192 0.879138 0.559152
O O13 0.390574 0.832591 0.710692
O O14 0.866995 0.814321 0.594148
O O15 0.250000 0.250000 0.500000
O O16 0.460134 0.500000 0.756212
O O17 0.583776 0.362352 0.754367
O O18 0.972242 0.871836 0.875167
O O19 0.750000 0.750000 0.000000
O O20 0.279131 0.500000 0.243173
#
# Coordination Sequence:
#
# PCOD9203726 Si02
#       8
#     8   8   8   8   8   8   8   8
#     4  10  21  43  72  98 130 172 225 284 332 386
#     4  10  21  38  63  93 126 168 216 271 321 375
#     4  10  20  39  66  93 125 173 222 272 329 391
#     4  10  22  42  64  95 121 171 224 260 328 385
#     4  11  25  42  62  95 137 176 214 264 330 405
#     4   9  19  37  63  97 125 159 215 270 333 387
#     4  11  23  40  57  94 134 170 219 271 337 402
#     4  10  21  43  69  96 131 172 220 278 334 391
#
# _framework density 23.929793
#
# number of rings (size 3 to 8) (size 9 to 14) (size 15 to 20)
#    0.000    1.875    0.000    4.125    1.750    5.500 
#   13.500    5.000    0.000    0.000    0.000    0.000 
#    0.000    0.000    0.000    0.000    0.000    0.000 
#
# Total GULP energy -178135.264813 kJ/mol
# GULP energy per Si atom -5566.727025 kJ/mol
# Density = 2.387533 g / cm^3
# Si number density = 23.929793 Si / 1000 Ang^3
#
#
#
# Elastic Constant Matrix: (Units=GPa)
#
#
# Indices 1 2 3 4 5 6 
#
# 1 216.4000 30.3580 78.0974 0.0035 -2.2362 0.0022
# 2 30.3580 72.4436 21.3526 0.0057 -19.5909 0.0054
# 3 78.0974 21.3526 125.0773 0.0956 1.5011 0.0530
# 4 0.0035 0.0057 0.0956 97.0406 -0.0475 53.7868
# 5 -2.2362 -19.5909 1.5011 -0.0475 40.9329 -0.0284
# 6 0.0022 0.0054 0.0530 53.7868 -0.0284 61.7640
#
#
#
# Elastic Compliance Matrix: (Units=1/GPa)
#
#
# Indices 1 2 3 4 5 6 
#
# 1 0.006122 -0.001602 -0.003546 0.000003 -0.000302 0.000000
# 2 -0.001602 0.017320 -0.002056 0.000005 0.008277 -0.000001
# 3 -0.003546 -0.002056 0.010579 -0.000011 -0.001565 0.000000
# 4 0.000003 0.000005 -0.000011 0.019920 0.000014 -0.017347
# 5 -0.000302 0.008277 -0.001565 0.000014 0.028433 0.000001
# 6 0.000000 -0.000001 0.000000 -0.017347 0.000001 0.031297
#
#
# Mechanical properties :
#
#
# Convention : Reuss Voigt Hill
#
# Bulk Modulus (GPa) = 50.98511 74.83744 62.91128
# Shear Modulus (GPa) = 37.14286 58.88837 48.01562
#
# Velocity S-wave (km/s) = 3.94402 4.96611 4.48428
# Velocity P-wave (km/s) = 6.48789 8.01403 7.29100
#
# Compressibility (1/GPa) = 0.01961357
#
# Stress axis : x y z
#
# Youngs Moduli (GPa) = 163.33730 57.73804 94.53055
#
# Poissons Ratio (x) = 0.09252 0.33516
# Poissons Ratio (y) = 0.26172 0.19432
# Poissons Ratio (z) = 0.57912 0.11869
#
# Static dielectric constant tensor:
#      x y z
#    x 1.915480 -0.000010 0.023180 
#    y -0.000010 2.253830 0.000030 
#    z 0.023180 0.000030 1.884130 
# 
# From -- ./inp_files/374432.got.cif
#   From: 2010.05.17/outbox.cif.g08.bks.cpg/sg12_188_cif.got.tgz:374432.got - 2010.06.03 13:09:07.
