data_PCOD9203618
_publ_section_title
;
Structure prediction by ZEFSAII (Michael W. Deem and Ramdas Pophale) SiO2 
 PCOD9203618
Probable space group: C 2/M
;
_chemical_formula_sum "Si O2"
_cell_formula_units_Z 50
_cell_length_a 21.259370
_cell_length_b 14.405229
_cell_length_c 8.438991
_cell_angle_alpha 90.000000
_cell_angle_beta 104.489170
_cell_angle_gamma 90.000000
_cell_volume 2502.210797
_symmetry_space_group_name_H-M "C 2/M"
_symmetry_group_IT_number 12
_symmetry_cell_setting 'monoclinic'
loop_
_space_group_symop_operation_xyz
x,y,z
-x,y,-z
-x,-y,-z
x,-y,z
1/2+x,1/2+y,z
1/2-x,1/2+y,-z
1/2-x,1/2-y,-z
1/2+x,1/2-y,z
loop_
_atom_site_type_symbol
_atom_site_label
_atom_site_fract_x
_atom_site_fract_y
_atom_site_fract_z
Si Si1 0.800575 0.266263 0.892919
Si Si2 0.579413 0.846571 0.854699
Si Si3 0.500000 0.000000 0.000000
Si Si4 0.742653 0.893678 0.416832
Si Si5 0.392347 0.894543 0.489785
Si Si6 0.138878 0.891805 0.270504
Si Si7 0.523099 0.720804 0.341242
O O1 0.766678 0.319815 0.726940
O O2 0.831250 0.170892 0.849052
O O3 0.750000 0.250000 0.000000
O O4 0.859020 0.328402 0.996397
O O5 0.601191 0.880623 0.694038
O O6 0.538961 0.752177 0.798671
O O7 0.533946 0.919783 0.910933
O O8 0.681462 0.883024 0.497449
O O9 0.809617 0.882072 0.552632
O O10 0.739510 0.000000 0.353961
O O11 0.436573 0.816399 0.599610
O O12 0.413108 0.000000 0.545366
O O13 0.070769 0.849378 0.284256
O O14 0.134325 0.000000 0.226931
O O15 0.500000 0.687039 0.500000
#
# Coordination Sequence:
#
# PCOD9203618 Si02
#       7
#     8   8   2   8   8   8   8
#     4  12  26  42  69  95 138 171 216 274 344 398
#     4  11  25  39  60 100 135 178 215 265 342 407
#     4  12  24  36  62  96 154 168 202 272 346 426
#     4  10  23  40  70  97 126 167 221 273 328 397
#     4  10  20  39  64  97 132 171 217 263 326 401
#     4  11  24  46  67  93 126 174 230 276 320 378
#     4  10  23  39  67  91 128 169 226 265 322 390
#
# _framework density 19.982329
#
# number of rings (size 3 to 8) (size 9 to 14) (size 15 to 20)
#    0.000    1.280    2.400    2.400    6.720    1.920 
#    0.000    1.600    0.000    0.000    0.000    0.000 
#    0.000    0.000    0.000    0.000    0.000    0.000 
#
# Total GULP energy -139614.584042 kJ/mol
# GULP energy per Si atom -5584.583362 kJ/mol
# Density = 1.993685 g / cm^3
# Si number density = 19.982329 Si / 1000 Ang^3
#
#
#
# Elastic Constant Matrix: (Units=GPa)
#
#
# Indices 1 2 3 4 5 6 
#
# 1 79.3283 24.1224 28.5628 0.0000 -38.5259 0.0000
# 2 24.1224 81.6540 31.0083 0.0000 -32.2143 0.0000
# 3 28.5628 31.0083 46.7845 0.0000 -27.2629 0.0000
# 4 0.0000 0.0000 0.0000 27.8011 0.0000 -16.0644
# 5 -38.5259 -32.2143 -27.2629 0.0000 38.8543 0.0000
# 6 0.0000 0.0000 0.0000 -16.0644 0.0000 44.0351
#
#
#
# Elastic Compliance Matrix: (Units=1/GPa)
#
#
# Indices 1 2 3 4 5 6 
#
# 1 0.025168 0.003980 -0.002602 0.000000 0.026429 0.000000
# 2 0.003980 0.019717 -0.006212 0.000000 0.015934 0.000000
# 3 -0.002602 -0.006212 0.038192 0.000000 0.019067 0.000000
# 4 0.000000 0.000000 0.000000 0.045577 0.000000 0.016627
# 5 0.026429 0.015934 0.019067 0.000000 0.078533 0.000000
# 6 0.000000 0.000000 0.000000 0.016627 0.000000 0.028775
#
#
# Mechanical properties :
#
#
# Convention : Reuss Voigt Hill
#
# Bulk Modulus (GPa) = 13.62261 41.68374 27.65317
# Shear Modulus (GPa) = 18.51167 30.40967 24.46067
#
# Velocity S-wave (km/s) = 3.04699 3.90529 3.50253
# Velocity P-wave (km/s) = 4.38303 6.42189 5.49780
#
# Compressibility (1/GPa) = 0.07340739
#
# Stress axis : x y z
#
# Youngs Moduli (GPa) = 39.73331 50.71850 26.18354
#
# Poissons Ratio (x) = -0.20185 0.06813
# Poissons Ratio (y) = -0.15813 0.16266
# Poissons Ratio (z) = 0.10339 0.31507
#
# Static dielectric constant tensor:
#      x y z
#    x 1.694030 0.000000 0.015070 
#    y 0.000000 1.697240 0.000000 
#    z 0.015070 0.000000 1.729090 
# 
# From -- ./inp_files/85918.got.cif
#   From: 2010.05.17/outbox.cif.g08.bks.cpg/sg12_43_cif.got.tgz:85918.got - 2010.06.03 13:09:07.
