data_PCOD9203201
_publ_section_title
;
Structure prediction by ZEFSAII (Michael W. Deem and Ramdas Pophale) SiO2 
 PCOD9203201
Probable space group: C 2/M
;
_chemical_formula_sum "Si O2"
_cell_formula_units_Z 54
_cell_length_a 20.567558
_cell_length_b 18.126477
_cell_length_c 10.182269
_cell_angle_alpha 90.000000
_cell_angle_beta 54.027552
_cell_angle_gamma 90.000000
_cell_volume 3072.203649
_symmetry_space_group_name_H-M "C 2/M"
_symmetry_group_IT_number 12
_symmetry_cell_setting 'monoclinic'
loop_
_space_group_symop_operation_xyz
x,y,z
-x,y,-z
-x,-y,-z
x,-y,z
1/2+x,1/2+y,z
1/2-x,1/2+y,-z
1/2-x,1/2-y,-z
1/2+x,1/2-y,z
loop_
_atom_site_type_symbol
_atom_site_label
_atom_site_fract_x
_atom_site_fract_y
_atom_site_fract_z
Si Si1 0.280585 0.583720 0.563730
Si Si2 0.248003 0.859291 0.690204
Si Si3 0.000000 0.500000 0.000000
Si Si4 0.500000 0.192259 0.500000
Si Si5 0.633758 0.882643 0.933020
Si Si6 0.634146 0.085328 0.227777
Si Si7 0.408060 0.275240 0.121217
Si Si8 0.871334 0.767869 0.469952
O O1 0.308566 0.500000 0.549613
O O2 0.255364 0.595484 0.441482
O O3 0.203701 0.598344 0.746703
O O4 0.345236 0.647372 0.517125
O O5 0.297421 0.899057 0.745540
O O6 0.158113 0.836378 0.836504
O O7 0.296238 0.783844 0.599029
O O8 0.940727 0.435828 0.008606
O O9 0.559913 0.139024 0.348781
O O10 0.445741 0.241705 0.468954
O O11 0.607155 0.798253 0.944610
O O12 0.662360 0.896916 0.047251
O O13 0.609207 0.000000 0.265013
O O14 0.390722 0.255719 0.294067
O O15 0.500000 0.299587 0.000000
#
# Coordination Sequence:
#
# PCOD9203201 Si02
#       8
#     8   8   2   4   8   8   8   8
#     4  11  20  37  62  83 108 156 197 235 287 341
#     4  10  21  39  60  84 116 158 199 233 285 352
#     4  12  24  32  52  90 132 138 178 238 300 346
#     4  10  23  38  57  84 118 158 184 240 295 344
#     4  12  22  35  57  86 118 153 188 235 288 348
#     4  11  23  39  56  88 124 151 188 237 295 353
#     4  11  20  35  60  87 113 150 199 244 283 337
#     4  10  20  39  58  84 118 150 203 238 280 352
#
# _framework density 17.57696
#
# number of rings (size 3 to 8) (size 9 to 14) (size 15 to 20)
#    0.000    1.185    5.185    2.444    0.000    0.593 
#    5.333    0.370    0.000   11.111    0.000    0.000 
#    0.000    0.000    0.000    0.000    0.000    0.000 
#
# Total GULP energy -150518.567732 kJ/mol
# GULP energy per Si atom -5574.761768 kJ/mol
# Density = 1.753695 g / cm^3
# Si number density = 17.576960 Si / 1000 Ang^3
#
#
#
# Elastic Constant Matrix: (Units=GPa)
#
#
# Indices 1 2 3 4 5 6 
#
# 1 107.4602 44.6665 44.3852 0.0000 1.2831 0.0000
# 2 44.6665 91.9852 27.6586 0.0000 5.1356 0.0000
# 3 44.3852 27.6586 65.3822 0.0000 5.8095 0.0000
# 4 0.0000 0.0000 0.0000 21.7808 0.0000 16.5285
# 5 1.2831 5.1356 5.8095 0.0000 22.0186 0.0000
# 6 0.0000 0.0000 0.0000 16.5285 0.0000 38.9201
#
#
#
# Elastic Compliance Matrix: (Units=1/GPa)
#
#
# Indices 1 2 3 4 5 6 
#
# 1 0.014620 -0.004795 -0.008110 0.000000 0.002406 0.000000
# 2 -0.004795 0.014080 -0.002493 0.000000 -0.002347 0.000000
# 3 -0.008110 -0.002493 0.022284 0.000000 -0.004825 0.000000
# 4 0.000000 0.000000 0.000000 0.067744 0.000000 -0.028769
# 5 0.002406 -0.002347 -0.004825 0.000000 0.047096 0.000000
# 6 0.000000 0.000000 0.000000 -0.028769 0.000000 0.037911
#
#
# Mechanical properties :
#
#
# Convention : Reuss Voigt Hill
#
# Bulk Modulus (GPa) = 49.53447 55.36092 52.44770
# Shear Modulus (GPa) = 20.72448 26.41839 23.57143
#
# Velocity S-wave (km/s) = 3.43748 3.88108 3.66600
# Velocity P-wave (km/s) = 6.63308 7.18668 6.91542
#
# Compressibility (1/GPa) = 0.02018796
#
# Stress axis : x y z
#
# Youngs Moduli (GPa) = 68.39976 71.02170 44.87589
#
# Poissons Ratio (x) = 0.34054 0.36396
# Poissons Ratio (y) = 0.32797 0.11186
# Poissons Ratio (z) = 0.55474 0.17704
#
# Static dielectric constant tensor:
#      x y z
#    x 1.585540 0.000000 -0.001310 
#    y 0.000000 1.589410 0.000000 
#    z -0.001310 0.000000 1.598890 
# 
# From -- ./inp_files/77421.got.cif
#   From: 2010.05.17/outbox.cif.g08.bks.cpg/sg12_39_cif.got.tgz:77421.got - 2010.06.03 13:09:07.
