data_PCOD9203822
_publ_section_title
;
Structure prediction by ZEFSAII (Michael W. Deem and Ramdas Pophale) SiO2 
 PCOD9203822
Probable space group: C 2/M
;
_chemical_formula_sum "Si O2"
_cell_formula_units_Z 64
_cell_length_a 9.288169
_cell_length_b 13.450133
_cell_length_c 31.416482
_cell_angle_alpha 90.000000
_cell_angle_beta 128.501376
_cell_angle_gamma 90.000000
_cell_volume 3071.498536
_symmetry_space_group_name_H-M "C 2/M"
_symmetry_group_IT_number 12
_symmetry_cell_setting 'monoclinic'
loop_
_space_group_symop_operation_xyz
x,y,z
-x,y,-z
-x,-y,-z
x,-y,z
1/2+x,1/2+y,z
1/2-x,1/2+y,-z
1/2-x,1/2-y,-z
1/2+x,1/2-y,z
loop_
_atom_site_type_symbol
_atom_site_label
_atom_site_fract_x
_atom_site_fract_y
_atom_site_fract_z
Si Si1 0.215869 0.607533 0.692000
Si Si2 0.803683 0.726881 0.462160
Si Si3 0.198514 0.685007 0.281713
Si Si4 0.429837 0.389391 0.646665
Si Si5 0.499314 0.248790 0.880226
Si Si6 0.641653 0.883378 0.827160
Si Si7 0.361285 0.117515 0.934652
Si Si8 0.222168 0.384496 0.380991
O O1 0.261937 0.500000 0.719222
O O2 0.321959 0.699204 0.732145
O O3 0.272539 0.607842 0.653144
O O4 0.998108 0.622657 0.653076
O O5 0.750000 0.750000 0.500000
O O6 0.649214 0.667432 0.408181
O O7 0.822681 0.825748 0.436861
O O8 0.000000 0.672896 0.500000
O O9 0.390357 0.652295 0.296301
O O10 0.247523 0.667794 0.340200
O O11 0.020033 0.623512 0.237574
O O12 0.478221 0.500000 0.642590
O O13 0.548670 0.173873 0.850387
O O14 0.318403 0.319762 0.844497
O O15 0.456123 0.178400 0.913159
O O16 0.675177 0.323281 0.913741
O O17 0.683827 0.000000 0.843455
O O18 0.326958 0.000000 0.917819
O O19 0.500000 0.119714 0.000000
O O20 0.270615 0.500000 0.389122
#
# Coordination Sequence:
#
# PCOD9203822 Si02
#       8
#     8   8   8   8   8   8   8   8
#     4  10  21  38  63  87 111 143 189 242 290 349
#     4  12  24  38  59  83 113 143 179 236 299 363
#     4  12  22  42  63  88 116 156 202 245 297 364
#     4  11  23  41  62  84 111 146 191 240 290 359
#     4  10  23  41  62  96 141 177 215 281 331 380
#     4  11  25  42  63  95 134 176 217 263 329 390
#     4  10  20  39  68  97 130 180 235 279 326 382
#     4  11  23  41  62  85 114 147 192 242 290 361
#
# _framework density 20.836734
#
# number of rings (size 3 to 8) (size 9 to 14) (size 15 to 20)
#    0.000    1.125    2.500    3.750    3.500    1.000 
#    0.000    2.500    0.000    6.000    0.000    0.000 
#    0.000    0.000    0.000    0.000    0.000    0.000 
#
# Total GULP energy -178651.105685 kJ/mol
# GULP energy per Si atom -5582.847053 kJ/mol
# Density = 2.078931 g / cm^3
# Si number density = 20.836734 Si / 1000 Ang^3
#
#
#
# Elastic Constant Matrix: (Units=GPa)
#
#
# Indices 1 2 3 4 5 6 
#
# 1 119.5534 24.6663 32.4646 0.0000 10.7013 0.0000
# 2 24.6663 168.4649 35.1612 0.0000 7.7068 0.0000
# 3 32.4646 35.1612 60.5133 0.0000 11.4490 0.0000
# 4 0.0000 0.0000 0.0000 30.2722 0.0000 3.5331
# 5 10.7013 7.7068 11.4490 0.0000 26.0665 0.0000
# 6 0.0000 0.0000 0.0000 3.5331 0.0000 29.8960
#
#
#
# Elastic Compliance Matrix: (Units=1/GPa)
#
#
# Indices 1 2 3 4 5 6 
#
# 1 0.009896 -0.000375 -0.004737 0.000000 -0.001871 0.000000
# 2 -0.000375 0.006771 -0.003691 0.000000 -0.000227 0.000000
# 3 -0.004737 -0.003691 0.022507 0.000000 -0.006850 0.000000
# 4 0.000000 0.000000 0.000000 0.033496 0.000000 -0.003959
# 5 -0.001871 -0.000227 -0.006850 0.000000 0.042207 0.000000
# 6 0.000000 0.000000 0.000000 -0.003959 0.000000 0.033917
#
#
# Mechanical properties :
#
#
# Convention : Reuss Voigt Hill
#
# Bulk Modulus (GPa) = 46.36197 59.23509 52.79853
# Shear Modulus (GPa) = 28.80370 34.32956 31.56663
#
# Velocity S-wave (km/s) = 3.72203 4.06341 3.89646
# Velocity P-wave (km/s) = 6.38512 7.10668 6.75554
#
# Compressibility (1/GPa) = 0.02156940
#
# Stress axis : x y z
#
# Youngs Moduli (GPa) = 101.05488 147.67810 44.43041
#
# Poissons Ratio (x) = 0.05532 0.21048
# Poissons Ratio (y) = 0.03785 0.16398
# Poissons Ratio (z) = 0.47872 0.54502
#
# Static dielectric constant tensor:
#      x y z
#    x 1.795030 0.000000 0.012770 
#    y 0.000000 1.801960 0.000000 
#    z 0.012770 0.000000 1.752170 
# 
# From -- ./inp_files/372580.got.cif
#   From: 2010.05.17/outbox.cif.g08.bks.cpg/sg12_187_cif.got.tgz:372580.got - 2010.06.03 13:09:07.
