data_PCOD9203363
_publ_section_title
;
Structure prediction by ZEFSAII (Michael W. Deem and Ramdas Pophale) SiO2 
 PCOD9203363
Probable space group: C 2/M
;
_chemical_formula_sum "Si O2"
_cell_formula_units_Z 48
_cell_length_a 16.910980
_cell_length_b 30.025453
_cell_length_c 9.057825
_cell_angle_alpha 90.000000
_cell_angle_beta 145.141996
_cell_angle_gamma 90.000000
_cell_volume 2628.647651
_symmetry_space_group_name_H-M "C 2/M"
_symmetry_group_IT_number 12
_symmetry_cell_setting 'monoclinic'
loop_
_space_group_symop_operation_xyz
x,y,z
-x,y,-z
-x,-y,-z
x,-y,z
1/2+x,1/2+y,z
1/2-x,1/2+y,-z
1/2-x,1/2-y,-z
1/2+x,1/2-y,z
loop_
_atom_site_type_symbol
_atom_site_label
_atom_site_fract_x
_atom_site_fract_y
_atom_site_fract_z
Si Si1 0.358201 0.947253 0.370712
Si Si2 0.326298 0.378216 0.380628
Si Si3 0.148880 0.124031 0.929776
Si Si4 0.345485 0.699125 0.821772
Si Si5 0.346854 0.949971 0.701474
Si Si6 0.655393 0.802086 0.246293
O O1 0.500000 0.935650 0.500000
O O2 0.366268 0.940021 0.558486
O O3 0.333996 0.000000 0.306770
O O4 0.232268 0.916429 0.128811
O O5 0.313532 0.379622 0.185085
O O6 0.483817 0.381336 0.675170
O O7 0.241728 0.415021 0.341806
O O8 0.263801 0.330620 0.323076
O O9 0.180690 0.169296 0.072468
O O10 0.353731 0.752933 0.840234
O O11 0.220910 0.694681 0.511333
O O12 0.500000 0.685327 0.000000
O O13 0.286873 0.000000 0.623410
O O14 0.500000 0.950449 0.000000
O O15 0.500000 0.820890 0.000000
#
# Coordination Sequence:
#
# PCOD9203363 Si02
#       6
#     8   8   8   8   8   8
#     4  10  22  40  63  91 121 155 201 252 303 363
#     4  11  23  39  58  88 123 162 205 249 302 366
#     4  11  24  38  60  86 123 163 198 253 307 359
#     4  10  20  39  62  86 117 159 204 255 309 360
#     4  10  21  38  62  88 119 158 199 249 302 360
#     4  10  21  37  63  89 115 157 208 254 306 361
#
# _framework density 18.260341
#
# number of rings (size 3 to 8) (size 9 to 14) (size 15 to 20)
#    0.000    1.667    1.667    2.500    0.000    4.667 
#    0.000    3.333    3.667    0.000    0.000    0.000 
#    0.000    0.000    0.000    0.000    0.000    0.000 
#
# Total GULP energy -133722.027448 kJ/mol
# GULP energy per Si atom -5571.751144 kJ/mol
# Density = 1.821878 g / cm^3
# Si number density = 18.260341 Si / 1000 Ang^3
#
#
#
# Elastic Constant Matrix: (Units=GPa)
#
#
# Indices 1 2 3 4 5 6 
#
# 1 109.4262 69.3888 48.3698 0.0000 -16.4725 0.0000
# 2 69.3888 71.9396 50.3472 0.0000 -23.9598 0.0000
# 3 48.3698 50.3472 111.2301 0.0000 -23.2461 0.0000
# 4 0.0000 0.0000 0.0000 26.0894 0.0000 5.9092
# 5 -16.4725 -23.9598 -23.2461 0.0000 15.6686 0.0000
# 6 0.0000 0.0000 0.0000 5.9092 0.0000 27.6026
#
#
#
# Elastic Compliance Matrix: (Units=1/GPa)
#
#
# Indices 1 2 3 4 5 6 
#
# 1 0.027508 -0.033559 -0.002106 0.000000 -0.025522 0.000000
# 2 -0.033559 0.071761 -0.003375 0.000000 0.069447 0.000000
# 3 -0.002106 -0.003375 0.014338 0.000000 0.013898 0.000000
# 4 0.000000 0.000000 0.000000 0.040283 0.000000 -0.008624
# 5 -0.025522 0.069447 0.013898 0.000000 0.163806 0.000000
# 6 0.000000 0.000000 0.000000 -0.008624 0.000000 0.038075
#
#
# Mechanical properties :
#
#
# Convention : Reuss Voigt Hill
#
# Bulk Modulus (GPa) = 28.14674 69.86749 49.00712
# Shear Modulus (GPa) = 11.21854 22.17145 16.69499
#
# Velocity S-wave (km/s) = 2.48133 3.48830 3.02698
# Velocity P-wave (km/s) = 4.86384 7.38710 6.25405
#
# Compressibility (1/GPa) = 0.03552809
#
# Stress axis : x y z
#
# Youngs Moduli (GPa) = 36.35367 13.93520 69.74385
#
# Poissons Ratio (x) = 0.46765 0.14687
# Poissons Ratio (y) = 1.21998 0.23536
# Poissons Ratio (z) = 0.07656 0.04703
#
# Static dielectric constant tensor:
#      x y z
#    x 1.554640 0.000000 0.149810 
#    y 0.000000 1.653680 0.000000 
#    z 0.149810 0.000000 1.237260 
# 
# From -- ./inp_files/80801.got.cif
#   From: 2010.05.17/outbox.cif.g08.bks.cpg/sg12_41_cif.got.tgz:80801.got - 2010.06.03 13:09:07.
