data_PCOD9203472
_publ_section_title
;
Structure prediction by ZEFSAII (Michael W. Deem and Ramdas Pophale) SiO2 
 PCOD9203472
Probable space group: C 2/M
;
_chemical_formula_sum "Si O2"
_cell_formula_units_Z 56
_cell_length_a 16.664045
_cell_length_b 14.672152
_cell_length_c 12.697723
_cell_angle_alpha 90.000000
_cell_angle_beta 115.714752
_cell_angle_gamma 90.000000
_cell_volume 2797.101193
_symmetry_space_group_name_H-M "C 2/M"
_symmetry_group_IT_number 12
_symmetry_cell_setting 'monoclinic'
loop_
_space_group_symop_operation_xyz
x,y,z
-x,y,-z
-x,-y,-z
x,-y,z
1/2+x,1/2+y,z
1/2-x,1/2+y,-z
1/2-x,1/2-y,-z
1/2+x,1/2-y,z
loop_
_atom_site_type_symbol
_atom_site_label
_atom_site_fract_x
_atom_site_fract_y
_atom_site_fract_z
Si Si1 0.474421 0.097957 0.608052
Si Si2 0.887703 0.344566 0.145895
Si Si3 0.328870 0.099750 0.889866
Si Si4 0.347828 0.686279 0.261626
Si Si5 0.951167 0.238258 0.871875
Si Si6 0.154594 0.235478 0.498347
Si Si7 0.957770 0.892460 0.688118
O O1 0.500000 0.098686 0.500000
O O2 0.563150 0.104623 0.729849
O O3 0.410102 0.184713 0.582916
O O4 0.430742 0.000000 0.607684
O O5 0.829444 0.265485 0.165570
O O6 0.972004 0.297789 0.138085
O O7 0.838373 0.394254 0.022367
O O8 0.227597 0.111015 0.795774
O O9 0.379091 0.187204 0.868287
O O10 0.365240 0.000000 0.878026
O O11 0.344054 0.732070 0.374523
O O12 0.445426 0.646013 0.291915
O O13 0.925484 0.161009 0.774502
O O14 0.000000 0.194418 0.000000
O O15 0.250000 0.250000 0.500000
O O16 0.111549 0.139859 0.439458
O O17 0.961340 0.000000 0.704308
#
# Coordination Sequence:
#
# PCOD9203472 Si02
#       7
#     8   8   8   8   8   8   8
#     4  11  21  39  66  93 122 162 206 252 313 380
#     4  10  20  39  63  88 127 171 203 253 308 369
#     4  11  23  38  61  99 132 163 211 257 308 374
#     4  11  22  40  64  89 129 167 211 254 310 369
#     4   9  20  38  60  89 125 165 201 253 317 363
#     4  12  24  42  64  90 126 163 204 265 320 372
#     4  11  23  42  65  90 120 165 218 259 311 378
#
# _framework density 20.020727999999998
#
# number of rings (size 3 to 8) (size 9 to 14) (size 15 to 20)
#    0.000    1.286    4.286    2.571    0.000    5.714 
#    0.000    0.000    0.000    6.000    0.000    0.000 
#    0.000    0.000    0.000    0.000    0.000    0.000 
#
# Total GULP energy -156198.729394 kJ/mol
# GULP energy per Si atom -5578.526050 kJ/mol
# Density = 1.997516 g / cm^3
# Si number density = 20.020728 Si / 1000 Ang^3
#
#
#
# Elastic Constant Matrix: (Units=GPa)
#
#
# Indices 1 2 3 4 5 6 
#
# 1 66.0346 35.9718 27.3979 0.0000 -5.1239 0.0000
# 2 35.9718 116.0308 17.1349 0.0000 -3.1008 0.0000
# 3 27.3979 17.1349 82.7799 0.0000 -7.9496 0.0000
# 4 0.0000 0.0000 0.0000 8.6851 0.0000 -2.6048
# 5 -5.1239 -3.1008 -7.9496 0.0000 26.2777 0.0000
# 6 0.0000 0.0000 0.0000 -2.6048 0.0000 17.4804
#
#
#
# Elastic Compliance Matrix: (Units=1/GPa)
#
#
# Indices 1 2 3 4 5 6 
#
# 1 0.020563 -0.005517 -0.005501 0.000000 0.001694 0.000000
# 2 -0.005517 0.010377 -0.000317 0.000000 0.000053 0.000000
# 3 -0.005501 -0.000317 0.014275 0.000000 0.003208 0.000000
# 4 0.000000 0.000000 0.000000 0.120527 0.000000 0.017960
# 5 0.001694 0.000053 0.003208 0.000000 0.039362 0.000000
# 6 0.000000 0.000000 0.000000 0.017960 0.000000 0.059883
#
#
# Mechanical properties :
#
#
# Convention : Reuss Voigt Hill
#
# Bulk Modulus (GPa) = 44.35703 47.31717 45.83710
# Shear Modulus (GPa) = 16.93928 22.77801 19.85865
#
# Velocity S-wave (km/s) = 2.91191 3.37667 3.15287
# Velocity P-wave (km/s) = 5.78872 6.23602 6.01653
#
# Compressibility (1/GPa) = 0.02254434
#
# Stress axis : x y z
#
# Youngs Moduli (GPa) = 48.63124 96.36632 70.05449
#
# Poissons Ratio (x) = 0.53168 0.38537
# Poissons Ratio (y) = 0.26831 0.02220
# Poissons Ratio (z) = 0.26752 0.03053
#
# Static dielectric constant tensor:
#      x y z
#    x 1.687940 0.000000 -0.007610 
#    y 0.000000 1.747040 0.000000 
#    z -0.007610 0.000000 1.776540 
# 
# From -- ./inp_files/156718.got.cif
#   From: 2010.05.17/outbox.cif.g08.bks.cpg/sg12_79_cif.got.tgz:156718.got - 2010.06.03 13:09:07.
