data_PCOD9203287
_publ_section_title
;
Structure prediction by ZEFSAII (Michael W. Deem and Ramdas Pophale) SiO2 
 PCOD9203287
Probable space group: C 2/M
;
_chemical_formula_sum "Si O2"
_cell_formula_units_Z 64
_cell_length_a 9.575592
_cell_length_b 18.017707
_cell_length_c 28.995280
_cell_angle_alpha 90.000000
_cell_angle_beta 43.300930
_cell_angle_gamma 90.000000
_cell_volume 3430.907772
_symmetry_space_group_name_H-M "C 2/M"
_symmetry_group_IT_number 12
_symmetry_cell_setting 'monoclinic'
loop_
_space_group_symop_operation_xyz
x,y,z
-x,y,-z
-x,-y,-z
x,-y,z
1/2+x,1/2+y,z
1/2-x,1/2+y,-z
1/2-x,1/2-y,-z
1/2+x,1/2-y,z
loop_
_atom_site_type_symbol
_atom_site_label
_atom_site_fract_x
_atom_site_fract_y
_atom_site_fract_z
Si Si1 0.220835 0.586807 0.814524
Si Si2 0.135615 0.823963 0.705394
Si Si3 0.271006 0.413465 0.564065
Si Si4 0.500606 0.677933 0.054520
Si Si5 0.889729 0.588566 0.816966
Si Si6 0.064716 0.586981 0.433284
Si Si7 0.976344 0.669798 0.702630
Si Si8 0.449703 0.151947 0.958348
O O1 0.265316 0.500000 0.799910
O O2 0.432383 0.630266 0.766025
O O3 0.084764 0.602072 0.892510
O O4 0.081844 0.608237 0.803651
O O5 0.263255 0.865520 0.634231
O O6 0.285438 0.818347 0.713735
O O7 0.056570 0.745076 0.706347
O O8 0.500000 0.388410 0.500000
O O9 0.277287 0.500000 0.577146
O O10 0.135145 0.409581 0.550738
O O11 0.156566 0.365334 0.629276
O O12 0.304893 0.634519 0.118775
O O13 0.515043 0.763126 0.068276
O O14 0.500000 0.684617 0.000000
O O15 0.710077 0.636306 0.014512
O O16 0.857725 0.500000 0.828478
O O17 0.923835 0.613249 0.756320
O O18 0.128871 0.500000 0.420454
O O19 0.000000 0.611684 0.500000
O O20 0.500000 0.147234 0.000000
#
# Coordination Sequence:
#
# PCOD9203287 Si02
#       8
#     8   8   8   8   8   8   8   8
#     4  11  24  41  60  87 123 158 199 249 299 356
#     4  11  24  41  62  87 121 159 200 251 298 353
#     4   9  19  37  61  89 121 156 196 242 290 348
#     4  10  20  39  61  84 119 156 196 246 297 352
#     4  11  24  40  62  88 118 159 202 247 301 358
#     4   9  19  37  61  89 120 157 197 239 294 350
#     4  11  24  41  62  88 120 158 202 249 299 356
#     4  10  22  37  60  89 118 157 198 244 297 353
#
# _framework density 18.653955
#
# number of rings (size 3 to 8) (size 9 to 14) (size 15 to 20)
#    0.000    1.750    1.250    2.250    1.750    5.000 
#    0.000    5.000    0.000    0.000    0.000    0.000 
#    0.000    0.000    0.000    0.000    0.000    0.000 
#
# Total GULP energy -178671.033958 kJ/mol
# GULP energy per Si atom -5583.469811 kJ/mol
# Density = 1.861150 g / cm^3
# Si number density = 18.653955 Si / 1000 Ang^3
#
#
#
# Elastic Constant Matrix: (Units=GPa)
#
#
# Indices 1 2 3 4 5 6 
#
# 1 95.0479 33.3957 56.3722 -0.0006 -9.2471 0.0005
# 2 33.3957 55.5122 31.7784 0.0007 -9.2247 -0.0006
# 3 56.3722 31.7784 80.9694 0.0000 -12.1688 -0.0006
# 4 -0.0006 0.0007 0.0000 33.6766 0.0010 1.2094
# 5 -9.2471 -9.2247 -12.1688 0.0010 38.7136 -0.0011
# 6 0.0005 -0.0006 -0.0006 1.2094 -0.0011 27.1839
#
#
#
# Elastic Compliance Matrix: (Units=1/GPa)
#
#
# Indices 1 2 3 4 5 6 
#
# 1 0.018923 -0.004976 -0.011252 0.000000 -0.000203 -0.000001
# 2 -0.004976 0.024836 -0.005848 -0.000001 0.002891 0.000001
# 3 -0.011252 -0.005848 0.022950 0.000000 0.003133 0.000001
# 4 0.000000 -0.000001 0.000000 0.029742 -0.000001 -0.001323
# 5 -0.000203 0.002891 0.003133 -0.000001 0.027456 0.000001
# 6 -0.000001 0.000001 0.000001 -0.001323 0.000001 0.036845
#
#
# Mechanical properties :
#
#
# Convention : Reuss Voigt Hill
#
# Bulk Modulus (GPa) = 44.33391 52.73579 48.53485
# Shear Modulus (GPa) = 23.53768 27.24704 25.39236
#
# Velocity S-wave (km/s) = 3.55605 3.82600 3.69349
# Velocity P-wave (km/s) = 6.37799 6.91734 6.65313
#
# Compressibility (1/GPa) = 0.02255610
#
# Stress axis : x y z
#
# Youngs Moduli (GPa) = 52.84481 40.26377 43.57232
#
# Poissons Ratio (x) = 0.20037 0.49028
# Poissons Ratio (y) = 0.26298 0.25483
# Poissons Ratio (z) = 0.59461 0.23548
#
# Static dielectric constant tensor:
#      x y z
#    x 1.624290 0.000000 0.007310 
#    y 0.000000 1.646160 0.000000 
#    z 0.007310 0.000000 1.617330 
# 
# From -- ./inp_files/372956.got.cif
#   From: 2010.05.17/outbox.cif.g08.bks.cpg/sg12_187_cif.got.tgz:372956.got - 2010.06.03 13:09:07.
