data_PCOD9203570
_publ_section_title
;
Structure prediction by ZEFSAII (Michael W. Deem and Ramdas Pophale) SiO2 
 PCOD9203570
Probable space group: C 2/M
;
_chemical_formula_sum "Si O2"
_cell_formula_units_Z 48
_cell_length_a 19.961670
_cell_length_b 19.338029
_cell_length_c 15.013997
_cell_angle_alpha 90.000000
_cell_angle_beta 22.470980
_cell_angle_gamma 90.000000
_cell_volume 2215.203527
_symmetry_space_group_name_H-M "C 2/M"
_symmetry_group_IT_number 12
_symmetry_cell_setting 'monoclinic'
loop_
_space_group_symop_operation_xyz
x,y,z
-x,y,-z
-x,-y,-z
x,-y,z
1/2+x,1/2+y,z
1/2-x,1/2+y,-z
1/2-x,1/2-y,-z
1/2+x,1/2-y,z
loop_
_atom_site_type_symbol
_atom_site_label
_atom_site_fract_x
_atom_site_fract_y
_atom_site_fract_z
Si Si1 0.354806 0.422397 0.100328
Si Si2 0.903082 0.423073 0.213732
Si Si3 0.055813 0.719816 0.750009
Si Si4 0.459856 0.720052 0.687138
Si Si5 0.982079 0.076600 0.739305
Si Si6 0.750308 0.774906 0.223621
O O1 0.276370 0.500000 0.200041
O O2 0.231248 0.356170 0.266390
O O3 0.500000 0.419690 0.000000
O O4 0.438924 0.414354 0.897688
O O5 0.952771 0.500000 0.185025
O O6 0.948907 0.360541 0.222009
O O7 0.691716 0.422215 0.467104
O O8 0.000000 0.413055 0.000000
O O9 0.250000 0.750000 0.500000
O O10 0.956341 0.736147 0.780884
O O11 0.952271 0.759217 0.955429
O O12 0.411900 0.641537 0.769897
O O13 0.662030 0.726670 0.405769
O O14 0.351248 0.753927 0.741571
O O15 0.917945 0.000000 0.791951
#
# Coordination Sequence:
#
# PCOD9203570 Si02
#       6
#     8   8   8   8   8   8
#     4  10  22  39  64  93 121 163 211 260 311 368
#     4  10  21  37  57  90 127 159 201 261 315 363
#     4  12  23  37  65  93 120 163 213 258 311 366
#     4  11  24  42  60  95 125 170 204 255 319 370
#     4  10  20  39  64  90 123 162 207 256 310 370
#     4  11  25  41  63  89 133 161 209 258 312 376
#
# _framework density 21.668437999999998
#
# number of rings (size 3 to 8) (size 9 to 14) (size 15 to 20)
#    0.000    1.333    3.333    1.500    4.667    0.000 
#    0.000    5.000    0.000    0.000    0.000    0.000 
#    0.000    0.000    0.000    0.000    0.000    0.000 
#
# Total GULP energy -134084.616397 kJ/mol
# GULP energy per Si atom -5586.859017 kJ/mol
# Density = 2.161912 g / cm^3
# Si number density = 21.668438 Si / 1000 Ang^3
#
#
#
# Elastic Constant Matrix: (Units=GPa)
#
#
# Indices 1 2 3 4 5 6 
#
# 1 73.2647 59.7007 -3.6016 -0.0031 11.7671 0.0000
# 2 59.7007 228.9347 5.0824 -0.0074 5.2170 0.0037
# 3 -3.6016 5.0824 71.5852 -0.0161 16.4884 0.0079
# 4 -0.0031 -0.0074 -0.0161 26.6003 0.0034 4.0922
# 5 11.7671 5.2170 16.4884 0.0034 22.4184 0.0010
# 6 0.0000 0.0037 0.0079 4.0922 0.0010 32.6130
#
#
#
# Elastic Compliance Matrix: (Units=1/GPa)
#
#
# Indices 1 2 3 4 5 6 
#
# 1 0.019927 -0.005008 0.004212 0.000005 -0.012392 -0.000001
# 2 -0.005008 0.005650 -0.001151 0.000000 0.002160 0.000000
# 3 0.004212 -0.001151 0.017711 0.000014 -0.014969 -0.000005
# 4 0.000005 0.000000 0.000014 0.038334 -0.000018 -0.004810
# 5 -0.012392 0.002160 -0.014969 -0.000018 0.061618 0.000004
# 6 -0.000001 0.000000 -0.000005 -0.004810 0.000004 0.031266
#
#
# Mechanical properties :
#
#
# Convention : Reuss Voigt Hill
#
# Bulk Modulus (GPa) = 25.38273 55.12749 40.25511
# Shear Modulus (GPa) = 26.10560 37.16654 31.63607
#
# Velocity S-wave (km/s) = 3.47475 4.14604 3.82515
# Velocity P-wave (km/s) = 5.27618 6.95817 6.17472
#
# Compressibility (1/GPa) = 0.03939687
#
# Stress axis : x y z
#
# Youngs Moduli (GPa) = 50.18292 176.98325 56.46218
#
# Poissons Ratio (x) = 0.88627 -0.23785
# Poissons Ratio (y) = 0.25130 0.06496
# Poissons Ratio (z) = -0.21139 0.20363
#
# Static dielectric constant tensor:
#      x y z
#    x 1.840360 0.000000 -0.006860 
#    y 0.000000 1.800150 0.000000 
#    z -0.006860 0.000000 1.894740 
# 
# From -- ./inp_files/290514.got.cif
#   From: 2010.05.17/outbox.cif.g08.bks.cpg/sg12_146_cif.got.tgz:290514.got - 2010.06.03 13:09:07.
