data_PCOD9203652
_publ_section_title
;
Structure prediction by ZEFSAII (Michael W. Deem and Ramdas Pophale) SiO2 
 PCOD9203652
Probable space group: C 2/M
;
_chemical_formula_sum "Si O2"
_cell_formula_units_Z 56
_cell_length_a 27.961791
_cell_length_b 14.761561
_cell_length_c 17.660877
_cell_angle_alpha 90.000000
_cell_angle_beta 160.968855
_cell_angle_gamma 90.000000
_cell_volume 2377.039843
_symmetry_space_group_name_H-M "C 2/M"
_symmetry_group_IT_number 12
_symmetry_cell_setting 'monoclinic'
loop_
_space_group_symop_operation_xyz
x,y,z
-x,y,-z
-x,-y,-z
x,-y,z
1/2+x,1/2+y,z
1/2-x,1/2+y,-z
1/2-x,1/2-y,-z
1/2+x,1/2-y,z
loop_
_atom_site_type_symbol
_atom_site_label
_atom_site_fract_x
_atom_site_fract_y
_atom_site_fract_z
Si Si1 0.256288 0.850252 0.046097
Si Si2 0.533222 0.356352 0.461109
Si Si3 0.174848 0.894100 0.087159
Si Si4 0.548962 0.844177 0.415601
Si Si5 0.342235 0.610538 0.596400
Si Si6 0.805981 0.602159 0.779131
Si Si7 0.937550 0.610691 0.733527
O O1 0.242064 0.844787 0.114625
O O2 0.108984 0.896136 0.794237
O O3 0.250000 0.750000 0.000000
O O4 0.411001 0.890563 0.251388
O O5 0.500000 0.356303 0.500000
O O6 0.553118 0.255485 0.457690
O O7 0.684195 0.401848 0.662718
O O8 0.010477 0.860582 0.857382
O O9 0.164611 0.000000 0.050986
O O10 0.292265 0.885619 0.329615
O O11 0.520158 0.847960 0.283515
O O12 0.345735 0.500000 0.599828
O O13 0.273119 0.642757 0.412960
O O14 0.227351 0.635408 0.489363
O O15 0.846122 0.500000 0.816120
O O16 0.951550 0.641915 0.034285
O O17 0.948141 0.500000 0.743810
#
# Coordination Sequence:
#
# PCOD9203652 Si02
#       7
#     8   8   8   8   8   8   8
#     4  10  21  38  59  81 118 159 199 240 293 352
#     4  11  22  39  63  87 120 162 196 245 303 360
#     4  11  22  38  63  90 120 159 203 245 292 361
#     4  11  23  38  57  88 125 163 198 237 295 362
#     4   9  19  38  64  91 117 155 200 248 304 350
#     4  10  20  39  65  91 117 149 202 258 302 352
#     4  10  21  38  63  90 120 157 199 250 299 349
#
# _framework density 23.558713999999998
#
# number of rings (size 3 to 8) (size 9 to 14) (size 15 to 20)
#    0.000    1.714    1.429    3.857    0.000    5.429 
#    0.000    2.857    3.143    0.000    0.000    0.000 
#    0.000    0.000    0.000    0.000    0.000    0.000 
#
# Total GULP energy -156548.904455 kJ/mol
# GULP energy per Si atom -5591.032302 kJ/mol
# Density = 2.350509 g / cm^3
# Si number density = 23.558714 Si / 1000 Ang^3
#
#
#
# Elastic Constant Matrix: (Units=GPa)
#
#
# Indices 1 2 3 4 5 6 
#
# 1 58.1000 -9.4112 25.4787 0.0000 22.1949 0.0000
# 2 -9.4112 61.5798 1.2197 0.0000 1.3905 0.0000
# 3 25.4787 1.2197 170.0575 0.0000 21.1989 0.0000
# 4 0.0000 0.0000 0.0000 12.9608 0.0000 -3.6196
# 5 22.1949 1.3905 21.1989 0.0000 44.7962 0.0000
# 6 0.0000 0.0000 0.0000 -3.6196 0.0000 16.3220
#
#
#
# Elastic Compliance Matrix: (Units=1/GPa)
#
#
# Indices 1 2 3 4 5 6 
#
# 1 0.022713 0.003748 -0.002139 0.000000 -0.010358 0.000000
# 2 0.003748 0.016869 -0.000410 0.000000 -0.002186 0.000000
# 3 -0.002139 -0.000410 0.006451 0.000000 -0.001980 0.000000
# 4 0.000000 0.000000 0.000000 0.082249 0.000000 0.018240
# 5 -0.010358 -0.002186 -0.001980 0.000000 0.028460 0.000000
# 6 0.000000 0.000000 0.000000 0.018240 0.000000 0.065312
#
#
# Mechanical properties :
#
#
# Convention : Reuss Voigt Hill
#
# Bulk Modulus (GPa) = 20.64784 36.03464 28.34124
# Shear Modulus (GPa) = 21.20431 32.97914 27.09172
#
# Velocity S-wave (km/s) = 3.00336 3.74554 3.39479
# Velocity P-wave (km/s) = 4.56183 5.83390 5.23663
#
# Compressibility (1/GPa) = 0.04843121
#
# Stress axis : x y z
#
# Youngs Moduli (GPa) = 44.02670 59.27921 155.02470
#
# Poissons Ratio (x) = -0.22215 0.33155
# Poissons Ratio (y) = -0.16499 0.06355
# Poissons Ratio (z) = 0.09416 0.02430
#
# Static dielectric constant tensor:
#      x y z
#    x 1.839690 0.000000 0.019090 
#    y 0.000000 2.009240 0.000000 
#    z 0.019090 0.000000 1.935350 
# 
# From -- ./inp_files/184571.got.cif
#   From: 2010.05.17/outbox.cif.g08.bks.cpg/sg12_93_cif.got.tgz:184571.got - 2010.06.03 13:09:07.
