data_PCOD9203903
_publ_section_title
;
Structure prediction by ZEFSAII (Michael W. Deem and Ramdas Pophale) SiO2 
 PCOD9203903
Probable space group: C 2/M
;
_chemical_formula_sum "Si O2"
_cell_formula_units_Z 34
_cell_length_a 14.987958
_cell_length_b 13.553648
_cell_length_c 12.068855
_cell_angle_alpha 90.000000
_cell_angle_beta 41.917902
_cell_angle_gamma 90.000000
_cell_volume 1637.885403
_symmetry_space_group_name_H-M "C 2/M"
_symmetry_group_IT_number 12
_symmetry_cell_setting 'monoclinic'
loop_
_space_group_symop_operation_xyz
x,y,z
-x,y,-z
-x,-y,-z
x,-y,z
1/2+x,1/2+y,z
1/2-x,1/2+y,-z
1/2-x,1/2-y,-z
1/2+x,1/2-y,z
loop_
_atom_site_type_symbol
_atom_site_label
_atom_site_fract_x
_atom_site_fract_y
_atom_site_fract_z
Si Si1 0.324748 0.806248 0.616780
Si Si2 0.381295 0.000000 0.198579
Si Si3 0.000000 0.500000 0.500000
Si Si4 0.553163 0.785861 0.825593
Si Si5 0.885509 0.000000 0.698374
Si Si6 0.927271 0.786507 0.734054
O O1 0.177231 0.790035 0.706025
O O2 0.426991 0.735925 0.454874
O O3 0.327497 0.766553 0.740926
O O4 0.393891 0.912648 0.557214
O O5 0.394819 0.103309 0.250297
O O6 0.248929 0.000000 0.248193
O O7 0.500000 0.000000 0.000000
O O8 0.438645 0.757908 0.845003
O O9 0.500000 0.786119 0.000000
O O10 0.000000 0.000000 0.500000
O O11 0.896854 0.098394 0.759535
#
# Coordination Sequence:
#
# PCOD9203903 Si02
#       6
#     8   4   2   8   4   8
#     4  10  20  40  60  90 121 159 214 258 314 369
#     4  10  22  41  60  90 129 168 214 252 309 386
#     4   8  20  36  62  82 122 154 196 260 324 372
#     4  11  23  39  61  92 130 165 207 256 319 380
#     4  12  18  39  67  93 115 166 224 265 304 377
#     4  10  21  36  65  90 120 163 210 267 307 366
#
# _framework density 20.758474
#
# number of rings (size 3 to 8) (size 9 to 14) (size 15 to 20)
#    0.000    1.882    4.706    0.706    0.000    5.647 
#    0.000    2.353    0.000    0.000    0.000    0.000 
#    0.000    0.000    0.000    0.000    0.000    0.000 
#
# Total GULP energy -94663.591787 kJ/mol
# GULP energy per Si atom -5568.446576 kJ/mol
# Density = 2.071123 g / cm^3
# Si number density = 20.758474 Si / 1000 Ang^3
#
#
#
# Elastic Constant Matrix: (Units=GPa)
#
#
# Indices 1 2 3 4 5 6 
#
# 1 87.1946 40.3754 15.6823 0.0000 21.2533 0.0000
# 2 40.3754 187.8377 -5.4777 0.0000 8.6037 0.0000
# 3 15.6823 -5.4777 35.6532 0.0000 3.5517 0.0000
# 4 0.0000 0.0000 0.0000 13.1371 0.0000 -3.8721
# 5 21.2533 8.6037 3.5517 0.0000 43.1417 0.0000
# 6 0.0000 0.0000 0.0000 -3.8721 0.0000 19.4747
#
#
#
# Elastic Compliance Matrix: (Units=1/GPa)
#
#
# Indices 1 2 3 4 5 6 
#
# 1 0.015824 -0.003299 -0.006812 0.000000 -0.006577 0.000000
# 2 -0.003299 0.006092 0.002366 0.000000 0.000215 0.000000
# 3 -0.006812 0.002366 0.031378 0.000000 0.000301 0.000000
# 4 0.000000 0.000000 0.000000 0.080859 0.000000 0.016077
# 5 -0.006577 0.000215 0.000301 0.000000 0.026352 0.000000
# 6 0.000000 0.000000 0.000000 0.016077 0.000000 0.054545
#
#
# Mechanical properties :
#
#
# Convention : Reuss Voigt Hill
#
# Bulk Modulus (GPa) = 26.45277 45.76061 36.10669
# Shear Modulus (GPa) = 20.56410 32.49107 26.52758
#
# Velocity S-wave (km/s) = 3.15085 3.96055 3.57867
# Velocity P-wave (km/s) = 5.09980 6.55795 5.87429
#
# Compressibility (1/GPa) = 0.03780322
#
# Stress axis : x y z
#
# Youngs Moduli (GPa) = 63.19347 164.15137 31.86974
#
# Poissons Ratio (x) = 0.54151 0.21710
# Poissons Ratio (y) = 0.20846 -0.07539
# Poissons Ratio (z) = 0.43048 -0.38830
#
# Static dielectric constant tensor:
#      x y z
#    x 1.740860 0.000000 0.034940 
#    y 0.000000 1.744300 0.000000 
#    z 0.034940 0.000000 1.784960 
# 
# From -- ./inp_files/141788.got.cif
#   From: 2010.05.17/outbox.cif.g08.bks.cpg/sg12_71_cif.got.tgz:141788.got - 2010.06.03 13:09:07.
