data_PCOD9203886
_publ_section_title
;
Structure prediction by ZEFSAII (Michael W. Deem and Ramdas Pophale) SiO2 
 PCOD9203886
Probable space group: C 2/M
;
_chemical_formula_sum "Si O2"
_cell_formula_units_Z 56
_cell_length_a 23.920471
_cell_length_b 8.552727
_cell_length_c 20.278101
_cell_angle_alpha 90.000000
_cell_angle_beta 128.161587
_cell_angle_gamma 90.000000
_cell_volume 3261.925606
_symmetry_space_group_name_H-M "C 2/M"
_symmetry_group_IT_number 12
_symmetry_cell_setting 'monoclinic'
loop_
_space_group_symop_operation_xyz
x,y,z
-x,y,-z
-x,-y,-z
x,-y,z
1/2+x,1/2+y,z
1/2-x,1/2+y,-z
1/2-x,1/2-y,-z
1/2+x,1/2-y,z
loop_
_atom_site_type_symbol
_atom_site_label
_atom_site_fract_x
_atom_site_fract_y
_atom_site_fract_z
Si Si1 0.303572 0.313993 0.852720
Si Si2 0.317968 0.187621 0.010905
Si Si3 0.011718 0.810729 0.671161
Si Si4 0.052465 0.310863 0.098351
Si Si5 0.027762 0.311339 0.827030
Si Si6 0.347396 0.309968 0.306176
Si Si7 0.426588 0.319671 0.488585
O O1 0.301486 0.500000 0.853452
O O2 0.316520 0.248346 0.935411
O O3 0.369804 0.257185 0.857343
O O4 0.228369 0.250787 0.771895
O O5 0.316535 0.000000 0.008630
O O6 0.250000 0.250000 0.000000
O O7 0.391013 0.237766 0.099266
O O8 0.003590 0.754330 0.739449
O O9 0.088711 0.763543 0.697117
O O10 0.950679 0.751143 0.576190
O O11 0.010087 0.000000 0.667893
O O12 0.056537 0.500000 0.099779
O O13 0.018950 0.263329 0.143873
O O14 0.000000 0.263953 0.000000
O O15 0.026400 0.500000 0.823221
O O16 0.346649 0.500000 0.306840
O O17 0.369606 0.252322 0.395766
O O18 0.500000 0.323603 0.500000
O O19 0.405400 0.500000 0.485117
#
# Coordination Sequence:
#
# PCOD9203886 Si02
#       7
#     8   8   8   8   8   8   8
#     4  12  24  35  51  78 107 135 171 219 264 307
#     4  11  22  37  53  75 106 140 173 209 255 309
#     4   9  17  30  52  81 109 135 168 211 256 305
#     4  10  20  40  60  71  91 134 183 222 260 308
#     4  10  21  35  53  74 100 133 171 213 258 309
#     4   9  17  32  54  77 105 143 177 206 249 309
#     4   7  12  26  49  76 103 134 173 209 245 299
#
# _framework density 17.167774000000001
#
# number of rings (size 3 to 8) (size 9 to 14) (size 15 to 20)
#    0.000    2.286    1.429    4.286    0.000    4.857 
#    0.000    0.714    0.000    3.429    0.000    0.000 
#    0.000    0.000    0.000    0.000    0.000    0.000 
#
# Total GULP energy -156147.180926 kJ/mol
# GULP energy per Si atom -5576.685033 kJ/mol
# Density = 1.712870 g / cm^3
# Si number density = 17.167774 Si / 1000 Ang^3
#
#
#
# Elastic Constant Matrix: (Units=GPa)
#
#
# Indices 1 2 3 4 5 6 
#
# 1 71.6726 13.4785 26.0126 0.0000 -30.0417 0.0000
# 2 13.4785 21.6971 13.2262 0.0000 -7.8449 0.0000
# 3 26.0126 13.2262 120.7698 0.0000 -34.1041 0.0000
# 4 0.0000 0.0000 0.0000 19.1340 0.0000 -5.6704
# 5 -30.0417 -7.8449 -34.1041 0.0000 20.1637 0.0000
# 6 0.0000 0.0000 0.0000 -5.6704 0.0000 21.0475
#
#
#
# Elastic Compliance Matrix: (Units=1/GPa)
#
#
# Indices 1 2 3 4 5 6 
#
# 1 0.058835 -0.005597 0.023123 0.000000 0.124590 0.000000
# 2 -0.005597 0.054166 -0.002164 0.000000 0.009075 0.000000
# 3 0.023123 -0.002164 0.024939 0.000000 0.075790 0.000000
# 4 0.000000 0.000000 0.000000 0.056798 0.000000 0.015302
# 5 0.124590 0.009075 0.075790 0.000000 0.366939 0.000000
# 6 0.000000 0.000000 0.000000 0.015302 0.000000 0.051634
#
#
# Mechanical properties :
#
#
# Convention : Reuss Voigt Hill
#
# Bulk Modulus (GPa) = 5.92894 35.50825 20.71860
# Shear Modulus (GPa) = 7.82708 22.83052 15.32880
#
# Velocity S-wave (km/s) = 2.13754 3.65066 2.99136
# Velocity P-wave (km/s) = 3.09081 6.20466 4.90158
#
# Compressibility (1/GPa) = 0.16866416
#
# Stress axis : x y z
#
# Youngs Moduli (GPa) = 16.99681 18.46165 40.09778
#
# Poissons Ratio (x) = 0.10334 -0.92719
# Poissons Ratio (y) = 0.09514 0.08677
# Poissons Ratio (z) = -0.39302 0.03995
#
# Static dielectric constant tensor:
#      x y z
#    x 1.555110 0.000000 -0.005070 
#    y 0.000000 1.590970 0.000000 
#    z -0.005070 0.000000 1.598790 
# 
# From -- ./inp_files/281686.got.cif
#   From: 2010.05.17/outbox.cif.g08.bks.cpg/sg12_141_cif.got.tgz:281686.got - 2010.06.03 13:09:07.
