data_PCOD9203613
_publ_section_title
;
Structure prediction by ZEFSAII (Michael W. Deem and Ramdas Pophale) SiO2 
 PCOD9203613
Probable space group: C 2/M
;
_chemical_formula_sum "Si O2"
_cell_formula_units_Z 48
_cell_length_a 7.627251
_cell_length_b 22.181724
_cell_length_c 21.553473
_cell_angle_alpha 90.000000
_cell_angle_beta 34.445780
_cell_angle_gamma 90.000000
_cell_volume 2062.576358
_symmetry_space_group_name_H-M "C 2/M"
_symmetry_group_IT_number 12
_symmetry_cell_setting 'monoclinic'
loop_
_space_group_symop_operation_xyz
x,y,z
-x,y,-z
-x,-y,-z
x,-y,z
1/2+x,1/2+y,z
1/2-x,1/2+y,-z
1/2-x,1/2-y,-z
1/2+x,1/2-y,z
loop_
_atom_site_type_symbol
_atom_site_label
_atom_site_fract_x
_atom_site_fract_y
_atom_site_fract_z
Si Si1 0.157980 0.367276 0.693927
Si Si2 0.645275 0.613735 0.658186
Si Si3 0.056781 0.710430 0.605246
Si Si4 0.350722 0.847502 0.102540
Si Si5 0.488922 0.773656 0.831266
Si Si6 0.408916 0.000000 0.452202
Si Si7 0.315091 0.000000 0.333208
O O1 0.472695 0.374440 0.643161
O O2 0.199465 0.336366 0.614412
O O3 0.041598 0.435974 0.727216
O O4 0.921741 0.322866 0.797850
O O5 0.843548 0.670449 0.622792
O O6 0.374422 0.611482 0.789705
O O7 0.876739 0.557412 0.594468
O O8 0.840797 0.754466 0.709766
O O9 0.250000 0.750000 0.500000
O O10 0.554469 0.811368 0.093712
O O11 0.176921 0.789793 0.123363
O O12 0.500000 0.879594 0.000000
O O13 0.345841 0.000000 0.397804
O O14 0.949769 0.000000 0.419695
#
# Coordination Sequence:
#
# PCOD9203613 Si02
#       7
#     8   8   8   8   8   4   4
#     4  11  23  44  63  96 135 176 235 272 331 392
#     4  10  24  43  66  95 133 175 227 287 333 408
#     4  11  24  41  62  94 141 180 220 271 336 408
#     4  10  20  39  64  96 127 172 220 278 352 403
#     4  10  21  39  60  94 134 172 217 278 335 410
#     4  11  23  45  64  97 128 177 242 278 341 389
#     4  11  25  41  73  89 129 194 231 279 325 413
#
# _framework density 23.271864999999998
#
# number of rings (size 3 to 8) (size 9 to 14) (size 15 to 20)
#    0.000    1.500    3.333    1.000    2.333    2.667 
#    3.000    0.417    0.000    0.000    0.000    5.250 
#    0.000    0.000    0.000    0.000    0.000    0.000 
#
# Total GULP energy -133960.483969 kJ/mol
# GULP energy per Si atom -5581.686832 kJ/mol
# Density = 2.321890 g / cm^3
# Si number density = 23.271865 Si / 1000 Ang^3
#
#
#
# Elastic Constant Matrix: (Units=GPa)
#
#
# Indices 1 2 3 4 5 6 
#
# 1 146.8900 25.0713 23.8143 -0.0015 22.3925 -0.0010
# 2 25.0713 120.9749 17.4803 -0.0007 1.8099 -0.0003
# 3 23.8143 17.4803 72.5367 -0.0008 24.9987 0.0016
# 4 -0.0015 -0.0007 -0.0008 1.2734 0.0007 -4.7353
# 5 22.3925 1.8099 24.9987 0.0007 27.4954 0.0001
# 6 -0.0010 -0.0003 0.0016 -4.7353 0.0001 36.0264
#
#
#
# Elastic Compliance Matrix: (Units=1/GPa)
#
#
# Indices 1 2 3 4 5 6 
#
# 1 0.008062 -0.001566 -0.000061 0.000026 -0.006407 0.000004
# 2 -0.001566 0.008938 -0.002733 -0.000001 0.003172 0.000000
# 3 -0.000061 -0.002733 0.020950 0.000039 -0.018818 0.000004
# 4 0.000026 -0.000001 0.000039 1.536093 -0.000099 0.201902
# 5 -0.006407 0.003172 -0.018818 -0.000099 0.058488 -0.000013
# 6 0.000004 0.000000 0.000004 0.201902 -0.000013 0.054295
#
#
# Mechanical properties :
#
#
# Convention : Reuss Voigt Hill
#
# Bulk Modulus (GPa) = 34.21215 52.57040 43.39127
# Shear Modulus (GPa) = 2.93205 31.22808 17.08007
#
# Velocity S-wave (km/s) = 1.12368 3.66714 2.71207
# Velocity P-wave (km/s) = 4.05173 6.36940 5.33788
#
# Compressibility (1/GPa) = 0.02922938
#
# Stress axis : x y z
#
# Youngs Moduli (GPa) = 124.04324 111.87967 47.73220
#
# Poissons Ratio (x) = 0.17521 0.00293
# Poissons Ratio (y) = 0.19425 0.13045
# Poissons Ratio (z) = 0.00761 0.30576
#
# Static dielectric constant tensor:
#      x y z
#    x 1.980490 0.000000 -0.030630 
#    y 0.000000 1.892820 0.000000 
#    z -0.030630 0.000000 1.946080 
# 
# From -- ./inp_files/334051.got.cif
#   From: 2010.05.17/outbox.cif.g08.bks.cpg/sg12_168_cif.got.tgz:334051.got - 2010.06.03 13:09:07.
