data_PCOD9203099
_publ_section_title
;
Structure prediction by ZEFSAII (Michael W. Deem and Ramdas Pophale) SiO2 
 PCOD9203099
Probable space group: C 2/M
;
_chemical_formula_sum "Si O2"
_cell_formula_units_Z 56
_cell_length_a 14.306116
_cell_length_b 11.335973
_cell_length_c 15.706465
_cell_angle_alpha 90.000000
_cell_angle_beta 91.198791
_cell_angle_gamma 90.000000
_cell_volume 2546.618732
_symmetry_space_group_name_H-M "C 2/M"
_symmetry_group_IT_number 12
_symmetry_cell_setting 'monoclinic'
loop_
_space_group_symop_operation_xyz
x,y,z
-x,y,-z
-x,-y,-z
x,-y,z
1/2+x,1/2+y,z
1/2-x,1/2+y,-z
1/2-x,1/2-y,-z
1/2+x,1/2-y,z
loop_
_atom_site_type_symbol
_atom_site_label
_atom_site_fract_x
_atom_site_fract_y
_atom_site_fract_z
Si Si1 0.253410 0.869117 0.945700
Si Si2 0.442895 0.126426 0.724283
Si Si3 0.538172 0.173357 0.093523
Si Si4 0.887660 0.868249 0.491102
Si Si5 0.122235 0.287029 0.667292
Si Si6 0.327166 0.635738 0.685223
Si Si7 0.930098 0.867628 0.172296
O O1 0.353535 0.858188 0.903443
O O2 0.167682 0.863806 0.879714
O O3 0.249818 0.000000 0.988220
O O4 0.250000 0.750000 0.000000
O O5 0.495241 0.120620 0.817397
O O6 0.527363 0.137310 0.658732
O O7 0.381363 0.247291 0.722024
O O8 0.392469 0.000000 0.711598
O O9 0.505166 0.306426 0.110826
O O10 0.500000 0.137597 0.000000
O O11 0.855496 0.774380 0.421544
O O12 0.846909 0.855865 0.584551
O O13 0.000000 0.860170 0.500000
O O14 0.864240 0.000000 0.459476
O O15 0.216647 0.349610 0.699757
O O16 0.089926 0.191564 0.737200
O O17 0.354443 0.500000 0.710871
O O18 0.958953 0.000000 0.187530
#
# Coordination Sequence:
#
# PCOD9203099 Si02
#       7
#     8   8   8   8   8   8   8
#     4  11  23  42  63  92 127 166 214 269 322 384
#     4  11  25  43  65  96 132 170 215 271 329 390
#     4  11  23  42  67  94 126 169 224 268 328 383
#     4  10  20  38  66  98 133 175 219 265 322 388
#     4  11  22  41  66  96 132 169 220 267 327 382
#     4  11  24  44  69  97 132 174 220 269 324 389
#     4  10  23  42  66  95 133 172 216 267 327 392
#
# _framework density 21.989941999999999
#
# number of rings (size 3 to 8) (size 9 to 14) (size 15 to 20)
#    0.000    1.286    2.857    2.571    0.000    6.571 
#    0.000    4.286    0.000    0.000    0.000    0.000 
#    0.000    0.000    0.000    0.000    0.000    0.000 
#
# Total GULP energy -156059.269047 kJ/mol
# GULP energy per Si atom -5573.545323 kJ/mol
# Density = 2.193989 g / cm^3
# Si number density = 21.989942 Si / 1000 Ang^3
#
#
#
# Elastic Constant Matrix: (Units=GPa)
#
#
# Indices 1 2 3 4 5 6 
#
# 1 71.8025 34.1290 -12.9954 0.0000 7.6463 0.0000
# 2 34.1290 178.2720 40.2589 0.0000 8.8853 0.0000
# 3 -12.9954 40.2589 61.0987 0.0000 3.8791 0.0000
# 4 0.0000 0.0000 0.0000 5.9908 0.0000 3.7334
# 5 7.6463 8.8853 3.8791 0.0000 25.7694 0.0000
# 6 0.0000 0.0000 0.0000 3.7334 0.0000 20.5512
#
#
#
# Elastic Compliance Matrix: (Units=1/GPa)
#
#
# Indices 1 2 3 4 5 6 
#
# 1 0.018098 -0.004892 0.007377 0.000000 -0.004794 0.000000
# 2 -0.004892 0.007981 -0.006277 0.000000 -0.000356 0.000000
# 3 0.007377 -0.006277 0.022286 0.000000 -0.003379 0.000000
# 4 0.000000 0.000000 0.000000 0.188232 0.000000 -0.034195
# 5 -0.004794 -0.000356 -0.003379 0.000000 0.040859 0.000000
# 6 0.000000 0.000000 0.000000 -0.034195 0.000000 0.054871
#
#
# Mechanical properties :
#
#
# Convention : Reuss Voigt Hill
#
# Bulk Modulus (GPa) = 24.52051 48.21759 36.36905
# Shear Modulus (GPa) = 14.14408 27.11433 20.62920
#
# Velocity S-wave (km/s) = 2.53890 3.51527 3.06620
# Velocity P-wave (km/s) = 4.44631 6.20087 5.39539
#
# Compressibility (1/GPa) = 0.04078219
#
# Stress axis : x y z
#
# Youngs Moduli (GPa) = 55.25529 125.29656 44.87050
#
# Poissons Ratio (x) = 0.61291 -0.33100
# Poissons Ratio (y) = 0.27029 0.28164
# Poissons Ratio (z) = -0.40761 0.78645
#
# Static dielectric constant tensor:
#      x y z
#    x 1.766820 0.000000 0.021210 
#    y 0.000000 1.862450 0.000000 
#    z 0.021210 0.000000 1.810840 
# 
# From -- ./inp_files/213415.got.cif
#   From: 2010.05.17/outbox.cif.g08.bks.cpg/sg12_107_cif.got.tgz:213415.got - 2010.06.03 13:09:07.
