data_PCOD9203354
_publ_section_title
;
Structure prediction by ZEFSAII (Michael W. Deem and Ramdas Pophale) SiO2 
 PCOD9203354
Probable space group: C 2/M
;
_chemical_formula_sum "Si O2"
_cell_formula_units_Z 50
_cell_length_a 11.138748
_cell_length_b 13.829587
_cell_length_c 14.270507
_cell_angle_alpha 90.000000
_cell_angle_beta 116.571382
_cell_angle_gamma 90.000000
_cell_volume 1966.101747
_symmetry_space_group_name_H-M "C 2/M"
_symmetry_group_IT_number 12
_symmetry_cell_setting 'monoclinic'
loop_
_space_group_symop_operation_xyz
x,y,z
-x,y,-z
-x,-y,-z
x,-y,z
1/2+x,1/2+y,z
1/2-x,1/2+y,-z
1/2-x,1/2-y,-z
1/2+x,1/2-y,z
loop_
_atom_site_type_symbol
_atom_site_label
_atom_site_fract_x
_atom_site_fract_y
_atom_site_fract_z
Si Si1 0.663907 0.814581 0.090291
Si Si2 0.746871 0.206357 0.395872
Si Si3 0.500000 0.000000 0.000000
Si Si4 0.305203 0.605383 0.909798
Si Si5 0.103419 0.110928 0.706036
Si Si6 0.673288 0.604757 0.291503
Si Si7 0.987515 0.612358 0.789100
O O1 0.657460 0.710699 0.037424
O O2 0.808948 0.830806 0.187348
O O3 0.567269 0.818501 0.148311
O O4 0.615003 0.912554 0.022894
O O5 0.750000 0.250000 0.500000
O O6 0.859169 0.139538 0.386905
O O7 0.762145 0.302508 0.337961
O O8 0.607535 0.147096 0.328932
O O9 0.333185 0.500000 0.963781
O O10 0.375049 0.603193 0.832259
O O11 0.145730 0.611615 0.829664
O O12 0.949612 0.118762 0.680355
O O13 0.143852 0.000000 0.732357
O O14 0.737128 0.500000 0.332020
O O15 0.955741 0.500000 0.810417
#
# Coordination Sequence:
#
# PCOD9203354 Si02
#       7
#     8   8   2   8   8   8   8
#     4  11  20  38  66  95 126 156 211 263 316 375
#     4  11  22  34  56  88 122 158 211 265 315 359
#     4  12  24  40  66 112 122 154 214 286 306 384
#     4  10  21  38  66  92 123 170 214 251 315 403
#     4  10  20  39  62  85 118 166 211 254 317 375
#     4  10  21  36  58  88 116 161 211 251 305 378
#     4  10  20  40  65  86 123 172 214 254 325 387
#
# _framework density 25.431034
#
# number of rings (size 3 to 8) (size 9 to 14) (size 15 to 20)
#    0.000    1.600    4.800    2.400    0.000    1.920 
#    0.000    2.800    0.000    2.880    0.000    0.000 
#    0.000    0.000    0.000    0.000    0.000    0.000 
#
# Total GULP energy -139380.777778 kJ/mol
# GULP energy per Si atom -5575.231111 kJ/mol
# Density = 2.537315 g / cm^3
# Si number density = 25.431034 Si / 1000 Ang^3
#
#
#
# Elastic Constant Matrix: (Units=GPa)
#
#
# Indices 1 2 3 4 5 6 
#
# 1 80.1117 22.8719 18.9490 0.0000 -8.0332 0.0000
# 2 22.8719 239.2703 26.9927 0.0000 2.0255 0.0000
# 3 18.9490 26.9927 51.0591 0.0000 -7.4944 0.0000
# 4 0.0000 0.0000 0.0000 41.9330 0.0000 -8.8141
# 5 -8.0332 2.0255 -7.4944 0.0000 33.6245 0.0000
# 6 0.0000 0.0000 0.0000 -8.8141 0.0000 28.4656
#
#
#
# Elastic Compliance Matrix: (Units=1/GPa)
#
#
# Indices 1 2 3 4 5 6 
#
# 1 0.014010 -0.000865 -0.004387 0.000000 0.002421 0.000000
# 2 -0.000865 0.004520 -0.002211 0.000000 -0.000972 0.000000
# 3 -0.004387 -0.002211 0.023000 0.000000 0.004212 0.000000
# 4 0.000000 0.000000 0.000000 0.025508 0.000000 0.007898
# 5 0.002421 -0.000972 0.004212 0.000000 0.031316 0.000000
# 6 0.000000 0.000000 0.000000 0.007898 0.000000 0.037576
#
#
# Mechanical properties :
#
#
# Convention : Reuss Voigt Hill
#
# Bulk Modulus (GPa) = 37.58745 56.45202 47.01974
# Shear Modulus (GPa) = 31.30431 40.91315 36.10873
#
# Velocity S-wave (km/s) = 3.51229 4.01532 3.77220
# Velocity P-wave (km/s) = 5.59111 6.61388 6.12388
#
# Compressibility (1/GPa) = 0.02660462
#
# Stress axis : x y z
#
# Youngs Moduli (GPa) = 71.37818 221.25365 43.47795
#
# Poissons Ratio (x) = 0.19135 0.19072
# Poissons Ratio (y) = 0.06173 0.09613
# Poissons Ratio (z) = 0.31311 0.48920
#
# Static dielectric constant tensor:
#      x y z
#    x 2.062260 0.000000 0.013340 
#    y 0.000000 2.027640 0.000000 
#    z 0.013340 0.000000 2.014580 
# 
# From -- ./inp_files/263041.got.cif
#   From: 2010.05.17/outbox.cif.g08.bks.cpg/sg12_132_cif.got.tgz:263041.got - 2010.06.03 13:09:07.
