data_PCOD9203966
_publ_section_title
;
Structure prediction by ZEFSAII (Michael W. Deem and Ramdas Pophale) SiO2 
 PCOD9203966
Probable space group: C 2/M
;
_chemical_formula_sum "Si O2"
_cell_formula_units_Z 46
_cell_length_a 19.487168
_cell_length_b 24.201733
_cell_length_c 14.718675
_cell_angle_alpha 90.000000
_cell_angle_beta 161.544093
_cell_angle_gamma 90.000000
_cell_volume 2197.557264
_symmetry_space_group_name_H-M "C 2/M"
_symmetry_group_IT_number 12
_symmetry_cell_setting 'monoclinic'
loop_
_space_group_symop_operation_xyz
x,y,z
-x,y,-z
-x,-y,-z
x,-y,z
1/2+x,1/2+y,z
1/2-x,1/2+y,-z
1/2-x,1/2-y,-z
1/2+x,1/2-y,z
loop_
_atom_site_type_symbol
_atom_site_label
_atom_site_fract_x
_atom_site_fract_y
_atom_site_fract_z
Si Si1 0.000000 0.000000 0.500000
Si Si2 0.244229 0.156732 0.283148
Si Si3 0.009087 0.246283 0.330042
Si Si4 0.232219 0.435228 0.556517
Si Si5 0.745181 0.596216 0.911735
Si Si6 0.500000 0.315677 0.500000
Si Si7 0.066718 0.854720 0.875025
O O1 0.087043 0.048046 0.679743
O O2 0.392932 0.192993 0.536705
O O3 0.266032 0.093286 0.341994
O O4 0.246437 0.160463 0.176938
O O5 0.000000 0.175356 0.000000
O O6 0.057763 0.201162 0.313321
O O7 0.074917 0.219736 0.508874
O O8 0.750000 0.250000 0.000000
O O9 0.283221 0.500000 0.621415
O O10 0.402622 0.398982 0.712741
O O11 0.989445 0.425616 0.214718
O O12 0.696811 0.646813 0.783002
O O13 0.676491 0.618101 0.924709
#
# Coordination Sequence:
#
# PCOD9203966 Si02
#       7
#     2   8   8   8   8   4   8
#     4  10  20  40  62  90 124 166 214 268 316 370
#     4  10  23  40  61  92 131 166 211 269 320 385
#     4  11  21  38  65  95 127 167 212 266 327 389
#     4  11  24  42  63  92 127 171 215 268 316 375
#     4  10  21  41  63  89 127 166 208 265 323 377
#     4   9  20  35  60  90 125 158 201 268 320 386
#     4  10  24  41  64  96 126 169 215 259 323 392
#
# _framework density 20.932331000000001
#
# number of rings (size 3 to 8) (size 9 to 14) (size 15 to 20)
#    0.000    1.739    0.870    3.130    1.217    9.391 
#    0.000    8.696    0.000    0.000    0.000    0.000 
#    0.000    0.000    0.000    0.000    0.000    0.000 
#
# Total GULP energy -128121.330000 kJ/mol
# GULP energy per Si atom -5570.492609 kJ/mol
# Density = 2.088469 g / cm^3
# Si number density = 20.932331 Si / 1000 Ang^3
#
#
#
# Elastic Constant Matrix: (Units=GPa)
#
#
# Indices 1 2 3 4 5 6 
#
# 1 71.9368 44.6845 40.4606 -0.0001 -27.4441 0.0000
# 2 44.6845 148.5364 39.0324 0.0000 -12.9645 -0.0001
# 3 40.4606 39.0324 98.1122 -0.0003 -13.5114 -0.0006
# 4 -0.0001 0.0000 -0.0003 31.5743 -0.0002 -7.4987
# 5 -27.4441 -12.9645 -13.5114 -0.0002 28.6295 -0.0004
# 6 0.0000 -0.0001 -0.0006 -7.4987 -0.0004 25.9944
#
#
#
# Elastic Compliance Matrix: (Units=1/GPa)
#
#
# Indices 1 2 3 4 5 6 
#
# 1 0.029806 -0.005099 -0.007108 0.000000 0.022908 0.000000
# 2 -0.005099 0.008514 -0.001526 0.000000 -0.001753 0.000000
# 3 -0.007108 -0.001526 0.013580 0.000000 -0.001096 0.000000
# 4 0.000000 0.000000 0.000000 0.034001 0.000001 0.009808
# 5 0.022908 -0.001753 -0.001096 0.000001 0.055578 0.000001
# 6 0.000000 0.000000 0.000000 0.009808 0.000001 0.041299
#
#
# Mechanical properties :
#
#
# Convention : Reuss Voigt Hill
#
# Bulk Modulus (GPa) = 40.92715 62.99336 51.96026
# Shear Modulus (GPa) = 22.89488 30.20016 26.54752
#
# Velocity S-wave (km/s) = 3.31079 3.80248 3.56512
# Velocity P-wave (km/s) = 5.84890 7.03119 6.46712
#
# Compressibility (1/GPa) = 0.02443366
#
# Stress axis : x y z
#
# Youngs Moduli (GPa) = 33.55011 117.44884 73.63828
#
# Poissons Ratio (x) = 0.59890 0.52345
# Poissons Ratio (y) = 0.17108 0.11235
# Poissons Ratio (z) = 0.23849 0.17920
#
# Static dielectric constant tensor:
#      x y z
#    x 1.796530 0.000000 0.002910 
#    y 0.000000 1.782770 0.000000 
#    z 0.002910 0.000000 1.780340 
# 
# From -- ./inp_files/235583.got.cif
#   From: 2010.05.17/outbox.cif.g08.bks.cpg/sg12_118_cif.got.tgz:235583.got - 2010.06.03 13:09:07.
