data_PCOD9203156
_publ_section_title
;
Structure prediction by ZEFSAII (Michael W. Deem and Ramdas Pophale) SiO2 
 PCOD9203156
Probable space group: C 2/M
;
_chemical_formula_sum "Si O2"
_cell_formula_units_Z 48
_cell_length_a 15.524062
_cell_length_b 20.340280
_cell_length_c 10.092178
_cell_angle_alpha 90.000000
_cell_angle_beta 36.122432
_cell_angle_gamma 90.000000
_cell_volume 1878.625990
_symmetry_space_group_name_H-M "C 2/M"
_symmetry_group_IT_number 12
_symmetry_cell_setting 'monoclinic'
loop_
_space_group_symop_operation_xyz
x,y,z
-x,y,-z
-x,-y,-z
x,-y,z
1/2+x,1/2+y,z
1/2-x,1/2+y,-z
1/2-x,1/2-y,-z
1/2+x,1/2-y,z
loop_
_atom_site_type_symbol
_atom_site_label
_atom_site_fract_x
_atom_site_fract_y
_atom_site_fract_z
Si Si1 0.093532 0.500000 0.073428
Si Si2 0.072472 0.000000 0.264561
Si Si3 0.358137 0.000000 0.587878
Si Si4 0.000000 0.741448 0.500000
Si Si5 0.739015 0.358347 0.739574
Si Si6 0.690231 0.818777 0.618298
Si Si7 0.640459 0.857072 0.965779
Si Si8 0.093219 0.850914 0.172717
O O1 0.939851 0.500000 0.343114
O O2 0.249621 0.500000 0.957703
O O3 0.106123 0.432857 0.979937
O O4 0.032249 0.074145 0.263499
O O5 0.000000 0.000000 0.500000
O O6 0.500000 0.000000 0.500000
O O7 0.272945 0.065900 0.728910
O O8 0.869977 0.691623 0.617807
O O9 0.971235 0.791672 0.658809
O O10 0.732308 0.362619 0.588901
O O11 0.608793 0.335906 0.997606
O O12 0.750000 0.750000 0.500000
O O13 0.717622 0.830934 0.738475
O O14 0.515898 0.824392 0.818933
O O15 0.742958 0.852869 0.965962
#
# Coordination Sequence:
#
# PCOD9203156 Si02
#       8
#     4   4   4   4   8   8   8   8
#     4  10  20  38  69  92 123 166 220 280 324 387
#     4  10  20  40  65  96 130 175 223 266 331 397
#     4  12  20  39  65  98 136 159 217 291 343 387
#     4  12  24  38  64  94 140 168 218 266 332 412
#     4  12  24  39  64  99 131 169 215 282 342 382
#     4  11  24  41  61  88 132 171 210 261 323 401
#     4  10  22  41  64  92 127 169 223 260 330 390
#     4  11  23  42  65  98 131 175 220 277 327 402
#
# _framework density 25.550588000000001
#
# number of rings (size 3 to 8) (size 9 to 14) (size 15 to 20)
#    0.000    1.000    3.333    5.000    0.000    4.667 
#    0.000    0.000    0.000    0.000    0.000    2.333 
#    0.000    0.000    0.000    0.000    0.000    0.000 
#
# Total GULP energy -134185.230984 kJ/mol
# GULP energy per Si atom -5591.051291 kJ/mol
# Density = 2.549243 g / cm^3
# Si number density = 25.550588 Si / 1000 Ang^3
#
#
#
# Elastic Constant Matrix: (Units=GPa)
#
#
# Indices 1 2 3 4 5 6 
#
# 1 69.4766 14.4418 38.0991 0.0028 9.2643 -0.0023
# 2 14.4418 185.0866 51.9414 0.0005 -2.7701 -0.0005
# 3 38.0991 51.9414 152.9169 0.0019 32.1996 -0.0019
# 4 0.0028 0.0005 0.0019 83.9764 -0.0024 39.3548
# 5 9.2643 -2.7701 32.1996 -0.0024 55.6663 0.0023
# 6 -0.0023 -0.0005 -0.0019 39.3548 0.0023 58.6099
#
#
#
# Elastic Compliance Matrix: (Units=1/GPa)
#
#
# Indices 1 2 3 4 5 6 
#
# 1 0.016686 -0.000189 -0.003993 -0.000001 -0.000477 0.000001
# 2 -0.000189 0.006115 -0.002392 0.000000 0.001719 0.000000
# 3 -0.003993 -0.002392 0.009374 -0.000001 -0.004877 0.000001
# 4 -0.000001 0.000000 -0.000001 0.017376 0.000002 -0.011667
# 5 -0.000477 0.001719 -0.004877 0.000002 0.020950 -0.000002
# 6 0.000001 0.000000 0.000001 -0.011667 -0.000002 0.024896
#
#
# Mechanical properties :
#
#
# Convention : Reuss Voigt Hill
#
# Bulk Modulus (GPa) = 52.55633 68.49386 60.52509
# Shear Modulus (GPa) = 43.52172 59.85038 51.68605
#
# Velocity S-wave (km/s) = 4.13165 4.84511 4.50254
# Velocity P-wave (km/s) = 6.58596 7.62663 7.12532
#
# Compressibility (1/GPa) = 0.01902720
#
# Stress axis : x y z
#
# Youngs Moduli (GPa) = 59.93185 163.54313 106.68198
#
# Poissons Ratio (x) = 0.03084 0.42596
# Poissons Ratio (y) = 0.01130 0.25518
# Poissons Ratio (z) = 0.23929 0.39120
#
# Static dielectric constant tensor:
#      x y z
#    x -1.313710 -0.000090 -2.989750 
#    y -0.000090 2.124710 -0.000090 
#    z -2.989750 -0.000090 -0.259820 
# 
# From -- ./inp_files/169628.got.cif
#   From: 2010.05.17/outbox.cif.g08.bks.cpg/sg12_85_cif.got.tgz:169628.got - 2010.06.03 13:09:07.
