data_PCOD9203579
_publ_section_title
;
Structure prediction by ZEFSAII (Michael W. Deem and Ramdas Pophale) SiO2 
 PCOD9203579
Probable space group: C 2/M
;
_chemical_formula_sum "Si O2"
_cell_formula_units_Z 64
_cell_length_a 24.788324
_cell_length_b 9.193630
_cell_length_c 16.249033
_cell_angle_alpha 90.000000
_cell_angle_beta 117.766707
_cell_angle_gamma 90.000000
_cell_volume 3276.666641
_symmetry_space_group_name_H-M "C 2/M"
_symmetry_group_IT_number 12
_symmetry_cell_setting 'monoclinic'
loop_
_space_group_symop_operation_xyz
x,y,z
-x,y,-z
-x,-y,-z
x,-y,z
1/2+x,1/2+y,z
1/2-x,1/2+y,-z
1/2-x,1/2-y,-z
1/2+x,1/2-y,z
loop_
_atom_site_type_symbol
_atom_site_label
_atom_site_fract_x
_atom_site_fract_y
_atom_site_fract_z
Si Si1 0.350793 0.326919 0.905462
Si Si2 0.709386 0.174028 0.837334
Si Si3 0.049843 0.169358 0.462898
Si Si4 0.386672 0.171430 0.765940
Si Si5 0.998135 0.671574 0.266005
Si Si6 0.277781 0.330840 0.598063
Si Si7 0.159510 0.331750 0.625901
Si Si8 0.119980 0.172934 0.888131
O O1 0.353875 0.500000 0.889598
O O2 0.279260 0.289808 0.865933
O O3 0.379957 0.239667 0.851359
O O4 0.381771 0.299302 0.015452
O O5 0.668519 0.207136 0.727688
O O6 0.681436 0.260720 0.893290
O O7 0.706711 0.000000 0.850135
O O8 0.026941 0.260013 0.368548
O O9 0.112548 0.232321 0.543693
O O10 0.000000 0.180865 0.500000
O O11 0.056546 0.000000 0.445210
O O12 0.452753 0.189902 0.772181
O O13 0.337759 0.251887 0.673292
O O14 0.372751 0.000000 0.758263
O O15 0.987081 0.500000 0.270415
O O16 0.936358 0.751736 0.197165
O O17 0.290059 0.500000 0.588467
O O18 0.250000 0.250000 0.500000
O O19 0.225976 0.324892 0.631547
O O20 0.138702 0.500000 0.605929
O O21 0.119106 0.000000 0.874822
#
# Coordination Sequence:
#
# PCOD9203579 Si02
#       8
#     8   8   8   8   8   8   8   8
#     4  10  22  42  65  92 126 164 204 251 314 375
#     4  10  20  39  64  91 126 165 203 247 308 375
#     4  11  24  40  60  90 124 158 205 259 306 358
#     4  11  24  41  63  91 122 161 210 260 308 364
#     4  11  25  44  63  87 123 166 211 255 308 373
#     4  11  22  38  59  87 122 158 200 249 302 366
#     4  10  21  37  59  86 119 160 199 239 298 369
#     4  11  24  40  63  94 124 159 207 260 312 366
#
# _framework density 19.532045
#
# number of rings (size 3 to 8) (size 9 to 14) (size 15 to 20)
#    0.000    1.375    1.250    3.750    0.000   11.500 
#    0.000    2.500    0.000    0.000    0.000    0.000 
#    0.000    0.000    0.000    0.000    0.000    0.000 
#
# Total GULP energy -178995.907303 kJ/mol
# GULP energy per Si atom -5593.622103 kJ/mol
# Density = 1.948759 g / cm^3
# Si number density = 19.532045 Si / 1000 Ang^3
#
#
#
# Elastic Constant Matrix: (Units=GPa)
#
#
# Indices 1 2 3 4 5 6 
#
# 1 49.0744 36.0505 17.2717 0.0000 -2.4817 0.0000
# 2 36.0505 82.7284 46.2352 0.0000 -11.1844 0.0000
# 3 17.2717 46.2352 72.9900 0.0000 -8.0066 0.0000
# 4 0.0000 0.0000 0.0000 33.1613 0.0000 -2.6157
# 5 -2.4817 -11.1844 -8.0066 0.0000 33.9067 0.0000
# 6 0.0000 0.0000 0.0000 -2.6157 0.0000 30.0460
#
#
#
# Elastic Compliance Matrix: (Units=1/GPa)
#
#
# Indices 1 2 3 4 5 6 
#
# 1 0.030278 -0.014471 0.001767 0.000000 -0.002140 0.000000
# 2 -0.014471 0.026033 -0.012566 0.000000 0.004561 0.000000
# 3 0.001767 -0.012566 0.021355 0.000000 0.001027 0.000000
# 4 0.000000 0.000000 0.000000 0.030364 0.000000 0.002643
# 5 -0.002140 0.004561 0.001027 0.000000 0.031083 0.000000
# 6 0.000000 0.000000 0.000000 0.002643 0.000000 0.033512
#
#
# Mechanical properties :
#
#
# Convention : Reuss Voigt Hill
#
# Bulk Modulus (GPa) = 36.86496 44.87862 40.87179
# Shear Modulus (GPa) = 21.53250 26.43848 23.98549
#
# Velocity S-wave (km/s) = 3.32387 3.68311 3.50810
# Velocity P-wave (km/s) = 5.80051 6.41201 6.11391
#
# Compressibility (1/GPa) = 0.02712603
#
# Stress axis : x y z
#
# Youngs Moduli (GPa) = 33.02774 38.41238 46.82768
#
# Poissons Ratio (x) = 0.55587 -0.08275
# Poissons Ratio (y) = 0.47794 0.58844
# Poissons Ratio (z) = -0.05837 0.48269
#
# Static dielectric constant tensor:
#      x y z
#    x 1.679950 0.000000 -0.013780 
#    y 0.000000 1.651900 0.000000 
#    z -0.013780 0.000000 1.666070 
# 
# From -- ./inp_files/244193.got.cif
#   From: 2010.05.17/outbox.cif.g08.bks.cpg/sg12_123_cif.got.tgz:244193.got - 2010.06.03 13:09:07.
