data_PCOD9203694
_publ_section_title
;
Structure prediction by ZEFSAII (Michael W. Deem and Ramdas Pophale) SiO2 
 PCOD9203694
Probable space group: C 2/M
;
_chemical_formula_sum "Si O2"
_cell_formula_units_Z 40
_cell_length_a 12.194038
_cell_length_b 14.998059
_cell_length_c 9.173581
_cell_angle_alpha 90.000000
_cell_angle_beta 75.782426
_cell_angle_gamma 90.000000
_cell_volume 1626.339106
_symmetry_space_group_name_H-M "C 2/M"
_symmetry_group_IT_number 12
_symmetry_cell_setting 'monoclinic'
loop_
_space_group_symop_operation_xyz
x,y,z
-x,y,-z
-x,-y,-z
x,-y,z
1/2+x,1/2+y,z
1/2-x,1/2+y,-z
1/2-x,1/2-y,-z
1/2+x,1/2-y,z
loop_
_atom_site_type_symbol
_atom_site_label
_atom_site_fract_x
_atom_site_fract_y
_atom_site_fract_z
Si Si1 0.746831 0.401551 0.239490
Si Si2 0.543853 0.391773 0.140839
Si Si3 0.385292 0.834300 0.600489
Si Si4 0.493633 0.893730 0.175033
Si Si5 0.854963 0.853463 0.440905
O O1 0.780257 0.500000 0.175579
O O2 0.669075 0.358439 0.142467
O O3 0.865264 0.360648 0.250947
O O4 0.667088 0.409469 0.406175
O O5 0.551620 0.500000 0.131353
O O6 0.456730 0.370225 0.298310
O O7 0.500000 0.358451 0.000000
O O8 0.500000 0.880437 0.500000
O O9 0.416449 0.838198 0.760771
O O10 0.260140 0.870535 0.613077
O O11 0.375010 0.741900 0.514055
O O12 0.508284 0.000000 0.204090
O O13 0.500000 0.882993 0.000000
#
# Coordination Sequence:
#
# PCOD9203694 Si02
#       5
#     8   8   8   8   8
#     4  10  20  39  65  95 128 168 220 272 327 391
#     4  10  22  39  64  98 132 170 220 275 333 390
#     4  11  23  42  64  93 130 171 222 266 322 402
#     4  10  23  42  67  98 133 169 217 282 338 389
#     4  11  23  40  65  92 133 175 217 267 324 398
#
# _framework density 24.595117999999999
#
# number of rings (size 3 to 8) (size 9 to 14) (size 15 to 20)
#    0.000    1.600    2.000    2.400    2.800    3.600 
#    0.000    5.000    0.000    0.000    0.000    0.000 
#    0.000    0.000    0.000    0.000    0.000    0.000 
#
# Total GULP energy -111614.562247 kJ/mol
# GULP energy per Si atom -5580.728112 kJ/mol
# Density = 2.453914 g / cm^3
# Si number density = 24.595118 Si / 1000 Ang^3
#
#
#
# Elastic Constant Matrix: (Units=GPa)
#
#
# Indices 1 2 3 4 5 6 
#
# 1 207.3413 22.7214 53.4418 0.0000 56.1263 0.0000
# 2 22.7214 60.7435 24.3785 0.0000 14.0284 0.0000
# 3 53.4418 24.3785 113.9984 0.0000 33.9981 0.0000
# 4 0.0000 0.0000 0.0000 136.2221 0.0000 12.0920
# 5 56.1263 14.0284 33.9981 0.0000 57.7883 0.0000
# 6 0.0000 0.0000 0.0000 12.0920 0.0000 20.8386
#
#
#
# Elastic Compliance Matrix: (Units=1/GPa)
#
#
# Indices 1 2 3 4 5 6 
#
# 1 0.006765 -0.000693 -0.001351 0.000000 -0.005607 0.000000
# 2 -0.000693 0.018396 -0.003005 0.000000 -0.002024 0.000000
# 3 -0.001351 -0.003005 0.011448 0.000000 -0.004693 0.000000
# 4 0.000000 0.000000 0.000000 0.007740 0.000000 -0.004491
# 5 -0.005607 -0.002024 -0.004693 0.000000 0.026003 0.000000
# 6 0.000000 0.000000 0.000000 -0.004491 0.000000 0.050594
#
#
# Mechanical properties :
#
#
# Convention : Reuss Voigt Hill
#
# Bulk Modulus (GPa) = 37.72207 64.79628 51.25918
# Shear Modulus (GPa) = 35.74483 61.73923 48.74203
#
# Velocity S-wave (km/s) = 3.81639 5.01565 4.45654
# Velocity P-wave (km/s) = 5.89833 7.74239 6.88240
#
# Compressibility (1/GPa) = 0.02650968
#
# Stress axis : x y z
#
# Youngs Moduli (GPa) = 147.81914 54.36091 87.35380
#
# Poissons Ratio (x) = 0.03769 0.11800
# Poissons Ratio (y) = 0.10249 0.26251
# Poissons Ratio (z) = 0.19967 0.16336
#
# Static dielectric constant tensor:
#      x y z
#    x 1.986270 0.000000 0.002410 
#    y 0.000000 2.017110 0.000000 
#    z 0.002410 0.000000 1.970800 
# 
# From -- ./inp_files/46947.got.cif
#   From: 2010.05.17/outbox.cif.g08.bks.cpg/sg12_24_cif.got.tgz:46947.got - 2010.06.03 13:09:07.
