data_PCOD9203707
_publ_section_title
;
Structure prediction by ZEFSAII (Michael W. Deem and Ramdas Pophale) SiO2 
 PCOD9203707
Probable space group: C 2/M
;
_chemical_formula_sum "Si O2"
_cell_formula_units_Z 56
_cell_length_a 19.022863
_cell_length_b 8.708369
_cell_length_c 27.616836
_cell_angle_alpha 90.000000
_cell_angle_beta 141.448485
_cell_angle_gamma 90.000000
_cell_volume 2851.193127
_symmetry_space_group_name_H-M "C 2/M"
_symmetry_group_IT_number 12
_symmetry_cell_setting 'monoclinic'
loop_
_space_group_symop_operation_xyz
x,y,z
-x,y,-z
-x,-y,-z
x,-y,z
1/2+x,1/2+y,z
1/2-x,1/2+y,-z
1/2-x,1/2-y,-z
1/2+x,1/2-y,z
loop_
_atom_site_type_symbol
_atom_site_label
_atom_site_fract_x
_atom_site_fract_y
_atom_site_fract_z
Si Si1 0.141258 0.677770 0.465325
Si Si2 0.126825 0.678955 0.570112
Si Si3 0.270380 0.815498 0.732661
Si Si4 0.922291 0.183997 0.298466
Si Si5 0.104221 0.314198 0.021195
Si Si6 0.851366 0.315853 0.161746
Si Si7 0.028911 0.687085 0.873289
O O1 0.127286 0.500000 0.444119
O O2 0.250000 0.750000 0.500000
O O3 0.163292 0.684530 0.534409
O O4 0.028469 0.764051 0.387737
O O5 0.119844 0.500000 0.582227
O O6 0.207402 0.765372 0.650073
O O7 0.000000 0.742950 0.500000
O O8 0.191675 0.764645 0.734954
O O9 0.398921 0.759769 0.802276
O O10 0.274188 0.000000 0.736899
O O11 0.924171 0.255449 0.246105
O O12 0.921314 0.000000 0.294131
O O13 0.111039 0.500000 0.027128
O O14 0.224750 0.246394 0.100455
O O15 0.000000 0.268850 0.000000
O O16 0.080626 0.267583 0.952835
O O17 0.850684 0.500000 0.161623
O O18 0.902463 0.263214 0.137426
O O19 0.028377 0.500000 0.872287
#
# Coordination Sequence:
#
# PCOD9203707 Si02
#       7
#     8   8   8   8   8   8   8
#     4  11  24  41  61  86 121 159 199 249 304 358
#     4  10  21  39  60  85 119 155 194 246 304 352
#     4  10  21  38  62  87 114 153 203 248 291 353
#     4  11  23  40  61  87 118 157 206 249 295 354
#     4  10  20  39  66  89 117 155 196 241 292 352
#     4  11  23  38  59  88 124 158 194 242 297 354
#     4   9  20  38  59  88 120 153 192 239 295 352
#
# _framework density 19.640899999999998
#
# number of rings (size 3 to 8) (size 9 to 14) (size 15 to 20)
#    0.000    1.714    1.429    2.571    2.000    4.571 
#    0.000    2.143    0.000    0.000    0.000    0.000 
#    0.000    0.000    0.000    0.000    0.000    0.000 
#
# Total GULP energy -156401.089495 kJ/mol
# GULP energy per Si atom -5585.753196 kJ/mol
# Density = 1.959620 g / cm^3
# Si number density = 19.640900 Si / 1000 Ang^3
#
#
#
# Elastic Constant Matrix: (Units=GPa)
#
#
# Indices 1 2 3 4 5 6 
#
# 1 100.6364 26.2560 17.3330 0.0000 -2.0768 0.0000
# 2 26.2560 22.6178 3.6465 0.0000 -4.3614 0.0000
# 3 17.3330 3.6465 67.2600 0.0000 -13.3033 0.0000
# 4 0.0000 0.0000 0.0000 30.6102 0.0000 -6.1974
# 5 -2.0768 -4.3614 -13.3033 0.0000 33.3685 0.0000
# 6 0.0000 0.0000 0.0000 -6.1974 0.0000 15.9290
#
#
#
# Elastic Compliance Matrix: (Units=1/GPa)
#
#
# Indices 1 2 3 4 5 6 
#
# 1 0.015017 -0.017398 -0.003465 0.000000 -0.002721 0.000000
# 2 -0.017398 0.065635 0.002614 0.000000 0.008538 0.000000
# 3 -0.003465 0.002614 0.016983 0.000000 0.006897 0.000000
# 4 0.000000 0.000000 0.000000 0.035462 0.000000 0.013797
# 5 -0.002721 0.008538 0.006897 0.000000 0.033665 0.000000
# 6 0.000000 0.000000 0.000000 0.013797 0.000000 0.068147
#
#
# Mechanical properties :
#
#
# Convention : Reuss Voigt Hill
#
# Bulk Modulus (GPa) = 16.35687 31.66502 24.01094
# Shear Modulus (GPa) = 17.13594 25.53344 21.33469
#
# Velocity S-wave (km/s) = 2.95695 3.60948 3.29939
# Velocity P-wave (km/s) = 4.47260 5.79035 5.17360
#
# Compressibility (1/GPa) = 0.06113640
#
# Stress axis : x y z
#
# Youngs Moduli (GPa) = 66.59327 15.23582 58.88265
#
# Poissons Ratio (x) = 0.26507 0.20401
# Poissons Ratio (y) = 1.15860 -0.15391
# Poissons Ratio (z) = 0.23072 -0.03982
#
# Static dielectric constant tensor:
#      x y z
#    x 1.646820 0.000000 0.011990 
#    y 0.000000 1.677440 0.000000 
#    z 0.011990 0.000000 1.653960 
# 
# From -- ./inp_files/363163.got.cif
#   From: 2010.05.17/outbox.cif.g08.bks.cpg/sg12_182_cif.got.tgz:363163.got - 2010.06.03 13:09:07.
