data_PCOD9203689
_publ_section_title
;
Structure prediction by ZEFSAII (Michael W. Deem and Ramdas Pophale) SiO2 
 PCOD9203689
Probable space group: C 2/M
;
_chemical_formula_sum "Si O2"
_cell_formula_units_Z 50
_cell_length_a 10.367703
_cell_length_b 15.151914
_cell_length_c 30.189059
_cell_angle_alpha 90.000000
_cell_angle_beta 38.902491
_cell_angle_gamma 90.000000
_cell_volume 2978.222326
_symmetry_space_group_name_H-M "C 2/M"
_symmetry_group_IT_number 12
_symmetry_cell_setting 'monoclinic'
loop_
_space_group_symop_operation_xyz
x,y,z
-x,y,-z
-x,-y,-z
x,-y,z
1/2+x,1/2+y,z
1/2-x,1/2+y,-z
1/2-x,1/2-y,-z
1/2+x,1/2-y,z
loop_
_atom_site_type_symbol
_atom_site_label
_atom_site_fract_x
_atom_site_fract_y
_atom_site_fract_z
Si Si1 0.500000 0.000000 0.000000
Si Si2 0.751000 0.895772 0.340975
Si Si3 0.668059 0.000000 0.857639
Si Si4 0.223304 0.144204 0.238425
Si Si5 0.470108 0.500000 0.851444
Si Si6 0.985014 0.244465 0.451991
Si Si7 0.729448 0.898267 0.671721
Si Si8 0.718387 0.850018 0.245883
O O1 0.245057 0.000000 0.065555
O O2 0.522241 0.000000 0.939194
O O3 0.597591 0.836417 0.410734
O O4 0.724446 0.865580 0.297102
O O5 0.982113 0.874335 0.294820
O O6 0.711812 0.000000 0.355294
O O7 0.656785 0.085537 0.829591
O O8 0.894706 0.000000 0.820080
O O9 0.276499 0.114985 0.273857
O O10 0.261200 0.248170 0.224011
O O11 0.610784 0.414510 0.820448
O O12 0.750000 0.250000 0.500000
O O13 0.000000 0.225827 0.500000
O O14 0.105828 0.168759 0.392838
O O15 0.506417 0.875393 0.711525
O O16 0.779581 0.000000 0.648365
#
# Coordination Sequence:
#
# PCOD9203689 Si02
#       8
#     2   8   4   8   4   8   8   8
#     4   8  20  40  68  90 132 168 196 228 288 378
#     4  12  21  40  63  83 113 158 214 254 300 367
#     4  10  20  39  65  95 121 160 204 232 291 355
#     4  12  20  36  63  95 117 152 205 262 292 339
#     4  10  20  39  65  95 121 162 203 229 298 362
#     4  12  26  41  56  81 122 163 199 255 326 375
#     4  12  24  37  60  89 120 149 202 265 313 352
#     4  12  20  36  63  95 117 155 202 259 301 344
#
# _framework density 16.788539
#
# number of rings (size 3 to 8) (size 9 to 14) (size 15 to 20)
#    0.480    0.000    8.000    1.920    0.000    1.280 
#    0.000    0.800    0.000    1.920    0.000    0.000 
#    0.000    0.000    0.000    0.000    0.000    0.000 
#
# Total GULP energy -139337.684574 kJ/mol
# GULP energy per Si atom -5573.507383 kJ/mol
# Density = 1.675033 g / cm^3
# Si number density = 16.788539 Si / 1000 Ang^3
#
#
#
# Elastic Constant Matrix: (Units=GPa)
#
#
# Indices 1 2 3 4 5 6 
#
# 1 97.8323 8.7281 23.4156 0.0001 5.7912 0.0005
# 2 8.7281 164.1871 40.1252 0.0002 3.3273 0.0008
# 3 23.4156 40.1252 100.3313 0.0003 4.7581 0.0008
# 4 0.0001 0.0002 0.0003 6.3074 0.0003 0.9848
# 5 5.7912 3.3273 4.7581 0.0003 32.7240 0.0004
# 6 0.0005 0.0008 0.0008 0.9848 0.0004 24.2302
#
#
#
# Elastic Compliance Matrix: (Units=1/GPa)
#
#
# Indices 1 2 3 4 5 6 
#
# 1 0.010906 0.000062 -0.002496 0.000000 -0.001574 0.000000
# 2 0.000062 0.006754 -0.002701 0.000000 -0.000305 0.000000
# 3 -0.002496 -0.002701 0.011676 0.000000 -0.000981 0.000000
# 4 0.000000 0.000000 0.000000 0.159557 -0.000001 -0.006485
# 5 -0.001574 -0.000305 -0.000981 -0.000001 0.031011 0.000000
# 6 0.000000 0.000000 0.000000 -0.006485 0.000000 0.041534
#
#
# Mechanical properties :
#
#
# Convention : Reuss Voigt Hill
#
# Bulk Modulus (GPa) = 52.44617 56.32094 54.38356
# Shear Modulus (GPa) = 17.98150 31.99111 24.98630
#
# Velocity S-wave (km/s) = 3.27625 4.36998 3.86203
# Velocity P-wave (km/s) = 6.75417 7.68650 7.23537
#
# Compressibility (1/GPa) = 0.01906717
#
# Stress axis : x y z
#
# Youngs Moduli (GPa) = 91.68859 148.06987 85.64492
#
# Poissons Ratio (x) = -0.00918 0.21373
# Poissons Ratio (y) = -0.00568 0.23132
# Poissons Ratio (z) = 0.22881 0.39993
#
# Static dielectric constant tensor:
#      x y z
#    x 1.561810 0.000000 0.006230 
#    y 0.000000 1.569810 0.000000 
#    z 0.006230 0.000000 1.532000 
# 
# From -- ./inp_files/356115.got.cif
#   From: 2010.05.17/outbox.cif.g08.bks.cpg/sg12_179_cif.got.tgz:356115.got - 2010.06.03 13:09:07.
