data_PCOD9203927
_publ_section_title
;
Structure prediction by ZEFSAII (Michael W. Deem and Ramdas Pophale) SiO2 
 PCOD9203927
Probable space group: C 2/M
;
_chemical_formula_sum "Si O2"
_cell_formula_units_Z 48
_cell_length_a 12.860279
_cell_length_b 12.920972
_cell_length_c 26.520639
_cell_angle_alpha 90.000000
_cell_angle_beta 152.185926
_cell_angle_gamma 90.000000
_cell_volume 2056.259568
_symmetry_space_group_name_H-M "C 2/M"
_symmetry_group_IT_number 12
_symmetry_cell_setting 'monoclinic'
loop_
_space_group_symop_operation_xyz
x,y,z
-x,y,-z
-x,-y,-z
x,-y,z
1/2+x,1/2+y,z
1/2-x,1/2+y,-z
1/2-x,1/2-y,-z
1/2+x,1/2-y,z
loop_
_atom_site_type_symbol
_atom_site_label
_atom_site_fract_x
_atom_site_fract_y
_atom_site_fract_z
Si Si1 0.028572 0.113522 0.385177
Si Si2 0.176222 0.613278 0.142381
Si Si3 0.125636 0.612678 0.840762
Si Si4 0.489256 0.663543 0.917035
Si Si5 0.505157 0.815112 0.560064
Si Si6 0.523705 0.661006 0.206225
O O1 0.282144 0.120776 0.474624
O O2 0.002141 0.212071 0.409303
O O3 0.855671 0.123157 0.264581
O O4 0.995378 0.000000 0.394241
O O5 0.069332 0.500000 0.099967
O O6 0.015555 0.711682 0.077766
O O7 0.320548 0.620673 0.153044
O O8 0.017097 0.500000 0.795747
O O9 0.263843 0.625627 0.848019
O O10 0.980780 0.714335 0.786584
O O11 0.308821 0.619116 0.963862
O O12 0.497511 0.638703 0.861946
O O13 0.500000 0.783861 0.500000
O O14 0.734830 0.873538 0.670991
#
# Coordination Sequence:
#
# PCOD9203927 Si02
#       6
#     8   8   8   8   8   8
#     4  10  22  39  59  85 118 159 201 240 294 350
#     4  10  21  37  59  88 118 156 200 241 291 351
#     4  10  23  41  63  88 120 157 197 245 298 354
#     4  10  20  40  61  86 120 158 195 242 297 351
#     4  11  22  39  63  87 122 157 197 250 292 342
#     4  11  22  38  61  91 120 155 200 244 296 351
#
# _framework density 23.343356
#
# number of rings (size 3 to 8) (size 9 to 14) (size 15 to 20)
#    0.000    1.667    3.333    1.500    0.000    4.000 
#    0.000    8.333    0.000    0.000    0.000    0.000 
#    0.000    0.000    0.000    0.000    0.000    0.000 
#
# Total GULP energy -134412.559996 kJ/mol
# GULP energy per Si atom -5600.523333 kJ/mol
# Density = 2.329023 g / cm^3
# Si number density = 23.343356 Si / 1000 Ang^3
#
#
#
# Elastic Constant Matrix: (Units=GPa)
#
#
# Indices 1 2 3 4 5 6 
#
# 1 116.0106 2.7807 23.2246 0.0000 -30.2899 0.0001
# 2 2.7807 148.7082 10.3358 -0.0001 -8.7179 0.0000
# 3 23.2246 10.3358 56.3182 -0.0002 -4.1645 -0.0001
# 4 0.0000 -0.0001 -0.0002 14.4439 0.0002 -12.6250
# 5 -30.2899 -8.7179 -4.1645 0.0002 41.1357 -0.0001
# 6 0.0001 0.0000 -0.0001 -12.6250 -0.0001 -11.5340
#
#
#
# Elastic Compliance Matrix: (Units=1/GPa)
#
#
# Indices 1 2 3 4 5 6 
#
# 1 0.011615 0.000564 -0.004284 0.000000 0.008238 0.000000
# 2 0.000564 0.006911 -0.001372 0.000000 0.001741 0.000000
# 3 -0.004284 -0.001372 0.019667 0.000000 -0.001454 0.000000
# 4 0.000000 0.000000 0.000000 0.035382 0.000000 -0.038729
# 5 0.008238 0.001741 -0.001454 0.000000 0.030598 0.000000
# 6 0.000000 0.000000 0.000000 -0.038729 0.000000 -0.044308
#
#
# Mechanical properties :
#
#
# Convention : Reuss Voigt Hill
#
# Bulk Modulus (GPa) = 35.70349 43.74658 39.72503
# Shear Modulus (GPa) = 62.98287 27.78883 45.38585
#
# Velocity S-wave (km/s) = 5.19997 3.45402 4.41417
# Velocity P-wave (km/s) = 7.16805 5.88966 6.56007
#
# Compressibility (1/GPa) = 0.02800847
#
# Stress axis : x y z
#
# Youngs Moduli (GPa) = 86.09526 144.68719 50.84608
#
# Poissons Ratio (x) = -0.08154 0.21783
# Poissons Ratio (y) = -0.04852 0.06977
# Poissons Ratio (z) = 0.36884 0.19853
#
# Static dielectric constant tensor:
#      x y z
#    x 1.872260 0.000010 0.031800 
#    y 0.000010 -1.893300 0.000070 
#    z 0.031800 0.000070 1.836190 
# 
# From -- ./inp_files/376162.got.cif
#   From: 2010.05.17/outbox.cif.g08.bks.cpg/sg12_189_cif.got.tgz:376162.got - 2010.06.03 13:09:07.
