data_PCOD9203192
_publ_section_title
;
Structure prediction by ZEFSAII (Michael W. Deem and Ramdas Pophale) SiO2 
 PCOD9203192
Probable space group: C 2/M
;
_chemical_formula_sum "Si O2"
_cell_formula_units_Z 64
_cell_length_a 21.828126
_cell_length_b 24.535122
_cell_length_c 17.151939
_cell_angle_alpha 90.000000
_cell_angle_beta 156.955893
_cell_angle_gamma 90.000000
_cell_volume 3595.693691
_symmetry_space_group_name_H-M "C 2/M"
_symmetry_group_IT_number 12
_symmetry_cell_setting 'monoclinic'
loop_
_space_group_symop_operation_xyz
x,y,z
-x,y,-z
-x,-y,-z
x,-y,z
1/2+x,1/2+y,z
1/2-x,1/2+y,-z
1/2-x,1/2-y,-z
1/2+x,1/2-y,z
loop_
_atom_site_type_symbol
_atom_site_label
_atom_site_fract_x
_atom_site_fract_y
_atom_site_fract_z
Si Si1 0.061033 0.657714 0.988057
Si Si2 0.264975 0.707210 0.447511
Si Si3 0.157250 0.237154 0.633872
Si Si4 0.882691 0.938443 0.966660
Si Si5 0.689886 0.610082 0.396704
Si Si6 0.023088 0.562259 0.826523
Si Si7 0.071399 0.561854 0.703393
Si Si8 0.213432 0.640519 0.658616
O O1 0.088590 0.607705 0.961742
O O2 0.913748 0.691984 0.783557
O O3 0.207434 0.697674 0.173833
O O4 0.000000 0.636051 0.000000
O O5 0.250000 0.750000 0.500000
O O6 0.351457 0.724569 0.469316
O O7 0.344459 0.653312 0.576135
O O8 0.201884 0.301154 0.686040
O O9 0.000000 0.229473 0.500000
O O10 0.735776 0.933880 0.853087
O O11 0.842217 0.896000 0.851986
O O12 0.886781 0.000000 0.941156
O O13 0.041656 0.924616 0.197395
O O14 0.743371 0.643512 0.382121
O O15 0.837852 0.574303 0.597221
O O16 0.046993 0.500000 0.880463
O O17 0.091440 0.568516 0.819521
O O18 0.008375 0.500000 0.616308
O O19 0.947956 0.606182 0.528755
#
# Coordination Sequence:
#
# PCOD9203192 Si02
#       8
#     8   8   8   8   8   8   8   8
#     4   9  21  37  57  80 109 141 178 223 277 327
#     4  10  20  39  58  76 109 149 178 218 275 325
#     4  11  23  38  58  84 112 141 185 231 267 320
#     4  11  22  33  50  81 114 143 181 226 269 315
#     4  10  21  34  56  80 105 142 184 225 267 322
#     4   9  18  36  59  79 104 139 180 223 272 328
#     4   9  19  35  52  73 108 148 183 220 267 323
#     4  11  21  35  52  75 109 150 186 218 266 320
#
# _framework density 17.799068999999999
#
# number of rings (size 3 to 8) (size 9 to 14) (size 15 to 20)
#    0.000    2.000    1.250    2.250    1.750    5.250 
#    0.000    0.625    0.000    0.375    0.000    0.000 
#    0.000    0.000    0.000    0.000    0.000    0.000 
#
# Total GULP energy -178553.906689 kJ/mol
# GULP energy per Si atom -5579.809584 kJ/mol
# Density = 1.775856 g / cm^3
# Si number density = 17.799069 Si / 1000 Ang^3
#
#
#
# Elastic Constant Matrix: (Units=GPa)
#
#
# Indices 1 2 3 4 5 6 
#
# 1 110.1625 63.5732 39.7870 0.0000 -1.6625 0.0000
# 2 63.5732 113.9637 47.2927 0.0000 -5.4043 0.0000
# 3 39.7870 47.2927 67.4693 0.0001 -3.8551 0.0000
# 4 0.0000 0.0000 0.0001 22.0561 0.0000 -4.4567
# 5 -1.6625 -5.4043 -3.8551 0.0000 26.7397 0.0000
# 6 0.0000 0.0000 0.0000 -4.4567 0.0000 6.6794
#
#
#
# Elastic Compliance Matrix: (Units=1/GPa)
#
#
# Indices 1 2 3 4 5 6 
#
# 1 0.014120 -0.006267 -0.003989 0.000000 -0.000964 0.000000
# 2 -0.006267 0.015198 -0.006861 0.000000 0.001693 0.000000
# 3 -0.003989 -0.006861 0.022071 0.000000 0.001547 0.000000
# 4 0.000000 0.000000 0.000000 0.052404 0.000000 0.034966
# 5 -0.000964 0.001693 0.001547 0.000000 0.037903 0.000000
# 6 0.000000 0.000000 0.000000 0.034966 0.000000 0.173043
#
#
# Mechanical properties :
#
#
# Convention : Reuss Voigt Hill
#
# Bulk Modulus (GPa) = 58.28793 65.87793 62.08293
# Shear Modulus (GPa) = 14.09673 20.49122 17.29397
#
# Velocity S-wave (km/s) = 2.81729 3.39669 3.12047
# Velocity P-wave (km/s) = 6.58799 7.24401 6.92378
#
# Compressibility (1/GPa) = 0.01715621
#
# Stress axis : x y z
#
# Youngs Moduli (GPa) = 70.81981 65.79761 45.30800
#
# Poissons Ratio (x) = 0.41237 0.18073
# Poissons Ratio (y) = 0.44385 0.31084
# Poissons Ratio (z) = 0.28249 0.45141
#
# Static dielectric constant tensor:
#      x y z
#    x 1.626660 0.000000 -0.008920 
#    y 0.000000 1.614650 0.000000 
#    z -0.008920 0.000000 1.587470 
# 
# From -- ./inp_files/291089.got.cif
#   From: 2010.05.17/outbox.cif.g08.bks.cpg/sg12_146_cif.got.tgz:291089.got - 2010.06.03 13:09:07.
