data_PCOD9203555
_publ_section_title
;
Structure prediction by ZEFSAII (Michael W. Deem and Ramdas Pophale) SiO2 
 PCOD9203555
Probable space group: C 2/M
;
_chemical_formula_sum "Si O2"
_cell_formula_units_Z 64
_cell_length_a 20.149025
_cell_length_b 8.625629
_cell_length_c 31.038151
_cell_angle_alpha 90.000000
_cell_angle_beta 38.015273
_cell_angle_gamma 90.000000
_cell_volume 3322.238184
_symmetry_space_group_name_H-M "C 2/M"
_symmetry_group_IT_number 12
_symmetry_cell_setting 'monoclinic'
loop_
_space_group_symop_operation_xyz
x,y,z
-x,y,-z
-x,-y,-z
x,-y,z
1/2+x,1/2+y,z
1/2-x,1/2+y,-z
1/2-x,1/2-y,-z
1/2+x,1/2-y,z
loop_
_atom_site_type_symbol
_atom_site_label
_atom_site_fract_x
_atom_site_fract_y
_atom_site_fract_z
Si Si1 0.266466 0.687518 0.280682
Si Si2 0.974675 0.314380 0.621645
Si Si3 0.055464 0.815794 0.268203
Si Si4 0.646189 0.814480 0.674685
Si Si5 0.303287 0.314546 0.516337
Si Si6 0.671787 0.687695 0.002960
Si Si7 0.926448 0.188443 0.122020
Si Si8 0.280966 0.312388 0.119055
O O1 0.271100 0.500000 0.281243
O O2 0.142328 0.731563 0.336375
O O3 0.311444 0.761031 0.300968
O O4 0.340299 0.734874 0.202368
O O5 0.981926 0.500000 0.618094
O O6 0.979987 0.255566 0.667991
O O7 0.074903 0.246398 0.544325
O O8 0.171866 0.751563 0.195530
O O9 0.967286 0.763279 0.278585
O O10 0.058459 0.000000 0.270139
O O11 0.731569 0.767674 0.593955
O O12 0.634117 0.000000 0.679367
O O13 0.303835 0.500000 0.513751
O O14 0.250000 0.250000 0.500000
O O15 0.673730 0.500000 0.003739
O O16 0.707716 0.735082 0.936403
O O17 0.750000 0.750000 0.000000
O O18 0.547289 0.739983 0.071069
O O19 0.880657 0.235544 0.098703
O O20 0.929371 0.000000 0.120146
O O21 0.276725 0.500000 0.122199
#
# Coordination Sequence:
#
# PCOD9203555 Si02
#       8
#     8   8   8   8   8   8   8   8
#     4  10  22  40  63  91 124 162 202 252 308 365
#     4  11  22  40  65  92 124 159 202 256 308 366
#     4  12  24  38  62  92 122 160 207 256 307 367
#     4  11  25  42  61  88 125 162 203 255 308 364
#     4  11  23  39  62  89 121 164 206 256 309 361
#     4  10  22  38  61  91 124 162 201 247 302 360
#     4   9  18  38  64  88 118 158 205 248 293 359
#     4  10  20  39  64  89 119 161 209 251 299 358
#
# _framework density 19.264119999999998
#
# number of rings (size 3 to 8) (size 9 to 14) (size 15 to 20)
#    0.000    1.500    2.500    2.625    1.750    5.000 
#    0.000    3.125    0.000    1.500    0.000    0.000 
#    0.000    0.000    0.000    0.000    0.000    0.000 
#
# Total GULP energy -178853.318952 kJ/mol
# GULP energy per Si atom -5589.166217 kJ/mol
# Density = 1.922027 g / cm^3
# Si number density = 19.264120 Si / 1000 Ang^3
#
#
#
# Elastic Constant Matrix: (Units=GPa)
#
#
# Indices 1 2 3 4 5 6 
#
# 1 151.4202 23.4268 52.8269 -0.0016 -6.5269 0.0206
# 2 23.4268 22.1861 15.7107 0.0001 -2.5683 0.0036
# 3 52.8269 15.7107 98.7742 -0.0020 -15.5936 0.0000
# 4 -0.0016 0.0001 -0.0020 23.8089 -0.0024 0.6486
# 5 -6.5269 -2.5683 -15.5936 -0.0024 36.4319 -0.0007
# 6 0.0206 0.0036 0.0000 0.6486 -0.0007 33.7581
#
#
#
# Elastic Compliance Matrix: (Units=1/GPa)
#
#
# Indices 1 2 3 4 5 6 
#
# 1 0.008961 -0.006841 -0.003783 0.000000 -0.000496 -0.000005
# 2 -0.006841 0.056017 -0.005171 -0.000001 0.000510 -0.000002
# 3 -0.003783 -0.005171 0.013733 0.000001 0.004836 0.000003
# 4 0.000000 -0.000001 0.000001 0.042023 0.000003 -0.000807
# 5 -0.000496 0.000510 0.004836 0.000003 0.029465 0.000001
# 6 -0.000005 -0.000002 0.000003 -0.000807 0.000001 0.029638
#
#
# Mechanical properties :
#
#
# Convention : Reuss Voigt Hill
#
# Bulk Modulus (GPa) = 21.22123 50.70102 35.96113
# Shear Modulus (GPa) = 22.01351 30.82752 26.42052
#
# Velocity S-wave (km/s) = 3.38408 4.00466 3.70738
# Velocity P-wave (km/s) = 5.12925 6.91079 6.08557
#
# Compressibility (1/GPa) = 0.04712262
#
# Stress axis : x y z
#
# Youngs Moduli (GPa) = 111.59724 17.85173 72.81694
#
# Poissons Ratio (x) = 0.12212 0.27544
# Poissons Ratio (y) = 0.76340 0.37652
# Poissons Ratio (z) = 0.42214 0.09231
#
# Static dielectric constant tensor:
#      x y z
#    x 1.649330 0.000000 -0.011060 
#    y 0.000000 1.653930 0.000000 
#    z -0.011060 0.000000 1.663170 
# 
# From -- ./inp_files/378014.got.cif
#   From: 2010.05.17/outbox.cif.g08.bks.cpg/sg12_190_cif.got.tgz:378014.got - 2010.06.03 13:09:07.
