data_PCOD9203464
_publ_section_title
;
Structure prediction by ZEFSAII (Michael W. Deem and Ramdas Pophale) SiO2 
 PCOD9203464
Probable space group: C 2/M
;
_chemical_formula_sum "Si O2"
_cell_formula_units_Z 34
_cell_length_a 6.845987
_cell_length_b 13.895615
_cell_length_c 14.298439
_cell_angle_alpha 90.000000
_cell_angle_beta 118.451316
_cell_angle_gamma 90.000000
_cell_volume 1195.917256
_symmetry_space_group_name_H-M "C 2/M"
_symmetry_group_IT_number 12
_symmetry_cell_setting 'monoclinic'
loop_
_space_group_symop_operation_xyz
x,y,z
-x,y,-z
-x,-y,-z
x,-y,z
1/2+x,1/2+y,z
1/2-x,1/2+y,-z
1/2-x,1/2-y,-z
1/2+x,1/2-y,z
loop_
_atom_site_type_symbol
_atom_site_label
_atom_site_fract_x
_atom_site_fract_y
_atom_site_fract_z
Si Si1 0.656186 0.132018 0.620468
Si Si2 0.275039 0.169470 0.896221
Si Si3 0.000000 0.000000 0.500000
Si Si4 0.207899 0.106820 0.143287
Si Si5 0.354445 0.644643 0.336844
O O1 0.500000 0.102158 0.500000
O O2 0.653620 0.102144 0.728233
O O3 0.640287 0.246698 0.628439
O O4 0.904628 0.108710 0.642904
O O5 0.245473 0.286840 0.890694
O O6 0.288566 0.139425 0.790025
O O7 0.053172 0.121595 0.887629
O O8 0.500000 0.142831 0.000000
O O9 0.825654 0.081928 0.421011
O O10 0.233686 0.000000 0.104999
#
# Coordination Sequence:
#
# PCOD9203464 Si02
#       5
#     8   8   2   8   8
#     4  10  20  39  63  87 126 174 206 262 322 381
#     4  10  22  44  70  93 132 176 216 274 326 385
#     4  12  24  40  60  96 134 158 212 274 316 388
#     4  10  23  42  65  98 132 173 221 271 327 387
#     4  10  23  39  64  91 128 164 213 264 319 383
#
# _framework density 28.430060000000001
#
# number of rings (size 3 to 8) (size 9 to 14) (size 15 to 20)
#    0.000    1.882    1.176    1.412    6.588    1.412 
#    0.000    1.176    0.000    0.000    0.000    0.000 
#    0.000    0.000    0.000    0.000    0.000    0.000 
#
# Total GULP energy -95021.128638 kJ/mol
# GULP energy per Si atom -5589.478155 kJ/mol
# Density = 2.836535 g / cm^3
# Si number density = 28.430060 Si / 1000 Ang^3
#
#
#
# Elastic Constant Matrix: (Units=GPa)
#
#
# Indices 1 2 3 4 5 6 
#
# 1 84.3320 -9.5927 32.9961 0.0000 6.1127 0.0000
# 2 -9.5927 241.2628 41.9196 0.0000 -5.3016 0.0000
# 3 32.9961 41.9196 296.0675 0.0000 41.1529 0.0000
# 4 0.0000 0.0000 0.0000 16.5037 0.0000 32.8386
# 5 6.1127 -5.3016 41.1529 0.0000 55.6701 0.0000
# 6 0.0000 0.0000 0.0000 32.8386 0.0000 -29.1605
#
#
#
# Elastic Compliance Matrix: (Units=1/GPa)
#
#
# Indices 1 2 3 4 5 6 
#
# 1 0.012535 0.000750 -0.001473 0.000000 -0.000216 0.000000
# 2 0.000750 0.004339 -0.000829 0.000000 0.000944 0.000000
# 3 -0.001473 -0.000829 0.004065 0.000000 -0.002922 0.000000
# 4 0.000000 0.000000 0.000000 0.018697 0.000000 0.021055
# 5 -0.000216 0.000944 -0.002922 0.000000 0.020237 0.000000
# 6 0.000000 0.000000 0.000000 0.021055 0.000000 -0.010582
#
#
# Mechanical properties :
#
#
# Convention : Reuss Voigt Hill
#
# Bulk Modulus (GPa) = 56.07039 83.58980 69.83010
# Shear Modulus (GPa) = 85.70072 45.69194 65.69633
#
# Velocity S-wave (km/s) = 5.49635 4.01330 4.81230
# Velocity P-wave (km/s) = 7.74886 7.13731 7.44936
#
# Compressibility (1/GPa) = 0.01783472
#
# Stress axis : x y z
#
# Youngs Moduli (GPa) = 79.77533 230.44281 245.97803
#
# Poissons Ratio (x) = -0.17274 0.36236
# Poissons Ratio (y) = -0.05980 0.20395
# Poissons Ratio (z) = 0.11752 0.19107
#
# Static dielectric constant tensor:
#      x y z
#    x 2.469360 0.000000 -0.111840 
#    y 0.000000 2.131920 0.000000 
#    z -0.111840 0.000000 2.275810 
# 
# From -- ./inp_files/193962.got.cif
#   From: 2010.05.17/outbox.cif.g08.bks.cpg/sg12_97_cif.got.tgz:193962.got - 2010.06.03 13:09:07.
