data_PCOD9203573
_publ_section_title
;
Structure prediction by ZEFSAII (Michael W. Deem and Ramdas Pophale) SiO2 
 PCOD9203573
Probable space group: C 2/M
;
_chemical_formula_sum "Si O2"
_cell_formula_units_Z 40
_cell_length_a 13.679485
_cell_length_b 14.052013
_cell_length_c 9.275634
_cell_angle_alpha 90.000000
_cell_angle_beta 113.392250
_cell_angle_gamma 90.000000
_cell_volume 1636.454341
_symmetry_space_group_name_H-M "C 2/M"
_symmetry_group_IT_number 12
_symmetry_cell_setting 'monoclinic'
loop_
_space_group_symop_operation_xyz
x,y,z
-x,y,-z
-x,-y,-z
x,-y,z
1/2+x,1/2+y,z
1/2-x,1/2+y,-z
1/2-x,1/2-y,-z
1/2+x,1/2-y,z
loop_
_atom_site_type_symbol
_atom_site_label
_atom_site_fract_x
_atom_site_fract_y
_atom_site_fract_z
Si Si1 0.924670 0.611004 0.267614
Si Si2 0.667492 0.104415 0.099415
Si Si3 0.702366 0.307836 0.253060
Si Si4 0.453691 0.284488 0.622707
Si Si5 0.397513 0.395365 0.080963
O O1 0.925259 0.500000 0.307010
O O2 0.822752 0.663410 0.283088
O O3 0.028704 0.671011 0.368385
O O4 0.908833 0.615475 0.084512
O O5 0.673830 0.198686 0.197880
O O6 0.783984 0.102019 0.094174
O O7 0.647237 0.000000 0.155081
O O8 0.661136 0.320207 0.392142
O O9 0.631356 0.368565 0.098940
O O10 0.500000 0.323006 0.500000
O O11 0.532530 0.319941 0.794123
O O12 0.445474 0.500000 0.120552
#
# Coordination Sequence:
#
# PCOD9203573 Si02
#       5
#     8   8   8   8   8
#     4  10  21  41  64  91 125 158 202 257 305 358
#     4   9  17  34  66  95 114 147 203 261 304 350
#     4  11  20  39  68  90 116 160 207 249 308 359
#     4  12  26  39  59  90 129 164 202 249 299 363
#     4  10  20  39  64  91 119 152 200 255 306 361
#
# _framework density 24.443090000000002
#
# number of rings (size 3 to 8) (size 9 to 14) (size 15 to 20)
#    0.000    1.600    4.000    3.600    0.000    4.800 
#    0.000    2.000    0.000    0.000    0.000    0.000 
#    0.000    0.000    0.000    0.000    0.000    0.000 
#
# Total GULP energy -111860.958901 kJ/mol
# GULP energy per Si atom -5593.047945 kJ/mol
# Density = 2.438746 g / cm^3
# Si number density = 24.443090 Si / 1000 Ang^3
#
#
#
# Elastic Constant Matrix: (Units=GPa)
#
#
# Indices 1 2 3 4 5 6 
#
# 1 52.6753 11.7845 43.1425 0.0000 -22.4422 0.0000
# 2 11.7845 147.5114 14.1803 0.0000 -7.9299 0.0000
# 3 43.1425 14.1803 57.1572 0.0000 -17.4835 0.0000
# 4 0.0000 0.0000 0.0000 1.1186 0.0000 -3.6271
# 5 -22.4422 -7.9299 -17.4835 0.0000 53.3404 0.0000
# 6 0.0000 0.0000 0.0000 -3.6271 0.0000 20.0731
#
#
#
# Elastic Compliance Matrix: (Units=1/GPa)
#
#
# Indices 1 2 3 4 5 6 
#
# 1 0.054558 -0.000148 -0.037933 0.000000 0.010499 0.000000
# 2 -0.000148 0.006958 -0.001464 0.000000 0.000492 0.000000
# 3 -0.037933 -0.001464 0.046171 0.000000 -0.001044 0.000000
# 4 0.000000 0.000000 0.000000 2.158733 0.000000 0.390074
# 5 0.010499 0.000492 -0.001044 0.000000 0.022896 0.000000
# 6 0.000000 0.000000 0.000000 0.390074 0.000000 0.120303
#
#
# Mechanical properties :
#
#
# Convention : Reuss Voigt Hill
#
# Bulk Modulus (GPa) = 34.96641 43.95094 39.45867
# Shear Modulus (GPa) = 2.00141 27.45552 14.72846
#
# Velocity S-wave (km/s) = 0.90586 3.35512 2.45738
# Velocity P-wave (km/s) = 3.92815 5.74709 4.92237
#
# Compressibility (1/GPa) = 0.02859888
#
# Stress axis : x y z
#
# Youngs Moduli (GPa) = 18.32900 143.71619 21.65844
#
# Poissons Ratio (x) = 0.02123 0.82156
# Poissons Ratio (y) = 0.00271 0.03171
# Poissons Ratio (z) = 0.69527 0.21043
#
# Static dielectric constant tensor:
#      x y z
#    x 1.988860 0.000000 -0.049970 
#    y 0.000000 1.939150 0.000000 
#    z -0.049970 0.000000 1.969410 
# 
# From -- ./inp_files/58953.got.cif
#   From: 2010.05.17/outbox.cif.g08.bks.cpg/sg12_30_cif.got.tgz:58953.got - 2010.06.03 13:09:07.
