data_PCOD9203665
_publ_section_title
;
Structure prediction by ZEFSAII (Michael W. Deem and Ramdas Pophale) SiO2 
 PCOD9203665
Probable space group: C 2/M
;
_chemical_formula_sum "Si O2"
_cell_formula_units_Z 50
_cell_length_a 12.179105
_cell_length_b 13.851550
_cell_length_c 21.846655
_cell_angle_alpha 90.000000
_cell_angle_beta 147.464222
_cell_angle_gamma 90.000000
_cell_volume 1982.168714
_symmetry_space_group_name_H-M "C 2/M"
_symmetry_group_IT_number 12
_symmetry_cell_setting 'monoclinic'
loop_
_space_group_symop_operation_xyz
x,y,z
-x,y,-z
-x,-y,-z
x,-y,z
1/2+x,1/2+y,z
1/2-x,1/2+y,-z
1/2-x,1/2-y,-z
1/2+x,1/2-y,z
loop_
_atom_site_type_symbol
_atom_site_label
_atom_site_fract_x
_atom_site_fract_y
_atom_site_fract_z
Si Si1 0.672430 0.854204 0.627521
Si Si2 0.829532 0.108519 0.838023
Si Si3 0.449059 0.391123 0.280125
Si Si4 0.497605 0.809463 0.079473
Si Si5 0.438816 0.105873 0.172406
Si Si6 0.500000 0.000000 0.000000
Si Si7 0.916305 0.866103 0.396683
O O1 0.500000 0.897592 0.500000
O O2 0.739443 0.890784 0.726313
O O3 0.586308 0.749186 0.602167
O O4 0.880491 0.853641 0.685466
O O5 0.989869 0.194357 0.927466
O O6 0.648294 0.125181 0.801822
O O7 0.908416 0.000000 0.885496
O O8 0.381154 0.500000 0.229319
O O9 0.242374 0.331254 0.189378
O O10 0.529047 0.395481 0.387486
O O11 0.410103 0.815520 0.106560
O O12 0.418438 0.907605 0.007709
O O13 0.683497 0.101299 0.286799
O O14 0.365300 0.000000 0.119037
O O15 0.000000 0.899881 0.500000
#
# Coordination Sequence:
#
# PCOD9203665 Si02
#       7
#     8   8   8   8   8   2   8
#     4  11  24  38  61  96 142 195 244 271 312 388
#     4  11  24  41  67  95 142 194 219 276 340 401
#     4  11  22  39  62  91 136 173 229 291 333 393
#     4  11  22  44  73 106 128 168 229 284 357 412
#     4  10  20  39  65  91 136 178 229 276 346 409
#     4  12  24  48  86 112 122 160 222 306 348 436
#     4  10  21  33  57  88 126 182 236 290 331 373
#
# _framework density 25.224896000000001
#
# number of rings (size 3 to 8) (size 9 to 14) (size 15 to 20)
#    0.000    1.280    4.800    2.880    2.240    3.840 
#    0.000    1.200    0.000    0.000    0.000    0.000 
#    0.000    0.000    0.000    0.000    0.000    0.000 
#
# Total GULP energy -139217.111821 kJ/mol
# GULP energy per Si atom -5568.684473 kJ/mol
# Density = 2.516748 g / cm^3
# Si number density = 25.224896 Si / 1000 Ang^3
#
#
#
# Elastic Constant Matrix: (Units=GPa)
#
#
# Indices 1 2 3 4 5 6 
#
# 1 222.7748 21.8975 55.5932 0.0000 -34.2273 0.0000
# 2 21.8975 200.5873 13.6970 0.0000 -22.8494 0.0000
# 3 55.5932 13.6970 78.1139 -0.0001 -14.4442 -0.0002
# 4 0.0000 0.0000 -0.0001 -2.5913 0.0000 -5.9720
# 5 -34.2273 -22.8494 -14.4442 0.0000 41.3664 -0.0001
# 6 0.0000 0.0000 -0.0002 -5.9720 -0.0001 25.2405
#
#
#
# Elastic Compliance Matrix: (Units=1/GPa)
#
#
# Indices 1 2 3 4 5 6 
#
# 1 0.005939 0.000013 -0.003548 0.000000 0.003682 0.000000
# 2 0.000013 0.005333 -0.000425 0.000000 0.002808 0.000000
# 3 -0.003548 -0.000425 0.015838 0.000000 0.002360 0.000000
# 4 0.000000 0.000000 0.000000 -0.249728 0.000000 -0.059087
# 5 0.003682 0.002808 0.002360 0.000000 0.029596 0.000000
# 6 0.000000 0.000000 0.000000 -0.059087 0.000000 0.025639
#
#
# Mechanical properties :
#
#
# Convention : Reuss Voigt Hill
#
# Bulk Modulus (GPa) = 52.11193 75.98349 64.04771
# Shear Modulus (GPa) = -32.66522 40.15565 3.74521
#
# Velocity S-wave (km/s) = -3.60246 3.99420 1.21982
# Velocity P-wave (km/s) = 1.84395 7.17351 5.23734
#
# Compressibility (1/GPa) = 0.01918946
#
# Stress axis : x y z
#
# Youngs Moduli (GPa) = 168.38813 187.51750 63.14012
#
# Poissons Ratio (x) = -0.00252 0.22402
# Poissons Ratio (y) = -0.00226 0.02686
# Poissons Ratio (z) = 0.59744 0.07976
#
# Static dielectric constant tensor:
#      x y z
#    x 1.896200 0.000000 -0.190170 
#    y 0.000000 2.095960 0.000000 
#    z -0.190170 0.000000 1.738860 
# 
# From -- ./inp_files/336083.got.cif
#   From: 2010.05.17/outbox.cif.g08.bks.cpg/sg12_169_cif.got.tgz:336083.got - 2010.06.03 13:09:07.
