data_PCOD9203522
_publ_section_title
;
Structure prediction by ZEFSAII (Michael W. Deem and Ramdas Pophale) SiO2 
 PCOD9203522
Probable space group: C 2/M
;
_chemical_formula_sum "Si O2"
_cell_formula_units_Z 56
_cell_length_a 19.083819
_cell_length_b 8.757221
_cell_length_c 18.700235
_cell_angle_alpha 90.000000
_cell_angle_beta 111.264272
_cell_angle_gamma 90.000000
_cell_volume 2912.434439
_symmetry_space_group_name_H-M "C 2/M"
_symmetry_group_IT_number 12
_symmetry_cell_setting 'monoclinic'
loop_
_space_group_symop_operation_xyz
x,y,z
-x,y,-z
-x,-y,-z
x,-y,z
1/2+x,1/2+y,z
1/2-x,1/2+y,-z
1/2-x,1/2-y,-z
1/2+x,1/2-y,z
loop_
_atom_site_type_symbol
_atom_site_label
_atom_site_fract_x
_atom_site_fract_y
_atom_site_fract_z
Si Si1 0.823764 0.316226 0.988376
Si Si2 0.225787 0.685512 0.707321
Si Si3 0.866490 0.183767 0.850724
Si Si4 0.071732 0.315445 0.721281
Si Si5 0.461862 0.326905 0.563460
Si Si6 0.807723 0.681009 0.465903
Si Si7 0.527166 0.183895 0.865730
O O1 0.817947 0.500000 0.983713
O O2 0.835253 0.249280 0.913617
O O3 0.750000 0.250000 0.000000
O O4 0.899717 0.276542 0.060240
O O5 0.225991 0.500000 0.705869
O O6 0.306741 0.732505 0.767425
O O7 0.157473 0.730149 0.734596
O O8 0.206817 0.739764 0.620243
O O9 0.950135 0.242924 0.865212
O O10 0.867338 0.000000 0.854501
O O11 0.067785 0.500000 0.714555
O O12 0.045293 0.271799 0.790678
O O13 0.018011 0.242543 0.642159
O O14 0.500000 0.331884 0.500000
O O15 0.440820 0.500000 0.576360
O O16 0.389049 0.225096 0.525003
O O17 0.799725 0.500000 0.460582
O O18 0.750000 0.750000 0.500000
O O19 0.518622 0.000000 0.865372
#
# Coordination Sequence:
#
# PCOD9203522 Si02
#       7
#     8   8   8   8   8   8   8
#     4  11  23  42  67  93 125 161 202 249 300 359
#     4   9  20  39  61  85 118 160 202 249 304 359
#     4  11  23  40  63  92 127 163 201 247 298 359
#     4  10  20  39  64  86 114 158 208 250 301 365
#     4  11  23  39  59  88 123 157 200 255 308 360
#     4  11  23  40  62  87 120 161 206 254 308 365
#     4  10  23  41  62  91 125 160 198 248 303 358
#
# _framework density 19.227900999999999
#
# number of rings (size 3 to 8) (size 9 to 14) (size 15 to 20)
#    0.000    1.571    1.429    3.000    2.000    6.286 
#    0.000    5.000    0.000    0.000    0.000    0.000 
#    0.000    0.000    0.000    0.000    0.000    0.000 
#
# Total GULP energy -156443.435573 kJ/mol
# GULP energy per Si atom -5587.265556 kJ/mol
# Density = 1.918414 g / cm^3
# Si number density = 19.227901 Si / 1000 Ang^3
#
#
#
# Elastic Constant Matrix: (Units=GPa)
#
#
# Indices 1 2 3 4 5 6 
#
# 1 152.9672 36.7369 48.3464 0.0000 7.8630 0.0000
# 2 36.7369 41.8880 21.7111 0.0000 2.7050 0.0000
# 3 48.3464 21.7111 77.5437 0.0000 18.9492 0.0000
# 4 0.0000 0.0000 0.0000 25.1316 0.0000 -2.2947
# 5 7.8630 2.7050 18.9492 0.0000 36.6769 0.0000
# 6 0.0000 0.0000 0.0000 -2.2947 0.0000 33.2942
#
#
#
# Elastic Compliance Matrix: (Units=1/GPa)
#
#
# Indices 1 2 3 4 5 6 
#
# 1 0.009291 -0.005972 -0.004282 0.000000 0.000661 0.000000
# 2 -0.005972 0.031929 -0.005670 0.000000 0.001855 0.000000
# 3 -0.004282 -0.005670 0.019258 0.000000 -0.008614 0.000000
# 4 0.000000 0.000000 0.000000 0.040043 0.000000 0.002760
# 5 0.000661 0.001855 -0.008614 0.000000 0.031437 0.000000
# 6 0.000000 0.000000 0.000000 0.002760 0.000000 0.030225
#
#
# Mechanical properties :
#
#
# Convention : Reuss Voigt Hill
#
# Bulk Modulus (GPa) = 34.92695 53.99863 44.46279
# Shear Modulus (GPa) = 24.56102 30.06083 27.31093
#
# Velocity S-wave (km/s) = 3.57790 3.95827 3.77288
# Velocity P-wave (km/s) = 5.93908 7.00250 6.49260
#
# Compressibility (1/GPa) = 0.02863118
#
# Stress axis : x y z
#
# Youngs Moduli (GPa) = 107.63162 31.31906 51.92592
#
# Poissons Ratio (x) = 0.18702 0.22236
# Poissons Ratio (y) = 0.64273 0.29441
# Poissons Ratio (z) = 0.46090 0.17758
#
# Static dielectric constant tensor:
#      x y z
#    x 1.611640 0.000000 -0.010310 
#    y 0.000000 1.658250 0.000000 
#    z -0.010310 0.000000 1.650490 
# 
# From -- ./inp_files/275610.got.cif
#   From: 2010.05.17/outbox.cif.g08.bks.cpg/sg12_138_cif.got.tgz:275610.got - 2010.06.03 13:09:07.
