data_PCOD9203905
_publ_section_title
;
Structure prediction by ZEFSAII (Michael W. Deem and Ramdas Pophale) SiO2 
 PCOD9203905
Probable space group: C 2/M
;
_chemical_formula_sum "Si O2"
_cell_formula_units_Z 44
_cell_length_a 19.874815
_cell_length_b 26.699780
_cell_length_c 11.686144
_cell_angle_alpha 90.000000
_cell_angle_beta 158.089196
_cell_angle_gamma 90.000000
_cell_volume 2314.090168
_symmetry_space_group_name_H-M "C 2/M"
_symmetry_group_IT_number 12
_symmetry_cell_setting 'monoclinic'
loop_
_space_group_symop_operation_xyz
x,y,z
-x,y,-z
-x,-y,-z
x,-y,z
1/2+x,1/2+y,z
1/2-x,1/2+y,-z
1/2-x,1/2-y,-z
1/2+x,1/2-y,z
loop_
_atom_site_type_symbol
_atom_site_label
_atom_site_fract_x
_atom_site_fract_y
_atom_site_fract_z
Si Si1 0.500000 0.729423 0.000000
Si Si2 0.791697 0.906728 0.136485
Si Si3 0.360200 0.198051 0.175498
Si Si4 0.786607 0.500000 0.150188
Si Si5 0.124063 0.690412 0.380900
Si Si6 0.209403 0.000000 0.294252
Si Si7 0.526083 0.080540 0.173876
O O1 0.675927 0.696826 0.253138
O O2 0.566334 0.765723 0.204477
O O3 0.000000 0.907295 0.500000
O O4 0.753440 0.853200 0.015171
O O5 0.653686 0.916423 0.027269
O O6 0.763570 0.951139 0.001676
O O7 0.500000 0.196813 0.500000
O O8 0.482875 0.195477 0.258125
O O9 0.250000 0.250000 0.000000
O O10 0.710487 0.500000 0.158241
O O11 0.000000 0.500000 0.500000
O O12 0.102111 0.636870 0.287698
O O13 0.325670 0.046616 0.527565
O O14 0.000000 0.000000 0.000000
O O15 0.500000 0.063569 0.000000
#
# Coordination Sequence:
#
# PCOD9203905 Si02
#       7
#     4   8   8   4   8   4   8
#     4  10  20  40  60  90 124 172 212 256 314 386
#     4  11  25  43  71  97 129 183 220 271 340 394
#     4  11  23  41  63  97 133 170 219 276 323 387
#     4  12  23  48  68  96 131 166 220 280 326 406
#     4  10  22  39  63  91 126 170 213 260 324 377
#     4  12  29  44  70 102 129 170 220 275 340 386
#     4  11  24  46  65  96 137 170 218 273 329 401
#
# _framework density 19.013952
#
# number of rings (size 3 to 8) (size 9 to 14) (size 15 to 20)
#    0.000    1.091    2.727    2.727    6.364    1.455 
#    3.273    0.000    0.000    0.000    0.000    0.000 
#    0.000    0.000    0.000    0.000    0.000    0.000 
#
# Total GULP energy -122754.414542 kJ/mol
# GULP energy per Si atom -5579.746116 kJ/mol
# Density = 1.897068 g / cm^3
# Si number density = 19.013952 Si / 1000 Ang^3
#
#
#
# Elastic Constant Matrix: (Units=GPa)
#
#
# Indices 1 2 3 4 5 6 
#
# 1 92.3061 54.5140 52.3100 0.0000 -11.3956 0.0000
# 2 54.5140 144.9671 87.2570 0.0000 -3.3747 0.0000
# 3 52.3100 87.2570 184.5367 0.0000 3.6917 0.0000
# 4 0.0000 0.0000 0.0000 43.4257 0.0000 -3.4401
# 5 -11.3956 -3.3747 3.6917 0.0000 36.8745 0.0000
# 6 0.0000 0.0000 0.0000 -3.4401 0.0000 30.7317
#
#
#
# Elastic Compliance Matrix: (Units=1/GPa)
#
#
# Indices 1 2 3 4 5 6 
#
# 1 0.015236 -0.004149 -0.002449 0.000000 0.004574 0.000000
# 2 -0.004149 0.010839 -0.003951 0.000000 0.000105 0.000000
# 3 -0.002449 -0.003951 0.008020 0.000000 -0.001921 0.000000
# 4 0.000000 0.000000 0.000000 0.023234 0.000000 0.002601
# 5 0.004574 0.000105 -0.001921 0.000000 0.028735 0.000000
# 6 0.000000 0.000000 0.000000 0.002601 0.000000 0.032831
#
#
# Mechanical properties :
#
#
# Convention : Reuss Voigt Hill
#
# Bulk Modulus (GPa) = 76.93911 89.99688 83.46799
# Shear Modulus (GPa) = 34.64417 37.38831 36.01624
#
# Velocity S-wave (km/s) = 4.27317 4.43918 4.35696
# Velocity P-wave (km/s) = 8.05599 8.58544 8.32493
#
# Compressibility (1/GPa) = 0.01299729
#
# Stress axis : x y z
#
# Youngs Moduli (GPa) = 65.63310 92.25879 124.69214
#
# Poissons Ratio (x) = 0.38280 0.30531
# Poissons Ratio (y) = 0.27233 0.49267
# Poissons Ratio (z) = 0.16070 0.36453
#
# Static dielectric constant tensor:
#      x y z
#    x 1.609450 0.000000 0.014550 
#    y 0.000000 1.549010 0.000000 
#    z 0.014550 0.000000 1.645360 
# 
# From -- ./inp_files/170654.got.cif
#   From: 2010.05.17/outbox.cif.g08.bks.cpg/sg12_86_cif.got.tgz:170654.got - 2010.06.03 13:09:07.
