data_PCOD9203347
_publ_section_title
;
Structure prediction by ZEFSAII (Michael W. Deem and Ramdas Pophale) SiO2 
 PCOD9203347
Probable space group: C 2/M
;
_chemical_formula_sum "Si O2"
_cell_formula_units_Z 56
_cell_length_a 10.557720
_cell_length_b 15.897701
_cell_length_c 16.913843
_cell_angle_alpha 90.000000
_cell_angle_beta 124.416822
_cell_angle_gamma 90.000000
_cell_volume 2341.925725
_symmetry_space_group_name_H-M "C 2/M"
_symmetry_group_IT_number 12
_symmetry_cell_setting 'monoclinic'
loop_
_space_group_symop_operation_xyz
x,y,z
-x,y,-z
-x,-y,-z
x,-y,z
1/2+x,1/2+y,z
1/2-x,1/2+y,-z
1/2-x,1/2-y,-z
1/2+x,1/2-y,z
loop_
_atom_site_type_symbol
_atom_site_label
_atom_site_fract_x
_atom_site_fract_y
_atom_site_fract_z
Si Si1 0.168829 0.593181 0.386506
Si Si2 0.621564 0.246387 0.888151
Si Si3 0.519542 0.243153 0.415227
Si Si4 0.429013 0.094443 0.886550
Si Si5 0.663554 0.142848 0.755684
Si Si6 0.486316 0.409601 0.901668
Si Si7 0.613937 0.405449 0.690746
O O1 0.189678 0.500000 0.431372
O O2 0.154057 0.676698 0.436674
O O3 0.290597 0.600091 0.358765
O O4 0.997734 0.596110 0.288862
O O5 0.503285 0.173474 0.869594
O O6 0.685580 0.216227 0.827794
O O7 0.547359 0.336930 0.867770
O O8 0.750000 0.250000 0.000000
O O9 0.500000 0.260658 0.500000
O O10 0.366000 0.189963 0.336839
O O11 0.506172 0.328828 0.359204
O O12 0.246648 0.099969 0.804733
O O13 0.473071 0.000000 0.874007
O O14 0.500000 0.099793 0.000000
O O15 0.808928 0.086069 0.816929
O O16 0.564348 0.500000 0.918520
O O17 0.500000 0.387943 0.000000
O O18 0.546572 0.500000 0.671968
#
# Coordination Sequence:
#
# PCOD9203347 Si02
#       7
#     8   8   8   8   8   8   8
#     4   9  20  38  62  88 114 151 196 241 296 358
#     4  12  23  36  58  87 121 160 197 237 288 353
#     4  10  23  39  62  89 117 153 199 251 302 350
#     4  10  21  35  56  83 114 153 195 238 283 340
#     4  10  22  38  61  84 118 156 195 243 291 352
#     4  11  23  39  59  89 126 162 198 242 297 352
#     4  10  20  39  62  85 117 157 199 241 292 356
#
# _framework density 23.911943999999998
#
# number of rings (size 3 to 8) (size 9 to 14) (size 15 to 20)
#    0.857    0.857    2.857    1.714    2.000    2.286 
#    0.000    0.714    0.000    2.571    0.000    0.000 
#    0.000    0.000    0.000    0.000    0.000    0.000 
#
# Total GULP energy -156261.459109 kJ/mol
# GULP energy per Si atom -5580.766397 kJ/mol
# Density = 2.385752 g / cm^3
# Si number density = 23.911944 Si / 1000 Ang^3
#
#
#
# Elastic Constant Matrix: (Units=GPa)
#
#
# Indices 1 2 3 4 5 6 
#
# 1 34.5709 38.9447 7.4332 0.0000 -0.4084 0.0000
# 2 38.9447 191.7809 31.8008 0.0000 -4.6383 0.0000
# 3 7.4332 31.8008 99.6793 0.0000 -13.0573 0.0000
# 4 0.0000 0.0000 0.0000 -10.1598 0.0000 50.7352
# 5 -0.4084 -4.6383 -13.0573 0.0000 24.1362 0.0000
# 6 0.0000 0.0000 0.0000 50.7352 0.0000 -68.8301
#
#
#
# Elastic Compliance Matrix: (Units=1/GPa)
#
#
# Indices 1 2 3 4 5 6 
#
# 1 0.037547 -0.007563 -0.000532 0.000000 -0.001106 0.000000
# 2 -0.007563 0.007029 -0.001634 0.000000 0.000339 0.000000
# 3 -0.000532 -0.001634 0.011356 0.000000 0.005820 0.000000
# 4 0.000000 0.000000 0.000000 0.036714 0.000000 0.027062
# 5 -0.001106 0.000339 0.005820 0.000000 0.044626 0.000000
# 6 0.000000 0.000000 0.000000 0.027062 0.000000 0.005419
#
#
# Mechanical properties :
#
#
# Convention : Reuss Voigt Hill
#
# Bulk Modulus (GPa) = 27.41703 53.59872 40.50787
# Shear Modulus (GPa) = 28.68473 5.55276 17.11874
#
# Velocity S-wave (km/s) = 3.46728 1.52552 2.67855
# Velocity P-wave (km/s) = 5.24596 5.05635 5.15203
#
# Compressibility (1/GPa) = 0.03647368
#
# Stress axis : x y z
#
# Youngs Moduli (GPa) = 26.63296 142.26134 88.06236
#
# Poissons Ratio (x) = 1.07596 0.04684
# Poissons Ratio (y) = 0.20143 0.14391
# Poissons Ratio (z) = 0.01417 0.23248
#
# Static dielectric constant tensor:
#      x y z
#    x 1.920630 0.000000 0.011260 
#    y 0.000000 1.882280 0.000000 
#    z 0.011260 0.000000 1.914520 
# 
# From -- ./inp_files/310866.got.cif
#   From: 2010.05.17/outbox.cif.g08.bks.cpg/sg12_156_cif.got.tgz:310866.got - 2010.06.03 13:09:07.
