data_PCOD9203867
_publ_section_title
;
Structure prediction by ZEFSAII (Michael W. Deem and Ramdas Pophale) SiO2 
 PCOD9203867
Probable space group: C 2/M
;
_chemical_formula_sum "Si O2"
_cell_formula_units_Z 48
_cell_length_a 15.830979
_cell_length_b 26.055538
_cell_length_c 12.297772
_cell_angle_alpha 90.000000
_cell_angle_beta 28.083278
_cell_angle_gamma 90.000000
_cell_volume 2387.968815
_symmetry_space_group_name_H-M "C 2/M"
_symmetry_group_IT_number 12
_symmetry_cell_setting 'monoclinic'
loop_
_space_group_symop_operation_xyz
x,y,z
-x,y,-z
-x,-y,-z
x,-y,z
1/2+x,1/2+y,z
1/2-x,1/2+y,-z
1/2-x,1/2-y,-z
1/2+x,1/2-y,z
loop_
_atom_site_type_symbol
_atom_site_label
_atom_site_fract_x
_atom_site_fract_y
_atom_site_fract_z
Si Si1 0.575043 0.000000 0.792169
Si Si2 0.779076 0.279959 0.635933
Si Si3 0.941936 0.607663 0.941880
Si Si4 0.995415 0.000000 0.370282
Si Si5 0.267911 0.327267 0.526398
Si Si6 0.609135 0.612615 0.198576
Si Si7 0.795631 0.295721 0.862470
O O1 0.497455 0.052277 0.829805
O O2 0.500000 0.000000 0.000000
O O3 0.788858 0.000000 0.564350
O O4 0.680337 0.313772 0.656352
O O5 0.766122 0.222882 0.602795
O O6 0.720919 0.283206 0.826774
O O7 0.989342 0.295173 0.393061
O O8 0.069704 0.649953 0.746065
O O9 0.733327 0.619372 0.163992
O O10 0.000000 0.606653 0.000000
O O11 0.087600 0.948764 0.218512
O O12 0.000000 0.000000 0.500000
O O13 0.409175 0.365792 0.419165
O O14 0.717831 0.649426 0.991102
O O15 0.750000 0.250000 0.000000
#
# Coordination Sequence:
#
# PCOD9203867 Si02
#       7
#     4   8   8   4   8   8   8
#     4  10  20  40  58  92 129 167 210 270 338 390
#     4  10  24  42  64  97 136 178 228 277 329 398
#     4  11  23  37  61  92 134 171 213 271 332 398
#     4  12  24  40  68  98 135 174 223 282 341 414
#     4  11  23  41  65  97 130 177 225 267 333 400
#     4  12  25  41  64  97 133 175 223 270 345 401
#     4  11  23  42  68  95 136 180 223 277 338 396
#
# _framework density 20.100764999999999
#
# number of rings (size 3 to 8) (size 9 to 14) (size 15 to 20)
#    0.000    1.000    5.000    2.500    2.333    0.667 
#    0.000    0.000    0.000    5.000    0.000    0.000 
#    0.000    0.000    0.000    0.000    0.000    0.000 
#
# Total GULP energy -133907.636679 kJ/mol
# GULP energy per Si atom -5579.484862 kJ/mol
# Density = 2.005501 g / cm^3
# Si number density = 20.100765 Si / 1000 Ang^3
#
#
#
# Elastic Constant Matrix: (Units=GPa)
#
#
# Indices 1 2 3 4 5 6 
#
# 1 136.6385 51.7774 31.7652 -0.0023 6.7626 -0.0026
# 2 51.7774 132.3542 33.7919 0.0004 16.7478 -0.0003
# 3 31.7652 33.7919 75.8289 0.0018 -2.4657 0.0005
# 4 -0.0023 0.0004 0.0018 40.6553 0.0030 -23.4877
# 5 6.7626 16.7478 -2.4657 0.0030 44.5823 0.0019
# 6 -0.0026 -0.0003 0.0005 -23.4877 0.0019 43.3313
#
#
#
# Elastic Compliance Matrix: (Units=1/GPa)
#
#
# Indices 1 2 3 4 5 6 
#
# 1 0.008996 -0.002818 -0.002527 0.000001 -0.000446 0.000001
# 2 -0.002818 0.009962 -0.003373 0.000000 -0.003501 0.000000
# 3 -0.002527 -0.003373 0.015832 -0.000002 0.002526 -0.000001
# 4 0.000001 0.000000 -0.000002 0.035812 -0.000004 0.019412
# 5 -0.000446 -0.003501 0.002526 -0.000004 0.023953 -0.000003
# 6 0.000001 0.000000 -0.000001 0.019412 -0.000003 0.033600
#
#
# Mechanical properties :
#
#
# Convention : Reuss Voigt Hill
#
# Bulk Modulus (GPa) = 57.62458 64.38785 61.00621
# Shear Modulus (GPa) = 33.03064 40.87956 36.95510
#
# Velocity S-wave (km/s) = 4.05810 4.51458 4.29242
# Velocity P-wave (km/s) = 7.11953 7.69918 7.41502
#
# Compressibility (1/GPa) = 0.01735371
#
# Stress axis : x y z
#
# Youngs Moduli (GPa) = 111.16221 100.38203 63.16504
#
# Poissons Ratio (x) = 0.28283 0.15964
# Poissons Ratio (y) = 0.31320 0.21305
# Poissons Ratio (z) = 0.28094 0.33858
#
# Static dielectric constant tensor:
#      x y z
#    x 1.733010 0.000000 -0.012230 
#    y 0.000000 1.766540 0.000000 
#    z -0.012230 0.000000 1.729090 
# 
# From -- ./inp_files/149674.got.cif
#   From: 2010.05.17/outbox.cif.g08.bks.cpg/sg12_75_cif.got.tgz:149674.got - 2010.06.03 13:09:07.
