data_PCOD9203093
_publ_section_title
;
Structure prediction by ZEFSAII (Michael W. Deem and Ramdas Pophale) SiO2 
 PCOD9203093
Probable space group: C 2/M
;
_chemical_formula_sum "Si O2"
_cell_formula_units_Z 56
_cell_length_a 19.885723
_cell_length_b 15.463220
_cell_length_c 20.057261
_cell_angle_alpha 90.000000
_cell_angle_beta 23.580708
_cell_angle_gamma 90.000000
_cell_volume 2467.271072
_symmetry_space_group_name_H-M "C 2/M"
_symmetry_group_IT_number 12
_symmetry_cell_setting 'monoclinic'
loop_
_space_group_symop_operation_xyz
x,y,z
-x,y,-z
-x,-y,-z
x,-y,z
1/2+x,1/2+y,z
1/2-x,1/2+y,-z
1/2-x,1/2-y,-z
1/2+x,1/2-y,z
loop_
_atom_site_type_symbol
_atom_site_label
_atom_site_fract_x
_atom_site_fract_y
_atom_site_fract_z
Si Si1 0.883678 0.158758 0.541581
Si Si2 0.430862 0.102947 0.720959
Si Si3 0.538803 0.901228 0.894489
Si Si4 0.718659 0.672145 0.629351
Si Si5 0.027270 0.101507 0.683802
Si Si6 0.564885 0.604860 0.013324
Si Si7 0.357305 0.103936 0.931656
O O1 0.736360 0.096855 0.701735
O O2 0.778764 0.237845 0.605526
O O3 0.975692 0.120490 0.392651
O O4 0.000000 0.179408 0.500000
O O5 0.605236 0.120463 0.526656
O O6 0.256754 0.136143 0.847997
O O7 0.432003 0.139305 0.795294
O O8 0.412607 0.000000 0.741620
O O9 0.445366 0.859357 0.916920
O O10 0.472635 0.000000 0.958788
O O11 0.500000 0.857715 0.000000
O O12 0.653943 0.659870 0.612080
O O13 0.565994 0.636423 0.812452
O O14 0.073767 0.000000 0.651025
O O15 0.841419 0.115241 0.882108
O O16 0.565787 0.500000 0.016156
O O17 0.500000 0.630645 0.000000
O O18 0.389189 0.000000 0.901919
#
# Coordination Sequence:
#
# PCOD9203093 Si02
#       7
#     8   8   8   8   8   8   8
#     4  12  28  44  61  99 145 185 226 275 348 423
#     4  10  20  38  66  97 129 172 231 285 332 398
#     4  10  21  41  67  94 127 176 236 287 334 396
#     4  12  25  43  67 101 142 183 221 276 352 418
#     4  11  22  44  75 100 131 177 236 295 337 396
#     4  10  22  40  65  97 131 177 237 287 334 397
#     4   9  18  36  65  99 125 158 218 289 345 385
#
# _framework density 22.697140000000001
#
# number of rings (size 3 to 8) (size 9 to 14) (size 15 to 20)
#    0.000    1.429    1.429    3.857    2.000    4.000 
#    2.571    3.571    0.000    0.000    0.000    0.000 
#    0.000    0.000    0.000    0.000    0.000    0.000 
#
# Total GULP energy -156431.456777 kJ/mol
# GULP energy per Si atom -5586.837742 kJ/mol
# Density = 2.264548 g / cm^3
# Si number density = 22.697140 Si / 1000 Ang^3
#
#
#
# Elastic Constant Matrix: (Units=GPa)
#
#
# Indices 1 2 3 4 5 6 
#
# 1 145.6762 41.6365 43.1628 0.0021 -15.7667 -0.0013
# 2 41.6365 42.4375 -1.1626 -0.0038 -7.3716 0.0023
# 3 43.1628 -1.1626 79.4618 0.0069 -4.0910 -0.0017
# 4 0.0021 -0.0038 0.0069 -92.9228 0.0012 51.8230
# 5 -15.7667 -7.3716 -4.0910 0.0012 34.9843 -0.0002
# 6 -0.0013 0.0023 -0.0017 51.8230 -0.0002 -17.7248
#
#
#
# Elastic Compliance Matrix: (Units=1/GPa)
#
#
# Indices 1 2 3 4 5 6 
#
# 1 0.012660 -0.012208 -0.006936 0.000001 0.002322 0.000002
# 2 -0.012208 0.036262 0.007316 -0.000002 0.002995 -0.000002
# 3 -0.006936 0.007316 0.016477 -0.000001 0.000342 -0.000003
# 4 0.000001 -0.000002 -0.000001 0.017066 0.000000 0.049897
# 5 0.002322 0.002995 0.000342 0.000000 0.030302 -0.000001
# 6 0.000002 -0.000002 -0.000003 0.049897 -0.000001 0.089470
#
#
# Mechanical properties :
#
#
# Convention : Reuss Voigt Hill
#
# Bulk Modulus (GPa) = 23.95597 48.31656 36.13627
# Shear Modulus (GPa) = 20.85010 -2.87006 8.99002
#
# Velocity S-wave (km/s) = 3.03417 -1.12572 1.99235
# Velocity P-wave (km/s) = 4.78042 4.43216 4.60958
#
# Compressibility (1/GPa) = 0.04174325
#
# Stress axis : x y z
#
# Youngs Moduli (GPa) = 78.98843 27.57713 60.69135
#
# Poissons Ratio (x) = 0.33665 0.42095
# Poissons Ratio (y) = 0.96427 -0.44401
# Poissons Ratio (z) = 0.54785 -0.20175
#
# Static dielectric constant tensor:
#      x y z
#    x 1.811300 0.000000 0.022560 
#    y 0.000000 1.886130 0.000000 
#    z 0.022560 0.000000 1.823190 
# 
# From -- ./inp_files/322640.got.cif
#   From: 2010.05.17/outbox.cif.g08.bks.cpg/sg12_162_cif.got.tgz:322640.got - 2010.06.03 13:09:07.
