data_PCOD9203249
_publ_section_title
;
Structure prediction by ZEFSAII (Michael W. Deem and Ramdas Pophale) SiO2 
 PCOD9203249
Probable space group: C 2/M
;
_chemical_formula_sum "Si O2"
_cell_formula_units_Z 64
_cell_length_a 30.583787
_cell_length_b 17.901881
_cell_length_c 11.794471
_cell_angle_alpha 90.000000
_cell_angle_beta 32.554829
_cell_angle_gamma 90.000000
_cell_volume 3474.854185
_symmetry_space_group_name_H-M "C 2/M"
_symmetry_group_IT_number 12
_symmetry_cell_setting 'monoclinic'
loop_
_space_group_symop_operation_xyz
x,y,z
-x,y,-z
-x,-y,-z
x,-y,z
1/2+x,1/2+y,z
1/2-x,1/2+y,-z
1/2-x,1/2-y,-z
1/2+x,1/2-y,z
loop_
_atom_site_type_symbol
_atom_site_label
_atom_site_fract_x
_atom_site_fract_y
_atom_site_fract_z
Si Si1 0.522515 0.588147 0.619892
Si Si2 0.204252 0.586593 0.153955
Si Si3 0.954356 0.820125 0.217601
Si Si4 0.620854 0.344039 0.196189
Si Si5 0.957942 0.671897 0.911813
Si Si6 0.877296 0.414049 0.426076
Si Si7 0.327685 0.213229 0.386537
Si Si8 0.585726 0.168803 0.247857
O O1 0.529382 0.500000 0.587903
O O2 0.548321 0.612372 0.689286
O O3 0.431080 0.614296 0.788032
O O4 0.579040 0.630461 0.405369
O O5 0.225431 0.500000 0.087726
O O6 0.145862 0.590310 0.391154
O O7 0.154937 0.620689 0.157218
O O8 0.286017 0.631589 0.002662
O O9 0.871968 0.779015 0.360302
O O10 0.002438 0.754463 0.178855
O O11 0.000000 0.837933 0.000000
O O12 0.609598 0.255834 0.206184
O O13 0.925688 0.650194 0.859258
O O14 0.031249 0.617409 0.788269
O O15 0.888461 0.681679 0.157210
O O16 0.870717 0.500000 0.403610
O O17 0.817442 0.357619 0.491176
O O18 0.250000 0.250000 0.500000
O O19 0.500000 0.157787 0.500000
#
# Coordination Sequence:
#
# PCOD9203249 Si02
#       8
#     8   8   8   8   8   8   8   8
#     4  11  21  36  61  85 116 160 202 250 306 362
#     4  11  25  39  57  92 130 160 196 251 308 361
#     4   9  19  37  58  80 116 150 195 244 293 359
#     4  11  22  39  59  86 123 160 202 250 299 371
#     4  10  20  39  60  86 115 155 197 246 291 348
#     4  10  22  40  63  87 118 159 202 244 297 358
#     4  10  23  38  61  88 117 154 198 249 300 350
#     4  12  21  38  65  91 120 159 207 244 298 366
#
# _framework density 18.418039
#
# number of rings (size 3 to 8) (size 9 to 14) (size 15 to 20)
#    0.000    1.500    3.750    3.000    3.500    3.000 
#    0.000    0.625    0.000    0.000    0.000    0.000 
#    0.000    0.000    0.000    0.000    0.000    0.000 
#
# Total GULP energy -178659.465633 kJ/mol
# GULP energy per Si atom -5583.108301 kJ/mol
# Density = 1.837612 g / cm^3
# Si number density = 18.418039 Si / 1000 Ang^3
#
#
#
# Elastic Constant Matrix: (Units=GPa)
#
#
# Indices 1 2 3 4 5 6 
#
# 1 122.7001 33.5126 29.6626 0.0000 -2.4857 0.0000
# 2 33.5126 53.4009 1.5163 0.0000 -1.4476 0.0000
# 3 29.6626 1.5163 45.7778 0.0000 -16.3612 0.0000
# 4 0.0000 0.0000 0.0000 13.7567 0.0000 -1.5507
# 5 -2.4857 -1.4476 -16.3612 0.0000 19.9552 0.0000
# 6 0.0000 0.0000 0.0000 -1.5507 0.0000 28.1626
#
#
#
# Elastic Compliance Matrix: (Units=1/GPa)
#
#
# Indices 1 2 3 4 5 6 
#
# 1 0.012769 -0.007919 -0.010819 0.000000 -0.007854 0.000000
# 2 -0.007919 0.023676 0.006519 0.000000 0.006076 0.000000
# 3 -0.010819 0.006519 0.040068 0.000000 0.031977 0.000000
# 4 0.000000 0.000000 0.000000 0.073146 0.000000 0.004028
# 5 -0.007854 0.006076 0.031977 0.000000 0.075792 0.000000
# 6 0.000000 0.000000 0.000000 0.004028 0.000000 0.035730
#
#
# Mechanical properties :
#
#
# Convention : Reuss Voigt Hill
#
# Bulk Modulus (GPa) = 19.20354 39.02909 29.11632
# Shear Modulus (GPa) = 16.50286 22.85403 19.67845
#
# Velocity S-wave (km/s) = 2.99660 3.52639 3.27224
# Velocity P-wave (km/s) = 4.73518 6.14958 5.48813
#
# Compressibility (1/GPa) = 0.05207373
#
# Stress axis : x y z
#
# Youngs Moduli (GPa) = 78.31298 42.23730 24.95775
#
# Poissons Ratio (x) = 0.33449 0.27002
# Poissons Ratio (y) = 0.62018 -0.16269
# Poissons Ratio (z) = 0.84727 -0.27533
#
# Static dielectric constant tensor:
#      x y z
#    x 1.632540 0.000000 0.006620 
#    y 0.000000 1.618270 0.000000 
#    z 0.006620 0.000000 1.641040 
# 
# From -- ./inp_files/190026.got.cif
#   From: 2010.05.17/outbox.cif.g08.bks.cpg/sg12_96_cif.got.tgz:190026.got - 2010.06.03 13:09:07.
