data_PCOD9203224
_publ_section_title
;
Structure prediction by ZEFSAII (Michael W. Deem and Ramdas Pophale) SiO2 
 PCOD9203224
Probable space group: C 2/M
;
_chemical_formula_sum "Si O2"
_cell_formula_units_Z 36
_cell_length_a 14.577413
_cell_length_b 16.654334
_cell_length_c 15.434363
_cell_angle_alpha 90.000000
_cell_angle_beta 28.039932
_cell_angle_gamma 90.000000
_cell_volume 1761.466988
_symmetry_space_group_name_H-M "C 2/M"
_symmetry_group_IT_number 12
_symmetry_cell_setting 'monoclinic'
loop_
_space_group_symop_operation_xyz
x,y,z
-x,y,-z
-x,-y,-z
x,-y,z
1/2+x,1/2+y,z
1/2-x,1/2+y,-z
1/2-x,1/2-y,-z
1/2+x,1/2-y,z
loop_
_atom_site_type_symbol
_atom_site_label
_atom_site_fract_x
_atom_site_fract_y
_atom_site_fract_z
Si Si1 0.488559 0.000000 0.306134
Si Si2 0.790259 0.500000 0.131634
Si Si3 0.785921 0.000000 0.608725
Si Si4 0.783507 0.867594 0.374401
Si Si5 0.464606 0.641197 0.681083
Si Si6 0.546093 0.500000 0.062678
Si Si7 0.000000 0.740659 0.500000
O O1 0.431103 0.000000 0.251973
O O2 0.381524 0.075959 0.442009
O O3 0.720409 0.000000 0.121965
O O4 0.685087 0.500000 0.313887
O O5 0.715414 0.581158 0.148033
O O6 0.000000 0.500000 0.000000
O O7 0.879539 0.079398 0.489980
O O8 0.919156 0.824278 0.333493
O O9 0.937381 0.924845 0.197464
O O10 0.669480 0.811488 0.402932
O O11 0.415550 0.704886 0.648312
O O12 0.500000 0.500000 0.000000
#
# Coordination Sequence:
#
# PCOD9203224 Si02
#       7
#     4   4   4   8   8   4   4
#     4   9  20  38  62  86 115 146 200 252 291 337
#     4  11  20  33  61  88 115 144 196 252 297 339
#     4   9  17  35  61  82 104 150 194 239 299 338
#     4  10  23  38  62  91 116 156 203 241 294 356
#     4  10  20  39  59  85 117 153 194 245 292 348
#     4  11  21  39  64  87 117 154 198 253 294 342
#     4  12  20  38  62  80 122 166 196 226 296 366
#
# _framework density 20.43751
#
# number of rings (size 3 to 8) (size 9 to 14) (size 15 to 20)
#    0.000    1.778    2.222    4.667    3.111    1.778 
#    0.000    3.333    0.000    9.333    0.000    0.000 
#    0.000    0.000    0.000    0.000    0.000    0.000 
#
# Total GULP energy -100339.259335 kJ/mol
# GULP energy per Si atom -5574.403296 kJ/mol
# Density = 2.039099 g / cm^3
# Si number density = 20.437510 Si / 1000 Ang^3
#
#
#
# Elastic Constant Matrix: (Units=GPa)
#
#
# Indices 1 2 3 4 5 6 
#
# 1 176.4237 57.5438 26.4291 -0.0020 -37.9501 0.0047
# 2 57.5438 80.1077 21.0107 0.0087 -19.5992 0.0035
# 3 26.4291 21.0107 92.3104 0.0137 -33.4914 -0.0090
# 4 -0.0020 0.0087 0.0137 7.6482 -0.0034 2.8848
# 5 -37.9501 -19.5992 -33.4914 -0.0034 42.6759 -0.0035
# 6 0.0047 0.0035 -0.0090 2.8848 -0.0035 26.6743
#
#
#
# Elastic Compliance Matrix: (Units=1/GPa)
#
#
# Indices 1 2 3 4 5 6 
#
# 1 0.008376 -0.004791 0.000834 0.000009 0.005902 -0.000001
# 2 -0.004791 0.016900 -0.001684 -0.000017 0.002179 0.000000
# 3 0.000834 -0.001684 0.015331 -0.000024 0.012000 0.000009
# 4 0.000009 -0.000017 -0.000024 0.136311 -0.000008 -0.014742
# 5 0.005902 0.002179 0.012000 -0.000008 0.039099 0.000009
# 6 -0.000001 0.000000 0.000009 -0.014742 0.000009 0.039084
#
#
# Mechanical properties :
#
#
# Convention : Reuss Voigt Hill
#
# Bulk Modulus (GPa) = 34.10224 62.08989 48.09606
# Shear Modulus (GPa) = 18.10564 31.65688 24.88126
#
# Velocity S-wave (km/s) = 2.97964 3.93995 3.49296
# Velocity P-wave (km/s) = 5.34416 7.15150 6.31284
#
# Compressibility (1/GPa) = 0.02932359
#
# Stress axis : x y z
#
# Youngs Moduli (GPa) = 119.39492 59.17282 65.22601
#
# Poissons Ratio (x) = 0.28350 -0.05439
# Poissons Ratio (y) = 0.57203 0.10986
# Poissons Ratio (z) = -0.09956 0.09966
#
# Static dielectric constant tensor:
#      x y z
#    x 1.778320 0.000000 -0.019540 
#    y 0.000000 1.727640 0.000010 
#    z -0.019540 0.000010 1.898370 
# 
# From -- ./inp_files/270936.got.cif
#   From: 2010.05.17/outbox.cif.g08.bks.cpg/sg12_136_cif.got.tgz:270936.got - 2010.06.03 13:09:07.
