data_PCOD9203662
_publ_section_title
;
Structure prediction by ZEFSAII (Michael W. Deem and Ramdas Pophale) SiO2 
 PCOD9203662
Probable space group: C 2/M
;
_chemical_formula_sum "Si O2"
_cell_formula_units_Z 56
_cell_length_a 23.779066
_cell_length_b 13.335010
_cell_length_c 14.217720
_cell_angle_alpha 90.000000
_cell_angle_beta 29.663840
_cell_angle_gamma 90.000000
_cell_volume 2231.231570
_symmetry_space_group_name_H-M "C 2/M"
_symmetry_group_IT_number 12
_symmetry_cell_setting 'monoclinic'
loop_
_space_group_symop_operation_xyz
x,y,z
-x,y,-z
-x,-y,-z
x,-y,z
1/2+x,1/2+y,z
1/2-x,1/2+y,-z
1/2-x,1/2-y,-z
1/2+x,1/2-y,z
loop_
_atom_site_type_symbol
_atom_site_label
_atom_site_fract_x
_atom_site_fract_y
_atom_site_fract_z
Si Si1 0.470407 0.190436 0.906631
Si Si2 0.234026 0.619182 0.106151
Si Si3 0.249661 0.384414 0.291103
Si Si4 0.997957 0.322433 0.646172
Si Si5 0.954108 0.111626 0.698318
Si Si6 0.689127 0.817024 0.698808
Si Si7 0.069247 0.891768 0.731701
O O1 0.457420 0.181248 0.814229
O O2 0.591993 0.148252 0.766357
O O3 0.501905 0.306597 0.885204
O O4 0.366896 0.150673 0.119928
O O5 0.247440 0.500000 0.094746
O O6 0.271555 0.658375 0.153685
O O7 0.104667 0.637998 0.266969
O O8 0.323268 0.647810 0.894838
O O9 0.289092 0.500000 0.244297
O O10 0.287098 0.302354 0.314413
O O11 0.112457 0.384710 0.486439
O O12 0.025074 0.209930 0.567595
O O13 0.994754 0.098680 0.745900
O O14 0.962012 0.000000 0.645236
O O15 0.808366 0.858305 0.487840
O O16 0.076954 0.000000 0.766535
#
# Coordination Sequence:
#
# PCOD9203662 Si02
#       7
#     8   8   8   8   8   8   8
#     4  10  23  40  64  92 125 168 222 265 321 394
#     4  10  21  37  60  92 125 161 207 264 320 381
#     4  11  22  36  60  93 126 161 209 263 326 392
#     4  11  20  37  58  88 126 168 206 256 327 378
#     4   9  18  34  58  84 113 154 207 251 302 376
#     4  11  22  42  64  92 133 165 211 279 329 381
#     4  10  20  39  65  91 123 170 216 267 326 386
#
# _framework density 25.098246
#
# number of rings (size 3 to 8) (size 9 to 14) (size 15 to 20)
#    0.000    1.714    2.857    3.429    0.000    3.429 
#    0.000    5.000    0.000    2.571    0.000    0.000 
#    0.000    0.000    0.000    0.000    0.000    0.000 
#
# Total GULP energy -156197.671508 kJ/mol
# GULP energy per Si atom -5578.488268 kJ/mol
# Density = 2.504112 g / cm^3
# Si number density = 25.098246 Si / 1000 Ang^3
#
#
#
# Elastic Constant Matrix: (Units=GPa)
#
#
# Indices 1 2 3 4 5 6 
#
# 1 113.6853 -8.7313 34.4020 0.0000 -6.2804 0.0000
# 2 -8.7313 45.7942 7.2074 0.0000 -3.0500 0.0000
# 3 34.4020 7.2074 123.9045 0.0000 -5.7092 0.0000
# 4 0.0000 0.0000 0.0000 124.4680 0.0000 -52.9825
# 5 -6.2804 -3.0500 -5.7092 0.0000 41.6215 0.0000
# 6 0.0000 0.0000 0.0000 -52.9825 0.0000 33.8049
#
#
#
# Elastic Compliance Matrix: (Units=1/GPa)
#
#
# Indices 1 2 3 4 5 6 
#
# 1 0.009910 0.002421 -0.002833 0.000000 0.001284 0.000000
# 2 0.002421 0.022717 -0.001912 0.000000 0.001768 0.000000
# 3 -0.002833 -0.001912 0.008999 0.000000 0.000667 0.000000
# 4 0.000000 0.000000 0.000000 0.024138 0.000000 0.037831
# 5 0.001284 0.001768 0.000667 0.000000 0.024441 0.000000
# 6 0.000000 0.000000 0.000000 0.037831 0.000000 0.088875
#
#
# Mechanical properties :
#
#
# Convention : Reuss Voigt Hill
#
# Bulk Modulus (GPa) = 27.04308 38.79337 32.91822
# Shear Modulus (GPa) = 25.50298 56.67927 41.09112
#
# Velocity S-wave (km/s) = 3.19113 4.75731 4.05064
# Velocity P-wave (km/s) = 4.93721 6.75767 5.91786
#
# Compressibility (1/GPa) = 0.03697804
#
# Stress axis : x y z
#
# Youngs Moduli (GPa) = 100.90339 44.01965 111.11916
#
# Poissons Ratio (x) = -0.10657 0.31483
# Poissons Ratio (y) = -0.24429 0.21248
# Poissons Ratio (z) = 0.28589 0.08417
#
# Static dielectric constant tensor:
#      x y z
#    x 1.942450 0.000000 0.031610 
#    y 0.000000 2.070470 0.000000 
#    z 0.031610 0.000000 2.050850 
# 
# From -- ./inp_files/240914.got.cif
#   From: 2010.05.17/outbox.cif.g08.bks.cpg/sg12_121_cif.got.tgz:240914.got - 2010.06.03 13:09:07.
