data_PCOD9203556
_publ_section_title
;
Structure prediction by ZEFSAII (Michael W. Deem and Ramdas Pophale) SiO2 
 PCOD9203556
Probable space group: C 2/M
;
_chemical_formula_sum "Si O2"
_cell_formula_units_Z 64
_cell_length_a 20.161296
_cell_length_b 8.681346
_cell_length_c 31.049452
_cell_angle_alpha 90.000000
_cell_angle_beta 38.004884
_cell_angle_gamma 90.000000
_cell_volume 3346.176225
_symmetry_space_group_name_H-M "C 2/M"
_symmetry_group_IT_number 12
_symmetry_cell_setting 'monoclinic'
loop_
_space_group_symop_operation_xyz
x,y,z
-x,y,-z
-x,-y,-z
x,-y,z
1/2+x,1/2+y,z
1/2-x,1/2+y,-z
1/2-x,1/2-y,-z
1/2+x,1/2-y,z
loop_
_atom_site_type_symbol
_atom_site_label
_atom_site_fract_x
_atom_site_fract_y
_atom_site_fract_z
Si Si1 0.056153 0.182594 0.264850
Si Si2 0.348981 0.182854 0.328659
Si Si3 0.028801 0.684444 0.372585
Si Si4 0.766522 0.185897 0.281445
Si Si5 0.796393 0.315646 0.520911
Si Si6 0.426036 0.312785 0.122586
Si Si7 0.671604 0.686631 0.003307
Si Si8 0.217461 0.813895 0.881990
O O1 0.021294 0.232769 0.330562
O O2 0.171171 0.255842 0.194990
O O3 0.964954 0.244325 0.279506
O O4 0.063187 0.000000 0.258542
O O5 0.308391 0.236283 0.303075
O O6 0.266533 0.242480 0.407198
O O7 0.357216 0.000000 0.327093
O O8 0.029490 0.500000 0.364064
O O9 0.142360 0.725655 0.335792
O O10 0.924100 0.718181 0.454737
O O11 0.840528 0.231563 0.202992
O O12 0.773284 0.000000 0.282395
O O13 0.781687 0.500000 0.529441
O O14 0.750000 0.250000 0.500000
O O15 0.428842 0.500000 0.120190
O O16 0.379907 0.263539 0.099679
O O17 0.546959 0.262471 0.071686
O O18 0.674487 0.500000 0.003718
O O19 0.706217 0.734642 0.937319
O O20 0.750000 0.750000 0.000000
O O21 0.217856 0.000000 0.881372
#
# Coordination Sequence:
#
# PCOD9203556 Si02
#       8
#     8   8   8   8   8   8   8   8
#     4  12  24  38  62  92 122 158 208 260 305 366
#     4  12  26  42  60  87 126 165 206 257 311 366
#     4  10  21  40  66  92 123 159 200 251 309 370
#     4  10  21  40  64  91 123 161 203 253 307 367
#     4  11  22  38  63  93 123 161 206 254 307 367
#     4   9  18  37  65  90 118 158 205 248 295 362
#     4  10  22  38  60  92 125 161 203 249 301 360
#     4  10  20  39  64  89 120 162 208 251 300 363
#
# _framework density 19.126308999999999
#
# number of rings (size 3 to 8) (size 9 to 14) (size 15 to 20)
#    0.000    1.500    2.500    3.000    1.750    3.500 
#    0.000    3.125    0.000    1.500    0.000    0.000 
#    0.000    0.000    0.000    0.000    0.000    0.000 
#
# Total GULP energy -178834.658793 kJ/mol
# GULP energy per Si atom -5588.583087 kJ/mol
# Density = 1.908278 g / cm^3
# Si number density = 19.126309 Si / 1000 Ang^3
#
#
#
# Elastic Constant Matrix: (Units=GPa)
#
#
# Indices 1 2 3 4 5 6 
#
# 1 153.6106 26.5010 53.8392 -0.0001 -5.0146 0.0127
# 2 26.5010 10.6959 9.8948 0.0009 -2.5717 0.0016
# 3 53.8392 9.8948 90.5885 0.0005 -12.3390 -0.0001
# 4 -0.0001 0.0009 0.0005 19.6163 -0.0014 4.0708
# 5 -5.0146 -2.5717 -12.3390 -0.0014 35.0556 -0.0005
# 6 0.0127 0.0016 -0.0001 4.0708 -0.0005 32.8829
#
#
#
# Elastic Compliance Matrix: (Units=1/GPa)
#
#
# Indices 1 2 3 4 5 6 
#
# 1 0.013045 -0.028224 -0.004935 0.000002 -0.001941 -0.000004
# 2 -0.028224 0.165554 -0.000215 -0.000008 0.008032 0.000004
# 3 -0.004935 -0.000215 0.014597 0.000000 0.004416 0.000002
# 4 0.000002 -0.000008 0.000000 0.052322 0.000002 -0.006477
# 5 -0.001941 0.008032 0.004416 0.000002 0.030392 0.000001
# 6 -0.000004 0.000004 0.000002 -0.006477 0.000001 0.031213
#
#
# Mechanical properties :
#
#
# Convention : Reuss Voigt Hill
#
# Bulk Modulus (GPa) = 7.90830 48.37387 28.14109
# Shear Modulus (GPa) = 12.01863 28.48830 20.25346
#
# Velocity S-wave (km/s) = 2.50947 3.86357 3.25765
# Velocity P-wave (km/s) = 3.54124 6.72678 5.37540
#
# Compressibility (1/GPa) = 0.12644941
#
# Stress axis : x y z
#
# Youngs Moduli (GPa) = 76.65500 6.04031 68.50814
#
# Poissons Ratio (x) = 0.17048 0.33808
# Poissons Ratio (y) = 2.16352 0.01471
# Poissons Ratio (z) = 0.37828 0.00130
#
# Static dielectric constant tensor:
#      x y z
#    x 1.644770 0.000000 -0.017020 
#    y 0.000000 1.648770 0.000000 
#    z -0.017020 0.000000 1.657670 
# 
# From -- ./inp_files/378049.got.cif
#   From: 2010.05.17/outbox.cif.g08.bks.cpg/sg12_190_cif.got.tgz:378049.got - 2010.06.03 13:09:07.
