data_PCOD9203647
_publ_section_title
;
Structure prediction by ZEFSAII (Michael W. Deem and Ramdas Pophale) SiO2 
 PCOD9203647
Probable space group: C 2/M
;
_chemical_formula_sum "Si O2"
_cell_formula_units_Z 50
_cell_length_a 26.536121
_cell_length_b 7.739208
_cell_length_c 14.385026
_cell_angle_alpha 90.000000
_cell_angle_beta 124.157923
_cell_angle_gamma 90.000000
_cell_volume 2444.606761
_symmetry_space_group_name_H-M "C 2/M"
_symmetry_group_IT_number 12
_symmetry_cell_setting 'monoclinic'
loop_
_space_group_symop_operation_xyz
x,y,z
-x,y,-z
-x,-y,-z
x,-y,z
1/2+x,1/2+y,z
1/2-x,1/2+y,-z
1/2-x,1/2-y,-z
1/2+x,1/2-y,z
loop_
_atom_site_type_symbol
_atom_site_label
_atom_site_fract_x
_atom_site_fract_y
_atom_site_fract_z
Si Si1 0.943313 0.290830 0.505940
Si Si2 0.000000 0.500000 0.000000
Si Si3 0.667134 0.792535 0.733930
Si Si4 0.872567 0.701723 0.106083
Si Si5 0.918364 0.798966 0.867898
Si Si6 0.193149 0.293270 0.147574
Si Si7 0.487967 0.701546 0.754130
O O1 0.943406 0.500000 0.509146
O O2 0.881593 0.229868 0.392566
O O3 0.954862 0.229402 0.622097
O O4 0.000000 0.237418 0.500000
O O5 0.050792 0.655192 0.034558
O O6 0.650347 0.723486 0.819330
O O7 0.736360 0.754478 0.780598
O O8 0.659237 0.000000 0.729375
O O9 0.855702 0.500000 0.089346
O O10 0.945700 0.712779 0.178672
O O11 0.839429 0.775313 0.980724
O O12 0.846554 0.780120 0.808656
O O13 0.944764 0.743092 0.794679
O O14 0.934113 0.000000 0.901871
O O15 0.189092 0.500000 0.146518
O O16 0.499886 0.500000 0.780184
#
# Coordination Sequence:
#
# PCOD9203647 Si02
#       7
#     8   2   8   8   8   8   8
#     4  10  20  39  65  90 120 163 211 264 321 378
#     4  12  22  40  68  94 126 176 212 256 328 366
#     4  10  21  39  61  89 124 168 209 261 319 376
#     4  10  21  37  60  88 124 166 207 251 312 386
#     4  11  25  42  61  95 133 169 218 266 314 383
#     4  11  23  39  62  91 126 175 215 253 316 389
#     4  11  24  38  61  93 127 162 206 266 325 371
#
# _framework density 20.453188000000001
#
# number of rings (size 3 to 8) (size 9 to 14) (size 15 to 20)
#    0.000    1.440    2.400    2.640    4.480    4.160 
#    0.000    0.800    0.000    0.000    0.000    0.000 
#    0.000    0.000    0.000    0.000    0.000    0.000 
#
# Total GULP energy -139420.540843 kJ/mol
# GULP energy per Si atom -5576.821634 kJ/mol
# Density = 2.040664 g / cm^3
# Si number density = 20.453188 Si / 1000 Ang^3
#
#
#
# Elastic Constant Matrix: (Units=GPa)
#
#
# Indices 1 2 3 4 5 6 
#
# 1 155.5056 -1.0242 61.0028 0.0000 11.1346 0.0000
# 2 -1.0242 63.5033 -3.3590 0.0000 -0.2161 0.0000
# 3 61.0028 -3.3590 105.7287 0.0000 13.7882 0.0000
# 4 0.0000 0.0000 0.0000 36.2846 0.0000 -23.7124
# 5 11.1346 -0.2161 13.7882 0.0000 32.2657 0.0000
# 6 0.0000 0.0000 0.0000 -23.7124 0.0000 79.6703
#
#
#
# Elastic Compliance Matrix: (Units=1/GPa)
#
#
# Indices 1 2 3 4 5 6 
#
# 1 0.008336 -0.000117 -0.004700 0.000000 -0.000869 0.000000
# 2 -0.000117 0.015776 0.000582 0.000000 -0.000103 0.000000
# 3 -0.004700 0.000582 0.012683 0.000000 -0.003794 0.000000
# 4 0.000000 0.000000 0.000000 0.034215 0.000000 0.010183
# 5 -0.000869 -0.000103 -0.003794 0.000000 0.032913 0.000000
# 6 0.000000 0.000000 0.000000 0.010183 0.000000 0.015583
#
#
# Mechanical properties :
#
#
# Convention : Reuss Voigt Hill
#
# Bulk Modulus (GPa) = 35.30452 48.66409 41.98430
# Shear Modulus (GPa) = 36.38561 47.51867 41.95214
#
# Velocity S-wave (km/s) = 4.22236 4.82528 4.53385
# Velocity P-wave (km/s) = 6.40856 7.40871 6.92671
#
# Compressibility (1/GPa) = 0.02832499
#
# Stress axis : x y z
#
# Youngs Moduli (GPa) = 119.96433 63.38837 78.84440
#
# Poissons Ratio (x) = 0.00742 0.37056
# Poissons Ratio (y) = 0.01405 -0.04590
# Poissons Ratio (z) = 0.56383 -0.03690
#
# Static dielectric constant tensor:
#      x y z
#    x 1.757090 0.000000 -0.023890 
#    y 0.000000 1.762220 0.000000 
#    z -0.023890 0.000000 1.743160 
# 
# From -- ./inp_files/244376.got.cif
#   From: 2010.05.17/outbox.cif.g08.bks.cpg/sg12_123_cif.got.tgz:244376.got - 2010.06.03 13:09:07.
