data_PCOD9203323
_publ_section_title
;
Structure prediction by ZEFSAII (Michael W. Deem and Ramdas Pophale) SiO2 
 PCOD9203323
Probable space group: C 2/M
;
_chemical_formula_sum "Si O2"
_cell_formula_units_Z 52
_cell_length_a 23.169580
_cell_length_b 20.043076
_cell_length_c 4.762171
_cell_angle_alpha 90.000000
_cell_angle_beta 117.198575
_cell_angle_gamma 90.000000
_cell_volume 1966.972063
_symmetry_space_group_name_H-M "C 2/M"
_symmetry_group_IT_number 12
_symmetry_cell_setting 'monoclinic'
loop_
_space_group_symop_operation_xyz
x,y,z
-x,y,-z
-x,-y,-z
x,-y,z
1/2+x,1/2+y,z
1/2-x,1/2+y,-z
1/2-x,1/2-y,-z
1/2+x,1/2-y,z
loop_
_atom_site_type_symbol
_atom_site_label
_atom_site_fract_x
_atom_site_fract_y
_atom_site_fract_z
Si Si1 0.436231 0.207582 0.550298
Si Si2 0.000000 0.825666 0.000000
Si Si3 0.565059 0.069450 0.460583
Si Si4 0.132461 0.849962 0.266819
Si Si5 0.326030 0.427236 0.127234
Si Si6 0.692092 0.073923 0.133409
Si Si7 0.306665 0.775074 0.907678
O O1 0.500000 0.203356 0.500000
O O2 0.450012 0.274317 0.746615
O O3 0.432765 0.137879 0.708654
O O4 0.371387 0.215901 0.235175
O O5 0.941734 0.863172 0.019774
O O6 0.500000 0.068850 0.500000
O O7 0.625175 0.072386 0.808101
O O8 0.567584 0.000000 0.303030
O O9 0.139591 0.870979 0.606528
O O10 0.170931 0.908121 0.188933
O O11 0.171663 0.782942 0.262218
O O12 0.354704 0.500000 0.244761
O O13 0.251439 0.427850 0.049240
O O14 0.700209 0.151594 0.256984
O O15 0.695187 0.000000 0.291640
O O16 0.250000 0.750000 0.000000
#
# Coordination Sequence:
#
# PCOD9203323 Si02
#       7
#     8   4   8   8   8   8   8
#     4  10  20  39  61  91 136 181 230 289 365 420
#     4  12  26  42  68  98 140 184 234 298 368 434
#     4   8  15  31  60  90 127 180 236 287 342 420
#     4  12  26  46  74 108 141 189 238 298 359 431
#     4  11  25  48  74 106 146 186 235 297 369 435
#     4   9  19  37  64  99 142 189 231 287 355 418
#     4  11  21  40  68 108 140 185 243 301 349 428
#
# _framework density 26.436571000000001
#
# number of rings (size 3 to 8) (size 9 to 14) (size 15 to 20)
#    0.000    1.692    3.077    1.385    0.000    0.615 
#    0.000    2.692    0.000    0.923    0.000    0.000 
#    0.000    0.000    0.000    0.000    0.000    0.000 
#
# Total GULP energy -145148.431844 kJ/mol
# GULP energy per Si atom -5582.631994 kJ/mol
# Density = 2.637640 g / cm^3
# Si number density = 26.436571 Si / 1000 Ang^3
#
#
#
# Elastic Constant Matrix: (Units=GPa)
#
#
# Indices 1 2 3 4 5 6 
#
# 1 151.0875 18.4994 15.2473 0.0000 17.9968 0.0000
# 2 18.4994 162.2965 20.1880 0.0000 14.4962 0.0000
# 3 15.2473 20.1880 76.2002 0.0000 23.4489 0.0000
# 4 0.0000 0.0000 0.0000 16.8301 0.0000 16.7175
# 5 17.9968 14.4962 23.4489 0.0000 42.6197 0.0000
# 6 0.0000 0.0000 0.0000 16.7175 0.0000 -5.5162
#
#
#
# Elastic Compliance Matrix: (Units=1/GPa)
#
#
# Indices 1 2 3 4 5 6 
#
# 1 0.007032 -0.000515 -0.000495 0.000000 -0.002522 0.000000
# 2 -0.000515 0.006489 -0.001208 0.000000 -0.001325 0.000000
# 3 -0.000495 -0.001208 0.016073 0.000000 -0.008223 0.000000
# 4 0.000000 0.000000 0.000000 0.014816 0.000000 0.044902
# 5 -0.002522 -0.001325 -0.008223 0.000000 0.029503 0.000000
# 6 0.000000 0.000000 0.000000 0.044902 0.000000 -0.045204
#
#
# Mechanical properties :
#
#
# Convention : Reuss Voigt Hill
#
# Bulk Modulus (GPa) = 39.74809 55.27262 47.51036
# Shear Modulus (GPa) = 120.39312 33.16336 76.77824
#
# Velocity S-wave (km/s) = 6.75568 3.54566 5.39495
# Velocity P-wave (km/s) = 8.71322 6.14128 7.53776
#
# Compressibility (1/GPa) = 0.02515844
#
# Stress axis : x y z
#
# Youngs Moduli (GPa) = 142.20610 154.10962 62.21611
#
# Poissons Ratio (x) = 0.07933 0.03077
# Poissons Ratio (y) = 0.07320 0.07518
# Poissons Ratio (z) = 0.07033 0.18623
#
# Static dielectric constant tensor:
#      x y z
#    x 1.959920 0.000000 -0.294440 
#    y 0.000000 2.492680 0.000000 
#    z -0.294440 0.000000 1.746190 
# 
# From -- ./inp_files/25704.got.cif
#   From: 2010.05.17/outbox.cif.g08.bks.cpg/sg12_13_cif.got.tgz:25704.got - 2010.06.03 13:09:07.
