data_PCOD9203218
_publ_section_title
;
Structure prediction by ZEFSAII (Michael W. Deem and Ramdas Pophale) SiO2 
 PCOD9203218
Probable space group: C 2/M
;
_chemical_formula_sum "Si O2"
_cell_formula_units_Z 48
_cell_length_a 27.155003
_cell_length_b 12.478488
_cell_length_c 22.978376
_cell_angle_alpha 90.000000
_cell_angle_beta 162.740415
_cell_angle_gamma 90.000000
_cell_volume 2310.205717
_symmetry_space_group_name_H-M "C 2/M"
_symmetry_group_IT_number 12
_symmetry_cell_setting 'monoclinic'
loop_
_space_group_symop_operation_xyz
x,y,z
-x,y,-z
-x,-y,-z
x,-y,z
1/2+x,1/2+y,z
1/2-x,1/2+y,-z
1/2-x,1/2-y,-z
1/2+x,1/2-y,z
loop_
_atom_site_type_symbol
_atom_site_label
_atom_site_fract_x
_atom_site_fract_y
_atom_site_fract_z
Si Si1 0.415754 0.378068 0.964147
Si Si2 0.164214 0.000000 0.604085
Si Si3 0.228888 0.118107 0.404132
Si Si4 0.427420 0.304937 0.566473
Si Si5 0.267523 0.500000 0.186293
Si Si6 0.041047 0.122038 0.812911
Si Si7 0.254677 0.264318 0.139654
O O1 0.352727 0.500000 0.883360
O O2 0.565593 0.384618 0.179288
O O3 0.500000 0.339031 0.000000
O O4 0.284471 0.299550 0.845338
O O5 0.191991 0.893072 0.597492
O O6 0.249831 0.000000 0.763344
O O7 0.965070 0.000000 0.393481
O O8 0.341478 0.208985 0.503938
O O9 0.147191 0.136207 0.375172
O O10 0.308224 0.000000 0.492505
O O11 0.537968 0.363395 0.740518
O O12 0.551787 0.262146 0.657801
O O13 0.200825 0.388052 0.086135
O O14 0.090816 0.000000 0.883836
O O15 0.156485 0.205453 0.976840
#
# Coordination Sequence:
#
# PCOD9203218 Si02
#       7
#     8   4   8   8   4   8   8
#     4   9  19  38  59  79 110 152 189 232 291 346
#     4   9  20  36  57  80 117 160 179 231 291 345
#     4   9  20  35  54  81 114 147 185 234 290 340
#     4  11  20  36  59  87 112 148 197 236 286 338
#     4   9  20  38  54  83 122 147 189 232 290 342
#     4  10  20  39  59  81 115 154 192 234 290 350
#     4  10  21  36  59  84 112 149 193 238 281 344
#
# _framework density 20.777370999999999
#
# number of rings (size 3 to 8) (size 9 to 14) (size 15 to 20)
#    0.000    2.333    0.833    2.500    2.333    1.333 
#    1.500    3.750    0.000    3.000    0.000    0.000 
#    0.000    0.000    0.000    0.000    0.000    0.000 
#
# Total GULP energy -133903.090625 kJ/mol
# GULP energy per Si atom -5579.295443 kJ/mol
# Density = 2.073008 g / cm^3
# Si number density = 20.777371 Si / 1000 Ang^3
#
#
#
# Elastic Constant Matrix: (Units=GPa)
#
#
# Indices 1 2 3 4 5 6 
#
# 1 103.7878 32.0056 3.5605 0.0044 10.1127 0.0053
# 2 32.0056 144.8616 31.1765 0.0152 13.2859 0.0183
# 3 3.5605 31.1765 13.8190 0.0100 2.2894 0.0121
# 4 0.0044 0.0152 0.0100 -36.7725 0.0072 -71.1702
# 5 10.1127 13.2859 2.2894 0.0072 28.3929 0.0090
# 6 0.0053 0.0183 0.0121 -71.1702 0.0090 -48.5009
#
#
#
# Elastic Compliance Matrix: (Units=1/GPa)
#
#
# Indices 1 2 3 4 5 6 
#
# 1 0.010707 -0.003147 0.004793 0.000000 -0.002727 0.000000
# 2 -0.003147 0.014781 -0.032003 -0.000002 -0.003215 -0.000001
# 3 0.004793 -0.032003 0.143043 0.000011 0.001734 0.000008
# 4 0.000000 -0.000002 0.000011 0.014779 0.000003 -0.021687
# 5 -0.002727 -0.003215 0.001734 0.000003 0.037556 0.000002
# 6 0.000000 -0.000001 0.000008 -0.021687 0.000002 0.011205
#
#
# Mechanical properties :
#
#
# Convention : Reuss Voigt Hill
#
# Bulk Modulus (GPa) = 9.27503 43.99486 26.63495
# Shear Modulus (GPa) = 15.21030 1.67227 8.44129
#
# Velocity S-wave (km/s) = 2.70860 0.89811 2.01781
# Velocity P-wave (km/s) = 3.77567 4.72185 4.27502
#
# Compressibility (1/GPa) = 0.10781636
#
# Stress axis : x y z
#
# Youngs Moduli (GPa) = 93.39855 67.65503 6.99090
#
# Poissons Ratio (x) = 0.21290 -0.03351
# Poissons Ratio (y) = 0.29392 0.22373
# Poissons Ratio (z) = -0.44765 2.16517
#
# Static dielectric constant tensor:
#      x y z
#    x 1.785580 0.000000 0.005210 
#    y 0.000000 1.778190 0.000000 
#    z 0.005210 0.000000 1.733480 
# 
# From -- ./inp_files/351889.got.cif
#   From: 2010.05.17/outbox.cif.g08.bks.cpg/sg12_176_cif.got.tgz:351889.got - 2010.06.03 13:09:07.
