data_PCOD9203137
_publ_section_title
;
Structure prediction by ZEFSAII (Michael W. Deem and Ramdas Pophale) SiO2 
 PCOD9203137
Probable space group: C 2/M
;
_chemical_formula_sum "Si O2"
_cell_formula_units_Z 28
_cell_length_a 5.523458
_cell_length_b 19.646445
_cell_length_c 11.433077
_cell_angle_alpha 90.000000
_cell_angle_beta 118.100933
_cell_angle_gamma 90.000000
_cell_volume 1094.423561
_symmetry_space_group_name_H-M "C 2/M"
_symmetry_group_IT_number 12
_symmetry_cell_setting 'monoclinic'
loop_
_space_group_symop_operation_xyz
x,y,z
-x,y,-z
-x,-y,-z
x,-y,z
1/2+x,1/2+y,z
1/2-x,1/2+y,-z
1/2-x,1/2-y,-z
1/2+x,1/2-y,z
loop_
_atom_site_type_symbol
_atom_site_label
_atom_site_fract_x
_atom_site_fract_y
_atom_site_fract_z
Si Si1 0.000000 0.811571 0.500000
Si Si2 0.638146 0.715035 0.783379
Si Si3 0.029572 0.077266 0.869369
Si Si4 0.933135 0.427747 0.621172
O O1 0.532633 0.721893 0.379348
O O2 0.755082 0.863097 0.411199
O O3 0.929336 0.750942 0.828506
O O4 0.682013 0.637445 0.835806
O O5 0.720433 0.079570 0.750393
O O6 0.138021 0.000000 0.876398
O O7 0.000000 0.089942 0.000000
O O8 0.802346 0.500000 0.628513
O O9 0.000000 0.431636 0.500000
#
# Coordination Sequence:
#
# PCOD9203137 Si02
#       4
#     4   8   8   8
#     4  12  23  40  70 104 145 192 244 302 362 438
#     4  12  27  46  73 108 151 195 244 305 371 439
#     4  10  23  47  76 107 146 193 245 300 365 440
#     4  10  20  38  68 105 141 182 237 303 362 423
#
# _framework density 25.584244000000002
#
# number of rings (size 3 to 8) (size 9 to 14) (size 15 to 20)
#    0.000    1.143    2.857    3.000    0.000    2.286 
#    0.000    5.714    0.000   15.429    0.000    0.000 
#    0.000    0.000    0.000    0.000    0.000    0.000 
#
# Total GULP energy -78431.730971 kJ/mol
# GULP energy per Si atom -5602.266498 kJ/mol
# Density = 2.552601 g / cm^3
# Si number density = 25.584244 Si / 1000 Ang^3
#
#
#
# Elastic Constant Matrix: (Units=GPa)
#
#
# Indices 1 2 3 4 5 6 
#
# 1 105.8490 67.1378 25.4693 0.0000 -19.5889 0.0000
# 2 67.1378 183.2672 13.5635 0.0000 -22.5051 0.0000
# 3 25.4693 13.5635 144.7433 0.0000 -25.1340 0.0000
# 4 0.0000 0.0000 0.0000 29.6482 0.0000 -12.1208
# 5 -19.5889 -22.5051 -25.1340 0.0000 32.4022 0.0000
# 6 0.0000 0.0000 0.0000 -12.1208 0.0000 10.5752
#
#
#
# Elastic Compliance Matrix: (Units=1/GPa)
#
#
# Indices 1 2 3 4 5 6 
#
# 1 0.013184 -0.004238 -0.001213 0.000000 0.004085 0.000000
# 2 -0.004238 0.007332 0.000576 0.000000 0.002977 0.000000
# 3 -0.001213 0.000576 0.008102 0.000000 0.005951 0.000000
# 4 0.000000 0.000000 0.000000 0.063469 0.000000 0.072745
# 5 0.004085 0.002977 0.005951 0.000000 0.040015 0.000000
# 6 0.000000 0.000000 0.000000 0.072745 0.000000 0.177937
#
#
# Mechanical properties :
#
#
# Convention : Reuss Voigt Hill
#
# Bulk Modulus (GPa) = 53.00632 71.80006 62.40319
# Shear Modulus (GPa) = 15.33373 36.37104 25.85238
#
# Velocity S-wave (km/s) = 2.45080 3.77453 3.18225
# Velocity P-wave (km/s) = 5.36394 6.86449 6.16008
#
# Compressibility (1/GPa) = 0.01886568
#
# Stress axis : x y z
#
# Youngs Moduli (GPa) = 75.85174 136.38703 123.43185
#
# Poissons Ratio (x) = 0.57803 0.14975
# Poissons Ratio (y) = 0.32147 -0.07105
# Poissons Ratio (z) = 0.09203 -0.07850
#
# Static dielectric constant tensor:
#      x y z
#    x 2.065380 0.000000 -0.059220 
#    y 0.000000 2.137890 0.000000 
#    z -0.059220 0.000000 1.975880 
# 
# From -- ./inp_files/114372.got.cif
#   From: 2010.05.17/outbox.cif.g08.bks.cpg/sg12_58_cif.got.tgz:114372.got - 2010.06.03 13:09:07.
