data_PCOD9203026
_publ_section_title
;
Structure prediction by ZEFSAII (Michael W. Deem and Ramdas Pophale) SiO2 
 PCOD9203026
Probable space group: C 2/M
;
_chemical_formula_sum "Si O2"
_cell_formula_units_Z 50
_cell_length_a 32.177626
_cell_length_b 7.822446
_cell_length_c 10.422782
_cell_angle_alpha 90.000000
_cell_angle_beta 66.377390
_cell_angle_gamma 90.000000
_cell_volume 2403.658305
_symmetry_space_group_name_H-M "C 2/M"
_symmetry_group_IT_number 12
_symmetry_cell_setting 'monoclinic'
loop_
_space_group_symop_operation_xyz
x,y,z
-x,y,-z
-x,-y,-z
x,-y,z
1/2+x,1/2+y,z
1/2-x,1/2+y,-z
1/2-x,1/2-y,-z
1/2+x,1/2-y,z
loop_
_atom_site_type_symbol
_atom_site_label
_atom_site_fract_x
_atom_site_fract_y
_atom_site_fract_z
Si Si1 0.130708 0.202691 0.425529
Si Si2 0.462133 0.302452 0.899076
Si Si3 0.124998 0.695001 0.140962
Si Si4 0.727300 0.704715 0.393545
Si Si5 0.783163 0.198274 0.074440
Si Si6 0.000000 0.500000 0.000000
Si Si7 0.970861 0.792158 0.412992
O O1 0.136566 0.229584 0.266090
O O2 0.175555 0.270705 0.440671
O O3 0.080801 0.272188 0.521989
O O4 0.128911 0.000000 0.453810
O O5 0.467540 0.500000 0.934043
O O6 0.415978 0.292740 0.875026
O O7 0.502338 0.252538 0.749862
O O8 0.464088 0.154385 0.001904
O O9 0.110458 0.500000 0.178131
O O10 0.169945 0.702469 0.999572
O O11 0.725778 0.500000 0.383076
O O12 0.750000 0.750000 0.500000
O O13 0.757491 0.772345 0.239121
O O14 0.794543 0.000000 0.046331
O O15 0.750000 0.250000 0.000000
O O16 0.000000 0.732121 0.500000
O O17 0.969579 0.000000 0.423784
#
# Coordination Sequence:
#
# PCOD9203026 Si02
#       7
#     8   8   8   8   8   2   8
#     4  10  20  38  65  95 130 169 216 271 336 404
#     4  11  23  44  69  94 135 180 221 279 337 394
#     4  12  23  39  65 101 132 168 222 282 337 401
#     4  11  24  43  65  93 134 179 222 276 338 410
#     4  12  24  41  67  97 131 173 225 282 344 404
#     4  12  26  48  62  94 132 184 238 278 324 410
#     4   9  17  34  65  98 126 163 211 266 333 401
#
# _framework density 20.801627
#
# number of rings (size 3 to 8) (size 9 to 14) (size 15 to 20)
#    0.000    1.120    4.000    3.600    0.000    0.640 
#    4.320    1.200    0.000    0.000    0.000    0.000 
#    0.000    0.000    0.000    0.000    0.000    0.000 
#
# Total GULP energy -139454.486075 kJ/mol
# GULP energy per Si atom -5578.179443 kJ/mol
# Density = 2.075428 g / cm^3
# Si number density = 20.801627 Si / 1000 Ang^3
#
#
#
# Elastic Constant Matrix: (Units=GPa)
#
#
# Indices 1 2 3 4 5 6 
#
# 1 170.1666 9.5366 58.3801 0.0000 -4.6906 0.0000
# 2 9.5366 82.1381 -1.4345 0.0000 2.5888 0.0000
# 3 58.3801 -1.4345 80.9736 0.0000 -14.9054 0.0000
# 4 0.0000 0.0000 0.0000 16.5488 0.0000 -1.0720
# 5 -4.6906 2.5888 -14.9054 0.0000 40.9174 0.0000
# 6 0.0000 0.0000 0.0000 -1.0720 0.0000 12.4243
#
#
#
# Elastic Compliance Matrix: (Units=1/GPa)
#
#
# Indices 1 2 3 4 5 6 
#
# 1 0.007946 -0.000989 -0.005968 0.000000 -0.001200 0.000000
# 2 -0.000989 0.012323 0.000822 0.000000 -0.000594 0.000000
# 3 -0.005968 0.000822 0.017719 0.000000 0.005719 0.000000
# 4 0.000000 0.000000 0.000000 0.060767 0.000000 0.005243
# 5 -0.001200 -0.000594 0.005719 0.000000 0.026423 0.000000
# 6 0.000000 0.000000 0.000000 0.005243 0.000000 0.080940
#
#
# Mechanical properties :
#
#
# Convention : Reuss Voigt Hill
#
# Bulk Modulus (GPa) = 38.88134 51.80475 45.34304
# Shear Modulus (GPa) = 22.03033 31.76450 26.89741
#
# Velocity S-wave (km/s) = 3.25786 3.91195 3.59979
# Velocity P-wave (km/s) = 5.73442 6.73518 6.25485
#
# Compressibility (1/GPa) = 0.02571928
#
# Stress axis : x y z
#
# Youngs Moduli (GPa) = 125.84540 81.15228 56.43522
#
# Poissons Ratio (x) = 0.08026 0.33678
# Poissons Ratio (y) = 0.12446 -0.04639
# Poissons Ratio (z) = 0.75099 -0.06671
#
# Static dielectric constant tensor:
#      x y z
#    x 1.744090 0.000000 0.019250 
#    y 0.000000 1.753430 0.000000 
#    z 0.019250 0.000000 1.661380 
# 
# From -- ./inp_files/186300.got.cif
#   From: 2010.05.17/outbox.cif.g08.bks.cpg/sg12_94_cif.got.tgz:186300.got - 2010.06.03 13:09:07.
