data_PCOD9203207
_publ_section_title
;
Structure prediction by ZEFSAII (Michael W. Deem and Ramdas Pophale) SiO2 
 PCOD9203207
Probable space group: C 2/M
;
_chemical_formula_sum "Si O2"
_cell_formula_units_Z 60
_cell_length_a 12.108067
_cell_length_b 28.721313
_cell_length_c 8.557387
_cell_angle_alpha 90.000000
_cell_angle_beta 87.820602
_cell_angle_gamma 90.000000
_cell_volume 2973.760715
_symmetry_space_group_name_H-M "C 2/M"
_symmetry_group_IT_number 12
_symmetry_cell_setting 'monoclinic'
loop_
_space_group_symop_operation_xyz
x,y,z
-x,y,-z
-x,-y,-z
x,-y,z
1/2+x,1/2+y,z
1/2-x,1/2+y,-z
1/2-x,1/2-y,-z
1/2+x,1/2-y,z
loop_
_atom_site_type_symbol
_atom_site_label
_atom_site_fract_x
_atom_site_fract_y
_atom_site_fract_z
Si Si1 0.200801 0.143731 0.894586
Si Si2 0.125939 0.052675 0.051005
Si Si3 0.185827 0.148823 0.543448
Si Si4 0.124412 0.946836 0.425144
Si Si5 0.437226 0.809225 0.837959
Si Si6 0.314620 0.280897 0.869594
Si Si7 0.000000 0.788416 0.500000
Si Si8 0.870141 0.701325 0.377760
O O1 0.148820 0.151206 0.726314
O O2 0.327463 0.160601 0.867106
O O3 0.193793 0.091372 0.955089
O O4 0.145148 0.175275 0.032600
O O5 0.126168 0.059163 0.237903
O O6 0.163588 0.000000 0.015568
O O7 0.000000 0.056867 0.000000
O O8 0.193755 0.095080 0.495406
O O9 0.302038 0.175318 0.515583
O O10 0.093178 0.173958 0.440456
O O11 0.000000 0.942144 0.500000
O O12 0.160296 0.000000 0.458579
O O13 0.403413 0.755558 0.800194
O O14 0.524250 0.824555 0.701403
O O15 0.500000 0.807728 0.000000
O O16 0.221076 0.293887 0.751810
O O17 0.250000 0.250000 0.000000
O O18 0.084683 0.751943 0.577245
#
# Coordination Sequence:
#
# PCOD9203207 Si02
#       8
#     8   8   8   8   8   8   4   8
#     4  11  23  41  60  95 124 162 215 257 311 375
#     4  10  22  40  67  97 126 159 201 257 316 374
#     4  12  25  39  61  93 130 168 209 256 319 377
#     4  10  21  41  66  94 126 160 199 252 317 378
#     4  11  22  38  61  84 118 165 213 259 308 355
#     4  10  20  39  58  86 115 161 217 259 303 357
#     4  12  24  38  59  88 127 172 208 256 308 370
#     4  12  23  41  59  84 128 170 216 259 306 373
#
# _framework density 20.176472
#
# number of rings (size 3 to 8) (size 9 to 14) (size 15 to 20)
#    0.000    1.067    3.333    5.200    0.000    2.133 
#    0.000    0.000    0.000    1.200    0.000    2.333 
#    0.000    0.000    0.000    0.000    0.000    0.000 
#
# Total GULP energy -167493.103144 kJ/mol
# GULP energy per Si atom -5583.103438 kJ/mol
# Density = 2.013055 g / cm^3
# Si number density = 20.176472 Si / 1000 Ang^3
#
#
#
# Elastic Constant Matrix: (Units=GPa)
#
#
# Indices 1 2 3 4 5 6 
#
# 1 87.0250 45.6164 27.4332 0.0000 -12.9921 0.0000
# 2 45.6164 142.4624 50.5887 0.0000 -7.6564 0.0000
# 3 27.4332 50.5887 89.0724 0.0000 1.2729 0.0000
# 4 0.0000 0.0000 0.0000 33.2114 0.0000 -1.3353
# 5 -12.9921 -7.6564 1.2729 0.0000 36.8830 0.0000
# 6 0.0000 0.0000 0.0000 -1.3353 0.0000 23.4129
#
#
#
# Elastic Compliance Matrix: (Units=1/GPa)
#
#
# Indices 1 2 3 4 5 6 
#
# 1 0.014881 -0.003592 -0.002609 0.000000 0.004586 0.000000
# 2 -0.003592 0.009810 -0.004478 0.000000 0.000926 0.000000
# 3 -0.002609 -0.004478 0.014607 0.000000 -0.002353 0.000000
# 4 0.000000 0.000000 0.000000 0.030179 0.000000 0.001721
# 5 0.004586 0.000926 -0.002353 0.000000 0.029002 0.000000
# 6 0.000000 0.000000 0.000000 0.001721 0.000000 0.042810
#
#
# Mechanical properties :
#
#
# Convention : Reuss Voigt Hill
#
# Bulk Modulus (GPa) = 55.74160 62.87071 59.30616
# Shear Modulus (GPa) = 29.65146 31.69624 30.67385
#
# Velocity S-wave (km/s) = 3.83770 3.96782 3.90330
# Velocity P-wave (km/s) = 6.87926 7.22631 7.05492
#
# Compressibility (1/GPa) = 0.01793992
#
# Stress axis : x y z
#
# Youngs Moduli (GPa) = 67.20069 101.94145 68.45910
#
# Poissons Ratio (x) = 0.36618 0.17858
# Poissons Ratio (y) = 0.24139 0.30658
# Poissons Ratio (z) = 0.17530 0.45652
#
# Static dielectric constant tensor:
#      x y z
#    x 1.722400 0.000000 -0.033200 
#    y 0.000000 1.735220 0.000000 
#    z -0.033200 0.000000 1.847010 
# 
# From -- ./inp_files/53245.got.cif
#   From: 2010.05.17/outbox.cif.g08.bks.cpg/sg12_27_cif.got.tgz:53245.got - 2010.06.03 13:09:07.
