data_PCOD9203239
_publ_section_title
;
Structure prediction by ZEFSAII (Michael W. Deem and Ramdas Pophale) SiO2 
 PCOD9203239
Probable space group: C 2/M
;
_chemical_formula_sum "Si O2"
_cell_formula_units_Z 56
_cell_length_a 10.316951
_cell_length_b 18.219325
_cell_length_c 19.049588
_cell_angle_alpha 90.000000
_cell_angle_beta 51.357770
_cell_angle_gamma 90.000000
_cell_volume 2796.751459
_symmetry_space_group_name_H-M "C 2/M"
_symmetry_group_IT_number 12
_symmetry_cell_setting 'monoclinic'
loop_
_space_group_symop_operation_xyz
x,y,z
-x,y,-z
-x,-y,-z
x,-y,z
1/2+x,1/2+y,z
1/2-x,1/2+y,-z
1/2-x,1/2-y,-z
1/2+x,1/2-y,z
loop_
_atom_site_type_symbol
_atom_site_label
_atom_site_fract_x
_atom_site_fract_y
_atom_site_fract_z
Si Si1 0.558657 0.412642 0.300495
Si Si2 0.055372 0.712813 0.659896
Si Si3 0.395532 0.687579 0.597388
Si Si4 0.684372 0.083980 0.422222
Si Si5 0.151908 0.199001 0.157451
Si Si6 0.167116 0.416602 0.261863
Si Si7 0.566510 0.689357 0.903495
O O1 0.565008 0.500000 0.298345
O O2 0.661444 0.372798 0.326990
O O3 0.366783 0.388386 0.383698
O O4 0.623658 0.379294 0.205070
O O5 0.247229 0.724344 0.605298
O O6 0.981475 0.749908 0.615553
O O7 0.970608 0.750357 0.755445
O O8 0.005176 0.627736 0.681015
O O9 0.500000 0.652012 0.500000
O O10 0.500000 0.116156 0.500000
O O11 0.708837 0.081481 0.330233
O O12 0.674610 0.000000 0.453409
O O13 0.330794 0.236077 0.111782
O O14 0.082722 0.200065 0.101773
O O15 0.159539 0.500000 0.238431
O O16 0.303300 0.366925 0.176290
O O17 0.500000 0.660218 0.000000
#
# Coordination Sequence:
#
# PCOD9203239 Si02
#       7
#     8   8   8   8   8   8   8
#     4  10  21  37  60  86 119 162 205 249 305 362
#     4  10  22  39  58  81 115 160 202 246 303 359
#     4  11  24  38  56  85 119 162 208 259 298 345
#     4   9  18  32  54  83 115 157 199 238 288 351
#     4  10  20  39  60  84 117 153 200 242 303 365
#     4  10  21  37  60  88 121 155 194 248 306 358
#     4  11  22  38  64  91 119 154 198 251 304 368
#
# _framework density 20.023230000000002
#
# number of rings (size 3 to 8) (size 9 to 14) (size 15 to 20)
#    0.000    1.857    1.429    3.429    4.000    1.714 
#    0.000    0.000    0.000    0.429    0.000    0.000 
#    0.000    0.000    0.000    0.000    0.000    0.000 
#
# Total GULP energy -156077.779714 kJ/mol
# GULP energy per Si atom -5574.206418 kJ/mol
# Density = 1.997766 g / cm^3
# Si number density = 20.023230 Si / 1000 Ang^3
#
#
#
# Elastic Constant Matrix: (Units=GPa)
#
#
# Indices 1 2 3 4 5 6 
#
# 1 77.0072 41.5180 10.0996 0.0000 8.5088 0.0000
# 2 41.5180 114.1295 15.2294 0.0000 6.1414 0.0000
# 3 10.0996 15.2294 76.8941 0.0000 12.7103 0.0000
# 4 0.0000 0.0000 0.0000 13.7541 0.0000 0.5229
# 5 8.5088 6.1414 12.7103 0.0000 24.9549 0.0000
# 6 0.0000 0.0000 0.0000 0.5229 0.0000 13.9132
#
#
#
# Elastic Compliance Matrix: (Units=1/GPa)
#
#
# Indices 1 2 3 4 5 6 
#
# 1 0.016592 -0.005769 -0.000367 0.000000 -0.004051 0.000000
# 2 -0.005769 0.011052 -0.001427 0.000000 -0.000026 0.000000
# 3 -0.000367 -0.001427 0.014476 0.000000 -0.006897 0.000000
# 4 0.000000 0.000000 0.000000 0.072810 0.000000 -0.002736
# 5 -0.004051 -0.000026 -0.006897 0.000000 0.044972 0.000000
# 6 0.000000 0.000000 0.000000 -0.002736 0.000000 0.071977
#
#
# Mechanical properties :
#
#
# Convention : Reuss Voigt Hill
#
# Bulk Modulus (GPa) = 37.04523 44.63607 40.84065
# Shear Modulus (GPa) = 19.53101 23.93668 21.73385
#
# Velocity S-wave (km/s) = 3.12656 3.46127 3.29816
# Velocity P-wave (km/s) = 5.61917 6.18986 5.91141
#
# Compressibility (1/GPa) = 0.02699403
#
# Stress axis : x y z
#
# Youngs Moduli (GPa) = 60.27109 90.47844 69.08122
#
# Poissons Ratio (x) = 0.52195 0.02536
# Poissons Ratio (y) = 0.34769 0.09858
# Poissons Ratio (z) = 0.02213 0.12911
#
# Static dielectric constant tensor:
#      x y z
#    x 1.796180 0.000000 -0.041460 
#    y 0.000000 1.738360 0.000000 
#    z -0.041460 0.000000 1.697040 
# 
# From -- ./inp_files/258017.got.cif
#   From: 2010.05.17/outbox.cif.g08.bks.cpg/sg12_130_cif.got.tgz:258017.got - 2010.06.03 13:09:07.
