data_PCOD9203384
_publ_section_title
;
Structure prediction by ZEFSAII (Michael W. Deem and Ramdas Pophale) SiO2 
 PCOD9203384
Probable space group: C 2/M
;
_chemical_formula_sum "Si O2"
_cell_formula_units_Z 64
_cell_length_a 18.145055
_cell_length_b 28.640525
_cell_length_c 8.373690
_cell_angle_alpha 90.000000
_cell_angle_beta 139.071372
_cell_angle_gamma 90.000000
_cell_volume 2850.860309
_symmetry_space_group_name_H-M "C 2/M"
_symmetry_group_IT_number 12
_symmetry_cell_setting 'monoclinic'
loop_
_space_group_symop_operation_xyz
x,y,z
-x,y,-z
-x,-y,-z
x,-y,z
1/2+x,1/2+y,z
1/2-x,1/2+y,-z
1/2-x,1/2-y,-z
1/2+x,1/2-y,z
loop_
_atom_site_type_symbol
_atom_site_label
_atom_site_fract_x
_atom_site_fract_y
_atom_site_fract_z
Si Si1 0.260851 0.645579 0.502407
Si Si2 0.812013 0.948966 0.740208
Si Si3 0.022620 0.351601 0.223240
Si Si4 0.108489 0.051818 0.793374
Si Si5 0.690350 0.193180 0.077453
Si Si6 0.108193 0.216260 0.098284
Si Si7 0.887715 0.158478 0.209225
Si Si8 0.948904 0.550948 0.593392
O O1 0.312149 0.595067 0.623861
O O2 0.222197 0.653057 0.258786
O O3 0.343374 0.686989 0.677150
O O4 0.156487 0.654653 0.453521
O O5 0.687819 0.946752 0.622656
O O6 0.819550 0.000000 0.673721
O O7 0.903241 0.947287 0.032132
O O8 0.003576 0.405743 0.231714
O O9 0.936929 0.319925 0.182534
O O10 0.000000 0.343558 0.000000
O O11 0.154721 0.104581 0.846863
O O12 0.000000 0.051229 0.500000
O O13 0.164129 0.000000 0.855180
O O14 0.684446 0.242690 0.154814
O O15 0.786344 0.190377 0.105072
O O16 0.086101 0.177809 0.924292
O O17 0.000000 0.239915 0.000000
O O18 0.000000 0.162714 0.500000
O O19 0.979955 0.500000 0.710284
O O20 0.000000 0.554111 0.500000
#
# Coordination Sequence:
#
# PCOD9203384 Si02
#       8
#     8   8   8   8   8   8   8   8
#     4  10  20  39  62  88 119 166 208 251 318 372
#     4   9  17  33  58  87 122 160 207 257 307 373
#     4   9  20  36  55  81 118 156 198 247 300 361
#     4   9  18  35  61  89 124 166 205 254 313 367
#     4  11  24  41  61  90 125 157 210 262 308 371
#     4  12  24  42  67  91 121 165 210 258 316 372
#     4  11  24  42  63  95 128 162 206 260 312 374
#     4   9  18  30  50  81 113 150 197 245 300 361
#
# _framework density 22.449365
#
# number of rings (size 3 to 8) (size 9 to 14) (size 15 to 20)
#    0.000    2.000    1.250    2.625    1.750    1.250 
#    0.000    3.125    0.000    3.000    0.000    0.000 
#    0.000    0.000    0.000    0.000    0.000    0.000 
#
# Total GULP energy -178335.174532 kJ/mol
# GULP energy per Si atom -5572.974204 kJ/mol
# Density = 2.239827 g / cm^3
# Si number density = 22.449365 Si / 1000 Ang^3
#
#
#
# Elastic Constant Matrix: (Units=GPa)
#
#
# Indices 1 2 3 4 5 6 
#
# 1 62.0618 21.5418 -3.2361 0.0000 13.5505 0.0000
# 2 21.5418 127.9847 19.0259 0.0000 1.0086 0.0000
# 3 -3.2361 19.0259 44.1556 0.0000 -4.3606 0.0000
# 4 0.0000 0.0000 0.0000 22.7911 0.0000 0.8346
# 5 13.5505 1.0086 -4.3606 0.0000 10.9379 0.0000
# 6 0.0000 0.0000 0.0000 0.8346 0.0000 12.2800
#
#
#
# Elastic Compliance Matrix: (Units=1/GPa)
#
#
# Indices 1 2 3 4 5 6 
#
# 1 0.023790 -0.003859 0.000553 0.000000 -0.028897 0.000000
# 2 -0.003859 0.009030 -0.003939 0.000000 0.002377 0.000000
# 3 0.000553 -0.003939 0.025351 0.000000 0.009785 0.000000
# 4 0.000000 0.000000 0.000000 0.043986 0.000000 -0.002990
# 5 -0.028897 0.002377 0.009785 0.000000 0.130906 0.000000
# 6 0.000000 0.000000 0.000000 -0.002990 0.000000 0.081636
#
#
# Mechanical properties :
#
#
# Convention : Reuss Voigt Hill
#
# Bulk Modulus (GPa) = 22.89304 34.31838 28.60571
# Shear Modulus (GPa) = 14.54545 22.32650 18.43598
#
# Velocity S-wave (km/s) = 2.54819 3.15703 2.86881
# Velocity P-wave (km/s) = 4.34482 5.34877 4.87272
#
# Compressibility (1/GPa) = 0.04368140
#
# Stress axis : x y z
#
# Youngs Moduli (GPa) = 42.03370 110.74563 39.44596
#
# Poissons Ratio (x) = 0.42733 -0.02179
# Poissons Ratio (y) = 0.16220 0.15537
# Poissons Ratio (z) = -0.02322 0.43620
#
# Static dielectric constant tensor:
#      x y z
#    x 1.872840 0.000000 0.080730 
#    y 0.000000 1.828770 0.000000 
#    z 0.080730 0.000000 1.886830 
# 
# From -- ./inp_files/80775.got.cif
#   From: 2010.05.17/outbox.cif.g08.bks.cpg/sg12_41_cif.got.tgz:80775.got - 2010.06.03 13:09:07.
