data_PCOD9203138
_publ_section_title
;
Structure prediction by ZEFSAII (Michael W. Deem and Ramdas Pophale) SiO2 
 PCOD9203138
Probable space group: C 2/M
;
_chemical_formula_sum "Si O2"
_cell_formula_units_Z 52
_cell_length_a 23.811034
_cell_length_b 17.144090
_cell_length_c 5.269832
_cell_angle_alpha 90.000000
_cell_angle_beta 76.413691
_cell_angle_gamma 90.000000
_cell_volume 2091.045080
_symmetry_space_group_name_H-M "C 2/M"
_symmetry_group_IT_number 12
_symmetry_cell_setting 'monoclinic'
loop_
_space_group_symop_operation_xyz
x,y,z
-x,y,-z
-x,-y,-z
x,-y,z
1/2+x,1/2+y,z
1/2-x,1/2+y,-z
1/2-x,1/2-y,-z
1/2+x,1/2-y,z
loop_
_atom_site_type_symbol
_atom_site_label
_atom_site_fract_x
_atom_site_fract_y
_atom_site_fract_z
Si Si1 0.103444 0.373568 0.599758
Si Si2 0.424185 0.252982 0.729060
Si Si3 0.686179 0.787841 0.858385
Si Si4 0.814803 0.875033 0.371494
Si Si5 0.611159 0.412171 0.208105
Si Si6 0.000000 0.639134 0.000000
Si Si7 0.789404 0.415247 0.828445
O O1 0.079634 0.288774 0.536248
O O2 0.143402 0.408260 0.334394
O O3 0.149915 0.356309 0.764191
O O4 0.045863 0.409122 0.782020
O O5 0.358613 0.249983 0.898223
O O6 0.436896 0.344004 0.720628
O O7 0.462096 0.195822 0.860542
O O8 0.728990 0.839302 0.985111
O O9 0.695783 0.718568 0.648645
O O10 0.844687 0.897735 0.602796
O O11 0.752697 0.911047 0.370128
O O12 0.856230 0.903112 0.097002
O O13 0.589019 0.500000 0.251411
O O14 0.780943 0.500000 0.959399
#
# Coordination Sequence:
#
# PCOD9203138 Si02
#       7
#     8   8   8   8   8   4   8
#     4  10  20  39  62  88 118 160 218 274 322 384
#     4   9  19  37  62  92 119 160 216 268 322 384
#     4   9  20  38  61  88 124 169 219 263 305 379
#     4  11  23  41  64  93 134 187 223 251 305 385
#     4  11  22  39  63  97 139 176 213 261 317 383
#     4  10  20  38  68  88 112 160 218 284 328 392
#     4  11  24  38  58  93 134 171 211 268 326 379
#
# _framework density 24.867951000000001
#
# number of rings (size 3 to 8) (size 9 to 14) (size 15 to 20)
#    0.000    1.846    1.538    2.308    2.154    1.231 
#    0.000    0.769    0.000   13.846    0.000    0.000 
#    0.000    0.000    0.000    0.000    0.000    0.000 
#
# Total GULP energy -145070.475852 kJ/mol
# GULP energy per Si atom -5579.633687 kJ/mol
# Density = 2.481135 g / cm^3
# Si number density = 24.867951 Si / 1000 Ang^3
#
#
#
# Elastic Constant Matrix: (Units=GPa)
#
#
# Indices 1 2 3 4 5 6 
#
# 1 45.5079 2.4824 4.6514 0.0000 -1.4828 0.0000
# 2 2.4824 125.7868 1.5241 0.0000 -8.7187 0.0000
# 3 4.6514 1.5241 77.1180 0.0000 7.7711 0.0000
# 4 0.0000 0.0000 0.0000 5.8106 0.0000 -9.1206
# 5 -1.4828 -8.7187 7.7711 0.0000 45.4016 0.0000
# 6 0.0000 0.0000 0.0000 -9.1206 0.0000 2.8570
#
#
#
# Elastic Compliance Matrix: (Units=1/GPa)
#
#
# Indices 1 2 3 4 5 6 
#
# 1 0.022168 -0.000358 -0.001421 0.000000 0.000898 0.000000
# 2 -0.000358 0.008071 -0.000298 0.000000 0.001589 0.000000
# 3 -0.001421 -0.000298 0.013299 0.000000 -0.002380 0.000000
# 4 0.000000 0.000000 0.000000 -0.042908 0.000000 -0.136977
# 5 0.000898 0.001589 -0.002380 0.000000 0.022768 0.000000
# 6 0.000000 0.000000 0.000000 -0.136977 0.000000 -0.087266
#
#
# Mechanical properties :
#
#
# Convention : Reuss Voigt Hill
#
# Bulk Modulus (GPa) = 25.39082 29.52539 27.45810
# Shear Modulus (GPa) = -107.32562 26.79749 -40.26406
#
# Velocity S-wave (km/s) = -6.57662 3.28623 -4.02819
# Velocity P-wave (km/s) = 6.88744 5.12813 3.25108
#
# Compressibility (1/GPa) = 0.03938432
#
# Stress axis : x y z
#
# Youngs Moduli (GPa) = 45.10964 123.90359 75.19633
#
# Poissons Ratio (x) = 0.04436 0.10682
# Poissons Ratio (y) = 0.01615 0.02241
# Poissons Ratio (z) = 0.06408 0.03693
#
# Static dielectric constant tensor:
#      x y z
#    x 2.018200 0.000000 -0.042360 
#    y 0.000000 2.038940 0.000000 
#    z -0.042360 0.000000 2.030890 
# 
# From -- ./inp_files/28510.got.cif
#   From: 2010.05.17/outbox.cif.g08.bks.cpg/sg12_15_cif.got.tgz:28510.got - 2010.06.03 13:09:07.
