data_PCOD9203491
_publ_section_title
;
Structure prediction by ZEFSAII (Michael W. Deem and Ramdas Pophale) SiO2 
 PCOD9203491
Probable space group: C 2/M
;
_chemical_formula_sum "Si O2"
_cell_formula_units_Z 40
_cell_length_a 14.295144
_cell_length_b 13.816300
_cell_length_c 9.645187
_cell_angle_alpha 90.000000
_cell_angle_beta 69.850781
_cell_angle_gamma 90.000000
_cell_volume 1788.394874
_symmetry_space_group_name_H-M "C 2/M"
_symmetry_group_IT_number 12
_symmetry_cell_setting 'monoclinic'
loop_
_space_group_symop_operation_xyz
x,y,z
-x,y,-z
-x,-y,-z
x,-y,z
1/2+x,1/2+y,z
1/2-x,1/2+y,-z
1/2-x,1/2-y,-z
1/2+x,1/2-y,z
loop_
_atom_site_type_symbol
_atom_site_label
_atom_site_fract_x
_atom_site_fract_y
_atom_site_fract_z
Si Si1 0.822421 0.616272 0.282771
Si Si2 0.343136 0.676146 0.858462
Si Si3 0.761165 0.890049 0.374574
Si Si4 0.041935 0.216485 0.824505
Si Si5 0.813691 0.604288 0.880862
O O1 0.829517 0.500000 0.263381
O O2 0.734791 0.655720 0.225277
O O3 0.788770 0.639734 0.456593
O O4 0.927195 0.670055 0.201010
O O5 0.459083 0.667624 0.766995
O O6 0.346781 0.788780 0.909526
O O7 0.299537 0.609213 0.002597
O O8 0.853674 0.829678 0.272810
O O9 0.684015 0.890776 0.286031
O O10 0.795490 0.000000 0.376992
O O11 0.000000 0.196058 0.000000
O O12 0.856041 0.500000 0.904203
#
# Coordination Sequence:
#
# PCOD9203491 Si02
#       5
#     8   8   8   8   8
#     4  11  25  45  65  92 133 174 210 262 324 379
#     4  11  22  38  65  96 127 164 218 265 314 374
#     4  10  22  42  66  89 127 171 208 259 325 382
#     4  12  23  40  66  97 126 165 215 264 320 380
#     4  10  20  39  63  90 128 169 208 257 320 384
#
# _framework density 22.366425
#
# number of rings (size 3 to 8) (size 9 to 14) (size 15 to 20)
#    0.000    1.200    4.000    2.400    0.000    4.000 
#    0.000    2.000    0.000    3.600    0.000    0.000 
#    0.000    0.000    0.000    0.000    0.000    0.000 
#
# Total GULP energy -111400.666234 kJ/mol
# GULP energy per Si atom -5570.033312 kJ/mol
# Density = 2.231552 g / cm^3
# Si number density = 22.366425 Si / 1000 Ang^3
#
#
#
# Elastic Constant Matrix: (Units=GPa)
#
#
# Indices 1 2 3 4 5 6 
#
# 1 44.4852 -19.4202 18.7137 0.0000 7.6338 0.0000
# 2 -19.4202 91.1878 14.2928 0.0000 -2.7924 0.0000
# 3 18.7137 14.2928 138.2716 0.0000 9.2236 0.0000
# 4 0.0000 0.0000 0.0000 24.5020 0.0000 -5.8140
# 5 7.6338 -2.7924 9.2236 0.0000 25.2239 0.0000
# 6 0.0000 0.0000 0.0000 -5.8140 0.0000 19.0314
#
#
#
# Elastic Compliance Matrix: (Units=1/GPa)
#
#
# Indices 1 2 3 4 5 6 
#
# 1 0.028062 0.006417 -0.004041 0.000000 -0.006305 0.000000
# 2 0.006417 0.012686 -0.002197 0.000000 0.000266 0.000000
# 3 -0.004041 -0.002197 0.008139 0.000000 -0.001997 0.000000
# 4 0.000000 0.000000 0.000000 0.044003 0.000000 0.013443
# 5 -0.006305 0.000266 -0.001997 0.000000 0.042313 0.000000
# 6 0.000000 0.000000 0.000000 0.013443 0.000000 0.056652
#
#
# Mechanical properties :
#
#
# Convention : Reuss Voigt Hill
#
# Bulk Modulus (GPa) = 20.30690 33.45745 26.88217
# Shear Modulus (GPa) = 24.04868 31.10869 27.57868
#
# Velocity S-wave (km/s) = 3.28260 3.73348 3.51528
# Velocity P-wave (km/s) = 4.84419 5.79451 5.34053
#
# Compressibility (1/GPa) = 0.04924436
#
# Stress axis : x y z
#
# Youngs Moduli (GPa) = 35.63496 78.83010 122.86015
#
# Poissons Ratio (x) = -0.50583 0.49643
# Poissons Ratio (y) = -0.22866 0.26998
# Poissons Ratio (z) = 0.14399 0.17322
#
# Static dielectric constant tensor:
#      x y z
#    x 1.950060 0.000000 0.011610 
#    y 0.000000 1.922910 0.000000 
#    z 0.011610 0.000000 1.820160 
# 
# From -- ./inp_files/58942.got.cif
#   From: 2010.05.17/outbox.cif.g08.bks.cpg/sg12_30_cif.got.tgz:58942.got - 2010.06.03 13:09:07.
