data_PCOD9203638
_publ_section_title
;
Structure prediction by ZEFSAII (Michael W. Deem and Ramdas Pophale) SiO2 
 PCOD9203638
Probable space group: C 2/M
;
_chemical_formula_sum "Si O2"
_cell_formula_units_Z 50
_cell_length_a 14.020275
_cell_length_b 17.570986
_cell_length_c 12.130727
_cell_angle_alpha 90.000000
_cell_angle_beta 57.878670
_cell_angle_gamma 90.000000
_cell_volume 2530.952250
_symmetry_space_group_name_H-M "C 2/M"
_symmetry_group_IT_number 12
_symmetry_cell_setting 'monoclinic'
loop_
_space_group_symop_operation_xyz
x,y,z
-x,y,-z
-x,-y,-z
x,-y,z
1/2+x,1/2+y,z
1/2-x,1/2+y,-z
1/2-x,1/2-y,-z
1/2+x,1/2-y,z
loop_
_atom_site_type_symbol
_atom_site_label
_atom_site_fract_x
_atom_site_fract_y
_atom_site_fract_z
Si Si1 0.331098 0.911603 0.332459
Si Si2 0.936775 0.884117 0.849142
Si Si3 0.317992 0.911267 0.080947
Si Si4 0.484773 0.196207 0.386215
Si Si5 0.000000 0.000000 0.000000
Si Si6 0.920972 0.127592 0.446399
Si Si7 0.125168 0.279193 0.103281
O O1 0.332339 0.894002 0.201225
O O2 0.409416 0.856721 0.355468
O O3 0.204053 0.899283 0.452833
O O4 0.363089 0.000000 0.326393
O O5 0.813208 0.898069 0.871739
O O6 0.950093 0.795046 0.872361
O O7 0.951751 0.934751 0.945635
O O8 0.027496 0.902600 0.699010
O O9 0.345892 0.000000 0.044742
O O10 0.389759 0.854040 0.961082
O O11 0.500000 0.165429 0.500000
O O12 0.430284 0.280182 0.432958
O O13 0.601636 0.204434 0.246609
O O14 0.000000 0.104380 0.500000
O O15 0.250000 0.250000 0.000000
#
# Coordination Sequence:
#
# PCOD9203638 Si02
#       7
#     8   8   8   8   2   8   8
#     4  11  24  38  63  97 127 170 218 259 325 387
#     4  10  21  39  58  92 130 163 209 272 324 384
#     4  10  20  39  65  89 123 166 218 269 311 381
#     4  10  23  43  63  93 130 166 212 270 323 386
#     4  12  24  36  58  92 134 164 202 268 356 372
#     4  10  20  40  69  91 123 169 216 273 322 373
#     4   9  21  41  66  91 122 171 219 261 327 385
#
# _framework density 19.755410999999999
#
# number of rings (size 3 to 8) (size 9 to 14) (size 15 to 20)
#    0.000    1.920    2.400    0.480    3.360    4.480 
#    5.760    1.600    0.000    0.000    0.000    0.000 
#    0.000    0.000    0.000    0.000    0.000    0.000 
#
# Total GULP energy -139326.151003 kJ/mol
# GULP energy per Si atom -5573.046040 kJ/mol
# Density = 1.971045 g / cm^3
# Si number density = 19.755411 Si / 1000 Ang^3
#
#
#
# Elastic Constant Matrix: (Units=GPa)
#
#
# Indices 1 2 3 4 5 6 
#
# 1 79.4188 24.9320 37.7057 0.0000 24.8638 0.0000
# 2 24.9320 96.0959 47.7483 0.0000 22.9939 0.0000
# 3 37.7057 47.7483 110.6522 0.0000 8.3311 0.0000
# 4 0.0000 0.0000 0.0000 27.3037 0.0000 10.5826
# 5 24.8638 22.9939 8.3311 0.0000 33.0449 0.0000
# 6 0.0000 0.0000 0.0000 10.5826 0.0000 24.6068
#
#
#
# Elastic Compliance Matrix: (Units=1/GPa)
#
#
# Indices 1 2 3 4 5 6 
#
# 1 0.019498 0.001379 -0.006180 0.000000 -0.014073 0.000000
# 2 0.001379 0.015751 -0.006487 0.000000 -0.010362 0.000000
# 3 -0.006180 -0.006487 0.013509 0.000000 0.005758 0.000000
# 4 0.000000 0.000000 0.000000 0.043951 0.000000 -0.018902
# 5 -0.014073 -0.010362 0.005758 0.000000 0.046609 0.000000
# 6 0.000000 0.000000 0.000000 -0.018902 0.000000 0.048768
#
#
# Mechanical properties :
#
#
# Convention : Reuss Voigt Hill
#
# Bulk Modulus (GPa) = 38.19199 56.32654 47.25927
# Shear Modulus (GPa) = 22.79052 28.70980 25.75016
#
# Velocity S-wave (km/s) = 3.40020 3.81630 3.61425
# Velocity P-wave (km/s) = 5.89827 6.92768 6.43360
#
# Compressibility (1/GPa) = 0.02618350
#
# Stress axis : x y z
#
# Youngs Moduli (GPa) = 51.28679 63.48774 74.02639
#
# Poissons Ratio (x) = -0.08756 0.45746
# Poissons Ratio (y) = -0.07073 0.48018
# Poissons Ratio (z) = 0.31694 0.41182
#
# Static dielectric constant tensor:
#      x y z
#    x 1.682880 0.000000 -0.046920 
#    y 0.000000 1.717600 0.000000 
#    z -0.046920 0.000000 1.734310 
# 
# From -- ./inp_files/145417.got.cif
#   From: 2010.05.17/outbox.cif.g08.bks.cpg/sg12_73_cif.got.tgz:145417.got - 2010.06.03 13:09:07.
