data_PCOD9203675
_publ_section_title
;
Structure prediction by ZEFSAII (Michael W. Deem and Ramdas Pophale) SiO2 
 PCOD9203675
Probable space group: C 2/M
;
_chemical_formula_sum "Si O2"
_cell_formula_units_Z 58
_cell_length_a 21.134248
_cell_length_b 7.934562
_cell_length_c 16.886628
_cell_angle_alpha 90.000000
_cell_angle_beta 92.838129
_cell_angle_gamma 90.000000
_cell_volume 2828.262169
_symmetry_space_group_name_H-M "C 2/M"
_symmetry_group_IT_number 12
_symmetry_cell_setting 'monoclinic'
loop_
_space_group_symop_operation_xyz
x,y,z
-x,y,-z
-x,-y,-z
x,-y,z
1/2+x,1/2+y,z
1/2-x,1/2+y,-z
1/2-x,1/2-y,-z
1/2+x,1/2-y,z
loop_
_atom_site_type_symbol
_atom_site_label
_atom_site_fract_x
_atom_site_fract_y
_atom_site_fract_z
Si Si1 0.220112 0.801893 0.915340
Si Si2 0.500000 0.000000 0.000000
Si Si3 0.623398 0.192459 0.648565
Si Si4 0.572268 0.299023 0.935336
Si Si5 0.486010 0.297961 0.236917
Si Si6 0.617707 0.704439 0.321782
Si Si7 0.930706 0.195653 0.513835
Si Si8 0.750549 0.799936 0.254564
O O1 0.144817 0.775738 0.913921
O O2 0.247229 0.728550 0.835102
O O3 0.231454 0.000000 0.911124
O O4 0.250000 0.750000 0.000000
O O5 0.553677 0.153624 0.995507
O O6 0.568296 0.227230 0.709165
O O7 0.609665 0.296457 0.568460
O O8 0.691037 0.226158 0.692192
O O9 0.619485 0.000000 0.623135
O O10 0.564650 0.500000 0.956577
O O11 0.529810 0.260246 0.855033
O O12 0.482885 0.500000 0.245417
O O13 0.555741 0.242882 0.267845
O O14 0.621256 0.500000 0.320064
O O15 0.604303 0.764300 0.410842
O O16 0.683128 0.768557 0.290342
O O17 0.000000 0.272571 0.500000
O O18 0.942835 0.000000 0.535379
O O19 0.762270 0.000000 0.252521
#
# Coordination Sequence:
#
# PCOD9203675 Si02
#       8
#     8   2   8   8   8   8   8   8
#     4  10  23  42  68  94 127 171 219 268 327 402
#     4  12  26  40  68  98 136 162 218 282 330 394
#     4  12  24  37  65  97 126 167 221 269 317 383
#     4  10  23  44  67  97 133 175 220 271 334 398
#     4  10  20  41  68  91 128 172 217 263 323 390
#     4  10  22  40  65  97 128 166 213 268 325 385
#     4  10  20  39  65  92 127 173 216 257 321 392
#     4  11  24  44  65  91 128 171 214 265 326 388
#
# _framework density 20.507292
#
# number of rings (size 3 to 8) (size 9 to 14) (size 15 to 20)
#    0.000    1.517    2.759    1.862    1.931    4.138 
#    2.483    2.759    0.000    0.000    0.000    0.000 
#    0.000    0.000    0.000    0.000    0.000    0.000 
#
# Total GULP energy -161659.388247 kJ/mol
# GULP energy per Si atom -5574.461664 kJ/mol
# Density = 2.046062 g / cm^3
# Si number density = 20.507292 Si / 1000 Ang^3
#
#
#
# Elastic Constant Matrix: (Units=GPa)
#
#
# Indices 1 2 3 4 5 6 
#
# 1 115.6229 0.1167 58.5762 0.0000 -5.1222 0.0000
# 2 0.1167 40.8860 4.5730 0.0000 -8.6406 0.0000
# 3 58.5762 4.5730 105.3529 0.0000 -0.8987 0.0000
# 4 0.0000 0.0000 0.0000 9.4091 0.0000 -4.7617
# 5 -5.1222 -8.6406 -0.8987 0.0000 33.7727 0.0000
# 6 0.0000 0.0000 0.0000 -4.7617 0.0000 33.8880
#
#
#
# Elastic Compliance Matrix: (Units=1/GPa)
#
#
# Indices 1 2 3 4 5 6 
#
# 1 0.012183 0.001140 -0.006806 0.000000 0.001958 0.000000
# 2 0.001140 0.026083 -0.001708 0.000000 0.006801 0.000000
# 3 -0.006806 -0.001708 0.013341 0.000000 -0.001114 0.000000
# 4 0.000000 0.000000 0.000000 0.114417 0.000000 0.016077
# 5 0.001958 0.006801 -0.001114 0.000000 0.031617 0.000000
# 6 0.000000 0.000000 0.000000 0.016077 0.000000 0.031768
#
#
# Mechanical properties :
#
#
# Convention : Reuss Voigt Hill
#
# Bulk Modulus (GPa) = 27.13086 43.15485 35.14286
# Shear Modulus (GPa) = 19.49752 28.65368 24.07560
#
# Velocity S-wave (km/s) = 3.08679 3.74203 3.43009
# Velocity P-wave (km/s) = 5.09538 6.30553 5.73248
#
# Compressibility (1/GPa) = 0.03685839
#
# Stress axis : x y z
#
# Youngs Moduli (GPa) = 82.08443 38.33870 74.95771
#
# Poissons Ratio (x) = -0.04372 0.51018
# Poissons Ratio (y) = -0.09361 0.12804
# Poissons Ratio (z) = 0.55869 0.06549
#
# Static dielectric constant tensor:
#      x y z
#    x 1.682260 0.000000 -0.033260 
#    y 0.000000 1.752440 0.000000 
#    z -0.033260 0.000000 1.738330 
# 
# From -- ./inp_files/275452.got.cif
#   From: 2010.05.17/outbox.cif.g08.bks.cpg/sg12_138_cif.got.tgz:275452.got - 2010.06.03 13:09:07.
