data_PCOD9203574
_publ_section_title
;
Structure prediction by ZEFSAII (Michael W. Deem and Ramdas Pophale) SiO2 
 PCOD9203574
Probable space group: C 2/M
;
_chemical_formula_sum "Si O2"
_cell_formula_units_Z 60
_cell_length_a 19.216673
_cell_length_b 19.040940
_cell_length_c 8.228069
_cell_angle_alpha 90.000000
_cell_angle_beta 124.331580
_cell_angle_gamma 90.000000
_cell_volume 2486.181610
_symmetry_space_group_name_H-M "C 2/M"
_symmetry_group_IT_number 12
_symmetry_cell_setting 'monoclinic'
loop_
_space_group_symop_operation_xyz
x,y,z
-x,y,-z
-x,-y,-z
x,-y,z
1/2+x,1/2+y,z
1/2-x,1/2+y,-z
1/2-x,1/2-y,-z
1/2+x,1/2-y,z
loop_
_atom_site_type_symbol
_atom_site_label
_atom_site_fract_x
_atom_site_fract_y
_atom_site_fract_z
Si Si1 0.220112 0.725775 0.637145
Si Si2 0.277598 0.924507 0.967847
Si Si3 0.134907 0.137730 0.611437
Si Si4 0.328507 0.396734 0.852696
Si Si5 0.473632 0.340571 0.211995
Si Si6 0.098901 0.370332 0.307243
Si Si7 0.921326 0.321784 0.079739
Si Si8 0.727526 0.000000 0.492255
O O1 0.250000 0.750000 0.500000
O O2 0.187348 0.790866 0.692697
O O3 0.296745 0.683390 0.809846
O O4 0.142399 0.673692 0.507073
O O5 0.208914 0.919207 0.729913
O O6 0.321875 0.000000 0.009560
O O7 0.222265 0.926020 0.058318
O O8 0.340846 0.858722 0.056744
O O9 0.075352 0.135583 0.689476
O O10 0.072176 0.144481 0.375798
O O11 0.293254 0.438750 0.652986
O O12 0.427096 0.388086 0.016406
O O13 0.454487 0.256864 0.165096
O O14 0.155275 0.438804 0.361509
O O15 0.000011 0.374490 0.213480
O O16 0.100364 0.326899 0.140260
#
# Coordination Sequence:
#
# PCOD9203574 Si02
#       8
#     8   8   8   8   8   8   8   4
#     4  11  20  37  62  92 121 159 199 254 312 359
#     4  11  23  39  60  88 122 169 205 248 297 368
#     4  10  21  38  60  94 125 151 207 256 302 352
#     4  10  21  40  60  85 121 159 208 243 304 365
#     4  10  20  39  64  91 119 157 199 264 308 345
#     4  10  23  37  61  88 125 159 200 248 303 376
#     4  11  22  39  62  91 120 161 201 256 308 362
#     4  10  22  41  55  85 121 162 196 244 296 369
#
# _framework density 24.133392000000001
#
# number of rings (size 3 to 8) (size 9 to 14) (size 15 to 20)
#    0.000    1.600    2.000    3.200    1.867    2.667 
#    1.200    2.000    0.000    0.000    0.000    2.800 
#    0.000    0.000    0.000    0.000    0.000    0.000 
#
# Total GULP energy -167085.155035 kJ/mol
# GULP energy per Si atom -5569.505168 kJ/mol
# Density = 2.407846 g / cm^3
# Si number density = 24.133392 Si / 1000 Ang^3
#
#
#
# Elastic Constant Matrix: (Units=GPa)
#
#
# Indices 1 2 3 4 5 6 
#
# 1 87.1562 12.7628 26.5878 0.0000 21.0917 0.0000
# 2 12.7628 64.3934 20.6350 0.0000 22.3483 0.0000
# 3 26.5878 20.6350 115.1185 0.0000 29.1964 0.0000
# 4 0.0000 0.0000 0.0000 19.1138 0.0000 30.3595
# 5 21.0917 22.3483 29.1964 0.0000 32.7907 0.0000
# 6 0.0000 0.0000 0.0000 30.3595 0.0000 -46.2865
#
#
#
# Elastic Compliance Matrix: (Units=1/GPa)
#
#
# Indices 1 2 3 4 5 6 
#
# 1 0.013727 0.000468 -0.001206 0.000000 -0.008074 0.000000
# 2 0.000468 0.020359 -0.000209 0.000000 -0.013991 0.000000
# 3 -0.001206 -0.000209 0.011328 0.000000 -0.009168 0.000000
# 4 0.000000 0.000000 0.000000 0.025623 0.000000 0.016807
# 5 -0.008074 -0.013991 -0.009168 0.000000 0.053388 0.000000
# 6 0.000000 0.000000 0.000000 0.016807 0.000000 -0.010581
#
#
# Mechanical properties :
#
#
# Convention : Reuss Voigt Hill
#
# Bulk Modulus (GPa) = 22.97824 42.95990 32.96907
# Shear Modulus (GPa) = 38.38877 14.90244 26.64561
#
# Velocity S-wave (km/s) = 3.99267 2.48766 3.32640
# Velocity P-wave (km/s) = 5.54953 5.10793 5.33330
#
# Compressibility (1/GPa) = 0.04351943
#
# Stress axis : x y z
#
# Youngs Moduli (GPa) = 72.84823 49.11746 88.27720
#
# Poissons Ratio (x) = -0.02300 0.10651
# Poissons Ratio (y) = -0.03411 0.01847
# Poissons Ratio (z) = 0.08789 0.01028
#
# Static dielectric constant tensor:
#      x y z
#    x 1.953490 0.000000 -0.075660 
#    y 0.000000 1.660110 0.000000 
#    z -0.075660 0.000000 1.939970 
# 
# From -- ./inp_files/89866.got.cif
#   From: 2010.05.17/outbox.cif.g08.bks.cpg/sg12_45_cif.got.tgz:89866.got - 2010.06.03 13:09:07.
