data_PCOD9203105
_publ_section_title
;
Structure prediction by ZEFSAII (Michael W. Deem and Ramdas Pophale) SiO2 
 PCOD9203105
Probable space group: C 2/M
;
_chemical_formula_sum "Si O2"
_cell_formula_units_Z 32
_cell_length_a 14.372183
_cell_length_b 20.616866
_cell_length_c 7.119821
_cell_angle_alpha 90.000000
_cell_angle_beta 35.372062
_cell_angle_gamma 90.000000
_cell_volume 1221.253263
_symmetry_space_group_name_H-M "C 2/M"
_symmetry_group_IT_number 12
_symmetry_cell_setting 'monoclinic'
loop_
_space_group_symop_operation_xyz
x,y,z
-x,y,-z
-x,-y,-z
x,-y,z
1/2+x,1/2+y,z
1/2-x,1/2+y,-z
1/2-x,1/2-y,-z
1/2+x,1/2-y,z
loop_
_atom_site_type_symbol
_atom_site_label
_atom_site_fract_x
_atom_site_fract_y
_atom_site_fract_z
Si Si1 0.617562 0.428242 0.488796
Si Si2 0.444116 0.695098 0.805505
Si Si3 0.982700 0.425466 0.753763
Si Si4 0.157746 0.304753 0.530045
O O1 0.500000 0.433004 0.500000
O O2 0.612569 0.500000 0.588402
O O3 0.548823 0.365665 0.713179
O O4 0.796583 0.415975 0.116475
O O5 0.500000 0.694647 0.500000
O O6 0.490308 0.767431 0.788217
O O7 0.262523 0.687993 0.168179
O O8 0.024527 0.500000 0.725007
O O9 0.000000 0.415706 0.500000
O O10 0.105350 0.377780 0.658012
O O11 0.250000 0.250000 0.500000
#
# Coordination Sequence:
#
# PCOD9203105 Si02
#       4
#     8   8   8   8
#     4   9  18  34  60  96 130 162 213 281 340 390
#     4  11  22  39  64  90 125 177 233 283 330 397
#     4  10  20  38  67 100 135 177 228 282 336 403
#     4  12  25  41  62  96 139 177 220 279 348 410
#
# _framework density 26.202591999999999
#
# number of rings (size 3 to 8) (size 9 to 14) (size 15 to 20)
#    0.000    1.500    0.000    6.750    0.000    3.000 
#    0.000    1.250    0.000    9.000    0.000    0.000 
#    0.000    0.000    0.000    0.000    0.000    0.000 
#
# Total GULP energy -89391.463202 kJ/mol
# GULP energy per Si atom -5586.966450 kJ/mol
# Density = 2.614295 g / cm^3
# Si number density = 26.202592 Si / 1000 Ang^3
#
#
#
# Elastic Constant Matrix: (Units=GPa)
#
#
# Indices 1 2 3 4 5 6 
#
# 1 80.5093 38.9053 38.2038 0.0000 6.1490 0.0000
# 2 38.9053 215.7885 59.3628 0.0000 -16.4546 0.0000
# 3 38.2038 59.3628 170.3092 0.0000 0.4076 0.0000
# 4 0.0000 0.0000 0.0000 39.0650 0.0000 -26.6975
# 5 6.1490 -16.4546 0.4076 0.0000 39.9085 0.0000
# 6 0.0000 0.0000 0.0000 -26.6975 0.0000 -24.1745
#
#
#
# Elastic Compliance Matrix: (Units=1/GPa)
#
#
# Indices 1 2 3 4 5 6 
#
# 1 0.014965 -0.002235 -0.002570 0.000000 -0.003201 0.000000
# 2 -0.002235 0.005647 -0.001474 0.000000 0.002688 0.000000
# 3 -0.002570 -0.001474 0.006963 0.000000 -0.000283 0.000000
# 4 0.000000 0.000000 0.000000 0.014588 0.000000 -0.016111
# 5 -0.003201 0.002688 -0.000283 0.000000 0.026662 0.000000
# 6 0.000000 0.000000 0.000000 -0.016111 0.000000 -0.023574
#
#
# Mechanical properties :
#
#
# Convention : Reuss Voigt Hill
#
# Bulk Modulus (GPa) = 66.58976 82.17232 74.38104
# Shear Modulus (GPa) = 79.59914 32.96881 56.28397
#
# Velocity S-wave (km/s) = 5.51763 3.55100 4.63971
# Velocity P-wave (km/s) = 8.12779 6.94559 7.55984
#
# Compressibility (1/GPa) = 0.01501732
#
# Stress axis : x y z
#
# Youngs Moduli (GPa) = 66.82179 177.07017 143.62618
#
# Poissons Ratio (x) = 0.39578 0.36915
# Poissons Ratio (y) = 0.14936 0.21164
# Poissons Ratio (z) = 0.17175 0.26092
#
# Static dielectric constant tensor:
#      x y z
#    x 2.311330 0.000000 0.038970 
#    y 0.000000 2.114710 0.000000 
#    z 0.038970 0.000000 1.930670 
# 
# From -- ./inp_files/77163.got.cif
#   From: 2010.05.17/outbox.cif.g08.bks.cpg/sg12_39_cif.got.tgz:77163.got - 2010.06.03 13:09:07.
