data_PCOD9203256
_publ_section_title
;
Structure prediction by ZEFSAII (Michael W. Deem and Ramdas Pophale) SiO2 
 PCOD9203256
Probable space group: C 2/M
;
_chemical_formula_sum "Si O2"
_cell_formula_units_Z 64
_cell_length_a 10.699494
_cell_length_b 17.091825
_cell_length_c 17.246804
_cell_angle_alpha 90.000000
_cell_angle_beta 87.422266
_cell_angle_gamma 90.000000
_cell_volume 3150.798499
_symmetry_space_group_name_H-M "C 2/M"
_symmetry_group_IT_number 12
_symmetry_cell_setting 'monoclinic'
loop_
_space_group_symop_operation_xyz
x,y,z
-x,y,-z
-x,-y,-z
x,-y,z
1/2+x,1/2+y,z
1/2-x,1/2+y,-z
1/2-x,1/2-y,-z
1/2+x,1/2-y,z
loop_
_atom_site_type_symbol
_atom_site_label
_atom_site_fract_x
_atom_site_fract_y
_atom_site_fract_z
Si Si1 0.031359 0.337286 0.163847
Si Si2 0.566485 0.335557 0.877740
Si Si3 0.314648 0.590856 0.876831
Si Si4 0.791068 0.407074 0.962192
Si Si5 0.354832 0.593463 0.587946
Si Si6 0.774385 0.168998 0.266684
Si Si7 0.799743 0.651937 0.266136
Si Si8 0.640506 0.405840 0.586938
O O1 0.086185 0.385565 0.089902
O O2 0.147731 0.327136 0.220056
O O3 0.976942 0.254382 0.133379
O O4 0.924616 0.377529 0.219515
O O5 0.448943 0.386348 0.906880
O O6 0.682609 0.350692 0.931229
O O7 0.620141 0.365569 0.793612
O O8 0.309592 0.500000 0.856211
O O9 0.299719 0.641161 0.800178
O O10 0.211427 0.606871 0.945561
O O11 0.761962 0.500000 0.952034
O O12 0.362605 0.500000 0.583707
O O13 0.253443 0.614073 0.655167
O O14 0.325728 0.620820 0.501181
O O15 0.496015 0.620419 0.605330
O O16 0.816107 0.257126 0.282762
O O17 0.771358 0.124374 0.347424
O O18 0.642271 0.500000 0.588079
#
# Coordination Sequence:
#
# PCOD9203256 Si02
#       8
#     8   8   8   8   8   8   8   8
#     4  10  23  41  56  84 124 163 201 244 300 364
#     4  10  20  39  60  88 116 154 199 254 303 357
#     4  11  22  38  61  88 115 151 200 256 306 352
#     4  10  23  41  61  88 121 157 207 259 307 363
#     4   9  19  37  62  91 119 149 191 244 300 354
#     4  10  21  37  58  84 119 156 196 242 290 358
#     4  11  22  37  57  84 121 158 198 239 293 361
#     4   9  19  37  63  92 117 148 194 246 298 352
#
# _framework density 20.312311000000001
#
# number of rings (size 3 to 8) (size 9 to 14) (size 15 to 20)
#    0.000    2.000    1.250    2.625    1.750    7.000 
#    4.500    1.875    0.000    1.500    0.000    0.000 
#    0.000    0.000    0.000    0.000    0.000    0.000 
#
# Total GULP energy -178505.348642 kJ/mol
# GULP energy per Si atom -5578.292145 kJ/mol
# Density = 2.026608 g / cm^3
# Si number density = 20.312311 Si / 1000 Ang^3
#
#
#
# Elastic Constant Matrix: (Units=GPa)
#
#
# Indices 1 2 3 4 5 6 
#
# 1 74.6776 14.0171 29.2710 0.0000 -20.8921 0.0000
# 2 14.0171 45.2076 38.6794 0.0000 -0.6195 0.0000
# 3 29.2710 38.6794 120.9250 0.0000 -19.4053 0.0000
# 4 0.0000 0.0000 0.0000 50.5308 0.0000 -2.4663
# 5 -20.8921 -0.6195 -19.4053 0.0000 31.8611 0.0000
# 6 0.0000 0.0000 0.0000 -2.4663 0.0000 25.6989
#
#
#
# Elastic Compliance Matrix: (Units=1/GPa)
#
#
# Indices 1 2 3 4 5 6 
#
# 1 0.017683 -0.004345 -0.001156 0.000000 0.010807 0.000000
# 2 -0.004345 0.032564 -0.010773 0.000000 -0.008778 0.000000
# 3 -0.001156 -0.010773 0.013123 0.000000 0.007025 0.000000
# 4 0.000000 0.000000 0.000000 0.019883 0.000000 0.001908
# 5 0.010807 -0.008778 0.007025 0.000000 0.042580 0.000000
# 6 0.000000 0.000000 0.000000 0.001908 0.000000 0.039095
#
#
# Mechanical properties :
#
#
# Convention : Reuss Voigt Hill
#
# Bulk Modulus (GPa) = 32.44547 44.97170 38.70859
# Shear Modulus (GPa) = 24.06722 32.20767 28.13744
#
# Velocity S-wave (km/s) = 3.44591 3.98631 3.72592
# Velocity P-wave (km/s) = 5.64273 6.58602 6.13254
#
# Compressibility (1/GPa) = 0.03082094
#
# Stress axis : x y z
#
# Youngs Moduli (GPa) = 56.55146 30.70832 76.20445
#
# Poissons Ratio (x) = 0.13344 0.08811
# Poissons Ratio (y) = 0.24574 0.82094
# Poissons Ratio (z) = 0.06539 0.33082
#
# Static dielectric constant tensor:
#      x y z
#    x 1.774010 0.000000 -0.003590 
#    y 0.000000 1.704240 0.000000 
#    z -0.003590 0.000000 1.737040 
# 
# From -- ./inp_files/206704.got.cif
#   From: 2010.05.17/outbox.cif.g08.bks.cpg/sg12_104_cif.got.tgz:206704.got - 2010.06.03 13:09:07.
