data_PCOD9203311
_publ_section_title
;
Structure prediction by ZEFSAII (Michael W. Deem and Ramdas Pophale) SiO2 
 PCOD9203311
Probable space group: C 2/M
;
_chemical_formula_sum "Si O2"
_cell_formula_units_Z 60
_cell_length_a 16.165107
_cell_length_b 17.644761
_cell_length_c 12.306051
_cell_angle_alpha 90.000000
_cell_angle_beta 63.690863
_cell_angle_gamma 90.000000
_cell_volume 3146.462490
_symmetry_space_group_name_H-M "C 2/M"
_symmetry_group_IT_number 12
_symmetry_cell_setting 'monoclinic'
loop_
_space_group_symop_operation_xyz
x,y,z
-x,y,-z
-x,-y,-z
x,-y,z
1/2+x,1/2+y,z
1/2-x,1/2+y,-z
1/2-x,1/2-y,-z
1/2+x,1/2-y,z
loop_
_atom_site_type_symbol
_atom_site_label
_atom_site_fract_x
_atom_site_fract_y
_atom_site_fract_z
Si Si1 0.493496 0.585785 0.133370
Si Si2 0.611487 0.908923 0.924348
Si Si3 0.665670 0.803296 0.690427
Si Si4 0.000000 0.241274 0.500000
Si Si5 0.029011 0.776107 0.248170
Si Si6 0.812838 0.672149 0.566899
Si Si7 0.213616 0.914667 0.785522
Si Si8 0.303061 0.178369 0.921142
O O1 0.519574 0.500000 0.149263
O O2 0.547694 0.651847 0.161543
O O3 0.384396 0.598131 0.216017
O O4 0.500000 0.592286 0.000000
O O5 0.653312 0.861147 0.797925
O O6 0.624667 0.000000 0.905221
O O7 0.500000 0.895438 0.000000
O O8 0.660322 0.876355 0.004458
O O9 0.566288 0.763332 0.732826
O O10 0.741094 0.735881 0.654451
O O11 0.694672 0.840430 0.557926
O O12 0.018198 0.196810 0.378519
O O13 0.087173 0.294071 0.471339
O O14 0.108322 0.713592 0.191735
O O15 0.791260 0.599152 0.650294
O O16 0.236944 0.862584 0.873885
O O17 0.211369 0.000000 0.827685
O O18 0.250000 0.250000 0.000000
#
# Coordination Sequence:
#
# PCOD9203311 Si02
#       8
#     8   8   8   4   8   8   8   8
#     4  10  22  39  61  89 121 157 199 251 303 357
#     4  11  24  41  60  91 130 161 196 248 311 371
#     4  10  21  38  64  86 116 156 206 247 290 360
#     4  10  22  38  60  90 118 152 198 254 300 354
#     4  11  21  37  64  87 117 154 206 244 297 355
#     4  10  20  39  61  89 115 155 205 250 297 351
#     4  11  22  39  60  88 122 154 198 250 303 353
#     4  12  24  37  61  89 121 161 201 245 298 360
#
# _framework density 19.069035
#
# number of rings (size 3 to 8) (size 9 to 14) (size 15 to 20)
#    0.000    1.333    4.000    2.000    1.867    0.533 
#    0.000    1.333    0.000    0.000    0.000    0.000 
#    0.000    0.000    0.000    0.000    0.000    0.000 
#
# Total GULP energy -167404.821121 kJ/mol
# GULP energy per Si atom -5580.160704 kJ/mol
# Density = 1.902563 g / cm^3
# Si number density = 19.069035 Si / 1000 Ang^3
#
#
#
# Elastic Constant Matrix: (Units=GPa)
#
#
# Indices 1 2 3 4 5 6 
#
# 1 31.3081 2.1637 -1.4268 0.0000 -3.9559 0.0000
# 2 2.1637 75.4927 32.3100 0.0000 12.0164 0.0000
# 3 -1.4268 32.3100 93.1635 0.0000 10.1999 0.0000
# 4 0.0000 0.0000 0.0000 19.0191 0.0000 8.0934
# 5 -3.9559 12.0164 10.1999 0.0000 37.6210 0.0000
# 6 0.0000 0.0000 0.0000 8.0934 0.0000 16.8067
#
#
#
# Elastic Compliance Matrix: (Units=1/GPa)
#
#
# Indices 1 2 3 4 5 6 
#
# 1 0.032584 -0.001852 0.000723 0.000000 0.003822 0.000000
# 2 -0.001852 0.016152 -0.005198 0.000000 -0.003944 0.000000
# 3 0.000723 -0.005198 0.012736 0.000000 -0.001717 0.000000
# 4 0.000000 0.000000 0.000000 0.066130 0.000000 -0.031846
# 5 0.003822 -0.003944 -0.001717 0.000000 0.028708 0.000000
# 6 0.000000 0.000000 0.000000 -0.031846 0.000000 0.074836
#
#
# Mechanical properties :
#
#
# Convention : Reuss Voigt Hill
#
# Bulk Modulus (GPa) = 20.48424 29.56201 25.02313
# Shear Modulus (GPa) = 19.22539 25.81717 22.52128
#
# Velocity S-wave (km/s) = 3.17866 3.68350 3.44035
# Velocity P-wave (km/s) = 4.92314 5.79890 5.37887
#
# Compressibility (1/GPa) = 0.04881801
#
# Stress axis : x y z
#
# Youngs Moduli (GPa) = 30.68953 61.91186 78.52002
#
# Poissons Ratio (x) = 0.11463 -0.05675
# Poissons Ratio (y) = 0.05682 0.40816
# Poissons Ratio (z) = -0.02218 0.32183
#
# Static dielectric constant tensor:
#      x y z
#    x 1.681260 0.000000 -0.013990 
#    y 0.000000 1.649310 0.000000 
#    z -0.013990 0.000000 1.706360 
# 
# From -- ./inp_files/158261.got.cif
#   From: 2010.05.17/outbox.cif.g08.bks.cpg/sg12_80_cif.got.tgz:158261.got - 2010.06.03 13:09:07.
