data_PCOD9203177
_publ_section_title
;
Structure prediction by ZEFSAII (Michael W. Deem and Ramdas Pophale) SiO2 
 PCOD9203177
Probable space group: C 2/M
;
_chemical_formula_sum "Si O2"
_cell_formula_units_Z 48
_cell_length_a 16.032905
_cell_length_b 19.332952
_cell_length_c 9.594398
_cell_angle_alpha 90.000000
_cell_angle_beta 118.402823
_cell_angle_gamma 90.000000
_cell_volume 2615.927805
_symmetry_space_group_name_H-M "C 2/M"
_symmetry_group_IT_number 12
_symmetry_cell_setting 'monoclinic'
loop_
_space_group_symop_operation_xyz
x,y,z
-x,y,-z
-x,-y,-z
x,-y,z
1/2+x,1/2+y,z
1/2-x,1/2+y,-z
1/2-x,1/2-y,-z
1/2+x,1/2-y,z
loop_
_atom_site_type_symbol
_atom_site_label
_atom_site_fract_x
_atom_site_fract_y
_atom_site_fract_z
Si Si1 0.338205 0.579163 0.807605
Si Si2 0.394350 0.744754 0.176204
Si Si3 0.249173 0.365090 0.016218
Si Si4 0.846495 0.417450 0.518101
Si Si5 0.896001 0.582416 0.871473
Si Si6 0.000000 0.320031 0.500000
Si Si7 0.000000 0.185520 0.000000
O O1 0.372284 0.500000 0.823916
O O2 0.259306 0.591133 0.625934
O O3 0.287387 0.589614 0.918073
O O4 0.421934 0.634969 0.868716
O O5 0.337683 0.673634 0.159193
O O6 0.466146 0.771073 0.348593
O O7 0.447166 0.731275 0.072683
O O8 0.315958 0.804616 0.100185
O O9 0.182426 0.401509 0.075008
O O10 0.868774 0.500000 0.523110
O O11 0.862837 0.395006 0.691332
O O12 0.915986 0.370657 0.481771
O O13 0.904909 0.500000 0.868869
O O14 0.000000 0.609343 0.000000
#
# Coordination Sequence:
#
# PCOD9203177 Si02
#       7
#     8   8   8   8   8   4   4
#     4  10  20  39  64  85 111 149 193 243 286 328
#     4  10  23  36  56  78 116 149 192 225 276 337
#     4  10  20  39  54  81 111 153 186 231 276 338
#     4  10  22  36  56  85 115 145 187 240 286 335
#     4  10  21  35  55  84 114 148 186 231 286 339
#     4  12  21  38  54  84 111 156 186 228 286 338
#     4  10  23  40  58  86 115 150 198 236 276 336
#
# _framework density 18.349131
#
# number of rings (size 3 to 8) (size 9 to 14) (size 15 to 20)
#    0.000    1.833    1.667    2.000    3.500    1.333 
#    0.000    1.667    0.000    0.000    0.000   11.667 
#    0.000    0.000    0.000    0.000    0.000    0.000 
#
# Total GULP energy -133922.078897 kJ/mol
# GULP energy per Si atom -5580.086621 kJ/mol
# Density = 1.830737 g / cm^3
# Si number density = 18.349131 Si / 1000 Ang^3
#
#
#
# Elastic Constant Matrix: (Units=GPa)
#
#
# Indices 1 2 3 4 5 6 
#
# 1 39.6521 -8.3538 -5.8328 0.0000 7.4021 0.0000
# 2 -8.3538 28.7368 19.6784 0.0000 15.1017 0.0000
# 3 -5.8328 19.6784 73.6287 0.0000 20.1382 0.0000
# 4 0.0000 0.0000 0.0000 56.5156 0.0000 24.8391
# 5 7.4021 15.1017 20.1382 0.0000 24.0199 0.0000
# 6 0.0000 0.0000 0.0000 24.8391 0.0000 40.0245
#
#
#
# Elastic Compliance Matrix: (Units=1/GPa)
#
#
# Indices 1 2 3 4 5 6 
#
# 1 0.036237 0.022717 0.004879 0.000000 -0.029540 0.000000
# 2 0.022717 0.068665 -0.003672 0.000000 -0.047094 0.000000
# 3 0.004879 -0.003672 0.019112 0.000000 -0.015218 0.000000
# 4 0.000000 0.000000 0.000000 0.024331 0.000000 -0.015100
# 5 -0.029540 -0.047094 -0.015218 0.000000 0.093103 0.000000
# 6 0.000000 0.000000 0.000000 -0.015100 0.000000 0.034355
#
#
# Mechanical properties :
#
#
# Convention : Reuss Voigt Hill
#
# Bulk Modulus (GPa) = 5.81857 17.00013 11.40935
# Shear Modulus (GPa) = 17.52891 33.21370 25.37131
#
# Velocity S-wave (km/s) = 3.09414 4.25914 3.72250
# Velocity P-wave (km/s) = 3.99286 5.78549 4.97066
#
# Compressibility (1/GPa) = 0.17186351
#
# Stress axis : x y z
#
# Youngs Moduli (GPa) = 27.59577 14.56335 52.32366
#
# Poissons Ratio (x) = -0.33084 -0.25527
# Poissons Ratio (y) = -0.62690 0.19212
# Poissons Ratio (z) = -0.13463 0.05347
#
# Static dielectric constant tensor:
#      x y z
#    x 1.615910 0.000000 0.014260 
#    y 0.000000 1.626530 0.000000 
#    z 0.014260 0.000000 1.625420 
# 
# From -- ./inp_files/63661.got.cif
#   From: 2010.05.17/outbox.cif.g08.bks.cpg/sg12_32_cif.got.tgz:63661.got - 2010.06.03 13:09:07.
