data_PCOD9203147
_publ_section_title
;
Structure prediction by ZEFSAII (Michael W. Deem and Ramdas Pophale) SiO2 
 PCOD9203147
Probable space group: C 2/M
;
_chemical_formula_sum "Si O2"
_cell_formula_units_Z 64
_cell_length_a 15.486815
_cell_length_b 28.643110
_cell_length_c 7.965663
_cell_angle_alpha 90.000000
_cell_angle_beta 130.328062
_cell_angle_gamma 90.000000
_cell_volume 2693.763382
_symmetry_space_group_name_H-M "C 2/M"
_symmetry_group_IT_number 12
_symmetry_cell_setting 'monoclinic'
loop_
_space_group_symop_operation_xyz
x,y,z
-x,y,-z
-x,-y,-z
x,-y,z
1/2+x,1/2+y,z
1/2-x,1/2+y,-z
1/2-x,1/2-y,-z
1/2+x,1/2-y,z
loop_
_atom_site_type_symbol
_atom_site_label
_atom_site_fract_x
_atom_site_fract_y
_atom_site_fract_z
Si Si1 0.172517 0.615669 0.082403
Si Si2 0.151297 0.277073 0.484071
Si Si3 0.864232 0.947054 0.192362
Si Si4 0.740261 0.696243 0.031916
Si Si5 0.228057 0.448194 0.668970
Si Si6 0.570421 0.877534 0.319171
Si Si7 0.514616 0.306883 0.215618
Si Si8 0.070589 0.906933 0.264166
O O1 0.284554 0.584991 0.204264
O O2 0.203303 0.665894 0.042522
O O3 0.057538 0.603806 0.836643
O O4 0.129927 0.611662 0.217414
O O5 0.250000 0.250000 0.500000
O O6 0.205467 0.301686 0.714890
O O7 0.079798 0.321239 0.327197
O O8 0.062202 0.234967 0.386999
O O9 0.794552 0.947082 0.928111
O O10 0.870635 0.000000 0.260912
O O11 0.987498 0.927810 0.298613
O O12 0.750000 0.750000 0.000000
O O13 0.611014 0.679484 0.885286
O O14 0.178095 0.500000 0.583861
O O15 0.141426 0.405560 0.546410
O O16 0.322806 0.438297 0.646481
O O17 0.594543 0.352329 0.329362
O O18 0.500000 0.292620 0.000000
O O19 0.000000 0.904812 0.000000
#
# Coordination Sequence:
#
# PCOD9203147 Si02
#       8
#     8   8   8   8   8   8   8   8
#     4  11  25  45  62  91 126 174 222 279 326 391
#     4  12  24  41  67  97 132 178 220 267 333 398
#     4  10  20  38  68  98 126 164 214 271 331 397
#     4  12  25  42  65  96 133 172 227 276 327 397
#     4  10  21  39  66  98 128 165 214 269 331 404
#     4  11  26  43  65  87 129 175 223 272 336 390
#     4  11  22  38  66  98 133 175 220 270 326 400
#     4   9  18  36  62  96 131 165 206 258 327 391
#
# _framework density 23.758583000000002
#
# number of rings (size 3 to 8) (size 9 to 14) (size 15 to 20)
#    0.000    1.250    2.500    3.375    3.500    6.000 
#    0.000    3.125    0.000    1.500    0.000    0.000 
#    0.000    0.000    0.000    0.000    0.000    0.000 
#
# Total GULP energy -178925.492360 kJ/mol
# GULP energy per Si atom -5591.421636 kJ/mol
# Density = 2.370451 g / cm^3
# Si number density = 23.758583 Si / 1000 Ang^3
#
#
#
# Elastic Constant Matrix: (Units=GPa)
#
#
# Indices 1 2 3 4 5 6 
#
# 1 72.5931 -7.7337 3.1049 0.0000 -3.5024 0.0000
# 2 -7.7337 109.1271 3.9426 0.0000 -8.3207 0.0000
# 3 3.1049 3.9426 49.7637 0.0000 4.5774 0.0000
# 4 0.0000 0.0000 0.0000 29.3258 0.0000 2.9015
# 5 -3.5024 -8.3207 4.5774 0.0000 23.3063 0.0000
# 6 0.0000 0.0000 0.0000 2.9015 0.0000 21.6325
#
#
#
# Elastic Compliance Matrix: (Units=1/GPa)
#
#
# Indices 1 2 3 4 5 6 
#
# 1 0.014098 0.001258 -0.001238 0.000000 0.002811 0.000000
# 2 0.001258 0.009589 -0.001192 0.000000 0.003847 0.000000
# 3 -0.001238 -0.001192 0.020697 0.000000 -0.004676 0.000000
# 4 0.000000 0.000000 0.000000 0.034558 0.000000 -0.004635
# 5 0.002811 0.003847 -0.004676 0.000000 0.045621 0.000000
# 6 0.000000 0.000000 0.000000 -0.004635 0.000000 0.046848
#
#
# Mechanical properties :
#
#
# Convention : Reuss Voigt Hill
#
# Bulk Modulus (GPa) = 23.78660 25.56796 24.67728
# Shear Modulus (GPa) = 26.62853 30.33094 28.47974
#
# Velocity S-wave (km/s) = 3.35146 3.57687 3.46600
# Velocity P-wave (km/s) = 5.00099 5.27671 5.14070
#
# Compressibility (1/GPa) = 0.04204047
#
# Stress axis : x y z
#
# Youngs Moduli (GPa) = 70.93195 104.28445 48.31670
#
# Poissons Ratio (x) = -0.13121 0.05981
# Poissons Ratio (y) = -0.08924 0.05760
# Poissons Ratio (z) = 0.08780 0.12431
#
# Static dielectric constant tensor:
#      x y z
#    x 1.926970 0.000000 -0.064450 
#    y 0.000000 1.835290 0.000000 
#    z -0.064450 0.000000 2.080530 
# 
# From -- ./inp_files/68631.got.cif
#   From: 2010.05.17/outbox.cif.g08.bks.cpg/sg12_35_cif.got.tgz:68631.got - 2010.06.03 13:09:07.
