data_PCOD9203519
_publ_section_title
;
Structure prediction by ZEFSAII (Michael W. Deem and Ramdas Pophale) SiO2 
 PCOD9203519
Probable space group: C 2/M
;
_chemical_formula_sum "Si O2"
_cell_formula_units_Z 56
_cell_length_a 19.693941
_cell_length_b 8.923977
_cell_length_c 28.886507
_cell_angle_alpha 90.000000
_cell_angle_beta 33.438799
_cell_angle_gamma 90.000000
_cell_volume 2797.524622
_symmetry_space_group_name_H-M "C 2/M"
_symmetry_group_IT_number 12
_symmetry_cell_setting 'monoclinic'
loop_
_space_group_symop_operation_xyz
x,y,z
-x,y,-z
-x,-y,-z
x,-y,z
1/2+x,1/2+y,z
1/2-x,1/2+y,-z
1/2-x,1/2-y,-z
1/2+x,1/2-y,z
loop_
_atom_site_type_symbol
_atom_site_label
_atom_site_fract_x
_atom_site_fract_y
_atom_site_fract_z
Si Si1 0.885756 0.820716 0.151257
Si Si2 0.470288 0.177825 0.715768
Si Si3 0.923456 0.322269 0.447207
Si Si4 0.782421 0.678296 0.378317
Si Si5 0.180836 0.680495 0.342730
Si Si6 0.339134 0.321105 0.987594
Si Si7 0.211251 0.677594 0.883822
O O1 0.771272 0.777239 0.249015
O O2 0.875315 0.738917 0.108061
O O3 0.878576 0.000000 0.147138
O O4 0.015363 0.789710 0.102709
O O5 0.532619 0.199317 0.630257
O O6 0.575334 0.216622 0.693093
O O7 0.349082 0.275065 0.790516
O O8 0.438545 0.000000 0.737443
O O9 0.902261 0.500000 0.466141
O O10 0.802974 0.234798 0.531163
O O11 0.040568 0.275374 0.411784
O O12 0.774244 0.500000 0.380246
O O13 0.731011 0.751624 0.361241
O O14 0.183016 0.500000 0.344415
O O15 0.321973 0.500000 0.997496
O O16 0.311893 0.255997 0.053898
O O17 0.250000 0.250000 0.000000
O O18 0.198434 0.500000 0.895503
#
# Coordination Sequence:
#
# PCOD9203519 Si02
#       7
#     8   8   8   8   8   8   8
#     4  10  22  44  69  92 124 168 211 253 308 373
#     4  10  22  42  63  87 122 167 211 256 312 369
#     4  10  20  39  64  85 115 163 212 255 307 372
#     4  11  24  37  57  90 127 161 202 261 318 364
#     4  10  21  39  63  88 120 163 209 251 303 372
#     4  11  25  44  69  99 132 167 204 252 310 371
#     4  12  25  41  66  97 128 165 210 259 310 368
#
# _framework density 20.017696999999998
#
# number of rings (size 3 to 8) (size 9 to 14) (size 15 to 20)
#    0.000    1.429    1.429    3.429    2.000    7.429 
#    0.000    0.000    0.000    0.000    0.000    0.000 
#    0.000    0.000    0.000    0.000    0.000    0.000 
#
# Total GULP energy -156593.203370 kJ/mol
# GULP energy per Si atom -5592.614406 kJ/mol
# Density = 1.997214 g / cm^3
# Si number density = 20.017697 Si / 1000 Ang^3
#
#
#
# Elastic Constant Matrix: (Units=GPa)
#
#
# Indices 1 2 3 4 5 6 
#
# 1 79.3982 20.6477 2.7575 0.0000 -22.8165 0.0000
# 2 20.6477 36.2626 19.5422 0.0000 -13.1448 0.0001
# 3 2.7575 19.5422 54.4488 0.0000 -11.9009 0.0000
# 4 0.0000 0.0000 0.0000 27.7866 0.0000 -1.5956
# 5 -22.8165 -13.1448 -11.9009 0.0000 27.8422 0.0000
# 6 0.0000 0.0001 0.0000 -1.5956 0.0000 31.0166
#
#
#
# Elastic Compliance Matrix: (Units=1/GPa)
#
#
# Indices 1 2 3 4 5 6 
#
# 1 0.018404 -0.008346 0.004962 0.000000 0.013263 0.000000
# 2 -0.008346 0.042056 -0.013045 0.000000 0.007440 0.000000
# 3 0.004962 -0.013045 0.024642 0.000000 0.008440 0.000000
# 4 0.000000 0.000000 0.000000 0.036095 0.000000 0.001857
# 5 0.013263 0.007440 0.008440 0.000000 0.053906 0.000000
# 6 0.000000 0.000000 0.000000 0.001857 0.000000 0.032336
#
#
# Mechanical properties :
#
#
# Convention : Reuss Voigt Hill
#
# Bulk Modulus (GPa) = 19.14111 28.44493 23.79302
# Shear Modulus (GPa) = 19.40155 25.80655 22.60405
#
# Velocity S-wave (km/s) = 3.11661 3.59442 3.36401
# Velocity P-wave (km/s) = 4.74698 5.60956 5.19620
#
# Compressibility (1/GPa) = 0.05224358
#
# Stress axis : x y z
#
# Youngs Moduli (GPa) = 54.33582 23.77790 40.58187
#
# Poissons Ratio (x) = 0.19844 -0.20138
# Poissons Ratio (y) = 0.45347 0.52941
# Poissons Ratio (z) = -0.26962 0.31019
#
# Static dielectric constant tensor:
#      x y z
#    x 1.700530 0.000000 -0.010640 
#    y 0.000000 1.666890 0.000000 
#    z -0.010640 0.000000 1.705030 
# 
# From -- ./inp_files/380658.got.cif
#   From: 2010.05.17/outbox.cif.g08.bks.cpg/sg12_191_cif.got.tgz:380658.got - 2010.06.03 13:09:07.
