data_PCOD9203562
_publ_section_title
;
Structure prediction by ZEFSAII (Michael W. Deem and Ramdas Pophale) SiO2 
 PCOD9203562
Probable space group: C 2/M
;
_chemical_formula_sum "Si O2"
_cell_formula_units_Z 36
_cell_length_a 11.861794
_cell_length_b 16.394190
_cell_length_c 10.250530
_cell_angle_alpha 90.000000
_cell_angle_beta 114.195036
_cell_angle_gamma 90.000000
_cell_volume 1818.258408
_symmetry_space_group_name_H-M "C 2/M"
_symmetry_group_IT_number 12
_symmetry_cell_setting 'monoclinic'
loop_
_space_group_symop_operation_xyz
x,y,z
-x,y,-z
-x,-y,-z
x,-y,z
1/2+x,1/2+y,z
1/2-x,1/2+y,-z
1/2-x,1/2-y,-z
1/2+x,1/2-y,z
loop_
_atom_site_type_symbol
_atom_site_label
_atom_site_fract_x
_atom_site_fract_y
_atom_site_fract_z
Si Si1 0.894068 0.000000 0.560822
Si Si2 0.810286 0.198445 0.223615
Si Si3 0.282648 0.155933 0.559009
Si Si4 0.356844 0.657515 0.963635
Si Si5 0.000000 0.294112 0.500000
Si Si6 0.114032 0.000000 0.151847
O O1 0.812018 0.917162 0.516655
O O2 0.940114 0.000000 0.730351
O O3 0.000000 0.000000 0.500000
O O4 0.720718 0.156338 0.286067
O O5 0.732317 0.271599 0.125634
O O6 0.924277 0.235414 0.362879
O O7 0.849248 0.146087 0.116380
O O8 0.250000 0.250000 0.500000
O O9 0.410623 0.148971 0.543566
O O10 0.316024 0.581106 0.856198
O O11 0.500000 0.676902 0.000000
O O12 0.000000 0.000000 0.000000
#
# Coordination Sequence:
#
# PCOD9203562 Si02
#       6
#     4   8   8   8   4   4
#     4  12  28  41  67 101 135 171 231 279 331 395
#     4  10  21  36  62  92 121 175 216 273 316 404
#     4  10  23  39  64  92 131 172 216 271 335 380
#     4  10  21  37  59  86 129 166 218 259 334 387
#     4  10  20  39  64  89 132 172 230 263 334 401
#     4  10  22  36  57  85 124 166 199 270 326 372
#
# _framework density 19.799167000000001
#
# number of rings (size 3 to 8) (size 9 to 14) (size 15 to 20)
#    0.000    1.778    0.000    4.000   12.444    0.444 
#    0.000    1.111    0.000    0.000    0.000   10.111 
#    0.000    0.000    0.000    0.000    0.000    0.000 
#
# Total GULP energy -100256.488523 kJ/mol
# GULP energy per Si atom -5569.804918 kJ/mol
# Density = 1.975410 g / cm^3
# Si number density = 19.799167 Si / 1000 Ang^3
#
#
#
# Elastic Constant Matrix: (Units=GPa)
#
#
# Indices 1 2 3 4 5 6 
#
# 1 141.3684 38.0413 59.7919 0.0000 -42.2240 0.0000
# 2 38.0413 83.7962 25.5251 0.0000 -3.0485 0.0000
# 3 59.7919 25.5251 147.6262 0.0000 -38.9002 0.0000
# 4 0.0000 0.0000 0.0000 23.4640 0.0000 13.4472
# 5 -42.2240 -3.0485 -38.9002 0.0000 48.9070 0.0000
# 6 0.0000 0.0000 0.0000 13.4472 0.0000 21.5158
#
#
#
# Elastic Compliance Matrix: (Units=1/GPa)
#
#
# Indices 1 2 3 4 5 6 
#
# 1 0.011432 -0.004372 -0.001702 0.000000 0.008244 0.000000
# 2 -0.004372 0.014325 -0.001854 0.000000 -0.004356 0.000000
# 3 -0.001702 -0.001854 0.009319 0.000000 0.005827 0.000000
# 4 0.000000 0.000000 0.000000 0.066403 0.000000 -0.041501
# 5 0.008244 -0.004356 0.005827 0.000000 0.031928 0.000000
# 6 0.000000 0.000000 0.000000 -0.041501 0.000000 0.072415
#
#
# Mechanical properties :
#
#
# Convention : Reuss Voigt Hill
#
# Bulk Modulus (GPa) = 52.02727 68.83416 60.43072
# Shear Modulus (GPa) = 21.92175 35.40619 28.66397
#
# Velocity S-wave (km/s) = 3.33108 4.23338 3.80904
# Velocity P-wave (km/s) = 6.41322 7.66401 7.06634
#
# Compressibility (1/GPa) = 0.01922069
#
# Stress axis : x y z
#
# Youngs Moduli (GPa) = 87.47210 69.81021 107.30283
#
# Poissons Ratio (x) = 0.30518 0.18265
# Poissons Ratio (y) = 0.38239 0.19894
# Poissons Ratio (z) = 0.14890 0.12943
#
# Static dielectric constant tensor:
#      x y z
#    x 1.679310 0.000000 -0.047000 
#    y 0.000000 1.994670 0.000000 
#    z -0.047000 0.000000 1.733170 
# 
# From -- ./inp_files/47280.got.cif
#   From: 2010.05.17/outbox.cif.g08.bks.cpg/sg12_24_cif.got.tgz:47280.got - 2010.06.03 13:09:07.
