data_PCOD9203293
_publ_section_title
;
Structure prediction by ZEFSAII (Michael W. Deem and Ramdas Pophale) SiO2 
 PCOD9203293
Probable space group: C 2/M
;
_chemical_formula_sum "Si O2"
_cell_formula_units_Z 56
_cell_length_a 24.898378
_cell_length_b 7.622957
_cell_length_c 12.794466
_cell_angle_alpha 90.000000
_cell_angle_beta 87.209221
_cell_angle_gamma 90.000000
_cell_volume 2425.500148
_symmetry_space_group_name_H-M "C 2/M"
_symmetry_group_IT_number 12
_symmetry_cell_setting 'monoclinic'
loop_
_space_group_symop_operation_xyz
x,y,z
-x,y,-z
-x,-y,-z
x,-y,z
1/2+x,1/2+y,z
1/2-x,1/2+y,-z
1/2-x,1/2-y,-z
1/2+x,1/2-y,z
loop_
_atom_site_type_symbol
_atom_site_label
_atom_site_fract_x
_atom_site_fract_y
_atom_site_fract_z
Si Si1 0.392746 0.712986 0.533719
Si Si2 0.623469 0.793618 0.136233
Si Si3 0.223890 0.208503 0.391058
Si Si4 0.407837 0.701918 0.301211
Si Si5 0.470111 0.205639 0.705799
Si Si6 0.258152 0.796984 0.836409
Si Si7 0.144116 0.786377 0.906674
O O1 0.393821 0.500000 0.531700
O O2 0.338149 0.768934 0.596896
O O3 0.391772 0.779626 0.414871
O O4 0.444010 0.773659 0.594012
O O5 0.574990 0.721157 0.210338
O O6 0.682942 0.715837 0.151830
O O7 0.626173 0.000000 0.163392
O O8 0.614634 0.773872 0.013859
O O9 0.250000 0.250000 0.500000
O O10 0.252180 0.289139 0.287320
O O11 0.224696 0.000000 0.376961
O O12 0.389314 0.500000 0.306096
O O13 0.472275 0.706337 0.290530
O O14 0.383196 0.777364 0.197679
O O15 0.478638 0.000000 0.726569
O O16 0.206164 0.723140 0.899643
O O17 0.261720 0.000000 0.867729
O O18 0.143923 0.000000 0.907300
#
# Coordination Sequence:
#
# PCOD9203293 Si02
#       7
#     8   8   8   8   8   8   8
#     4  10  21  39  61  85 116 154 196 239 288 348
#     4  10  22  39  60  86 120 154 191 245 300 348
#     4  11  22  35  57  88 121 158 195 237 289 349
#     4  10  22  40  59  84 117 154 195 244 293 341
#     4  11  23  39  60  88 118 153 194 241 295 349
#     4  10  20  39  61  85 119 155 193 243 294 347
#     4  10  22  39  62  87 116 155 200 245 290 348
#
# _framework density 23.08802
#
# number of rings (size 3 to 8) (size 9 to 14) (size 15 to 20)
#    0.000    1.714    1.429    2.571    0.000    8.571 
#    0.000    4.286    0.000    0.000    0.000    0.000 
#    0.000    0.000    0.000    0.000    0.000    0.000 
#
# Total GULP energy -156590.089251 kJ/mol
# GULP energy per Si atom -5592.503188 kJ/mol
# Density = 2.303547 g / cm^3
# Si number density = 23.088020 Si / 1000 Ang^3
#
#
#
# Elastic Constant Matrix: (Units=GPa)
#
#
# Indices 1 2 3 4 5 6 
#
# 1 46.5121 -2.1367 0.0169 0.0000 5.2041 0.0000
# 2 -2.1367 58.0970 -6.9596 0.0000 -2.7619 0.0000
# 3 0.0169 -6.9596 118.6257 0.0000 3.0152 0.0000
# 4 0.0000 0.0000 0.0000 25.6280 0.0000 4.0016
# 5 5.2041 -2.7619 3.0152 0.0000 29.4136 0.0000
# 6 0.0000 0.0000 0.0000 4.0016 0.0000 14.2354
#
#
#
# Elastic Compliance Matrix: (Units=1/GPa)
#
#
# Indices 1 2 3 4 5 6 
#
# 1 0.021959 0.000641 0.000132 0.000000 -0.003838 0.000000
# 2 0.000641 0.017422 0.000986 0.000000 0.001421 0.000000
# 3 0.000132 0.000986 0.008508 0.000000 -0.000803 0.000000
# 4 0.000000 0.000000 0.000000 0.040811 0.000000 -0.011472
# 5 -0.003838 0.001421 -0.000803 0.000000 0.034893 0.000000
# 6 0.000000 0.000000 0.000000 -0.011472 0.000000 0.073472
#
#
# Mechanical properties :
#
#
# Convention : Reuss Voigt Hill
#
# Bulk Modulus (GPa) = 19.45284 22.78622 21.11953
# Shear Modulus (GPa) = 23.73241 29.34302 26.53772
#
# Velocity S-wave (km/s) = 3.20958 3.56886 3.39398
# Velocity P-wave (km/s) = 4.70946 5.18393 4.95238
#
# Compressibility (1/GPa) = 0.05140637
#
# Stress axis : x y z
#
# Youngs Moduli (GPa) = 45.54008 57.39926 117.53492
#
# Poissons Ratio (x) = -0.03679 -0.01552
# Poissons Ratio (y) = -0.02919 -0.11588
# Poissons Ratio (z) = -0.00601 -0.05659
#
# Static dielectric constant tensor:
#      x y z
#    x 1.857990 0.000000 0.006090 
#    y 0.000000 1.867200 0.000000 
#    z 0.006090 0.000000 1.858050 
# 
# From -- ./inp_files/180877.got.cif
#   From: 2010.05.17/outbox.cif.g08.bks.cpg/sg12_91_cif.got.tgz:180877.got - 2010.06.03 13:09:07.
