data_PCOD9203236
_publ_section_title
;
Structure prediction by ZEFSAII (Michael W. Deem and Ramdas Pophale) SiO2 
 PCOD9203236
Probable space group: C 2/M
;
_chemical_formula_sum "Si O2"
_cell_formula_units_Z 48
_cell_length_a 22.986156
_cell_length_b 14.304665
_cell_length_c 14.217919
_cell_angle_alpha 90.000000
_cell_angle_beta 153.005575
_cell_angle_gamma 90.000000
_cell_volume 2121.992753
_symmetry_space_group_name_H-M "C 2/M"
_symmetry_group_IT_number 12
_symmetry_cell_setting 'monoclinic'
loop_
_space_group_symop_operation_xyz
x,y,z
-x,y,-z
-x,-y,-z
x,-y,z
1/2+x,1/2+y,z
1/2-x,1/2+y,-z
1/2-x,1/2-y,-z
1/2+x,1/2-y,z
loop_
_atom_site_type_symbol
_atom_site_label
_atom_site_fract_x
_atom_site_fract_y
_atom_site_fract_z
Si Si1 0.991615 0.103550 0.381478
Si Si2 0.787792 0.235412 0.831130
Si Si3 0.786141 0.650836 0.009296
Si Si4 0.342172 0.275704 0.525566
Si Si5 0.975223 0.891617 0.852720
Si Si6 0.074965 0.391589 0.451982
O O1 0.840304 0.094817 0.147039
O O2 0.000000 0.142045 0.500000
O O3 0.062481 0.168531 0.409411
O O4 0.050591 0.000000 0.465905
O O5 0.792248 0.322566 0.907561
O O6 0.786550 0.272706 0.721748
O O7 0.660528 0.168406 0.649386
O O8 0.904734 0.165651 0.015310
O O9 0.750000 0.750000 0.000000
O O10 0.921906 0.614588 0.241533
O O11 0.354630 0.332518 0.639392
O O12 0.392868 0.168927 0.595786
O O13 0.968629 0.000000 0.812604
O O14 0.000000 0.892274 0.000000
O O15 0.114652 0.500000 0.506653
#
# Coordination Sequence:
#
# PCOD9203236 Si02
#       6
#     8   8   8   8   8   8
#     4  11  20  33  56  83 118 157 192 232 282 338
#     4  10  20  39  60  83 115 158 186 243 290 351
#     4  12  20  35  56  83 122 155 196 237 286 337
#     4  10  21  38  60  84 119 152 194 240 288 341
#     4  11  23  41  65  90 113 146 195 247 300 355
#     4  10  21  36  57  81 112 155 195 231 284 342
#
# _framework density 22.620246999999999
#
# number of rings (size 3 to 8) (size 9 to 14) (size 15 to 20)
#    1.000    0.333    5.000    1.500    0.000    0.667 
#    0.000    3.333    0.000    0.500    0.000    0.000 
#    0.000    0.000    0.000    0.000    0.000    0.000 
#
# Total GULP energy -133756.951343 kJ/mol
# GULP energy per Si atom -5573.206306 kJ/mol
# Density = 2.256876 g / cm^3
# Si number density = 22.620247 Si / 1000 Ang^3
#
#
#
# Elastic Constant Matrix: (Units=GPa)
#
#
# Indices 1 2 3 4 5 6 
#
# 1 60.8219 2.8118 -4.4603 0.0000 -13.7414 0.0000
# 2 2.8118 114.5579 1.4454 0.0000 -6.6237 0.0000
# 3 -4.4603 1.4454 74.8027 0.0000 -5.9802 0.0000
# 4 0.0000 0.0000 0.0000 17.4589 0.0000 11.9176
# 5 -13.7414 -6.6237 -5.9802 0.0000 37.1599 0.0000
# 6 0.0000 0.0000 0.0000 11.9176 0.0000 -19.7513
#
#
#
# Elastic Compliance Matrix: (Units=1/GPa)
#
#
# Indices 1 2 3 4 5 6 
#
# 1 0.018137 -0.000063 0.001639 0.000000 0.006959 0.000000
# 2 -0.000063 0.008820 -0.000051 0.000000 0.001541 0.000000
# 3 0.001639 -0.000051 0.013691 0.000000 0.002800 0.000000
# 4 0.000000 0.000000 0.000000 0.040568 0.000000 0.024478
# 5 0.006959 0.001541 0.002800 0.000000 0.030210 0.000000
# 6 0.000000 0.000000 0.000000 0.024478 0.000000 -0.035860
#
#
# Mechanical properties :
#
#
# Convention : Reuss Voigt Hill
#
# Bulk Modulus (GPa) = 22.88457 27.75292 25.31875
# Shear Modulus (GPa) = 57.41622 23.66586 40.54104
#
# Velocity S-wave (km/s) = 5.04359 3.23805 4.23808
# Velocity P-wave (km/s) = 6.63746 5.12598 5.93007
#
# Compressibility (1/GPa) = 0.04369756
#
# Stress axis : x y z
#
# Youngs Moduli (GPa) = 55.13625 113.37242 73.04015
#
# Poissons Ratio (x) = 0.00719 -0.11972
# Poissons Ratio (y) = 0.00350 0.00373
# Poissons Ratio (z) = -0.09037 0.00579
#
# Static dielectric constant tensor:
#      x y z
#    x 2.031380 0.000000 -0.039990 
#    y 0.000000 1.768920 0.000000 
#    z -0.039990 0.000000 1.912170 
# 
# From -- ./inp_files/240750.got.cif
#   From: 2010.05.17/outbox.cif.g08.bks.cpg/sg12_121_cif.got.tgz:240750.got - 2010.06.03 13:09:07.
