data_PCOD9203643
_publ_section_title
;
Structure prediction by ZEFSAII (Michael W. Deem and Ramdas Pophale) SiO2 
 PCOD9203643
Probable space group: C 2/M
;
_chemical_formula_sum "Si O2"
_cell_formula_units_Z 56
_cell_length_a 19.216971
_cell_length_b 8.848599
_cell_length_c 19.292435
_cell_angle_alpha 90.000000
_cell_angle_beta 120.896485
_cell_angle_gamma 90.000000
_cell_volume 2815.027094
_symmetry_space_group_name_H-M "C 2/M"
_symmetry_group_IT_number 12
_symmetry_cell_setting 'monoclinic'
loop_
_space_group_symop_operation_xyz
x,y,z
-x,y,-z
-x,-y,-z
x,-y,z
1/2+x,1/2+y,z
1/2-x,1/2+y,-z
1/2-x,1/2-y,-z
1/2+x,1/2-y,z
loop_
_atom_site_type_symbol
_atom_site_label
_atom_site_fract_x
_atom_site_fract_y
_atom_site_fract_z
Si Si1 0.315262 0.180546 0.823739
Si Si2 0.172867 0.816995 0.500317
Si Si3 0.340714 0.316187 0.346467
Si Si4 0.985262 0.819518 0.913160
Si Si5 0.749204 0.825539 0.924659
Si Si6 0.439131 0.826358 0.175770
Si Si7 0.001253 0.182456 0.345254
O O1 0.237718 0.228901 0.738471
O O2 0.398356 0.258292 0.843771
O O3 0.299320 0.232924 0.894153
O O4 0.322649 0.000000 0.823733
O O5 0.250000 0.750000 0.500000
O O6 0.168976 0.768760 0.578844
O O7 0.087871 0.773027 0.420977
O O8 0.178150 0.000000 0.501512
O O9 0.342560 0.500000 0.347047
O O10 0.425180 0.267146 0.354230
O O11 0.049507 0.755294 0.891777
O O12 0.986430 0.000000 0.912657
O O13 0.000000 0.769209 0.000000
O O14 0.655485 0.823116 0.853247
O O15 0.777040 0.000000 0.941779
O O16 0.750000 0.750000 0.000000
O O17 0.488096 0.746169 0.261835
O O18 0.464780 0.000000 0.181741
O O19 0.998759 0.000000 0.341282
#
# Coordination Sequence:
#
# PCOD9203643 Si02
#       7
#     8   8   8   8   8   8   8
#     4  11  22  38  63  92 123 161 202 252 307 365
#     4  10  22  39  62  93 125 160 201 248 299 360
#     4   9  19  38  63  90 121 158 201 245 296 357
#     4  11  25  43  62  86 121 164 208 257 309 366
#     4  11  23  39  61  90 123 160 203 255 306 362
#     4  11  24  40  61  90 124 161 203 255 307 363
#     4  10  20  39  65  90 119 162 208 249 298 361
#
# _framework density 19.893236999999999
#
# number of rings (size 3 to 8) (size 9 to 14) (size 15 to 20)
#    0.000    1.571    1.429    3.000    2.000    7.429 
#    0.000    1.429    0.000    1.714    0.000    0.000 
#    0.000    0.000    0.000    0.000    0.000    0.000 
#
# Total GULP energy -156506.194859 kJ/mol
# GULP energy per Si atom -5589.506959 kJ/mol
# Density = 1.984796 g / cm^3
# Si number density = 19.893237 Si / 1000 Ang^3
#
#
#
# Elastic Constant Matrix: (Units=GPa)
#
#
# Indices 1 2 3 4 5 6 
#
# 1 93.6855 21.4681 23.5203 0.0000 2.0371 0.0000
# 2 21.4681 35.7886 21.1356 0.0000 0.8911 0.0000
# 3 23.5203 21.1356 107.9432 0.0000 -1.7708 0.0000
# 4 0.0000 0.0000 0.0000 21.8894 0.0000 -2.9441
# 5 2.0371 0.8911 -1.7708 0.0000 37.2250 0.0000
# 6 0.0000 0.0000 0.0000 -2.9441 0.0000 35.2339
#
#
#
# Elastic Compliance Matrix: (Units=1/GPa)
#
#
# Indices 1 2 3 4 5 6 
#
# 1 0.012580 -0.006679 -0.001443 0.000000 -0.000597 0.000000
# 2 -0.006679 0.035183 -0.005446 0.000000 -0.000736 0.000000
# 3 -0.001443 -0.005446 0.010657 0.000000 0.000716 0.000000
# 4 0.000000 0.000000 0.000000 0.046203 0.000000 0.003861
# 5 -0.000597 -0.000736 0.000716 0.000000 0.026948 0.000000
# 6 0.000000 0.000000 0.000000 0.003861 0.000000 0.028704
#
#
# Mechanical properties :
#
#
# Convention : Reuss Voigt Hill
#
# Bulk Modulus (GPa) = 31.96563 41.07393 36.51978
# Shear Modulus (GPa) = 25.27319 30.28920 27.78120
#
# Velocity S-wave (km/s) = 3.56819 3.90627 3.74105
# Velocity P-wave (km/s) = 5.75148 6.40603 6.08756
#
# Compressibility (1/GPa) = 0.03128360
#
# Stress axis : x y z
#
# Youngs Moduli (GPa) = 79.49256 28.42312 93.83856
#
# Poissons Ratio (x) = 0.18984 0.13542
# Poissons Ratio (y) = 0.53093 0.51101
# Poissons Ratio (z) = 0.11472 0.15478
#
# Static dielectric constant tensor:
#      x y z
#    x 1.721110 0.000000 0.011520 
#    y 0.000000 1.675440 0.000000 
#    z 0.011520 0.000000 1.686950 
# 
# From -- ./inp_files/275665.got.cif
#   From: 2010.05.17/outbox.cif.g08.bks.cpg/sg12_138_cif.got.tgz:275665.got - 2010.06.03 13:09:07.
