data_PCOD9203953
_publ_section_title
;
Structure prediction by ZEFSAII (Michael W. Deem and Ramdas Pophale) SiO2 
 PCOD9203953
Probable space group: C 2/M
;
_chemical_formula_sum "Si O2"
_cell_formula_units_Z 40
_cell_length_a 9.563712
_cell_length_b 25.342889
_cell_length_c 15.764545
_cell_angle_alpha 90.000000
_cell_angle_beta 34.601278
_cell_angle_gamma 90.000000
_cell_volume 2169.736223
_symmetry_space_group_name_H-M "C 2/M"
_symmetry_group_IT_number 12
_symmetry_cell_setting 'monoclinic'
loop_
_space_group_symop_operation_xyz
x,y,z
-x,y,-z
-x,-y,-z
x,-y,z
1/2+x,1/2+y,z
1/2-x,1/2+y,-z
1/2-x,1/2-y,-z
1/2+x,1/2-y,z
loop_
_atom_site_type_symbol
_atom_site_label
_atom_site_fract_x
_atom_site_fract_y
_atom_site_fract_z
Si Si1 0.404201 0.500000 0.355512
Si Si2 0.380494 0.000000 0.682553
Si Si3 0.706479 0.602120 0.161219
Si Si4 0.538659 0.802250 0.385533
Si Si5 0.985993 0.182566 0.601636
Si Si6 0.385169 0.608111 0.149377
O O1 0.246557 0.500000 0.347042
O O2 0.579177 0.550784 0.266946
O O3 0.177651 0.500000 0.534587
O O4 0.276248 0.054469 0.771694
O O5 0.638661 0.648990 0.261189
O O6 0.575062 0.606907 0.134333
O O7 0.000000 0.597702 0.000000
O O8 0.500000 0.822638 0.500000
O O9 0.628594 0.741652 0.345277
O O10 0.719721 0.840863 0.247847
O O11 0.270309 0.806795 0.480124
O O12 0.000000 0.158380 0.500000
O O13 0.500000 0.612494 0.000000
#
# Coordination Sequence:
#
# PCOD9203953 Si02
#       6
#     4   4   8   8   8   8
#     4   9  19  38  64  87 111 157 195 242 290 348
#     4   9  19  36  65  90 112 145 203 245 289 344
#     4  11  23  40  59  88 125 156 190 242 300 349
#     4  10  20  40  62  86 115 154 203 248 287 341
#     4  10  22  38  62  87 117 155 199 246 291 342
#     4  11  23  38  62  90 120 155 195 243 293 350
#
# _framework density 18.435421000000002
#
# number of rings (size 3 to 8) (size 9 to 14) (size 15 to 20)
#    0.000    1.800    2.000    1.800    5.600    0.800 
#    0.000    2.500    0.000    0.000    0.000    0.000 
#    0.000    0.000    0.000    0.000    0.000    0.000 
#
# Total GULP energy -111464.563710 kJ/mol
# GULP energy per Si atom -5573.228185 kJ/mol
# Density = 1.839346 g / cm^3
# Si number density = 18.435421 Si / 1000 Ang^3
#
#
#
# Elastic Constant Matrix: (Units=GPa)
#
#
# Indices 1 2 3 4 5 6 
#
# 1 70.9002 19.5567 56.7502 0.0001 12.9031 0.0000
# 2 19.5567 112.3129 95.9084 0.0000 10.5438 0.0000
# 3 56.7502 95.9084 177.3575 0.0004 7.9408 0.0000
# 4 0.0001 0.0000 0.0004 -148.4850 -0.0003 -8.5181
# 5 12.9031 10.5438 7.9408 -0.0003 39.5421 0.0000
# 6 0.0000 0.0000 0.0000 -8.5181 0.0000 24.5018
#
#
#
# Elastic Compliance Matrix: (Units=1/GPa)
#
#
# Indices 1 2 3 4 5 6 
#
# 1 0.021163 0.004551 -0.008949 0.000000 -0.006322 0.000000
# 2 0.004551 0.017799 -0.010900 0.000000 -0.004042 0.000000
# 3 -0.008949 -0.010900 0.014264 0.000000 0.002962 0.000000
# 4 0.000000 0.000000 0.000000 -0.006603 0.000000 -0.002296
# 5 -0.006322 -0.004042 0.002962 0.000000 0.027835 0.000000
# 6 0.000000 0.000000 0.000000 -0.002296 0.000000 0.040015
#
#
# Mechanical properties :
#
#
# Convention : Reuss Voigt Hill
#
# Bulk Modulus (GPa) = 44.19334 78.33345 61.26340
# Shear Modulus (GPa) = 32.76257 -4.33119 14.21569
#
# Velocity S-wave (km/s) = 4.22020 -1.53443 2.77989
# Velocity P-wave (km/s) = 6.91164 6.28042 6.60358
#
# Compressibility (1/GPa) = 0.02262784
#
# Stress axis : x y z
#
# Youngs Moduli (GPa) = 47.25228 56.18376 70.10816
#
# Poissons Ratio (x) = -0.25568 0.62743
# Poissons Ratio (y) = -0.21503 0.76418
# Poissons Ratio (z) = 0.42288 0.61241
#
# Static dielectric constant tensor:
#      x y z
#    x 1.589800 0.000000 0.023960 
#    y 0.000000 1.656490 0.000000 
#    z 0.023960 0.000000 1.603900 
# 
# From -- ./inp_files/201134.got.cif
#   From: 2010.05.17/outbox.cif.g08.bks.cpg/sg12_101_cif.got.tgz:201134.got - 2010.06.03 13:09:07.
