data_PCOD9203606
_publ_section_title
;
Structure prediction by ZEFSAII (Michael W. Deem and Ramdas Pophale) SiO2 
 PCOD9203606
Probable space group: C 2/M
;
_chemical_formula_sum "Si O2"
_cell_formula_units_Z 58
_cell_length_a 21.476521
_cell_length_b 18.091095
_cell_length_c 12.108922
_cell_angle_alpha 90.000000
_cell_angle_beta 140.435952
_cell_angle_gamma 90.000000
_cell_volume 2996.629502
_symmetry_space_group_name_H-M "C 2/M"
_symmetry_group_IT_number 12
_symmetry_cell_setting 'monoclinic'
loop_
_space_group_symop_operation_xyz
x,y,z
-x,y,-z
-x,-y,-z
x,-y,z
1/2+x,1/2+y,z
1/2-x,1/2+y,-z
1/2-x,1/2-y,-z
1/2+x,1/2-y,z
loop_
_atom_site_type_symbol
_atom_site_label
_atom_site_fract_x
_atom_site_fract_y
_atom_site_fract_z
Si Si1 0.457133 0.585570 0.718959
Si Si2 0.000000 0.500000 0.000000
Si Si3 0.866293 0.307251 0.720633
Si Si4 0.425698 0.141632 0.032388
Si Si5 0.204170 0.140658 0.352036
Si Si6 0.110684 0.913616 0.606353
Si Si7 0.240578 0.335590 0.024965
Si Si8 0.176572 0.911152 0.072208
O O1 0.474439 0.500000 0.712649
O O2 0.382550 0.590795 0.717811
O O3 0.401230 0.616293 0.534927
O O4 0.564421 0.615234 0.895110
O O5 0.967144 0.564064 0.045197
O O6 0.830845 0.223739 0.673403
O O7 0.803506 0.362359 0.558339
O O8 0.978009 0.307836 0.833133
O O9 0.860399 0.332824 0.839184
O O10 0.361787 0.147544 0.054331
O O11 0.214106 0.123186 0.237519
O O12 0.177434 0.862800 0.774812
O O13 0.000000 0.914931 0.500000
O O14 0.147011 0.000000 0.657151
O O15 0.250000 0.250000 0.000000
O O16 0.259024 0.384674 0.942005
O O17 0.176069 0.000000 0.080744
#
# Coordination Sequence:
#
# PCOD9203606 Si02
#       8
#     8   2   8   8   8   8   8   8
#     4  10  21  36  61  93 122 162 209 264 325 376
#     4   8  20  40  68  92 112 160 226 280 308 340
#     4   9  22  40  63  90 120 157 220 271 310 373
#     4  10  22  43  64  95 118 163 217 274 319 371
#     4  11  21  38  63  90 126 167 205 263 321 385
#     4  10  20  39  64  94 128 166 217 278 326 379
#     4  12  25  39  65  95 134 176 207 260 338 399
#     4  11  24  40  59  94 133 168 207 253 328 414
#
# _framework density 19.355079
#
# number of rings (size 3 to 8) (size 9 to 14) (size 15 to 20)
#    0.000    1.793    1.379    2.897    7.724    2.207 
#   12.414    0.690    0.000    0.828    0.000    0.000 
#    0.000    0.000    0.000    0.000    0.000    0.000 
#
# Total GULP energy -161526.085262 kJ/mol
# GULP energy per Si atom -5569.865009 kJ/mol
# Density = 1.931103 g / cm^3
# Si number density = 19.355079 Si / 1000 Ang^3
#
#
#
# Elastic Constant Matrix: (Units=GPa)
#
#
# Indices 1 2 3 4 5 6 
#
# 1 148.4910 9.6821 56.5525 0.0000 -9.2682 0.0000
# 2 9.6821 68.8231 26.1880 0.0000 6.3001 0.0000
# 3 56.5525 26.1880 97.9662 0.0000 -14.9430 0.0000
# 4 0.0000 0.0000 0.0000 28.9526 0.0000 -10.6391
# 5 -9.2682 6.3001 -14.9430 0.0000 18.6311 0.0000
# 6 0.0000 0.0000 0.0000 -10.6391 0.0000 14.3293
#
#
#
# Elastic Compliance Matrix: (Units=1/GPa)
#
#
# Indices 1 2 3 4 5 6 
#
# 1 0.008668 0.000788 -0.005238 0.000000 -0.000156 0.000000
# 2 0.000788 0.018141 -0.007042 0.000000 -0.011390 0.000000
# 3 -0.005238 -0.007042 0.017182 0.000000 0.013556 0.000000
# 4 0.000000 0.000000 0.000000 0.047498 0.000000 0.035266
# 5 -0.000156 -0.011390 0.013556 0.000000 0.068320 0.000000
# 6 0.000000 0.000000 0.000000 0.035266 0.000000 0.095971
#
#
# Mechanical properties :
#
#
# Convention : Reuss Voigt Hill
#
# Bulk Modulus (GPa) = 47.60301 55.56951 51.58626
# Shear Modulus (GPa) = 17.49676 27.23978 22.36827
#
# Velocity S-wave (km/s) = 3.00990 3.75556 3.40322
# Velocity P-wave (km/s) = 6.06031 6.89772 6.49253
#
# Compressibility (1/GPa) = 0.02100708
#
# Stress axis : x y z
#
# Youngs Moduli (GPa) = 115.36258 55.12281 58.20186
#
# Poissons Ratio (x) = -0.04344 0.30488
# Poissons Ratio (y) = -0.09091 0.40984
# Poissons Ratio (z) = 0.60431 0.38816
#
# Static dielectric constant tensor:
#      x y z
#    x 1.671630 0.000000 0.016390 
#    y 0.000000 1.692790 0.000000 
#    z 0.016390 0.000000 1.711090 
# 
# From -- ./inp_files/169006.got.cif
#   From: 2010.05.17/outbox.cif.g08.bks.cpg/sg12_85_cif.got.tgz:169006.got - 2010.06.03 13:09:07.
