data_PCOD9203228
_publ_section_title
;
Structure prediction by ZEFSAII (Michael W. Deem and Ramdas Pophale) SiO2 
 PCOD9203228
Probable space group: C 2/M
;
_chemical_formula_sum "Si O2"
_cell_formula_units_Z 40
_cell_length_a 9.594270
_cell_length_b 25.331124
_cell_length_c 15.210538
_cell_angle_alpha 90.000000
_cell_angle_beta 151.726556
_cell_angle_gamma 90.000000
_cell_volume 1751.040056
_symmetry_space_group_name_H-M "C 2/M"
_symmetry_group_IT_number 12
_symmetry_cell_setting 'monoclinic'
loop_
_space_group_symop_operation_xyz
x,y,z
-x,y,-z
-x,-y,-z
x,-y,z
1/2+x,1/2+y,z
1/2-x,1/2+y,-z
1/2-x,1/2-y,-z
1/2+x,1/2-y,z
loop_
_atom_site_type_symbol
_atom_site_label
_atom_site_fract_x
_atom_site_fract_y
_atom_site_fract_z
Si Si1 0.000000 0.088287 0.500000
Si Si2 0.976016 0.442588 0.091502
Si Si3 0.273517 0.746854 0.806633
Si Si4 0.504584 0.634633 0.898515
Si Si5 0.225336 0.182129 0.519777
Si Si6 0.000000 0.639363 0.500000
O O1 0.788482 0.059054 0.314713
O O2 0.796989 0.126789 0.445503
O O3 0.837242 0.500000 0.036424
O O4 0.000000 0.439807 0.000000
O O5 0.791476 0.392111 0.019499
O O6 0.450146 0.698162 0.860135
O O7 0.088175 0.788504 0.647443
O O8 0.002738 0.716443 0.705293
O O9 0.500000 0.772539 0.000000
O O10 0.230614 0.610500 0.691489
O O11 0.500000 0.624259 0.000000
O O12 0.304598 0.172511 0.461080
#
# Coordination Sequence:
#
# PCOD9203228 Si02
#       6
#     4   8   8   8   8   4
#     4  12  23  43  66  92 130 172 209 265 320 372
#     4  11  25  44  68  98 126 160 212 270 331 388
#     4   9  19  37  57  87 126 166 213 259 297 361
#     4  10  21  41  65  91 125 168 216 261 311 376
#     4  10  22  36  60  90 124 170 217 252 306 375
#     4  10  20  39  59  86 128 164 205 267 310 360
#
# _framework density 22.843567
#
# number of rings (size 3 to 8) (size 9 to 14) (size 15 to 20)
#    0.000    1.800    0.000    5.100    0.000   10.000 
#    0.000   11.500    0.000    0.000    0.000    0.000 
#    0.000    0.000    0.000    0.000    0.000    0.000 
#
# Total GULP energy -111645.428292 kJ/mol
# GULP energy per Si atom -5582.271415 kJ/mol
# Density = 2.279157 g / cm^3
# Si number density = 22.843567 Si / 1000 Ang^3
#
#
#
# Elastic Constant Matrix: (Units=GPa)
#
#
# Indices 1 2 3 4 5 6 
#
# 1 96.1171 30.5799 34.0501 -0.0013 -17.5723 0.0009
# 2 30.5799 81.2991 34.6953 0.0008 3.3427 -0.0007
# 3 34.0501 34.6953 199.3758 -0.0020 -30.6421 0.0018
# 4 -0.0013 0.0008 -0.0020 170.2646 -0.0016 -139.3009
# 5 -17.5723 3.3427 -30.6421 -0.0016 32.8121 0.0012
# 6 0.0009 -0.0007 0.0018 -139.3009 0.0012 124.4495
#
#
#
# Elastic Compliance Matrix: (Units=1/GPa)
#
#
# Indices 1 2 3 4 5 6 
#
# 1 0.013564 -0.005319 -0.000223 0.000000 0.007598 0.000000
# 2 -0.005319 0.015863 -0.002964 0.000000 -0.007232 0.000000
# 3 -0.000223 -0.002964 0.006536 0.000000 0.006286 0.000000
# 4 0.000000 0.000000 0.000000 0.069735 0.000001 0.078057
# 5 0.007598 -0.007232 0.006286 0.000001 0.041152 0.000000
# 6 0.000000 0.000000 0.000000 0.078057 0.000000 0.095407
#
#
# Mechanical properties :
#
#
# Convention : Reuss Voigt Hill
#
# Bulk Modulus (GPa) = 52.76773 63.93807 58.35290
# Shear Modulus (GPa) = 18.82624 84.00302 51.41463
#
# Velocity S-wave (km/s) = 2.87389 6.07067 4.74933
# Velocity P-wave (km/s) = 5.84484 8.78565 7.46156
#
# Compressibility (1/GPa) = 0.01895098
#
# Stress axis : x y z
#
# Youngs Moduli (GPa) = 73.72215 63.03903 153.00922
#
# Poissons Ratio (x) = 0.33532 0.03415
# Poissons Ratio (y) = 0.39215 0.45346
# Poissons Ratio (z) = 0.01646 0.18682
#
# Static dielectric constant tensor:
#      x y z
#    x 1.875920 0.000000 -0.002930 
#    y 0.000000 1.838910 0.000000 
#    z -0.002930 0.000000 1.909790 
# 
# From -- ./inp_files/201431.got.cif
#   From: 2010.05.17/outbox.cif.g08.bks.cpg/sg12_101_cif.got.tgz:201431.got - 2010.06.03 13:09:07.
