data_PCOD9203427
_publ_section_title
;
Structure prediction by ZEFSAII (Michael W. Deem and Ramdas Pophale) SiO2 
 PCOD9203427
Probable space group: C 2/M
;
_chemical_formula_sum "Si O2"
_cell_formula_units_Z 40
_cell_length_a 25.550423
_cell_length_b 8.958734
_cell_length_c 19.513594
_cell_angle_alpha 90.000000
_cell_angle_beta 150.704667
_cell_angle_gamma 90.000000
_cell_volume 2185.583229
_symmetry_space_group_name_H-M "C 2/M"
_symmetry_group_IT_number 12
_symmetry_cell_setting 'monoclinic'
loop_
_space_group_symop_operation_xyz
x,y,z
-x,y,-z
-x,-y,-z
x,-y,z
1/2+x,1/2+y,z
1/2-x,1/2+y,-z
1/2-x,1/2-y,-z
1/2+x,1/2-y,z
loop_
_atom_site_type_symbol
_atom_site_label
_atom_site_fract_x
_atom_site_fract_y
_atom_site_fract_z
Si Si1 0.301150 0.820558 0.859473
Si Si2 0.539012 0.820534 0.342943
Si Si3 0.962221 0.679463 0.819542
Si Si4 0.737389 0.678513 0.330088
Si Si5 0.322197 0.321132 0.142146
O O1 0.263547 0.742068 0.747626
O O2 0.229000 0.782411 0.842862
O O3 0.297518 0.000000 0.846256
O O4 0.423927 0.779963 0.017104
O O5 0.536623 0.781696 0.259621
O O6 0.652923 0.780879 0.505784
O O7 0.441421 0.740153 0.269101
O O8 0.524568 0.000000 0.331475
O O9 0.950831 0.500000 0.811696
O O10 0.864043 0.755426 0.745724
O O11 0.729860 0.500000 0.320153
O O12 0.319750 0.500000 0.132658
O O13 0.250000 0.250000 0.000000
#
# Coordination Sequence:
#
# PCOD9203427 Si02
#       5
#     8   8   8   8   8
#     4  10  22  40  61  85 117 158 195 236 294 353
#     4  10  22  41  61  86 121 157 195 241 295 346
#     4  10  20  39  63  83 115 160 200 239 288 352
#     4  11  24  38  57  89 124 154 193 248 295 339
#     4  11  22  39  64  90 116 151 197 244 290 349
#
# _framework density 18.301750999999999
#
# number of rings (size 3 to 8) (size 9 to 14) (size 15 to 20)
#    0.000    1.600    2.000    2.400    0.000    8.000 
#    0.000    4.000    0.000    0.000    0.000    0.000 
#    0.000    0.000    0.000    0.000    0.000    0.000 
#
# Total GULP energy -111796.060142 kJ/mol
# GULP energy per Si atom -5589.803007 kJ/mol
# Density = 1.826010 g / cm^3
# Si number density = 18.301751 Si / 1000 Ang^3
#
#
#
# Elastic Constant Matrix: (Units=GPa)
#
#
# Indices 1 2 3 4 5 6 
#
# 1 69.5545 20.8111 -1.5408 0.0000 10.9758 0.0000
# 2 20.8111 12.8654 -7.3294 0.0000 -8.1659 0.0000
# 3 -1.5408 -7.3294 -27.8013 0.0000 -48.2990 0.0000
# 4 0.0000 0.0000 0.0000 33.5144 0.0000 2.8533
# 5 10.9758 -8.1659 -48.2990 0.0000 11.0654 0.0000
# 6 0.0000 0.0000 0.0000 2.8533 0.0000 36.4124
#
#
#
# Elastic Compliance Matrix: (Units=1/GPa)
#
#
# Indices 1 2 3 4 5 6 
#
# 1 0.025854 -0.036464 0.011591 0.000000 -0.001963 0.000000
# 2 -0.036464 0.120025 -0.028700 0.000000 -0.000530 0.000000
# 3 0.011591 -0.028700 0.003230 0.000000 -0.018578 0.000000
# 4 0.000000 0.000000 0.000000 0.030038 0.000000 -0.002354
# 5 -0.001963 -0.000530 -0.018578 0.000000 0.010837 0.000000
# 6 0.000000 0.000000 0.000000 -0.002354 0.000000 0.027648
#
#
# Mechanical properties :
#
#
# Convention : Reuss Voigt Hill
#
# Bulk Modulus (GPa) = 23.83181 8.72227 16.27704
# Shear Modulus (GPa) = 14.75942 19.04361 16.90152
#
# Velocity S-wave (km/s) = 2.84288 3.22923 3.04220
# Velocity P-wave (km/s) = 4.88117 4.32205 4.61009
#
# Compressibility (1/GPa) = 0.04196072
#
# Stress axis : x y z
#
# Youngs Moduli (GPa) = 38.67872 8.33161 309.59713
#
# Poissons Ratio (x) = 0.30381 -3.58839
# Poissons Ratio (y) = 1.41039 8.88556
# Poissons Ratio (z) = -0.44831 0.23912
#
# Static dielectric constant tensor:
#      x y z
#    x 1.598790 0.000000 -0.001220 
#    y 0.000000 1.612200 0.000000 
#    z -0.001220 0.000000 1.605700 
# 
# From -- ./inp_files/151966.got.cif
#   From: 2010.05.17/outbox.cif.g08.bks.cpg/sg12_76_cif.got.tgz:151966.got - 2010.06.03 13:09:07.
