data_PCOD9203868
_publ_section_title
;
Structure prediction by ZEFSAII (Michael W. Deem and Ramdas Pophale) SiO2 
 PCOD9203868
Probable space group: C 2/M
;
_chemical_formula_sum "Si O2"
_cell_formula_units_Z 52
_cell_length_a 21.657059
_cell_length_b 24.488823
_cell_length_c 5.256376
_cell_angle_alpha 90.000000
_cell_angle_beta 63.512448
_cell_angle_gamma 90.000000
_cell_volume 2495.123402
_symmetry_space_group_name_H-M "C 2/M"
_symmetry_group_IT_number 12
_symmetry_cell_setting 'monoclinic'
loop_
_space_group_symop_operation_xyz
x,y,z
-x,y,-z
-x,-y,-z
x,-y,z
1/2+x,1/2+y,z
1/2-x,1/2+y,-z
1/2-x,1/2-y,-z
1/2+x,1/2-y,z
loop_
_atom_site_type_symbol
_atom_site_label
_atom_site_fract_x
_atom_site_fract_y
_atom_site_fract_z
Si Si1 0.718467 0.565809 0.022266
Si Si2 0.544341 0.500000 0.668637
Si Si3 0.932028 0.706544 0.236337
Si Si4 0.641707 0.404896 0.651003
Si Si5 0.174812 0.235142 0.936512
Si Si6 0.933348 0.816097 0.487702
Si Si7 0.701377 0.832156 0.262322
O O1 0.728102 0.500000 0.012563
O O2 0.661514 0.578247 0.902010
O O3 0.779743 0.605438 0.818325
O O4 0.703807 0.589311 0.333331
O O5 0.500000 0.500000 0.500000
O O6 0.592189 0.448243 0.606376
O O7 0.500000 0.500000 0.000000
O O8 0.882965 0.738255 0.131553
O O9 0.959492 0.757121 0.350570
O O10 0.875726 0.671607 0.489931
O O11 0.000000 0.678348 0.000000
O O12 0.598451 0.349733 0.689462
O O13 0.234922 0.197436 0.700973
O O14 0.132275 0.196707 0.211025
O O15 0.203704 0.289838 0.021465
O O16 0.000000 0.843270 0.500000
#
# Coordination Sequence:
#
# PCOD9203868 Si02
#       7
#     8   4   8   8   8   8   8
#     4  12  24  45  67  91 123 168 226 280 329 375
#     4  12  24  42  60  84 124 174 225 269 319 367
#     4  11  22  37  62  90 133 164 207 261 331 404
#     4  12  25  42  63  90 126 172 222 275 316 371
#     4  10  20  40  58  93 126 162 215 257 324 397
#     4  11  22  36  58  90 127 173 210 258 316 388
#     4  10  23  36  65  91 123 168 211 274 324 389
#
# _framework density 20.840651999999999
#
# number of rings (size 3 to 8) (size 9 to 14) (size 15 to 20)
#    0.000    0.923    4.615    2.769    2.154    0.615 
#    0.000    0.000    0.000    0.462    0.000    1.077 
#    0.000    0.000    0.000    0.000    0.000    0.000 
#
# Total GULP energy -144979.763855 kJ/mol
# GULP energy per Si atom -5576.144764 kJ/mol
# Density = 2.079322 g / cm^3
# Si number density = 20.840652 Si / 1000 Ang^3
#
#
#
# Elastic Constant Matrix: (Units=GPa)
#
#
# Indices 1 2 3 4 5 6 
#
# 1 75.0863 17.4041 12.2173 0.0000 -1.8668 0.0000
# 2 17.4041 83.1639 8.8397 0.0000 -17.9069 0.0000
# 3 12.2173 8.8397 66.5690 0.0000 -16.5307 0.0000
# 4 0.0000 0.0000 0.0000 29.2227 0.0000 -73.4725
# 5 -1.8668 -17.9069 -16.5307 0.0000 39.0425 0.0000
# 6 0.0000 0.0000 0.0000 -73.4725 0.0000 806.1855
#
#
#
# Elastic Compliance Matrix: (Units=1/GPa)
#
#
# Indices 1 2 3 4 5 6 
#
# 1 0.014439 -0.003143 -0.002703 0.000000 -0.001896 0.000000
# 2 -0.003143 0.014031 0.000307 0.000000 0.006415 0.000000
# 3 -0.002703 0.000307 0.017299 0.000000 0.007336 0.000000
# 4 0.000000 0.000000 0.000000 0.044392 0.000000 0.004046
# 5 -0.001896 0.006415 0.007336 0.000000 0.031571 0.000000
# 6 0.000000 0.000000 0.000000 0.004046 0.000000 0.001609
#
#
# Mechanical properties :
#
#
# Convention : Reuss Voigt Hill
#
# Bulk Modulus (GPa) = 28.82660 33.52682 31.17671
# Shear Modulus (GPa) = 34.25063 187.31402 110.78232
#
# Velocity S-wave (km/s) = 4.05835 9.49075 7.29878
# Velocity P-wave (km/s) = 5.98517 11.67138 9.27479
#
# Compressibility (1/GPa) = 0.03469018
#
# Stress axis : x y z
#
# Youngs Moduli (GPa) = 69.25614 71.27195 57.80647
#
# Poissons Ratio (x) = 0.22398 0.15627
# Poissons Ratio (y) = 0.21764 -0.01772
# Poissons Ratio (z) = 0.18723 -0.02185
#
# Static dielectric constant tensor:
#      x y z
#    x 1.877620 0.000000 -0.004230 
#    y 0.000000 1.893430 0.000000 
#    z -0.004230 0.000000 1.995010 
# 
# From -- ./inp_files/21825.got.cif
#   From: 2010.05.17/outbox.cif.g08.bks.cpg/sg12_11_cif.got.tgz:21825.got - 2010.06.03 13:09:07.
