data_PCOD9203342
_publ_section_title
;
Structure prediction by ZEFSAII (Michael W. Deem and Ramdas Pophale) SiO2 
 PCOD9203342
Probable space group: C 2/M
;
_chemical_formula_sum "Si O2"
_cell_formula_units_Z 42
_cell_length_a 6.854049
_cell_length_b 16.012146
_cell_length_c 15.080531
_cell_angle_alpha 90.000000
_cell_angle_beta 73.017134
_cell_angle_gamma 90.000000
_cell_volume 1582.885063
_symmetry_space_group_name_H-M "C 2/M"
_symmetry_group_IT_number 12
_symmetry_cell_setting 'monoclinic'
loop_
_space_group_symop_operation_xyz
x,y,z
-x,y,-z
-x,-y,-z
x,-y,z
1/2+x,1/2+y,z
1/2-x,1/2+y,-z
1/2-x,1/2-y,-z
1/2+x,1/2-y,z
loop_
_atom_site_type_symbol
_atom_site_label
_atom_site_fract_x
_atom_site_fract_y
_atom_site_fract_z
Si Si1 0.675628 0.302751 0.926184
Si Si2 0.825051 0.900525 0.229629
Si Si3 0.814253 0.366230 0.168749
Si Si4 0.259168 0.098656 0.377161
Si Si5 0.000000 0.500000 0.000000
Si Si6 0.231624 0.100076 0.571745
O O1 0.775303 0.368251 0.847475
O O2 0.623443 0.227554 0.866051
O O3 0.500000 0.354365 0.000000
O O4 0.750000 0.250000 0.000000
O O5 0.728979 0.866814 0.334183
O O6 0.065941 0.877493 0.192388
O O7 0.812482 0.000000 0.234193
O O8 0.841870 0.375499 0.270918
O O9 0.910854 0.427485 0.081812
O O10 0.318407 0.133895 0.466730
O O11 0.013985 0.108010 0.403402
O O12 0.302031 0.000000 0.376246
O O13 0.273805 0.000000 0.567648
#
# Coordination Sequence:
#
# PCOD9203342 Si02
#       6
#     8   8   8   8   2   8
#     4  12  25  41  56  83 123 159 198 256 306 345
#     4  10  20  39  62  85 113 159 211 244 294 364
#     4  11  20  34  57  87 122 161 201 249 292 355
#     4   8  12  24  47  82 116 148 191 243 296 342
#     4  12  20  32  56  88 130 158 206 236 286 354
#     4   7  12  24  50  81 111 144 193 250 288 344
#
# _framework density 26.533829999999998
#
# number of rings (size 3 to 8) (size 9 to 14) (size 15 to 20)
#    0.000    2.286    4.762    2.286    0.000    0.381 
#    1.714    0.952    0.000    0.000    0.000    0.000 
#    0.000    6.095    0.000    0.190    0.000    0.000 
#
# Total GULP energy -116991.033797 kJ/mol
# GULP energy per Si atom -5571.001609 kJ/mol
# Density = 2.647344 g / cm^3
# Si number density = 26.533830 Si / 1000 Ang^3
#
#
#
# Elastic Constant Matrix: (Units=GPa)
#
#
# Indices 1 2 3 4 5 6 
#
# 1 84.2418 6.6409 91.6337 0.0000 9.0432 0.0000
# 2 6.6409 55.2683 55.2933 0.0000 -3.4801 0.0000
# 3 91.6337 55.2933 375.0157 0.0000 1.4419 0.0000
# 4 0.0000 0.0000 0.0000 40.5228 0.0000 6.4846
# 5 9.0432 -3.4801 1.4419 0.0000 63.4062 0.0000
# 6 0.0000 0.0000 0.0000 6.4846 0.0000 -13.2242
#
#
#
# Elastic Compliance Matrix: (Units=1/GPa)
#
#
# Indices 1 2 3 4 5 6 
#
# 1 0.016723 0.002269 -0.004413 0.000000 -0.002160 0.000000
# 2 0.002269 0.021630 -0.003747 0.000000 0.000949 0.000000
# 3 -0.004413 -0.003747 0.004296 0.000000 0.000326 0.000000
# 4 0.000000 0.000000 0.000000 0.022882 0.000000 0.011220
# 5 -0.002160 0.000949 0.000326 0.000000 0.016124 0.000000
# 6 0.000000 0.000000 0.000000 0.011220 0.000000 -0.070117
#
#
# Mechanical properties :
#
#
# Convention : Reuss Voigt Hill
#
# Bulk Modulus (GPa) = 32.39654 91.29575 61.84614
# Shear Modulus (GPa) = 148.77310 42.20482 95.48896
#
# Velocity S-wave (km/s) = 7.49606 3.99256 6.00548
# Velocity P-wave (km/s) = 9.33581 7.46566 8.45261
#
# Compressibility (1/GPa) = 0.03086749
#
# Stress axis : x y z
#
# Youngs Moduli (GPa) = 59.79671 46.23309 232.77551
#
# Poissons Ratio (x) = -0.10491 1.02713
# Poissons Ratio (y) = -0.13568 0.87226
# Poissons Ratio (z) = 0.26386 0.17324
#
# Static dielectric constant tensor:
#      x y z
#    x 2.477700 0.000000 -0.081180 
#    y 0.000000 3.897540 0.000000 
#    z -0.081180 0.000000 2.095310 
# 
# From -- ./inp_files/195862.got.cif
#   From: 2010.05.17/outbox.cif.g08.bks.cpg/sg12_98_cif.got.tgz:195862.got - 2010.06.03 13:09:07.
