data_PCOD9203167
_publ_section_title
;
Structure prediction by ZEFSAII (Michael W. Deem and Ramdas Pophale) SiO2 
 PCOD9203167
Probable space group: C 2/M
;
_chemical_formula_sum "Si O2"
_cell_formula_units_Z 56
_cell_length_a 14.044838
_cell_length_b 26.959472
_cell_length_c 8.762416
_cell_angle_alpha 90.000000
_cell_angle_beta 56.544109
_cell_angle_gamma 90.000000
_cell_volume 2768.086672
_symmetry_space_group_name_H-M "C 2/M"
_symmetry_group_IT_number 12
_symmetry_cell_setting 'monoclinic'
loop_
_space_group_symop_operation_xyz
x,y,z
-x,y,-z
-x,-y,-z
x,-y,z
1/2+x,1/2+y,z
1/2-x,1/2+y,-z
1/2-x,1/2-y,-z
1/2+x,1/2-y,z
loop_
_atom_site_type_symbol
_atom_site_label
_atom_site_fract_x
_atom_site_fract_y
_atom_site_fract_z
Si Si1 0.803069 0.440804 0.492647
Si Si2 0.761942 0.441845 0.887801
Si Si3 0.429423 0.224387 0.916277
Si Si4 0.437279 0.376636 0.898644
Si Si5 0.828998 0.197969 0.813330
Si Si6 0.020877 0.610213 0.159216
Si Si7 0.106224 0.886193 0.488559
O O1 0.814563 0.500000 0.464423
O O2 0.768427 0.431225 0.699779
O O3 0.708421 0.419355 0.459982
O O4 0.921103 0.413824 0.347987
O O5 0.782318 0.500000 0.891213
O O6 0.859208 0.411535 0.889725
O O7 0.637082 0.426134 0.057529
O O8 0.416896 0.257841 0.775091
O O9 0.477840 0.169958 0.834529
O O10 0.500000 0.244576 0.000000
O O11 0.298943 0.217103 0.087687
O O12 0.343351 0.334231 0.955941
O O13 0.538710 0.365087 0.692592
O O14 0.500000 0.378921 0.000000
O O15 0.853977 0.158757 0.656209
O O16 0.000000 0.597169 0.000000
O O17 0.000000 0.913920 0.500000
#
# Coordination Sequence:
#
# PCOD9203167 Si02
#       7
#     8   8   8   8   8   8   8
#     4  11  24  42  64  93 134 178 219 269 331 392
#     4  11  24  42  63  93 128 174 225 268 322 394
#     4  10  20  38  70  96 130 169 217 265 332 399
#     4  11  21  40  65  89 129 173 213 268 326 385
#     4  10  21  40  65  98 128 168 212 275 329 389
#     4  11  23  42  67  97 131 167 216 278 329 390
#     4  10  22  39  62  93 133 165 216 274 324 384
#
# _framework density 20.230581000000001
#
# number of rings (size 3 to 8) (size 9 to 14) (size 15 to 20)
#    0.000    1.429    2.857    3.000    2.000    3.429 
#    0.000    4.286    0.000   15.429    0.000    0.000 
#    0.000    0.000    0.000    0.000    0.000    0.000 
#
# Total GULP energy -156141.780714 kJ/mol
# GULP energy per Si atom -5576.492168 kJ/mol
# Density = 2.018454 g / cm^3
# Si number density = 20.230581 Si / 1000 Ang^3
#
#
#
# Elastic Constant Matrix: (Units=GPa)
#
#
# Indices 1 2 3 4 5 6 
#
# 1 144.9397 40.2677 22.9333 0.0000 5.4289 0.0000
# 2 40.2677 85.1107 33.9065 0.0000 7.3772 0.0000
# 3 22.9333 33.9065 51.9326 0.0000 -10.3544 0.0000
# 4 0.0000 0.0000 0.0000 24.0952 0.0000 6.8481
# 5 5.4289 7.3772 -10.3544 0.0000 23.0162 0.0000
# 6 0.0000 0.0000 0.0000 6.8481 0.0000 37.0595
#
#
#
# Elastic Compliance Matrix: (Units=1/GPa)
#
#
# Indices 1 2 3 4 5 6 
#
# 1 0.008091 -0.002808 -0.002132 0.000000 -0.001967 0.000000
# 2 -0.002808 0.019689 -0.013997 0.000000 -0.011945 0.000000
# 3 -0.002132 -0.013997 0.033319 0.000000 0.019978 0.000000
# 4 0.000000 0.000000 0.000000 0.043802 0.000000 -0.008094
# 5 -0.001967 -0.011945 0.019978 0.000000 0.056728 0.000000
# 6 0.000000 0.000000 0.000000 -0.008094 0.000000 0.028479
#
#
# Mechanical properties :
#
#
# Convention : Reuss Voigt Hill
#
# Bulk Modulus (GPa) = 43.05559 52.91090 47.98324
# Shear Modulus (GPa) = 21.21135 29.15922 25.18529
#
# Velocity S-wave (km/s) = 3.24154 3.80062 3.53216
# Velocity P-wave (km/s) = 5.94464 6.74317 6.35646
#
# Compressibility (1/GPa) = 0.02322579
#
# Stress axis : x y z
#
# Youngs Moduli (GPa) = 123.60113 50.78884 30.01329
#
# Poissons Ratio (x) = 0.14262 0.06398
# Poissons Ratio (y) = 0.34709 0.42009
# Poissons Ratio (z) = 0.26347 0.71087
#
# Static dielectric constant tensor:
#      x y z
#    x 1.738810 0.000000 0.010230 
#    y 0.000000 1.755710 0.000000 
#    z 0.010230 0.000000 1.759860 
# 
# From -- ./inp_files/65784.got.cif
#   From: 2010.05.17/outbox.cif.g08.bks.cpg/sg12_33_cif.got.tgz:65784.got - 2010.06.03 13:09:07.
