data_PCOD9203157
_publ_section_title
;
Structure prediction by ZEFSAII (Michael W. Deem and Ramdas Pophale) SiO2 
 PCOD9203157
Probable space group: C 2/M
;
_chemical_formula_sum "Si O2"
_cell_formula_units_Z 48
_cell_length_a 11.530840
_cell_length_b 21.825715
_cell_length_c 11.863692
_cell_angle_alpha 90.000000
_cell_angle_beta 45.317101
_cell_angle_gamma 90.000000
_cell_volume 2122.875972
_symmetry_space_group_name_H-M "C 2/M"
_symmetry_group_IT_number 12
_symmetry_cell_setting 'monoclinic'
loop_
_space_group_symop_operation_xyz
x,y,z
-x,y,-z
-x,-y,-z
x,-y,z
1/2+x,1/2+y,z
1/2-x,1/2+y,-z
1/2-x,1/2-y,-z
1/2+x,1/2-y,z
loop_
_atom_site_type_symbol
_atom_site_label
_atom_site_fract_x
_atom_site_fract_y
_atom_site_fract_z
Si Si1 0.886933 0.567100 0.298030
Si Si2 0.768563 0.068918 0.107185
Si Si3 0.159433 0.154255 0.322922
Si Si4 0.631985 0.309967 0.087513
Si Si5 0.263487 0.274237 0.363429
Si Si6 0.680014 0.912640 0.409572
O O1 0.868795 0.500000 0.258285
O O2 0.814379 0.617880 0.265475
O O3 0.787936 0.568421 0.484241
O O4 0.076184 0.575267 0.203376
O O5 0.787639 0.067975 0.230037
O O6 0.818908 0.000000 0.032267
O O7 0.840249 0.133721 0.017015
O O8 0.144278 0.155407 0.199802
O O9 0.181575 0.224997 0.339976
O O10 0.000000 0.131494 0.500000
O O11 0.450864 0.283285 0.202516
O O12 0.750000 0.250000 0.000000
O O13 0.250000 0.250000 0.500000
O O14 0.180910 0.339604 0.412137
O O15 0.500000 0.934538 0.500000
#
# Coordination Sequence:
#
# PCOD9203157 Si02
#       6
#     8   8   8   8   8   8
#     4  10  21  39  65  97 130 175 226 268 323 402
#     4  10  23  43  66  97 140 182 222 278 341 400
#     4  12  24  42  66  93 130 173 217 273 336 396
#     4  12  27  43  65 101 134 172 225 280 339 404
#     4  12  23  41  66  93 128 170 214 278 339 398
#     4  10  20  38  69  96 128 174 225 272 327 397
#
# _framework density 22.610835000000002
#
# number of rings (size 3 to 8) (size 9 to 14) (size 15 to 20)
#    0.000    1.000    3.333    3.000    2.333    7.667 
#    0.000    5.833    0.000    0.000    0.000    0.000 
#    0.000    0.000    0.000    0.000    0.000    0.000 
#
# Total GULP energy -134146.764849 kJ/mol
# GULP energy per Si atom -5589.448535 kJ/mol
# Density = 2.255937 g / cm^3
# Si number density = 22.610835 Si / 1000 Ang^3
#
#
#
# Elastic Constant Matrix: (Units=GPa)
#
#
# Indices 1 2 3 4 5 6 
#
# 1 54.2935 7.0892 15.2280 0.0000 -7.5873 0.0000
# 2 7.0892 149.2337 29.8305 0.0000 -13.9644 0.0000
# 3 15.2280 29.8305 87.5860 0.0000 -2.4662 0.0000
# 4 0.0000 0.0000 0.0000 -29.2042 0.0000 -26.0369
# 5 -7.5873 -13.9644 -2.4662 0.0000 37.3787 0.0000
# 6 0.0000 0.0000 0.0000 -26.0369 0.0000 13.5455
#
#
#
# Elastic Compliance Matrix: (Units=1/GPa)
#
#
# Indices 1 2 3 4 5 6 
#
# 1 0.019893 0.000091 -0.003381 0.000000 0.003849 0.000000
# 2 0.000091 0.007438 -0.002475 0.000000 0.002634 0.000000
# 3 -0.003381 -0.002475 0.012827 0.000000 -0.000765 0.000000
# 4 0.000000 0.000000 0.000000 -0.012618 0.000000 -0.024254
# 5 0.003849 0.002634 -0.000765 0.000000 0.028468 0.000000
# 6 0.000000 0.000000 0.000000 -0.024254 0.000000 0.027205
#
#
# Mechanical properties :
#
#
# Convention : Reuss Voigt Hill
#
# Bulk Modulus (GPa) = 34.93213 43.93430 39.43322
# Shear Modulus (GPa) = 47.94595 20.27503 34.11049
#
# Velocity S-wave (km/s) = 4.60987 2.99774 3.88827
# Velocity P-wave (km/s) = 6.61947 5.60845 6.13482
#
# Compressibility (1/GPa) = 0.02862694
#
# Stress axis : x y z
#
# Youngs Moduli (GPa) = 50.26960 134.44951 77.96297
#
# Poissons Ratio (x) = -0.01224 0.26361
# Poissons Ratio (y) = -0.00458 0.19295
# Poissons Ratio (z) = 0.16997 0.33274
#
# Static dielectric constant tensor:
#      x y z
#    x 1.822010 0.000000 0.016190 
#    y 0.000000 1.808590 0.000000 
#    z 0.016190 0.000000 1.972860 
# 
# From -- ./inp_files/133723.got.cif
#   From: 2010.05.17/outbox.cif.g08.bks.cpg/sg12_67_cif.got.tgz:133723.got - 2010.06.03 13:09:07.
