data_PCOD9203718
_publ_section_title
;
Structure prediction by ZEFSAII (Michael W. Deem and Ramdas Pophale) SiO2 
 PCOD9203718
Probable space group: C 2/M
;
_chemical_formula_sum "Si O2"
_cell_formula_units_Z 64
_cell_length_a 13.763718
_cell_length_b 26.719738
_cell_length_c 9.632363
_cell_angle_alpha 90.000000
_cell_angle_beta 75.874522
_cell_angle_gamma 90.000000
_cell_volume 3435.315876
_symmetry_space_group_name_H-M "C 2/M"
_symmetry_group_IT_number 12
_symmetry_cell_setting 'monoclinic'
loop_
_space_group_symop_operation_xyz
x,y,z
-x,y,-z
-x,-y,-z
x,-y,z
1/2+x,1/2+y,z
1/2-x,1/2+y,-z
1/2-x,1/2-y,-z
1/2+x,1/2-y,z
loop_
_atom_site_type_symbol
_atom_site_label
_atom_site_fract_x
_atom_site_fract_y
_atom_site_fract_z
Si Si1 0.078948 0.170310 0.599582
Si Si2 0.234797 0.653158 0.650199
Si Si3 0.957428 0.284384 0.360698
Si Si4 0.231430 0.942529 0.179920
Si Si5 0.926004 0.659820 0.893652
Si Si6 0.949620 0.878933 0.877057
Si Si7 0.083397 0.446869 0.092247
Si Si8 0.221428 0.196813 0.075256
O O1 0.185375 0.153975 0.501483
O O2 0.082824 0.228219 0.644575
O O3 0.000000 0.167538 0.500000
O O4 0.033780 0.136917 0.737497
O O5 0.129528 0.675720 0.639922
O O6 0.230031 0.597994 0.720343
O O7 0.274976 0.690468 0.758923
O O8 0.000000 0.288778 0.500000
O O9 0.045185 0.296720 0.221669
O O10 0.127491 0.918802 0.161565
O O11 0.220541 0.000000 0.233554
O O12 0.311593 0.944403 0.026622
O O13 0.935042 0.604890 0.822738
O O14 0.814344 0.664074 0.988844
O O15 0.000000 0.663268 0.000000
O O16 0.882227 0.829184 0.932270
O O17 0.000000 0.897173 0.000000
O O18 0.077000 0.500000 0.170839
O O19 0.000000 0.447553 0.000000
O O20 0.250000 0.250000 0.000000
#
# Coordination Sequence:
#
# PCOD9203718 Si02
#       8
#     8   8   8   8   8   8   8   8
#     4  11  22  40  60  81 123 169 203 246 300 368
#     4  11  21  42  59  87 122 161 209 253 302 371
#     4  11  25  37  57  89 126 163 196 246 312 371
#     4  10  20  39  66  92 120 159 207 260 308 361
#     4  11  19  36  59  84 116 150 196 246 296 366
#     4  11  24  40  58  90 124 161 204 258 305 357
#     4   9  16  30  57  89 112 140 187 247 305 350
#     4  11  22  33  58  87 117 156 206 252 296 362
#
# _framework density 18.630019000000001
#
# number of rings (size 3 to 8) (size 9 to 14) (size 15 to 20)
#    0.000    1.375    6.250    1.875    3.500    2.250 
#    0.000    1.250    0.000    1.500    0.000    0.000 
#    0.000    0.000    0.000    0.000    0.000    0.000 
#
# Total GULP energy -178504.681650 kJ/mol
# GULP energy per Si atom -5578.271302 kJ/mol
# Density = 1.858762 g / cm^3
# Si number density = 18.630019 Si / 1000 Ang^3
#
#
#
# Elastic Constant Matrix: (Units=GPa)
#
#
# Indices 1 2 3 4 5 6 
#
# 1 59.3544 -1.4873 15.8489 0.0000 -6.7922 0.0000
# 2 -1.4873 106.0067 14.6334 0.0000 10.8617 0.0000
# 3 15.8489 14.6334 66.0470 0.0000 -12.2636 0.0000
# 4 0.0000 0.0000 0.0000 9.5749 0.0000 2.6790
# 5 -6.7922 10.8617 -12.2636 0.0000 27.6727 0.0000
# 6 0.0000 0.0000 0.0000 2.6790 0.0000 16.5440
#
#
#
# Elastic Compliance Matrix: (Units=1/GPa)
#
#
# Indices 1 2 3 4 5 6 
#
# 1 0.018223 0.000561 -0.004040 0.000000 0.002462 0.000000
# 2 0.000561 0.010488 -0.003484 0.000000 -0.005523 0.000000
# 3 -0.004040 -0.003484 0.018472 0.000000 0.008562 0.000000
# 4 0.000000 0.000000 0.000000 0.109396 0.000000 -0.017715
# 5 0.002462 -0.005523 0.008562 0.000000 0.042703 0.000000
# 6 0.000000 0.000000 0.000000 -0.017715 0.000000 0.063313
#
#
# Mechanical properties :
#
#
# Convention : Reuss Voigt Hill
#
# Bulk Modulus (GPa) = 30.06884 32.15534 31.11209
# Shear Modulus (GPa) = 17.38492 24.25253 20.81873
#
# Velocity S-wave (km/s) = 3.05809 3.61196 3.34650
# Velocity P-wave (km/s) = 5.35203 5.89003 5.62746
#
# Compressibility (1/GPa) = 0.03325702
#
# Stress axis : x y z
#
# Youngs Moduli (GPa) = 54.87718 95.34671 54.13651
#
# Poissons Ratio (x) = -0.05350 0.21871
# Poissons Ratio (y) = -0.03079 0.18860
# Poissons Ratio (z) = 0.22170 0.33217
#
# Static dielectric constant tensor:
#      x y z
#    x 1.655760 0.000000 -0.007050 
#    y 0.000000 1.688920 0.000000 
#    z -0.007050 0.000000 1.538940 
# 
# From -- ./inp_files/66931.got.cif
#   From: 2010.05.17/outbox.cif.g08.bks.cpg/sg12_34_cif.got.tgz:66931.got - 2010.06.03 13:09:07.
