data_PCOD9203164
_publ_section_title
;
Structure prediction by ZEFSAII (Michael W. Deem and Ramdas Pophale) SiO2 
 PCOD9203164
Probable space group: C 2/M
;
_chemical_formula_sum "Si O2"
_cell_formula_units_Z 38
_cell_length_a 23.560908
_cell_length_b 9.699179
_cell_length_c 8.266223
_cell_angle_alpha 90.000000
_cell_angle_beta 88.057471
_cell_angle_gamma 90.000000
_cell_volume 1887.923826
_symmetry_space_group_name_H-M "C 2/M"
_symmetry_group_IT_number 12
_symmetry_cell_setting 'monoclinic'
loop_
_space_group_symop_operation_xyz
x,y,z
-x,y,-z
-x,-y,-z
x,-y,z
1/2+x,1/2+y,z
1/2-x,1/2+y,-z
1/2-x,1/2-y,-z
1/2+x,1/2-y,z
loop_
_atom_site_type_symbol
_atom_site_label
_atom_site_fract_x
_atom_site_fract_y
_atom_site_fract_z
Si Si1 0.702256 0.000000 0.042085
Si Si2 0.785388 0.000000 0.729742
Si Si3 0.399807 0.204999 0.951444
Si Si4 0.565576 0.500000 0.940214
Si Si5 0.000000 0.500000 0.000000
Si Si6 0.631220 0.262709 0.379243
Si Si7 0.436400 0.500000 0.440257
Si Si8 0.702185 0.000000 0.429720
O O1 0.749961 0.000000 0.899536
O O2 0.660624 0.869129 0.016938
O O3 0.719215 0.000000 0.233745
O O4 0.823818 0.136629 0.713733
O O5 0.749331 0.000000 0.564989
O O6 0.408311 0.198638 0.756287
O O7 0.403799 0.362795 0.001463
O O8 0.450403 0.119398 0.025315
O O9 0.564732 0.500000 0.749577
O O10 0.500000 0.500000 0.000000
O O11 0.595861 0.363924 0.494905
O O12 0.664676 0.137448 0.456728
O O13 0.500000 0.500000 0.500000
#
# Coordination Sequence:
#
# PCOD9203164 Si02
#       8
#     4   4   8   4   2   8   4   4
#     4   9  23  41  64  99 132 175 213 272 323 382
#     4  11  22  42  67  90 138 169 224 263 326 387
#     4  10  21  40  65  94 130 163 215 260 320 382
#     4  12  22  38  66  93 123 170 212 260 316 386
#     4  10  20  38  70  90 124 164 204 256 314 388
#     4  10  23  45  62  95 130 168 210 276 318 384
#     4  11  25  41  63  92 130 167 217 260 328 386
#     4  10  22  41  67  95 132 170 216 270 327 377
#
# _framework density 20.127929999999999
#
# number of rings (size 3 to 8) (size 9 to 14) (size 15 to 20)
#    0.000    1.684    1.053    3.789    2.947    3.368 
#    7.579    0.526    0.000    0.000    0.000    0.000 
#    0.000    0.000    0.000    0.000    0.000    0.000 
#
# Total GULP energy -105837.381511 kJ/mol
# GULP energy per Si atom -5570.388501 kJ/mol
# Density = 2.008212 g / cm^3
# Si number density = 20.127930 Si / 1000 Ang^3
#
#
#
# Elastic Constant Matrix: (Units=GPa)
#
#
# Indices 1 2 3 4 5 6 
#
# 1 73.4051 39.4059 55.5664 0.0000 -4.7143 0.0000
# 2 39.4059 148.9377 14.1617 0.0000 -7.9386 0.0000
# 3 55.5664 14.1617 91.9052 0.0000 -12.9537 0.0000
# 4 0.0000 0.0000 0.0000 16.9940 0.0000 -5.1136
# 5 -4.7143 -7.9386 -12.9537 0.0000 35.9951 0.0000
# 6 0.0000 0.0000 0.0000 -5.1136 0.0000 -0.4532
#
#
#
# Elastic Compliance Matrix: (Units=1/GPa)
#
#
# Indices 1 2 3 4 5 6 
#
# 1 0.030520 -0.006574 -0.017994 0.000000 -0.003928 0.000000
# 2 -0.006574 0.008278 0.002986 0.000000 0.002039 0.000000
# 3 -0.017994 0.002986 0.022186 0.000000 0.006286 0.000000
# 4 0.000000 0.000000 0.000000 0.013389 0.000000 -0.151061
# 5 -0.003928 0.002039 0.006286 0.000000 0.029979 0.000000
# 6 0.000000 0.000000 0.000000 -0.151061 0.000000 -0.502020
#
#
# Mechanical properties :
#
#
# Convention : Reuss Voigt Hill
#
# Bulk Modulus (GPa) = 56.10845 59.16844 57.63844
# Shear Modulus (GPa) = -14.34452 24.18144 4.91846
#
# Velocity S-wave (km/s) = -2.67248 3.46986 1.56490
# Velocity P-wave (km/s) = 4.29110 6.74635 5.65362
#
# Compressibility (1/GPa) = 0.01782263
#
# Stress axis : x y z
#
# Youngs Moduli (GPa) = 32.76493 120.79910 45.07431
#
# Poissons Ratio (x) = 0.79408 0.81105
# Poissons Ratio (y) = 0.21538 -0.13460
# Poissons Ratio (z) = 0.58956 -0.36074
#
# Static dielectric constant tensor:
#      x y z
#    x 1.652690 0.000000 -0.057770 
#    y 0.000000 1.952080 0.000000 
#    z -0.057770 0.000000 1.558930 
# 
# From -- ./inp_files/92903.got.cif
#   From: 2010.05.17/outbox.cif.g08.bks.cpg/sg12_47_cif.got.tgz:92903.got - 2010.06.03 13:09:07.
