data_PCOD9203769
_publ_section_title
;
Structure prediction by ZEFSAII (Michael W. Deem and Ramdas Pophale) SiO2 
 PCOD9203769
Probable space group: C 2/M
;
_chemical_formula_sum "Si O2"
_cell_formula_units_Z 48
_cell_length_a 14.123950
_cell_length_b 11.012155
_cell_length_c 23.609341
_cell_angle_alpha 90.000000
_cell_angle_beta 37.054608
_cell_angle_gamma 90.000000
_cell_volume 2212.708097
_symmetry_space_group_name_H-M "C 2/M"
_symmetry_group_IT_number 12
_symmetry_cell_setting 'monoclinic'
loop_
_space_group_symop_operation_xyz
x,y,z
-x,y,-z
-x,-y,-z
x,-y,z
1/2+x,1/2+y,z
1/2-x,1/2+y,-z
1/2-x,1/2-y,-z
1/2+x,1/2-y,z
loop_
_atom_site_type_symbol
_atom_site_label
_atom_site_fract_x
_atom_site_fract_y
_atom_site_fract_z
Si Si1 0.668001 0.639906 0.389401
Si Si2 0.832333 0.223713 0.400724
Si Si3 0.622072 0.000000 0.489751
Si Si4 0.648280 0.000000 0.976544
Si Si5 0.338641 0.000000 0.710458
Si Si6 0.518205 0.500000 0.133716
Si Si7 0.675073 0.736265 0.262966
Si Si8 0.493481 0.748278 0.936547
O O1 0.500000 0.659486 0.500000
O O2 0.674030 0.500000 0.367927
O O3 0.801377 0.668469 0.371628
O O4 0.681191 0.722683 0.327906
O O5 0.750000 0.250000 0.500000
O O6 0.010538 0.182776 0.322399
O O7 0.729142 0.114272 0.429346
O O8 0.500000 0.000000 0.500000
O O9 0.508762 0.000000 0.598580
O O10 0.618607 0.134238 0.018038
O O11 0.500000 0.000000 0.000000
O O12 0.843387 0.000000 0.884483
O O13 0.335264 0.122314 0.747310
O O14 0.168417 0.000000 0.758897
O O15 0.532946 0.625795 0.088754
O O16 0.836246 0.694032 0.160042
O O17 0.500000 0.713930 0.000000
#
# Coordination Sequence:
#
# PCOD9203769 Si02
#       8
#     8   8   4   4   4   4   8   8
#     4  11  24  41  63  92 135 173 219 273 328 393
#     4  12  24  39  67  94 131 183 219 270 329 388
#     4  12  24  41  61  95 136 180 230 269 323 394
#     4  10  22  44  67  94 134 172 225 284 345 407
#     4  10  20  39  67  92 132 167 225 273 321 403
#     4  10  21  42  73  98 129 181 220 282 357 404
#     4  11  24  43  67  99 136 176 228 273 341 397
#     4  10  23  45  70 101 137 174 228 291 340 413
#
# _framework density 21.692875999999998
#
# number of rings (size 3 to 8) (size 9 to 14) (size 15 to 20)
#    0.000    1.167    3.333    2.250    4.667    0.000 
#   21.000    0.000    0.000    0.000    0.000    0.000 
#    0.000    0.000    0.000    0.000    0.000    0.000 
#
# Total GULP energy -133684.209242 kJ/mol
# GULP energy per Si atom -5570.175385 kJ/mol
# Density = 2.164350 g / cm^3
# Si number density = 21.692876 Si / 1000 Ang^3
#
#
#
# Elastic Constant Matrix: (Units=GPa)
#
#
# Indices 1 2 3 4 5 6 
#
# 1 97.5497 8.3137 34.2153 0.0000 -24.9933 0.0000
# 2 8.3137 97.5529 2.9205 0.0000 -3.4178 0.0000
# 3 34.2153 2.9205 96.7471 0.0000 -27.2581 0.0000
# 4 0.0000 0.0000 0.0000 33.5792 0.0000 -2.6938
# 5 -24.9933 -3.4178 -27.2581 0.0000 39.6181 0.0000
# 6 0.0000 0.0000 0.0000 -2.6938 0.0000 15.1530
#
#
#
# Elastic Compliance Matrix: (Units=1/GPa)
#
#
# Indices 1 2 3 4 5 6 
#
# 1 0.012871 -0.000798 -0.002803 0.000000 0.006122 0.000000
# 2 -0.000798 0.010332 0.000099 0.000000 0.000456 0.000000
# 3 -0.002803 0.000099 0.013433 0.000000 0.007482 0.000000
# 4 0.000000 0.000000 0.000000 0.030211 0.000000 0.005371
# 5 0.006122 0.000456 0.007482 0.000000 0.034291 0.000000
# 6 0.000000 0.000000 0.000000 0.005371 0.000000 0.066948
#
#
# Mechanical properties :
#
#
# Convention : Reuss Voigt Hill
#
# Bulk Modulus (GPa) = 33.74898 42.52764 38.13831
# Shear Modulus (GPa) = 27.03182 34.09674 30.56428
#
# Velocity S-wave (km/s) = 3.53387 3.96889 3.75768
# Velocity P-wave (km/s) = 5.67823 6.37572 6.03706
#
# Compressibility (1/GPa) = 0.02963053
#
# Stress axis : x y z
#
# Youngs Moduli (GPa) = 77.69437 96.78762 74.44588
#
# Poissons Ratio (x) = 0.07728 0.20866
# Poissons Ratio (y) = 0.06204 -0.00736
# Poissons Ratio (z) = 0.21776 -0.00957
#
# Static dielectric constant tensor:
#      x y z
#    x 2.263990 0.000000 -0.052610 
#    y 0.000000 1.738830 0.000000 
#    z -0.052610 0.000000 1.815070 
# 
# From -- ./inp_files/361006.got.cif
#   From: 2010.05.17/outbox.cif.g08.bks.cpg/sg12_181_cif.got.tgz:361006.got - 2010.06.03 13:09:07.
