data_PCOD9203419
_publ_section_title
;
Structure prediction by ZEFSAII (Michael W. Deem and Ramdas Pophale) SiO2 
 PCOD9203419
Probable space group: C 2/M
;
_chemical_formula_sum "Si O2"
_cell_formula_units_Z 48
_cell_length_a 26.074740
_cell_length_b 10.955238
_cell_length_c 20.810576
_cell_angle_alpha 90.000000
_cell_angle_beta 21.515599
_cell_angle_gamma 90.000000
_cell_volume 2180.225339
_symmetry_space_group_name_H-M "C 2/M"
_symmetry_group_IT_number 12
_symmetry_cell_setting 'monoclinic'
loop_
_space_group_symop_operation_xyz
x,y,z
-x,y,-z
-x,-y,-z
x,-y,z
1/2+x,1/2+y,z
1/2-x,1/2+y,-z
1/2-x,1/2-y,-z
1/2+x,1/2-y,z
loop_
_atom_site_type_symbol
_atom_site_label
_atom_site_fract_x
_atom_site_fract_y
_atom_site_fract_z
Si Si1 0.064599 0.359605 0.243255
Si Si2 0.151787 0.862543 0.339086
Si Si3 0.643911 0.635348 0.548437
Si Si4 0.710917 0.788301 0.944654
Si Si5 0.859038 0.714753 0.200646
Si Si6 0.048879 0.865601 0.797824
O O1 0.015176 0.500000 0.310749
O O2 0.171080 0.310579 0.173330
O O3 0.948679 0.251391 0.367614
O O4 0.159543 0.355906 0.068218
O O5 0.228297 0.869376 0.182271
O O6 0.240656 0.783057 0.284629
O O7 0.000000 0.812610 0.500000
O O8 0.137911 0.000000 0.382744
O O9 0.578499 0.500000 0.611854
O O10 0.790084 0.638761 0.339829
O O11 0.653892 0.642426 0.614417
O O12 0.574293 0.726142 0.074460
O O13 0.891515 0.837681 0.201563
O O14 0.000000 0.671079 0.000000
O O15 0.988633 0.000000 0.866703
#
# Coordination Sequence:
#
# PCOD9203419 Si02
#       6
#     8   8   8   8   8   8
#     4  10  21  38  68 100 134 178 233 287 337 403
#     4  11  24  42  64  92 132 175 219 276 344 407
#     4  10  23  43  69  98 136 181 229 285 343 405
#     4  10  20  39  62  96 134 174 229 279 339 399
#     4  12  24  43  67 101 134 172 229 285 343 402
#     4  10  22  43  66  94 134 181 225 276 344 410
#
# _framework density 22.016072999999999
#
# number of rings (size 3 to 8) (size 9 to 14) (size 15 to 20)
#    0.000    1.500    1.667    3.000    0.000    8.333 
#    0.000    3.333    0.000    2.500    0.000    0.000 
#    0.000    0.000    0.000    0.000    0.000    0.000 
#
# Total GULP energy -133851.337572 kJ/mol
# GULP energy per Si atom -5577.139065 kJ/mol
# Density = 2.196596 g / cm^3
# Si number density = 22.016073 Si / 1000 Ang^3
#
#
#
# Elastic Constant Matrix: (Units=GPa)
#
#
# Indices 1 2 3 4 5 6 
#
# 1 122.7350 22.5521 52.3670 0.0000 2.8621 0.0000
# 2 22.5521 117.7230 31.2033 0.0000 -5.0357 0.0000
# 3 52.3670 31.2033 118.8042 0.0001 14.4693 0.0000
# 4 0.0000 0.0000 0.0001 -64.2451 0.0000 9.9545
# 5 2.8621 -5.0357 14.4693 0.0000 35.7221 0.0000
# 6 0.0000 0.0000 0.0000 9.9545 0.0000 -9.6815
#
#
#
# Elastic Compliance Matrix: (Units=1/GPa)
#
#
# Indices 1 2 3 4 5 6 
#
# 1 0.010131 -0.000745 -0.004374 0.000000 0.000855 0.000000
# 2 -0.000745 0.009381 -0.002423 0.000000 0.002364 0.000000
# 3 -0.004374 -0.002423 0.011550 0.000000 -0.004670 0.000000
# 4 0.000000 0.000000 0.000000 -0.018515 0.000000 -0.019037
# 5 0.000855 0.002364 -0.004670 0.000000 0.030150 0.000000
# 6 0.000000 0.000000 0.000000 -0.019037 0.000000 -0.122864
#
#
# Mechanical properties :
#
#
# Convention : Reuss Voigt Hill
#
# Bulk Modulus (GPa) = 62.58798 63.50079 63.04439
# Shear Modulus (GPa) = -83.67232 9.23508 -37.21862
#
# Velocity S-wave (km/s) = -6.17152 2.05032 -4.11605
# Velocity P-wave (km/s) = 4.72159 5.87457 2.47155
#
# Compressibility (1/GPa) = 0.01597751
#
# Stress axis : x y z
#
# Youngs Moduli (GPa) = 98.70891 106.60265 86.57706
#
# Poissons Ratio (x) = 0.07940 0.37869
# Poissons Ratio (y) = 0.07352 0.20981
# Poissons Ratio (z) = 0.43175 0.25833
#
# Static dielectric constant tensor:
#      x y z
#    x 1.807660 0.000000 0.009040 
#    y 0.000000 1.833840 0.000000 
#    z 0.009040 0.000000 1.841150 
# 
# From -- ./inp_files/327954.got.cif
#   From: 2010.05.17/outbox.cif.g08.bks.cpg/sg12_164_cif.got.tgz:327954.got - 2010.06.03 13:09:07.
