data_PCOD9203433
_publ_section_title
;
Structure prediction by ZEFSAII (Michael W. Deem and Ramdas Pophale) SiO2 
 PCOD9203433
Probable space group: C 2/M
;
_chemical_formula_sum "Si O2"
_cell_formula_units_Z 50
_cell_length_a 17.966002
_cell_length_b 14.707867
_cell_length_c 10.993971
_cell_angle_alpha 90.000000
_cell_angle_beta 127.551676
_cell_angle_gamma 90.000000
_cell_volume 2303.146367
_symmetry_space_group_name_H-M "C 2/M"
_symmetry_group_IT_number 12
_symmetry_cell_setting 'monoclinic'
loop_
_space_group_symop_operation_xyz
x,y,z
-x,y,-z
-x,-y,-z
x,-y,z
1/2+x,1/2+y,z
1/2-x,1/2+y,-z
1/2-x,1/2-y,-z
1/2+x,1/2-y,z
loop_
_atom_site_type_symbol
_atom_site_label
_atom_site_fract_x
_atom_site_fract_y
_atom_site_fract_z
Si Si1 0.624539 0.293497 0.385693
Si Si2 0.467734 0.393675 0.101787
Si Si3 0.365005 0.102748 0.971785
Si Si4 0.050311 0.403511 0.308321
Si Si5 0.500000 0.000000 0.500000
Si Si6 0.757049 0.397335 0.118178
Si Si7 0.255663 0.752773 0.711140
O O1 0.525727 0.339976 0.260924
O O2 0.611619 0.185025 0.374887
O O3 0.690701 0.309380 0.334918
O O4 0.679374 0.313257 0.564007
O O5 0.493618 0.500000 0.135694
O O6 0.500000 0.361130 0.000000
O O7 0.355750 0.387549 0.001510
O O8 0.330817 0.181049 0.848889
O O9 0.354192 0.000000 0.912745
O O10 0.470530 0.111221 0.127275
O O11 0.301005 0.110019 0.029135
O O12 0.100267 0.500000 0.331684
O O13 0.004379 0.422690 0.394541
O O14 0.780464 0.500000 0.188892
O O15 0.789180 0.316242 0.236955
#
# Coordination Sequence:
#
# PCOD9203433 Si02
#       7
#     8   8   8   8   2   8   8
#     4  11  24  38  58  88 121 156 196 244 297 353
#     4  10  20  39  63  85 111 153 202 243 286 343
#     4  10  22  40  60  86 118 155 194 242 301 356
#     4   9  21  38  63  89 116 155 196 246 297 350
#     4   8  20  40  60  94 118 148 208 248 282 364
#     4  10  21  38  63  86 112 151 200 247 286 348
#     4  11  24  38  56  88 121 156 195 239 301 354
#
# _framework density 21.709432
#
# number of rings (size 3 to 8) (size 9 to 14) (size 15 to 20)
#    0.480    1.440    1.600    1.440    2.240    1.920 
#    0.000    4.800    0.000    2.880    0.000    0.000 
#    0.000    0.000    0.000    0.000    0.000    0.000 
#
# Total GULP energy -139426.216128 kJ/mol
# GULP energy per Si atom -5577.048645 kJ/mol
# Density = 2.166002 g / cm^3
# Si number density = 21.709432 Si / 1000 Ang^3
#
#
#
# Elastic Constant Matrix: (Units=GPa)
#
#
# Indices 1 2 3 4 5 6 
#
# 1 32.3047 -2.8558 -6.0436 0.0000 -3.7650 0.0000
# 2 -2.8558 62.2765 36.3012 0.0000 -3.2715 0.0000
# 3 -6.0436 36.3012 83.7472 0.0000 -19.2854 0.0000
# 4 0.0000 0.0000 0.0000 13.2088 0.0000 6.0098
# 5 -3.7650 -3.2715 -19.2854 0.0000 22.5931 0.0000
# 6 0.0000 0.0000 0.0000 6.0098 0.0000 21.3313
#
#
#
# Elastic Compliance Matrix: (Units=1/GPa)
#
#
# Indices 1 2 3 4 5 6 
#
# 1 0.032926 -0.000883 0.004970 0.000000 0.009601 0.000000
# 2 -0.000883 0.022189 -0.011172 0.000000 -0.006470 0.000000
# 3 0.004970 -0.011172 0.021110 0.000000 0.017230 0.000000
# 4 0.000000 0.000000 0.000000 0.086839 0.000000 -0.024466
# 5 0.009601 -0.006470 0.017230 0.000000 0.059631 0.000000
# 6 0.000000 0.000000 0.000000 -0.024466 0.000000 0.053772
#
#
# Mechanical properties :
#
#
# Convention : Reuss Voigt Hill
#
# Bulk Modulus (GPa) = 16.11475 25.90358 21.00916
# Shear Modulus (GPa) = 16.06057 21.48842 18.77450
#
# Velocity S-wave (km/s) = 2.72287 3.14955 2.94395
# Velocity P-wave (km/s) = 4.16226 5.01838 4.61023
#
# Compressibility (1/GPa) = 0.06205497
#
# Stress axis : x y z
#
# Youngs Moduli (GPa) = 30.37123 45.06708 47.37197
#
# Poissons Ratio (x) = 0.03977 -0.23542
# Poissons Ratio (y) = 0.02680 0.52923
# Poissons Ratio (z) = -0.15093 0.50348
#
# Static dielectric constant tensor:
#      x y z
#    x 1.800290 0.000000 0.000200 
#    y 0.000000 1.789740 0.000000 
#    z 0.000200 0.000000 1.827120 
# 
# From -- ./inp_files/176505.got.cif
#   From: 2010.05.17/outbox.cif.g08.bks.cpg/sg12_89_cif.got.tgz:176505.got - 2010.06.03 13:09:07.
