data_PCOD9203449
_publ_section_title
;
Structure prediction by ZEFSAII (Michael W. Deem and Ramdas Pophale) SiO2 
 PCOD9203449
Probable space group: C 2/M
;
_chemical_formula_sum "Si O2"
_cell_formula_units_Z 48
_cell_length_a 25.155002
_cell_length_b 8.886293
_cell_length_c 12.771356
_cell_angle_alpha 90.000000
_cell_angle_beta 70.858034
_cell_angle_gamma 90.000000
_cell_volume 2696.994395
_symmetry_space_group_name_H-M "C 2/M"
_symmetry_group_IT_number 12
_symmetry_cell_setting 'monoclinic'
loop_
_space_group_symop_operation_xyz
x,y,z
-x,y,-z
-x,-y,-z
x,-y,z
1/2+x,1/2+y,z
1/2-x,1/2+y,-z
1/2-x,1/2-y,-z
1/2+x,1/2-y,z
loop_
_atom_site_type_symbol
_atom_site_label
_atom_site_fract_x
_atom_site_fract_y
_atom_site_fract_z
Si Si1 0.438047 0.680920 0.996837
Si Si2 0.644515 0.679145 0.759530
Si Si3 0.939537 0.179182 0.380752
Si Si4 0.127674 0.320533 0.387692
Si Si5 0.443142 0.820671 0.768951
Si Si6 0.743442 0.679005 0.388847
O O1 0.438139 0.500000 0.981858
O O2 0.427959 0.760112 0.893168
O O3 0.500000 0.722194 0.000000
O O4 0.392003 0.717443 0.114674
O O5 0.656819 0.500000 0.753953
O O6 0.605610 0.706374 0.682788
O O7 0.701807 0.770260 0.710975
O O8 0.917288 0.259705 0.499020
O O9 0.999257 0.242098 0.305155
O O10 0.943076 0.000000 0.395149
O O11 0.133492 0.500000 0.396302
O O12 0.104209 0.288238 0.287279
O O13 0.186670 0.242011 0.374293
O O14 0.451835 0.000000 0.766334
O O15 0.740221 0.500000 0.400295
O O16 0.750000 0.750000 0.500000
#
# Coordination Sequence:
#
# PCOD9203449 Si02
#       6
#     8   8   8   8   8   8
#     4  10  20  39  63  87 118 156 199 244 292 351
#     4  10  21  38  61  90 121 153 196 247 295 346
#     4  11  21  36  61  90 122 158 197 241 297 358
#     4  11  24  41  59  85 123 161 199 246 299 351
#     4  11  24  39  58  88 125 160 197 246 299 351
#     4  12  24  39  62  89 119 156 199 246 295 353
#
# _framework density 17.79759
#
# number of rings (size 3 to 8) (size 9 to 14) (size 15 to 20)
#    0.000    1.167    3.333    3.500    0.000    6.333 
#    0.000    0.833    0.000    0.000    0.000    0.000 
#    0.000    0.000    0.000    0.000    0.000    0.000 
#
# Total GULP energy -134202.499606 kJ/mol
# GULP energy per Si atom -5591.770817 kJ/mol
# Density = 1.775708 g / cm^3
# Si number density = 17.797590 Si / 1000 Ang^3
#
#
#
# Elastic Constant Matrix: (Units=GPa)
#
#
# Indices 1 2 3 4 5 6 
#
# 1 53.3438 38.4601 46.1022 0.0000 6.0930 0.0000
# 2 38.4601 69.4521 59.2032 0.0000 9.9209 0.0000
# 3 46.1022 59.2032 134.2123 0.0000 10.8335 0.0000
# 4 0.0000 0.0000 0.0000 34.6381 0.0000 -1.1714
# 5 6.0930 9.9209 10.8335 0.0000 29.3438 0.0000
# 6 0.0000 0.0000 0.0000 -1.1714 0.0000 32.5932
#
#
#
# Elastic Compliance Matrix: (Units=1/GPa)
#
#
# Indices 1 2 3 4 5 6 
#
# 1 0.033415 -0.013943 -0.005306 0.000000 -0.000265 0.000000
# 2 -0.013943 0.029398 -0.007844 0.000000 -0.004148 0.000000
# 3 -0.005306 -0.007844 0.012812 0.000000 -0.000977 0.000000
# 4 0.000000 0.000000 0.000000 0.028905 0.000000 0.001039
# 5 -0.000265 -0.004148 -0.000977 0.000000 0.035897 0.000000
# 6 0.000000 0.000000 0.000000 0.001039 0.000000 0.030719
#
#
# Mechanical properties :
#
#
# Convention : Reuss Voigt Hill
#
# Bulk Modulus (GPa) = 46.64197 60.50436 53.57316
# Shear Modulus (GPa) = 21.50725 26.86454 24.18590
#
# Velocity S-wave (km/s) = 3.48003 3.88938 3.69038
# Velocity P-wave (km/s) = 6.51239 7.36473 6.95164
#
# Compressibility (1/GPa) = 0.02143992
#
# Stress axis : x y z
#
# Youngs Moduli (GPa) = 29.92638 34.01544 78.04895
#
# Poissons Ratio (x) = 0.47428 0.41415
# Poissons Ratio (y) = 0.41726 0.61220
# Poissons Ratio (z) = 0.15880 0.26681
#
# Static dielectric constant tensor:
#      x y z
#    x 1.585490 0.000000 0.002250 
#    y 0.000000 1.594290 0.000000 
#    z 0.002250 0.000000 1.585140 
# 
# From -- ./inp_files/172180.got.cif
#   From: 2010.05.17/outbox.cif.g08.bks.cpg/sg12_87_cif.got.tgz:172180.got - 2010.06.03 13:09:07.
