data_PCOD9203752
_publ_section_title
;
Structure prediction by ZEFSAII (Michael W. Deem and Ramdas Pophale) SiO2 
 PCOD9203752
Probable space group: C 2/M
;
_chemical_formula_sum "Si O2"
_cell_formula_units_Z 44
_cell_length_a 23.959463
_cell_length_b 17.490940
_cell_length_c 14.846041
_cell_angle_alpha 90.000000
_cell_angle_beta 162.131953
_cell_angle_gamma 90.000000
_cell_volume 1908.942619
_symmetry_space_group_name_H-M "C 2/M"
_symmetry_group_IT_number 12
_symmetry_cell_setting 'monoclinic'
loop_
_space_group_symop_operation_xyz
x,y,z
-x,y,-z
-x,-y,-z
x,-y,z
1/2+x,1/2+y,z
1/2-x,1/2+y,-z
1/2-x,1/2-y,-z
1/2+x,1/2-y,z
loop_
_atom_site_type_symbol
_atom_site_label
_atom_site_fract_x
_atom_site_fract_y
_atom_site_fract_z
Si Si1 0.447490 0.084619 0.622986
Si Si2 0.734139 0.333437 0.144780
Si Si3 0.500000 0.293899 0.500000
Si Si4 0.337200 0.584940 0.138981
Si Si5 0.535044 0.257016 0.154920
Si Si6 0.448103 0.085726 0.025116
O O1 0.350255 0.145399 0.411134
O O2 0.412249 0.085983 0.675367
O O3 0.398202 0.000000 0.513383
O O4 0.664317 0.093325 0.940026
O O5 0.828440 0.261514 0.242164
O O6 0.731853 0.399714 0.067576
O O7 0.537779 0.312709 0.879819
O O8 0.520195 0.350414 0.615284
O O9 0.410399 0.500000 0.260655
O O10 0.750000 0.250000 0.500000
O O11 0.413394 0.178346 0.975988
O O12 0.500000 0.286074 0.000000
O O13 0.354813 0.000000 0.897275
O O14 0.500000 0.080253 0.000000
#
# Coordination Sequence:
#
# PCOD9203752 Si02
#       6
#     8   8   4   8   8   8
#     4  10  20  39  67 100 140 180 220 278 349 418
#     4  12  24  41  71  99 137 174 234 282 347 412
#     4  12  25  38  69 106 136 180 226 284 337 410
#     4  11  24  43  65 101 145 182 221 276 353 424
#     4  11  25  42  66  95 132 177 230 289 340 404
#     4   9  19  38  63  91 127 177 226 271 332 404
#
# _framework density 23.049410000000002
#
# number of rings (size 3 to 8) (size 9 to 14) (size 15 to 20)
#    0.000    1.273    1.818    3.545    5.091    1.455 
#    0.000    2.727    0.000    4.909    0.000    0.000 
#    0.000    0.000    0.000    0.000    0.000    0.000 
#
# Total GULP energy -122555.812819 kJ/mol
# GULP energy per Si atom -5570.718765 kJ/mol
# Density = 2.299695 g / cm^3
# Si number density = 23.049410 Si / 1000 Ang^3
#
#
#
# Elastic Constant Matrix: (Units=GPa)
#
#
# Indices 1 2 3 4 5 6 
#
# 1 100.6481 25.5126 38.4488 0.0000 -22.3217 0.0000
# 2 25.5126 97.8871 -1.2199 0.0000 -1.4456 0.0000
# 3 38.4488 -1.2199 69.3019 0.0000 0.9656 0.0000
# 4 0.0000 0.0000 0.0000 37.8634 0.0000 -23.2937
# 5 -22.3217 -1.4456 0.9656 0.0000 38.4950 0.0000
# 6 0.0000 0.0000 0.0000 -23.2937 0.0000 32.0099
#
#
#
# Elastic Compliance Matrix: (Units=1/GPa)
#
#
# Indices 1 2 3 4 5 6 
#
# 1 0.016899 -0.004378 -0.009590 0.000000 0.009875 0.000000
# 2 -0.004378 0.011358 0.002659 0.000000 -0.002179 0.000000
# 3 -0.009590 0.002659 0.019880 0.000000 -0.005960 0.000000
# 4 0.000000 0.000000 0.000000 0.047818 0.000000 0.034797
# 5 0.009875 -0.002179 -0.005960 0.000000 0.031771 0.000000
# 6 0.000000 0.000000 0.000000 0.034797 0.000000 0.056563
#
#
# Mechanical properties :
#
#
# Convention : Reuss Voigt Hill
#
# Bulk Modulus (GPa) = 39.18669 43.70223 41.44446
# Shear Modulus (GPa) = 23.21110 35.34671 29.27891
#
# Velocity S-wave (km/s) = 3.17679 3.92027 3.56795
# Velocity P-wave (km/s) = 5.52215 6.28432 5.91552
#
# Compressibility (1/GPa) = 0.02551887
#
# Stress axis : x y z
#
# Youngs Moduli (GPa) = 59.17453 88.04434 50.30132
#
# Poissons Ratio (x) = 0.38547 0.48241
# Poissons Ratio (y) = 0.25908 -0.13377
# Poissons Ratio (z) = 0.56750 -0.23414
#
# Static dielectric constant tensor:
#      x y z
#    x 1.847820 0.000000 0.031380 
#    y 0.000000 1.921820 0.000000 
#    z 0.031380 0.000000 1.904220 
# 
# From -- ./inp_files/241564.got.cif
#   From: 2010.05.17/outbox.cif.g08.bks.cpg/sg12_121_cif.got.tgz:241564.got - 2010.06.03 13:09:07.
