data_PCOD9203628
_publ_section_title
;
Structure prediction by ZEFSAII (Michael W. Deem and Ramdas Pophale) SiO2 
 PCOD9203628
Probable space group: C 2/M
;
_chemical_formula_sum "Si O2"
_cell_formula_units_Z 56
_cell_length_a 17.651486
_cell_length_b 12.498224
_cell_length_c 31.748906
_cell_angle_alpha 90.000000
_cell_angle_beta 25.197551
_cell_angle_gamma 90.000000
_cell_volume 2981.971071
_symmetry_space_group_name_H-M "C 2/M"
_symmetry_group_IT_number 12
_symmetry_cell_setting 'monoclinic'
loop_
_space_group_symop_operation_xyz
x,y,z
-x,y,-z
-x,-y,-z
x,-y,z
1/2+x,1/2+y,z
1/2-x,1/2+y,-z
1/2-x,1/2-y,-z
1/2+x,1/2-y,z
loop_
_atom_site_type_symbol
_atom_site_label
_atom_site_fract_x
_atom_site_fract_y
_atom_site_fract_z
Si Si1 0.052848 0.709891 0.589516
Si Si2 0.065991 0.267481 0.729298
Si Si3 0.154384 0.127084 0.095930
Si Si4 0.337384 0.117119 0.549623
Si Si5 0.004873 0.751278 0.902346
Si Si6 0.821846 0.373090 0.784133
Si Si7 0.754309 0.126267 0.712716
O O1 0.250000 0.750000 0.500000
O O2 0.077662 0.628182 0.538887
O O3 0.952298 0.657853 0.679584
O O4 0.932474 0.807493 0.632993
O O5 0.197293 0.209301 0.630548
O O6 0.176579 0.340318 0.706298
O O7 0.974875 0.176210 0.803780
O O8 0.918885 0.333036 0.777563
O O9 0.074908 0.161855 0.090400
O O10 0.170455 0.000000 0.090899
O O11 0.342776 0.187738 0.004717
O O12 0.500000 0.126522 0.500000
O O13 0.253083 0.000000 0.596992
O O14 0.139962 0.809248 0.865991
O O15 0.113998 0.668048 0.818210
O O16 0.792576 0.500000 0.799785
O O17 0.780419 0.000000 0.702259
#
# Coordination Sequence:
#
# PCOD9203628 Si02
#       7
#     8   8   8   8   8   8   8
#     4  11  22  40  58  86 119 149 200 242 285 352
#     4  11  22  39  58  88 120 150 200 240 280 359
#     4  10  20  39  65  88 116 156 193 241 296 342
#     4  11  22  39  60  83 116 156 193 241 290 336
#     4   9  21  39  61  90 119 145 199 242 284 357
#     4  11  23  40  61  86 119 156 192 241 296 343
#     4  10  21  38  60  84 117 155 190 239 292 342
#
# _framework density 18.779525
#
# number of rings (size 3 to 8) (size 9 to 14) (size 15 to 20)
#    0.000    1.571    2.857    2.143    0.000    1.714 
#    0.000    6.429    0.000    0.000    0.000    0.000 
#    0.000    0.000    0.000    0.000    0.000    0.000 
#
# Total GULP energy -156394.981340 kJ/mol
# GULP energy per Si atom -5585.535048 kJ/mol
# Density = 1.873678 g / cm^3
# Si number density = 18.779525 Si / 1000 Ang^3
#
#
#
# Elastic Constant Matrix: (Units=GPa)
#
#
# Indices 1 2 3 4 5 6 
#
# 1 84.1164 40.4475 7.7051 -0.0002 -20.3229 0.0002
# 2 40.4475 136.6742 26.1387 0.0005 -11.3595 -0.0001
# 3 7.7051 26.1387 60.4357 0.0013 -14.8841 0.0000
# 4 -0.0002 0.0005 0.0013 14.8068 0.0000 1.0995
# 5 -20.3229 -11.3595 -14.8841 0.0000 30.3735 -0.0002
# 6 0.0002 -0.0001 0.0000 1.0995 -0.0002 10.0147
#
#
#
# Elastic Compliance Matrix: (Units=1/GPa)
#
#
# Indices 1 2 3 4 5 6 
#
# 1 0.016317 -0.004420 0.002403 0.000000 0.010442 0.000000
# 2 -0.004420 0.009232 -0.003761 0.000000 -0.001348 0.000000
# 3 0.002403 -0.003761 0.020376 -0.000002 0.010186 0.000000
# 4 0.000000 0.000000 -0.000002 0.068091 -0.000001 -0.007475
# 5 0.010442 -0.001348 0.010186 -0.000001 0.044397 0.000001
# 6 0.000000 0.000000 0.000000 -0.007475 0.000001 0.100674
#
#
# Mechanical properties :
#
#
# Convention : Reuss Voigt Hill
#
# Bulk Modulus (GPa) = 29.09770 47.75656 38.42713
# Shear Modulus (GPa) = 17.72424 24.83469 21.27946
#
# Velocity S-wave (km/s) = 3.07548 3.64047 3.36984
# Velocity P-wave (km/s) = 5.30466 6.56933 5.97057
#
# Compressibility (1/GPa) = 0.03436698
#
# Stress axis : x y z
#
# Youngs Moduli (GPa) = 61.28755 108.31675 49.07838
#
# Poissons Ratio (x) = 0.47881 -0.11795
# Poissons Ratio (y) = 0.27092 0.18460
# Poissons Ratio (z) = -0.14729 0.40742
#
# Static dielectric constant tensor:
#      x y z
#    x 1.589120 0.000000 -0.007340 
#    y 0.000000 1.607500 0.000000 
#    z -0.007340 0.000000 1.635020 
# 
# From -- ./inp_files/376231.got.cif
#   From: 2010.05.17/outbox.cif.g08.bks.cpg/sg12_189_cif.got.tgz:376231.got - 2010.06.03 13:09:07.
