data_PCOD9203412
_publ_section_title
;
Structure prediction by ZEFSAII (Michael W. Deem and Ramdas Pophale) SiO2 
 PCOD9203412
Probable space group: C 2/M
;
_chemical_formula_sum "Si O2"
_cell_formula_units_Z 36
_cell_length_a 16.967155
_cell_length_b 15.624095
_cell_length_c 15.657082
_cell_angle_alpha 90.000000
_cell_angle_beta 24.819821
_cell_angle_gamma 90.000000
_cell_volume 1742.296571
_symmetry_space_group_name_H-M "C 2/M"
_symmetry_group_IT_number 12
_symmetry_cell_setting 'monoclinic'
loop_
_space_group_symop_operation_xyz
x,y,z
-x,y,-z
-x,-y,-z
x,-y,z
1/2+x,1/2+y,z
1/2-x,1/2+y,-z
1/2-x,1/2-y,-z
1/2+x,1/2-y,z
loop_
_atom_site_type_symbol
_atom_site_label
_atom_site_fract_x
_atom_site_fract_y
_atom_site_fract_z
Si Si1 0.633993 0.819615 0.449765
Si Si2 0.615040 0.500000 0.012751
Si Si3 0.803692 0.000000 0.875849
Si Si4 0.615051 0.000000 0.754276
Si Si5 0.822774 0.500000 0.507440
Si Si6 0.000000 0.859279 0.000000
Si Si7 0.425175 0.365520 0.476566
O O1 0.500000 0.821240 0.500000
O O2 0.849242 0.811127 0.205655
O O3 0.591120 0.731460 0.540673
O O4 0.607433 0.910405 0.522133
O O5 0.727983 0.500000 0.990129
O O6 0.398943 0.500000 0.255276
O O7 0.626008 0.419024 0.938782
O O8 0.930458 0.080693 0.723259
O O9 0.608540 0.000000 0.015786
O O10 0.646231 0.000000 0.622466
O O11 0.728503 0.083320 0.673872
O O12 0.500000 0.364281 0.500000
#
# Coordination Sequence:
#
# PCOD9203412 Si02
#       7
#     8   4   4   4   4   4   8
#     4  10  22  38  64  91 126 162 203 250 306 371
#     4   9  18  38  61  87 131 152 203 253 304 363
#     4  11  22  39  63  94 121 166 205 256 309 357
#     4  11  23  38  63  90 117 166 210 250 308 365
#     4  10  20  39  62  91 127 161 200 250 309 373
#     4   9  20  36  60  91 118 168 196 247 304 369
#     4  10  23  43  61  88 125 162 207 260 304 358
#
# _framework density 20.662382999999998
#
# number of rings (size 3 to 8) (size 9 to 14) (size 15 to 20)
#    0.000    2.000    2.222    2.333    3.111    6.222 
#    0.000    1.111    0.000    0.000    0.000    0.000 
#    0.000    0.000    0.000    0.000    0.000    0.000 
#
# Total GULP energy -100450.193269 kJ/mol
# GULP energy per Si atom -5580.566293 kJ/mol
# Density = 2.061535 g / cm^3
# Si number density = 20.662383 Si / 1000 Ang^3
#
#
#
# Elastic Constant Matrix: (Units=GPa)
#
#
# Indices 1 2 3 4 5 6 
#
# 1 81.4133 41.2636 11.4811 -0.0104 -10.2747 -0.0216
# 2 41.2636 177.8433 42.9495 -0.0358 -8.2424 -0.0699
# 3 11.4811 42.9495 75.8651 -0.0280 -11.2543 -0.0434
# 4 -0.0104 -0.0358 -0.0280 43.7695 0.0149 65.1738
# 5 -10.2747 -8.2424 -11.2543 0.0149 39.8017 0.0263
# 6 -0.0216 -0.0699 -0.0434 65.1738 0.0263 166.7054
#
#
#
# Elastic Compliance Matrix: (Units=1/GPa)
#
#
# Indices 1 2 3 4 5 6 
#
# 1 0.014273 -0.003195 0.000101 -0.000001 0.003052 0.000000
# 2 -0.003195 0.007232 -0.003665 0.000001 -0.000363 0.000001
# 3 0.000101 -0.003665 0.015795 0.000007 0.003733 -0.000001
# 4 -0.000001 0.000001 0.000007 0.054676 -0.000004 -0.021376
# 5 0.003052 -0.000363 0.003733 -0.000004 0.026893 -0.000001
# 6 0.000000 0.000001 -0.000001 -0.021376 -0.000001 0.014355
#
#
# Mechanical properties :
#
#
# Convention : Reuss Voigt Hill
#
# Bulk Modulus (GPa) = 42.04609 58.50113 50.27361
# Shear Modulus (GPa) = 32.32723 66.01715 49.17219
#
# Velocity S-wave (km/s) = 3.95972 5.65860 4.88360
# Velocity P-wave (km/s) = 6.42644 8.43015 7.49555
#
# Compressibility (1/GPa) = 0.02378343
#
# Stress axis : x y z
#
# Youngs Moduli (GPa) = 70.06213 138.26642 63.31285
#
# Poissons Ratio (x) = 0.44172 -0.00641
# Poissons Ratio (y) = 0.22383 0.23204
# Poissons Ratio (z) = -0.00710 0.50673
#
# Static dielectric constant tensor:
#      x y z
#    x 1.739200 0.000000 -0.023140 
#    y 0.000000 1.771430 0.000000 
#    z -0.023140 0.000000 1.770430 
# 
# From -- ./inp_files/216208.got.cif
#   From: 2010.05.17/outbox.cif.g08.bks.cpg/sg12_109_cif.got.tgz:216208.got - 2010.06.03 13:09:07.
