data_PCOD9203894
_publ_section_title
;
Structure prediction by ZEFSAII (Michael W. Deem and Ramdas Pophale) SiO2 
 PCOD9203894
Probable space group: C 2/M
;
_chemical_formula_sum "Si O2"
_cell_formula_units_Z 64
_cell_length_a 20.511789
_cell_length_b 21.590673
_cell_length_c 8.716731
_cell_angle_alpha 90.000000
_cell_angle_beta 54.308173
_cell_angle_gamma 90.000000
_cell_volume 3135.223993
_symmetry_space_group_name_H-M "C 2/M"
_symmetry_group_IT_number 12
_symmetry_cell_setting 'monoclinic'
loop_
_space_group_symop_operation_xyz
x,y,z
-x,y,-z
-x,-y,-z
x,-y,z
1/2+x,1/2+y,z
1/2-x,1/2+y,-z
1/2-x,1/2-y,-z
1/2+x,1/2-y,z
loop_
_atom_site_type_symbol
_atom_site_label
_atom_site_fract_x
_atom_site_fract_y
_atom_site_fract_z
Si Si1 0.688167 0.331894 0.741910
Si Si2 0.545446 0.714582 0.099079
Si Si3 0.811230 0.569984 0.499414
Si Si4 0.130137 0.344047 0.080754
Si Si5 0.013451 0.427683 0.664536
Si Si6 0.892491 0.834332 0.478164
Si Si7 0.263003 0.428089 0.738273
Si Si8 0.804963 0.265902 0.777534
O O1 0.742025 0.392336 0.676787
O O2 0.654839 0.322921 0.617303
O O3 0.746647 0.277230 0.715161
O O4 0.615110 0.333550 0.960189
O O5 0.591637 0.778406 0.077760
O O6 0.483496 0.683404 0.304057
O O7 0.500000 0.726686 0.000000
O O8 0.814561 0.500000 0.553836
O O9 0.900110 0.596914 0.399795
O O10 0.783461 0.569744 0.360932
O O11 0.149816 0.327560 0.230203
O O12 0.059218 0.392410 0.157659
O O13 0.210172 0.376792 0.903226
O O14 0.009704 0.500000 0.710211
O O15 0.000000 0.422307 0.500000
O O16 0.852890 0.899808 0.587231
O O17 0.866499 0.786311 0.644468
O O18 0.264333 0.500000 0.793988
O O19 0.750000 0.250000 0.000000
#
# Coordination Sequence:
#
# PCOD9203894 Si02
#       8
#     8   8   8   8   8   8   8   8
#     4  10  20  40  60  84 120 158 202 250 299 365
#     4  10  23  37  57  89 123 155 200 247 306 362
#     4   9  20  37  62  86 114 156 204 250 298 358
#     4  12  24  36  56  88 122 157 196 244 303 360
#     4  10  22  38  53  81 117 154 197 241 297 357
#     4  10  22  40  62  86 121 162 200 253 305 360
#     4  10  21  40  63  88 117 160 208 249 300 364
#     4  12  22  38  57  89 121 156 205 246 307 364
#
# _framework density 20.413214
#
# number of rings (size 3 to 8) (size 9 to 14) (size 15 to 20)
#    0.000    1.625    2.500    1.500    5.250    2.000 
#    0.000    3.125    0.000    3.750    0.000    3.500 
#    0.000    0.000    0.000    0.000    0.000    0.250 
#
# Total GULP energy -178313.260344 kJ/mol
# GULP energy per Si atom -5572.289386 kJ/mol
# Density = 2.036675 g / cm^3
# Si number density = 20.413214 Si / 1000 Ang^3
#
#
#
# Elastic Constant Matrix: (Units=GPa)
#
#
# Indices 1 2 3 4 5 6 
#
# 1 59.4042 29.6158 20.9964 0.0000 -20.0923 0.0000
# 2 29.6158 86.3565 59.6658 0.0000 -21.1708 0.0000
# 3 20.9964 59.6658 101.7264 0.0000 -36.5277 0.0000
# 4 0.0000 0.0000 0.0000 27.8973 0.0000 -4.3325
# 5 -20.0923 -21.1708 -36.5277 0.0000 28.6895 0.0000
# 6 0.0000 0.0000 0.0000 -4.3325 0.0000 28.5697
#
#
#
# Elastic Compliance Matrix: (Units=1/GPa)
#
#
# Indices 1 2 3 4 5 6 
#
# 1 0.025651 -0.008743 0.007309 0.000000 0.020819 0.000000
# 2 -0.008743 0.022452 -0.014026 0.000000 -0.007414 0.000000
# 3 0.007309 -0.014026 0.027026 0.000000 0.029178 0.000000
# 4 0.000000 0.000000 0.000000 0.036710 0.000000 0.005567
# 5 0.020819 -0.007414 0.029178 0.000000 0.081115 0.000000
# 6 0.000000 0.000000 0.000000 0.005567 0.000000 0.035846
#
#
# Mechanical properties :
#
#
# Convention : Reuss Voigt Hill
#
# Bulk Modulus (GPa) = 22.62039 52.00479 37.31259
# Shear Modulus (GPa) = 18.21784 26.17856 22.19820
#
# Velocity S-wave (km/s) = 2.99064 3.58499 3.30122
# Velocity P-wave (km/s) = 4.79901 6.53204 5.73141
#
# Compressibility (1/GPa) = 0.04420791
#
# Stress axis : x y z
#
# Youngs Moduli (GPa) = 38.98522 44.53943 37.00194
#
# Poissons Ratio (x) = 0.38942 -0.27046
# Poissons Ratio (y) = 0.34086 0.51900
# Poissons Ratio (z) = -0.28496 0.62472
#
# Static dielectric constant tensor:
#      x y z
#    x 1.787330 0.000000 -0.006710 
#    y 0.000000 1.756660 0.000000 
#    z -0.006710 0.000000 1.745710 
# 
# From -- ./inp_files/99054.got.cif
#   From: 2010.05.17/outbox.cif.g08.bks.cpg/sg12_50_cif.got.tgz:99054.got - 2010.06.03 13:09:07.
