data_PCOD9203657
_publ_section_title
;
Structure prediction by ZEFSAII (Michael W. Deem and Ramdas Pophale) SiO2 
 PCOD9203657
Probable space group: C 2/M
;
_chemical_formula_sum "Si O2"
_cell_formula_units_Z 48
_cell_length_a 30.171318
_cell_length_b 8.771219
_cell_length_c 9.538551
_cell_angle_alpha 90.000000
_cell_angle_beta 81.034974
_cell_angle_gamma 90.000000
_cell_volume 2493.437430
_symmetry_space_group_name_H-M "C 2/M"
_symmetry_group_IT_number 12
_symmetry_cell_setting 'monoclinic'
loop_
_space_group_symop_operation_xyz
x,y,z
-x,y,-z
-x,-y,-z
x,-y,z
1/2+x,1/2+y,z
1/2-x,1/2+y,-z
1/2-x,1/2-y,-z
1/2+x,1/2-y,z
loop_
_atom_site_type_symbol
_atom_site_label
_atom_site_fract_x
_atom_site_fract_y
_atom_site_fract_z
Si Si1 0.289691 0.318385 0.385690
Si Si2 0.790779 0.316083 0.071758
Si Si3 0.026693 0.178781 0.121063
Si Si4 0.969772 0.671142 0.376865
Si Si5 0.377462 0.816630 0.846326
Si Si6 0.131277 0.682247 0.472887
O O1 0.285117 0.500000 0.378207
O O2 0.250000 0.250000 0.500000
O O3 0.289100 0.248160 0.230095
O O4 0.334786 0.271354 0.444939
O O5 0.788031 0.500000 0.076593
O O6 0.750000 0.250000 0.000000
O O7 0.837372 0.273011 0.971070
O O8 0.074331 0.255461 0.129487
O O9 0.992710 0.209042 0.264497
O O10 0.034912 0.000000 0.096731
O O11 0.000000 0.240677 0.000000
O O12 0.971231 0.500000 0.312312
O O13 0.919144 0.703879 0.446611
O O14 0.000000 0.666218 0.500000
O O15 0.366765 0.769063 0.691225
O O16 0.380097 0.000000 0.842582
O O17 0.141306 0.500000 0.473979
#
# Coordination Sequence:
#
# PCOD9203657 Si02
#       6
#     8   8   8   8   8   8
#     4  12  26  44  67  95 129 166 209 261 316 378
#     4  11  24  43  69  99 129 166 209 257 316 379
#     4  11  25  40  57  88 129 167 209 261 310 365
#     4  10  20  39  65  91 121 164 212 257 308 372
#     4  10  22  42  66  91 122 164 210 254 309 378
#     4  10  21  40  66  95 126 160 209 263 313 374
#
# _framework density 19.250533000000001
#
# number of rings (size 3 to 8) (size 9 to 14) (size 15 to 20)
#    0.000    1.333    1.667    3.500    2.333    5.667 
#    0.000    0.000    0.000    0.000    0.000    0.000 
#    0.000    0.000    0.000    0.000    0.000    0.000 
#
# Total GULP energy -134136.161472 kJ/mol
# GULP energy per Si atom -5589.006728 kJ/mol
# Density = 1.920672 g / cm^3
# Si number density = 19.250533 Si / 1000 Ang^3
#
#
#
# Elastic Constant Matrix: (Units=GPa)
#
#
# Indices 1 2 3 4 5 6 
#
# 1 128.7492 54.6138 80.5477 0.0000 6.9923 0.0000
# 2 54.6138 60.2837 51.9692 0.0000 1.0416 0.0000
# 3 80.5477 51.9692 158.0957 0.0000 10.4935 0.0000
# 4 0.0000 0.0000 0.0000 35.1580 0.0000 6.5351
# 5 6.9923 1.0416 10.4935 0.0000 33.6207 0.0000
# 6 0.0000 0.0000 0.0000 6.5351 0.0000 34.5908
#
#
#
# Elastic Compliance Matrix: (Units=1/GPa)
#
#
# Indices 1 2 3 4 5 6 
#
# 1 0.014478 -0.009508 -0.004156 0.000000 -0.001419 0.000000
# 2 -0.009508 0.029487 -0.005023 0.000000 0.002632 0.000000
# 3 -0.004156 -0.005023 0.010239 0.000000 -0.002176 0.000000
# 4 0.000000 0.000000 0.000000 0.029478 0.000000 -0.005569
# 5 -0.001419 0.002632 -0.002176 0.000000 0.030636 0.000000
# 6 0.000000 0.000000 0.000000 -0.005569 0.000000 0.029962
#
#
# Mechanical properties :
#
#
# Convention : Reuss Voigt Hill
#
# Bulk Modulus (GPa) = 59.42705 80.15446 69.79075
# Shear Modulus (GPa) = 26.70008 31.34045 29.02026
#
# Velocity S-wave (km/s) = 3.72826 4.03926 3.88687
# Velocity P-wave (km/s) = 7.03353 7.96757 7.51507
#
# Compressibility (1/GPa) = 0.01682735
#
# Stress axis : x y z
#
# Youngs Moduli (GPa) = 69.07123 33.91278 97.66938
#
# Poissons Ratio (x) = 0.32246 0.40596
# Poissons Ratio (y) = 0.65676 0.49063
# Poissons Ratio (z) = 0.28709 0.17036
#
# Static dielectric constant tensor:
#      x y z
#    x 1.600250 0.000000 -0.013850 
#    y 0.000000 1.672680 0.000000 
#    z -0.013850 0.000000 1.637740 
# 
# From -- ./inp_files/108691.got.cif
#   From: 2010.05.17/outbox.cif.g08.bks.cpg/sg12_55_cif.got.tgz:108691.got - 2010.06.03 13:09:07.
