data_PCOD9203214
_publ_section_title
;
Structure prediction by ZEFSAII (Michael W. Deem and Ramdas Pophale) SiO2 
 PCOD9203214
Probable space group: C 2/M
;
_chemical_formula_sum "Si O2"
_cell_formula_units_Z 48
_cell_length_a 15.362307
_cell_length_b 23.878885
_cell_length_c 22.447833
_cell_angle_alpha 90.000000
_cell_angle_beta 163.230133
_cell_angle_gamma 90.000000
_cell_volume 2375.928125
_symmetry_space_group_name_H-M "C 2/M"
_symmetry_group_IT_number 12
_symmetry_cell_setting 'monoclinic'
loop_
_space_group_symop_operation_xyz
x,y,z
-x,y,-z
-x,-y,-z
x,-y,z
1/2+x,1/2+y,z
1/2-x,1/2+y,-z
1/2-x,1/2-y,-z
1/2+x,1/2-y,z
loop_
_atom_site_type_symbol
_atom_site_label
_atom_site_fract_x
_atom_site_fract_y
_atom_site_fract_z
Si Si1 0.262020 0.067008 0.719543
Si Si2 0.245611 0.308635 0.703214
Si Si3 0.138907 0.651671 0.761139
Si Si4 0.210172 0.258389 0.079538
Si Si5 0.875150 0.934182 0.581333
Si Si6 0.894228 0.123731 0.150005
O O1 0.000000 0.081101 0.500000
O O2 0.132828 0.078245 0.701203
O O3 0.318624 0.000000 0.751358
O O4 0.573329 0.100483 0.916977
O O5 0.088736 0.328974 0.660672
O O6 0.388384 0.361898 0.762738
O O7 0.000000 0.281496 0.500000
O O8 0.500669 0.265322 0.889747
O O9 0.083468 0.705588 0.766639
O O10 0.920387 0.600765 0.630539
O O11 0.500000 0.639162 0.000000
O O12 0.355323 0.315900 0.155940
O O13 0.000000 0.267670 0.000000
O O14 0.979739 0.916838 0.716055
O O15 0.814408 0.000000 0.539013
#
# Coordination Sequence:
#
# PCOD9203214 Si02
#       6
#     8   8   8   8   8   8
#     4  10  24  42  61  89 122 158 204 256 298 344
#     4  10  20  39  58  91 126 155 190 249 300 356
#     4   9  21  41  62  85 127 160 195 247 300 360
#     4   9  21  38  59  87 122 161 198 240 300 357
#     4  11  23  41  65  88 117 161 205 249 300 353
#     4  12  22  39  64  91 123 158 202 247 301 364
#
# _framework density 20.202629999999999
#
# number of rings (size 3 to 8) (size 9 to 14) (size 15 to 20)
#    0.000    2.167    1.667    2.500    4.667    3.000 
#    3.000    2.500    0.000    0.000    0.000    0.000 
#    0.000    0.000    0.000    0.000    0.000    0.000 
#
# Total GULP energy -134041.425849 kJ/mol
# GULP energy per Si atom -5585.059410 kJ/mol
# Density = 2.015665 g / cm^3
# Si number density = 20.202630 Si / 1000 Ang^3
#
#
#
# Elastic Constant Matrix: (Units=GPa)
#
#
# Indices 1 2 3 4 5 6 
#
# 1 45.0135 16.8999 28.3299 0.2543 -16.1459 0.0441
# 2 16.8999 80.3269 36.5954 -0.0581 5.3855 0.0281
# 3 28.3299 36.5954 88.1847 0.4175 -13.6039 0.1349
# 4 0.2543 -0.0581 0.4175 13.1344 -0.0486 0.0655
# 5 -16.1459 5.3855 -13.6039 -0.0486 27.9791 0.0788
# 6 0.0441 0.0281 0.1349 0.0655 0.0788 25.4262
#
#
#
# Elastic Compliance Matrix: (Units=1/GPa)
#
#
# Indices 1 2 3 4 5 6 
#
# 1 0.034670 -0.005831 -0.005899 -0.000442 0.018261 -0.000078
# 2 -0.005831 0.017528 -0.006964 0.000374 -0.010125 0.000058
# 3 -0.005899 -0.006964 0.017091 -0.000436 0.006246 -0.000091
# 4 -0.000442 0.000374 -0.000436 0.076160 -0.000406 -0.000192
# 5 0.018261 -0.010125 0.006246 -0.000406 0.051264 -0.000211
# 6 -0.000078 0.000058 -0.000091 -0.000192 -0.000211 0.039331
#
#
# Mechanical properties :
#
#
# Convention : Reuss Voigt Hill
#
# Bulk Modulus (GPa) = 31.34830 41.90839 36.62835
# Shear Modulus (GPa) = 17.60161 22.08793 19.84477
#
# Velocity S-wave (km/s) = 2.95490 3.31013 3.13755
# Velocity P-wave (km/s) = 5.21465 5.94965 5.59423
#
# Compressibility (1/GPa) = 0.03189965
#
# Stress axis : x y z
#
# Youngs Moduli (GPa) = 28.84351 57.05233 58.51183
#
# Poissons Ratio (x) = 0.33270 0.34514
# Poissons Ratio (y) = 0.16820 0.40748
# Poissons Ratio (z) = 0.17014 0.39732
#
# Static dielectric constant tensor:
#      x y z
#    x 1.741360 -0.000030 -0.002500 
#    y -0.000030 1.680190 -0.000190 
#    z -0.002500 -0.000190 1.754000 
# 
# From -- ./inp_files/312431.got.cif
#   From: 2010.05.17/outbox.cif.g08.bks.cpg/sg12_157_cif.got.tgz:312431.got - 2010.06.03 13:09:07.
