data_PCOD9203020
_publ_section_title
;
Structure prediction by ZEFSAII (Michael W. Deem and Ramdas Pophale) SiO2 
 PCOD9203020
Probable space group: C 2/M
;
_chemical_formula_sum "Si O2"
_cell_formula_units_Z 64
_cell_length_a 19.364048
_cell_length_b 30.052048
_cell_length_c 13.151290
_cell_angle_alpha 90.000000
_cell_angle_beta 27.549181
_cell_angle_gamma 90.000000
_cell_volume 3539.643661
_symmetry_space_group_name_H-M "C 2/M"
_symmetry_group_IT_number 12
_symmetry_cell_setting 'monoclinic'
loop_
_space_group_symop_operation_xyz
x,y,z
-x,y,-z
-x,-y,-z
x,-y,z
1/2+x,1/2+y,z
1/2-x,1/2+y,-z
1/2-x,1/2-y,-z
1/2+x,1/2-y,z
loop_
_atom_site_type_symbol
_atom_site_label
_atom_site_fract_x
_atom_site_fract_y
_atom_site_fract_z
Si Si1 0.159274 0.145871 0.346335
Si Si2 0.339035 0.247382 0.660024
Si Si3 0.826324 0.707864 0.452807
Si Si4 0.377416 0.630895 0.371992
Si Si5 0.845015 0.949202 0.263453
Si Si6 0.898137 0.654444 0.880734
Si Si7 0.206419 0.827666 0.937710
Si Si8 0.606144 0.103903 0.447744
O O1 0.173580 0.199770 0.332360
O O2 0.165333 0.129040 0.453659
O O3 0.000000 0.135877 0.500000
O O4 0.298430 0.130464 0.095888
O O5 0.500000 0.237614 0.500000
O O6 0.333428 0.223259 0.559614
O O7 0.213197 0.222789 0.890088
O O8 0.750000 0.750000 0.500000
O O9 0.723655 0.665845 0.558491
O O10 0.994012 0.691301 0.209802
O O11 0.362223 0.583886 0.336053
O O12 0.544677 0.650526 0.150390
O O13 0.721048 0.929381 0.349539
O O14 0.811668 0.000000 0.335944
O O15 0.000000 0.948239 0.000000
O O16 0.778684 0.672767 0.955139
O O17 0.006398 0.624621 0.668658
O O18 0.306807 0.857398 0.729171
O O19 0.500000 0.082930 0.500000
#
# Coordination Sequence:
#
# PCOD9203020 Si02
#       8
#     8   8   8   8   8   8   8   8
#     4  11  25  39  58  86 121 171 219 256 297 365
#     4  11  21  37  57  83 120 166 216 255 305 359
#     4  12  24  39  56  91 125 163 214 261 308 362
#     4  12  24  41  61  91 127 162 208 256 318 378
#     4  11  23  42  67  98 130 157 196 262 329 382
#     4  11  22  40  61  84 124 170 210 257 307 367
#     4  11  20  37  65  84 120 168 204 256 310 375
#     4  10  20  38  65  94 120 157 201 248 320 378
#
# _framework density 18.080916999999999
#
# number of rings (size 3 to 8) (size 9 to 14) (size 15 to 20)
#    0.000    0.875    7.500    0.375    1.750    1.250 
#    0.000    0.000    0.000    1.875    0.000    0.000 
#    0.000    0.000    0.000    0.000    0.000    0.000 
#
# Total GULP energy -178671.849901 kJ/mol
# GULP energy per Si atom -5583.495309 kJ/mol
# Density = 1.803976 g / cm^3
# Si number density = 18.080917 Si / 1000 Ang^3
#
#
#
# Elastic Constant Matrix: (Units=GPa)
#
#
# Indices 1 2 3 4 5 6 
#
# 1 134.6263 56.1043 51.5462 0.0025 -7.2525 -0.0062
# 2 56.1043 96.0367 25.6979 -0.0013 -2.0521 0.0007
# 3 51.5462 25.6979 105.3123 0.0009 1.7123 -0.0047
# 4 0.0025 -0.0013 0.0009 15.2801 -0.0032 5.9920
# 5 -7.2525 -2.0521 1.7123 -0.0032 36.1509 0.0082
# 6 -0.0062 0.0007 -0.0047 5.9920 0.0082 -10.9787
#
#
#
# Elastic Compliance Matrix: (Units=1/GPa)
#
#
# Indices 1 2 3 4 5 6 
#
# 1 0.011498 -0.005515 -0.004318 0.000000 0.002198 -0.000003
# 2 -0.005515 0.013806 -0.000665 0.000000 -0.000291 0.000004
# 3 -0.004318 -0.000665 0.011795 0.000001 -0.001463 -0.000003
# 4 0.000000 0.000000 0.000001 0.053907 -0.000002 0.029422
# 5 0.002198 -0.000291 -0.001463 -0.000002 0.028156 0.000019
# 6 -0.000003 0.000004 -0.000003 0.029422 0.000019 -0.075028
#
#
# Mechanical properties :
#
#
# Convention : Reuss Voigt Hill
#
# Bulk Modulus (GPa) = 62.09625 66.96357 64.52991
# Shear Modulus (GPa) = 70.92579 21.59894 46.26237
#
# Velocity S-wave (km/s) = 6.26993 3.46001 5.06378
# Velocity P-wave (km/s) = 9.31848 7.28547 8.36398
#
# Compressibility (1/GPa) = 0.01610403
#
# Stress axis : x y z
#
# Youngs Moduli (GPa) = 86.97347 72.43216 84.78174
#
# Poissons Ratio (x) = 0.39944 0.36607
# Poissons Ratio (y) = 0.47962 0.05638
# Poissons Ratio (z) = 0.37553 0.04817
#
# Static dielectric constant tensor:
#      x y z
#    x 1.628370 0.000000 -0.018040 
#    y 0.000000 1.602840 0.000000 
#    z -0.018040 0.000000 1.628930 
# 
# From -- ./inp_files/161181.got.cif
#   From: 2010.05.17/outbox.cif.g08.bks.cpg/sg12_81_cif.got.tgz:161181.got - 2010.06.03 13:09:07.
