data_PCOD9203677
_publ_section_title
;
Structure prediction by ZEFSAII (Michael W. Deem and Ramdas Pophale) SiO2 
 PCOD9203677
Probable space group: C 2/M
;
_chemical_formula_sum "Si O2"
_cell_formula_units_Z 64
_cell_length_a 25.453224
_cell_length_b 18.081947
_cell_length_c 14.703194
_cell_angle_alpha 90.000000
_cell_angle_beta 150.210725
_cell_angle_gamma 90.000000
_cell_volume 3361.950658
_symmetry_space_group_name_H-M "C 2/M"
_symmetry_group_IT_number 12
_symmetry_cell_setting 'monoclinic'
loop_
_space_group_symop_operation_xyz
x,y,z
-x,y,-z
-x,-y,-z
x,-y,z
1/2+x,1/2+y,z
1/2-x,1/2+y,-z
1/2-x,1/2-y,-z
1/2+x,1/2-y,z
loop_
_atom_site_type_symbol
_atom_site_label
_atom_site_fract_x
_atom_site_fract_y
_atom_site_fract_z
Si Si1 0.207151 0.175855 0.676892
Si Si2 0.320186 0.587413 0.986413
Si Si3 0.973727 0.586306 0.247038
Si Si4 0.914286 0.585806 0.947802
Si Si5 0.800310 0.651681 0.360692
Si Si6 0.116538 0.910817 0.212162
Si Si7 0.260549 0.830097 0.968888
Si Si8 0.062903 0.088281 0.332348
O O1 0.314101 0.139464 0.797614
O O2 0.193443 0.260220 0.626996
O O3 0.217669 0.171846 0.801688
O O4 0.112035 0.129065 0.491825
O O5 0.305774 0.500000 0.955066
O O6 0.238893 0.628157 0.798202
O O7 0.303001 0.613376 0.063127
O O8 0.439306 0.606198 0.135716
O O9 0.956808 0.500000 0.247731
O O10 0.087911 0.614181 0.449636
O O11 0.965364 0.589891 0.124792
O O12 0.880438 0.638702 0.144477
O O13 0.880117 0.500000 0.882246
O O14 0.000000 0.604042 0.000000
O O15 0.710405 0.623853 0.295192
O O16 0.120868 0.891413 0.325302
O O17 0.123803 0.000000 0.214675
O O18 0.000000 0.889788 0.000000
O O19 0.250000 0.750000 0.000000
O O20 0.071286 0.000000 0.356384
#
# Coordination Sequence:
#
# PCOD9203677 Si02
#       8
#     8   8   8   8   8   8   8   8
#     4  11  25  41  62  94 132 168 210 267 331 387
#     4  11  23  43  69  94 124 169 219 265 318 381
#     4  10  23  42  66  95 127 167 217 265 317 386
#     4   9  20  41  65  89 124 171 218 263 317 387
#     4  12  24  39  64  98 135 170 210 268 320 391
#     4  10  20  39  65  92 129 174 215 261 314 377
#     4  11  24  46  67  90 127 171 211 271 329 376
#     4  10  23  41  66  96 128 166 215 266 317 389
#
# _framework density 19.036567999999999
#
# number of rings (size 3 to 8) (size 9 to 14) (size 15 to 20)
#    0.000    1.500    2.500    1.875    3.500    3.500 
#    0.000    2.500    0.000    0.000    0.000    0.000 
#    0.000    0.000    0.000    0.000    0.000    0.000 
#
# Total GULP energy -178821.649888 kJ/mol
# GULP energy per Si atom -5588.176559 kJ/mol
# Density = 1.899324 g / cm^3
# Si number density = 19.036568 Si / 1000 Ang^3
#
#
#
# Elastic Constant Matrix: (Units=GPa)
#
#
# Indices 1 2 3 4 5 6 
#
# 1 94.6520 34.3495 16.8623 0.0000 6.7901 0.0000
# 2 34.3495 68.6402 58.9565 0.0000 2.6270 0.0000
# 3 16.8623 58.9565 92.0478 0.0000 -6.0347 0.0000
# 4 0.0000 0.0000 0.0000 12.2659 0.0000 -17.8393
# 5 6.7901 2.6270 -6.0347 0.0000 15.4603 0.0000
# 6 0.0000 0.0000 0.0000 -17.8393 0.0000 15.8604
#
#
#
# Elastic Compliance Matrix: (Units=1/GPa)
#
#
# Indices 1 2 3 4 5 6 
#
# 1 0.013704 -0.009832 0.003594 0.000000 -0.002945 0.000000
# 2 -0.009832 0.042666 -0.026394 0.000000 -0.013234 0.000000
# 3 0.003594 -0.026394 0.028018 0.000000 0.013843 0.000000
# 4 0.000000 0.000000 0.000000 -0.128220 0.000000 -0.144217
# 5 -0.002945 -0.013234 0.013843 0.000000 0.073627 0.000000
# 6 0.000000 0.000000 0.000000 -0.144217 0.000000 -0.099161
#
#
# Mechanical properties :
#
#
# Convention : Reuss Voigt Hill
#
# Bulk Modulus (GPa) = 52.29001 52.85297 52.57149
# Shear Modulus (GPa) = 2198.93235 18.39544 1108.66389
#
# Velocity S-wave (km/s) = 34.02378 3.11194 24.15886
# Velocity P-wave (km/s) = 39.63606 6.38251 28.38797
#
# Compressibility (1/GPa) = 0.01912411
#
# Stress axis : x y z
#
# Youngs Moduli (GPa) = 72.97060 23.43808 35.69104
#
# Poissons Ratio (x) = 0.23044 -0.12827
# Poissons Ratio (y) = 0.71745 0.94202
# Poissons Ratio (z) = -0.26225 0.61862
#
# Static dielectric constant tensor:
#      x y z
#    x 1.653330 0.000000 -0.006660 
#    y 0.000000 1.642320 0.000000 
#    z -0.006660 0.000000 1.639480 
# 
# From -- ./inp_files/241514.got.cif
#   From: 2010.05.17/outbox.cif.g08.bks.cpg/sg12_121_cif.got.tgz:241514.got - 2010.06.03 13:09:07.
