data_PCOD9203633
_publ_section_title
;
Structure prediction by ZEFSAII (Michael W. Deem and Ramdas Pophale) SiO2 
 PCOD9203633
Probable space group: C 2/M
;
_chemical_formula_sum "Si O2"
_cell_formula_units_Z 64
_cell_length_a 20.146296
_cell_length_b 8.616840
_cell_length_c 30.968492
_cell_angle_alpha 90.000000
_cell_angle_beta 142.027930
_cell_angle_gamma 90.000000
_cell_volume 3307.761356
_symmetry_space_group_name_H-M "C 2/M"
_symmetry_group_IT_number 12
_symmetry_cell_setting 'monoclinic'
loop_
_space_group_symop_operation_xyz
x,y,z
-x,y,-z
-x,-y,-z
x,-y,z
1/2+x,1/2+y,z
1/2-x,1/2+y,-z
1/2-x,1/2-y,-z
1/2+x,1/2-y,z
loop_
_atom_site_type_symbol
_atom_site_label
_atom_site_fract_x
_atom_site_fract_y
_atom_site_fract_z
Si Si1 0.559334 0.814312 0.731770
Si Si2 0.168498 0.812141 0.994228
Si Si3 0.291958 0.688545 0.887522
Si Si4 0.857925 0.814070 0.676063
Si Si5 0.697377 0.185409 0.516840
Si Si6 0.421892 0.687816 0.872462
Si Si7 0.971830 0.814608 0.379612
Si Si8 0.268747 0.813819 0.719472
O O1 0.678142 0.764610 0.808102
O O2 0.470612 0.762945 0.720787
O O3 0.528436 0.739390 0.670264
O O4 0.559163 0.000000 0.726844
O O5 0.197709 0.758783 0.057854
O O6 0.173079 0.000000 0.995819
O O7 0.250000 0.750000 0.000000
O O8 0.043677 0.766067 0.923128
O O9 0.293298 0.500000 0.889754
O O10 0.386797 0.733892 0.903052
O O11 0.769905 0.766730 0.594778
O O12 0.819109 0.759929 0.702696
O O13 0.868993 0.000000 0.680468
O O14 0.750000 0.250000 0.500000
O O15 0.574964 0.243758 0.456169
O O16 0.698200 0.000000 0.514960
O O17 0.416182 0.500000 0.867423
O O18 0.336081 0.756789 0.795235
O O19 0.856425 0.767172 0.339743
O O20 0.980230 0.000000 0.385172
O O21 0.273631 0.000000 0.719575
#
# Coordination Sequence:
#
# PCOD9203633 Si02
#       8
#     8   8   8   8   8   8   8   8
#     4  11  21  36  63  93 121 160 206 254 306 364
#     4  10  22  39  60  90 125 160 200 249 303 361
#     4   9  19  37  62  90 119 157 205 249 296 359
#     4  11  25  42  61  89 125 160 202 255 309 368
#     4  11  23  39  63  91 121 160 203 255 309 365
#     4  10  20  39  65  89 117 161 208 250 300 360
#     4  11  23  40  62  90 124 161 204 255 306 363
#     4  11  25  42  62  90 125 163 203 254 309 362
#
# _framework density 19.348433
#
# number of rings (size 3 to 8) (size 9 to 14) (size 15 to 20)
#    0.000    1.500    2.500    2.250    1.750    5.500 
#    0.000    3.750    0.000    1.500    0.000    0.000 
#    0.000    0.000    0.000    0.000    0.000    0.000 
#
# Total GULP energy -178856.948478 kJ/mol
# GULP energy per Si atom -5589.279640 kJ/mol
# Density = 1.930440 g / cm^3
# Si number density = 19.348433 Si / 1000 Ang^3
#
#
#
# Elastic Constant Matrix: (Units=GPa)
#
#
# Indices 1 2 3 4 5 6 
#
# 1 128.1039 13.4758 32.2948 0.0000 13.8227 0.0001
# 2 13.4758 20.7693 15.5251 0.0000 6.3736 0.0000
# 3 32.2948 15.5251 80.0267 0.0000 18.2739 0.0001
# 4 0.0000 0.0000 0.0000 21.1265 0.0000 4.9125
# 5 13.8227 6.3736 18.2739 0.0000 38.4651 0.0000
# 6 0.0001 0.0000 0.0001 4.9125 0.0000 27.6446
#
#
#
# Elastic Compliance Matrix: (Units=1/GPa)
#
#
# Indices 1 2 3 4 5 6 
#
# 1 0.008984 -0.003424 -0.002640 0.000000 -0.001407 0.000000
# 2 -0.003424 0.058369 -0.008990 0.000000 -0.004171 0.000000
# 3 -0.002640 -0.008990 0.016543 0.000000 -0.005421 0.000000
# 4 0.000000 0.000000 0.000000 0.049374 0.000000 -0.008774
# 5 -0.001407 -0.004171 -0.005421 0.000000 0.029770 0.000000
# 6 0.000000 0.000000 0.000000 -0.008774 0.000000 0.037733
#
#
# Mechanical properties :
#
#
# Convention : Reuss Voigt Hill
#
# Bulk Modulus (GPa) = 18.59108 39.05459 28.82284
# Shear Modulus (GPa) = 20.09582 28.62087 24.35834
#
# Velocity S-wave (km/s) = 3.22627 3.85025 3.55199
# Velocity P-wave (km/s) = 4.84849 6.32413 5.63483
#
# Compressibility (1/GPa) = 0.05378922
#
# Stress axis : x y z
#
# Youngs Moduli (GPa) = 111.31339 17.13236 60.44858
#
# Poissons Ratio (x) = 0.05866 0.15958
# Poissons Ratio (y) = 0.38112 0.54340
# Poissons Ratio (z) = 0.29385 0.15401
#
# Static dielectric constant tensor:
#      x y z
#    x 1.656010 0.000000 0.013480 
#    y 0.000000 1.658560 0.000000 
#    z 0.013480 0.000000 1.665010 
# 
# From -- ./inp_files/378087.got.cif
#   From: 2010.05.17/outbox.cif.g08.bks.cpg/sg12_190_cif.got.tgz:378087.got - 2010.06.03 13:09:07.
