data_PCOD9203186
_publ_section_title
;
Structure prediction by ZEFSAII (Michael W. Deem and Ramdas Pophale) SiO2 
 PCOD9203186
Probable space group: C 2/M
;
_chemical_formula_sum "Si O2"
_cell_formula_units_Z 40
_cell_length_a 9.252890
_cell_length_b 25.437788
_cell_length_c 9.363799
_cell_angle_alpha 90.000000
_cell_angle_beta 44.291444
_cell_angle_gamma 90.000000
_cell_volume 1539.061923
_symmetry_space_group_name_H-M "C 2/M"
_symmetry_group_IT_number 12
_symmetry_cell_setting 'monoclinic'
loop_
_space_group_symop_operation_xyz
x,y,z
-x,y,-z
-x,-y,-z
x,-y,z
1/2+x,1/2+y,z
1/2-x,1/2+y,-z
1/2-x,1/2-y,-z
1/2+x,1/2-y,z
loop_
_atom_site_type_symbol
_atom_site_label
_atom_site_fract_x
_atom_site_fract_y
_atom_site_fract_z
Si Si1 0.322954 0.671128 0.464919
Si Si2 0.676286 0.443045 0.494581
Si Si3 0.243430 0.829502 0.809792
Si Si4 0.222989 0.443084 0.265648
Si Si5 0.245832 0.284154 0.809084
O O1 0.243761 0.615815 0.587102
O O2 0.216287 0.672598 0.388273
O O3 0.574039 0.675284 0.268180
O O4 0.271974 0.714061 0.618806
O O5 0.500000 0.446404 0.500000
O O6 0.789024 0.500000 0.401835
O O7 0.625657 0.439437 0.701663
O O8 0.280206 0.890219 0.824722
O O9 0.316347 0.773419 0.818027
O O10 0.000000 0.823474 0.000000
O O11 0.258134 0.500000 0.171684
O O12 0.000000 0.443947 0.500000
O O13 0.000000 0.294943 0.000000
#
# Coordination Sequence:
#
# PCOD9203186 Si02
#       5
#     8   8   8   8   8
#     4  10  20  39  57  81 116 151 191 238 299 340
#     4   9  16  32  59  83 108 147 190 232 290 348
#     4  10  22  37  54  84 112 151 195 231 289 352
#     4   9  19  35  56  83 113 148 190 239 288 342
#     4  10  21  36  56  82 112 150 194 238 289 342
#
# _framework density 25.989857000000001
#
# number of rings (size 3 to 8) (size 9 to 14) (size 15 to 20)
#    0.000    2.400    2.000    0.600    2.800    3.600 
#    7.200    0.000    0.000    2.400    0.000    0.000 
#    0.000    0.000    0.000    0.000    0.000    0.000 
#
# Total GULP energy -111347.284843 kJ/mol
# GULP energy per Si atom -5567.364242 kJ/mol
# Density = 2.593070 g / cm^3
# Si number density = 25.989857 Si / 1000 Ang^3
#
#
#
# Elastic Constant Matrix: (Units=GPa)
#
#
# Indices 1 2 3 4 5 6 
#
# 1 145.0095 17.4664 31.3547 0.0000 -16.0069 0.0000
# 2 17.4664 218.7721 16.1446 0.0000 1.6390 0.0000
# 3 31.3547 16.1446 74.4494 0.0000 -21.0192 0.0000
# 4 0.0000 0.0000 0.0000 22.1413 0.0000 3.8170
# 5 -16.0069 1.6390 -21.0192 0.0000 34.2971 0.0000
# 6 0.0000 0.0000 0.0000 3.8170 0.0000 24.8403
#
#
#
# Elastic Compliance Matrix: (Units=1/GPa)
#
#
# Indices 1 2 3 4 5 6 
#
# 1 0.007734 -0.000442 -0.002583 0.000000 0.002048 0.000000
# 2 -0.000442 0.004700 -0.001154 0.000000 -0.001138 0.000000
# 3 -0.002583 -0.001154 0.017468 0.000000 0.009555 0.000000
# 4 0.000000 0.000000 0.000000 0.046393 0.000000 -0.007129
# 5 0.002048 -0.001138 0.009555 0.000000 0.036023 0.000000
# 6 0.000000 0.000000 0.000000 -0.007129 0.000000 0.041353
#
#
# Mechanical properties :
#
#
# Convention : Reuss Voigt Hill
#
# Bulk Modulus (GPa) = 46.42063 63.12915 54.77489
# Shear Modulus (GPa) = 29.54896 41.14010 35.34453
#
# Velocity S-wave (km/s) = 3.37551 3.98292 3.69173
# Velocity P-wave (km/s) = 5.75256 6.74494 6.26842
#
# Compressibility (1/GPa) = 0.02154215
#
# Stress axis : x y z
#
# Youngs Moduli (GPa) = 129.30028 212.76651 57.24814
#
# Poissons Ratio (x) = 0.09408 0.14788
# Poissons Ratio (y) = 0.05717 0.06609
# Poissons Ratio (z) = 0.33401 0.24562
#
# Static dielectric constant tensor:
#      x y z
#    x 2.094830 0.000000 -0.018090 
#    y 0.000000 2.143570 0.000000 
#    z -0.018090 0.000000 2.072070 
# 
# From -- ./inp_files/136463.got.cif
#   From: 2010.05.17/outbox.cif.g08.bks.cpg/sg12_69_cif.got.tgz:136463.got - 2010.06.03 13:09:07.
