data_PCOD9203646
_publ_section_title
;
Structure prediction by ZEFSAII (Michael W. Deem and Ramdas Pophale) SiO2 
 PCOD9203646
Probable space group: C 2/M
;
_chemical_formula_sum "Si O2"
_cell_formula_units_Z 40
_cell_length_a 15.107504
_cell_length_b 15.111446
_cell_length_c 23.525646
_cell_angle_alpha 90.000000
_cell_angle_beta 21.804021
_cell_angle_gamma 90.000000
_cell_volume 1994.898391
_symmetry_space_group_name_H-M "C 2/M"
_symmetry_group_IT_number 12
_symmetry_cell_setting 'monoclinic'
loop_
_space_group_symop_operation_xyz
x,y,z
-x,y,-z
-x,-y,-z
x,-y,z
1/2+x,1/2+y,z
1/2-x,1/2+y,-z
1/2-x,1/2-y,-z
1/2+x,1/2-y,z
loop_
_atom_site_type_symbol
_atom_site_label
_atom_site_fract_x
_atom_site_fract_y
_atom_site_fract_z
Si Si1 0.894586 0.500000 0.975289
Si Si2 0.263274 0.192526 0.855275
Si Si3 0.175428 0.849189 0.030508
Si Si4 0.164796 0.822544 0.596565
Si Si5 0.894292 0.000000 0.734169
Si Si6 0.351464 0.894561 0.680148
O O1 0.817646 0.415153 0.985393
O O2 0.174758 0.500000 0.821553
O O3 0.737718 0.500000 0.126094
O O4 0.239599 0.134555 0.925939
O O5 0.451020 0.270717 0.754519
O O6 0.329895 0.136798 0.759303
O O7 0.000000 0.231677 0.000000
O O8 0.250000 0.750000 0.000000
O O9 0.891388 0.863237 0.204677
O O10 0.250000 0.750000 0.500000
O O11 0.401603 0.852083 0.488596
O O12 0.054222 0.911710 0.635513
O O13 0.365131 0.000000 0.668482
#
# Coordination Sequence:
#
# PCOD9203646 Si02
#       6
#     4   8   8   8   4   8
#     4  11  26  39  65  90 122 159 207 258 299 361
#     4   9  21  36  65  88 121 160 206 245 302 357
#     4  11  23  40  61  92 124 157 204 252 302 354
#     4  10  21  39  65  91 122 162 203 244 301 371
#     4  11  24  41  64  88 121 163 207 246 308 366
#     4  10  20  39  65  90 120 157 202 252 304 356
#
# _framework density 20.051145999999999
#
# number of rings (size 3 to 8) (size 9 to 14) (size 15 to 20)
#    0.000    1.800    2.000    1.200   12.600    1.200 
#    0.000    5.000    0.000    4.800    0.000    0.000 
#    0.000    0.000    0.000    0.000    0.000    0.000 
#
# Total GULP energy -111688.560592 kJ/mol
# GULP energy per Si atom -5584.428030 kJ/mol
# Density = 2.000551 g / cm^3
# Si number density = 20.051146 Si / 1000 Ang^3
#
#
#
# Elastic Constant Matrix: (Units=GPa)
#
#
# Indices 1 2 3 4 5 6 
#
# 1 68.7112 20.5854 35.7531 -0.1154 -18.9202 -0.0561
# 2 20.5854 137.5713 63.4814 -0.1281 -22.6698 -0.0665
# 3 35.7531 63.4814 150.0238 -0.2340 -30.2584 -0.0614
# 4 -0.1154 -0.1281 -0.2340 37.7163 -0.0119 -10.9094
# 5 -18.9202 -22.6698 -30.2584 -0.0119 34.0952 0.0308
# 6 -0.0561 -0.0665 -0.0614 -10.9094 0.0308 22.9684
#
#
#
# Elastic Compliance Matrix: (Units=1/GPa)
#
#
# Indices 1 2 3 4 5 6 
#
# 1 0.018091 -0.000224 -0.002706 0.000055 0.007488 0.000053
# 2 -0.000224 0.009328 -0.003250 0.000018 0.003194 0.000022
# 3 -0.002706 -0.003250 0.009680 0.000050 0.004928 0.000027
# 4 0.000055 0.000018 0.000050 0.030737 0.000085 0.014600
# 5 0.007488 0.003194 0.004928 0.000085 0.039982 0.000027
# 6 0.000053 0.000022 0.000027 0.014600 0.000027 0.050473
#
#
# Mechanical properties :
#
#
# Convention : Reuss Voigt Hill
#
# Bulk Modulus (GPa) = 40.42152 66.21623 53.31887
# Shear Modulus (GPa) = 27.94898 34.72174 31.33536
#
# Velocity S-wave (km/s) = 3.73753 4.16583 3.95748
# Velocity P-wave (km/s) = 6.23125 7.49895 6.89430
#
# Compressibility (1/GPa) = 0.02473930
#
# Stress axis : x y z
#
# Youngs Moduli (GPa) = 55.27592 107.19999 103.31077
#
# Poissons Ratio (x) = 0.02405 0.27956
# Poissons Ratio (y) = 0.01240 0.33571
# Poissons Ratio (z) = 0.14958 0.34835
#
# Static dielectric constant tensor:
#      x y z
#    x 1.719030 0.000000 0.025910 
#    y 0.000000 1.665530 0.000080 
#    z 0.025910 0.000080 1.740430 
# 
# From -- ./inp_files/142567.got.cif
#   From: 2010.05.17/outbox.cif.g08.bks.cpg/sg12_72_cif.got.tgz:142567.got - 2010.06.03 13:09:07.
