data_PCOD9203578
_publ_section_title
;
Structure prediction by ZEFSAII (Michael W. Deem and Ramdas Pophale) SiO2 
 PCOD9203578
Probable space group: C 2/M
;
_chemical_formula_sum "Si O2"
_cell_formula_units_Z 64
_cell_length_a 9.252520
_cell_length_b 31.425329
_cell_length_c 17.909098
_cell_angle_alpha 90.000000
_cell_angle_beta 141.400793
_cell_angle_gamma 90.000000
_cell_volume 3248.679228
_symmetry_space_group_name_H-M "C 2/M"
_symmetry_group_IT_number 12
_symmetry_cell_setting 'monoclinic'
loop_
_space_group_symop_operation_xyz
x,y,z
-x,y,-z
-x,-y,-z
x,-y,z
1/2+x,1/2+y,z
1/2-x,1/2+y,-z
1/2-x,1/2-y,-z
1/2+x,1/2-y,z
loop_
_atom_site_type_symbol
_atom_site_label
_atom_site_fract_x
_atom_site_fract_y
_atom_site_fract_z
Si Si1 0.617873 0.292946 0.967561
Si Si2 0.509797 0.951450 0.334110
Si Si3 0.189971 0.891079 0.300064
Si Si4 0.091818 0.950932 0.395132
Si Si5 0.239423 0.226628 0.576619
Si Si6 0.538096 0.048716 0.170208
Si Si7 0.691460 0.200495 0.685134
Si Si8 0.804258 0.623086 0.980831
O O1 0.417621 0.296979 0.826204
O O2 0.500000 0.289594 0.000000
O O3 0.750000 0.250000 0.000000
O O4 0.764528 0.336281 0.018235
O O5 0.347598 0.917811 0.307970
O O6 0.771616 0.945921 0.471527
O O7 0.480703 0.947200 0.234209
O O8 0.443413 0.000000 0.327470
O O9 0.187190 0.916896 0.375580
O O10 0.297161 0.844352 0.352010
O O11 0.932982 0.887346 0.159696
O O12 0.815787 0.945158 0.282104
O O13 0.135982 0.000000 0.389062
O O14 0.250000 0.250000 0.500000
O O15 0.478726 0.201697 0.659490
O O16 0.222556 0.262129 0.635542
O O17 0.000000 0.201607 0.500000
O O18 0.400336 0.082587 0.065147
O O19 0.489769 0.000000 0.126301
O O20 0.000000 0.634975 0.000000
#
# Coordination Sequence:
#
# PCOD9203578 Si02
#       8
#     8   8   8   8   8   8   8   8
#     4  11  24  42  70  94 124 167 210 263 318 373
#     4  10  22  39  61  91 127 166 210 259 317 380
#     4  11  23  38  62  91 126 165 207 263 316 374
#     4  10  20  39  64  91 125 168 212 256 311 381
#     4   9  19  38  62  86 121 162 199 249 307 369
#     4  10  22  40  64  92 130 170 209 262 320 379
#     4  10  22  40  61  91 124 160 205 256 308 377
#     4  11  24  42  63  93 129 168 216 265 316 382
#
# _framework density 19.700315
#
# number of rings (size 3 to 8) (size 9 to 14) (size 15 to 20)
#    0.000    1.750    1.250    2.250    3.500    7.750 
#    0.000    3.750    0.000    0.000    0.000    0.000 
#    0.000    0.000    0.000    0.000    0.000    0.000 
#
# Total GULP energy -178412.816286 kJ/mol
# GULP energy per Si atom -5575.400509 kJ/mol
# Density = 1.965548 g / cm^3
# Si number density = 19.700315 Si / 1000 Ang^3
#
#
#
# Elastic Constant Matrix: (Units=GPa)
#
#
# Indices 1 2 3 4 5 6 
#
# 1 94.9653 37.7061 24.0683 0.0000 7.1594 0.0000
# 2 37.7061 70.4148 25.4287 0.0000 9.6564 0.0000
# 3 24.0683 25.4287 62.6954 0.0000 10.5036 0.0000
# 4 0.0000 0.0000 0.0000 -47.6206 0.0000 41.8065
# 5 7.1594 9.6564 10.5036 0.0000 31.4333 0.0000
# 6 0.0000 0.0000 0.0000 41.8065 0.0000 -26.7195
#
#
#
# Elastic Compliance Matrix: (Units=1/GPa)
#
#
# Indices 1 2 3 4 5 6 
#
# 1 0.013751 -0.006368 -0.002648 0.000000 -0.000291 0.000000
# 2 -0.006368 0.019863 -0.005119 0.000000 -0.002941 0.000000
# 3 -0.002648 -0.005119 0.019786 0.000000 -0.004436 0.000000
# 4 0.000000 0.000000 0.000000 0.056206 0.000000 0.087943
# 5 -0.000291 -0.002941 -0.004436 0.000000 0.034266 0.000000
# 6 0.000000 0.000000 0.000000 0.087943 0.000000 0.100173
#
#
# Mechanical properties :
#
#
# Convention : Reuss Voigt Hill
#
# Bulk Modulus (GPa) = 39.79006 44.72020 42.25513
# Shear Modulus (GPa) = 17.81314 0.81014 9.31164
#
# Velocity S-wave (km/s) = 3.01026 0.64197 2.17644
# Velocity P-wave (km/s) = 5.68540 4.82691 5.27365
#
# Compressibility (1/GPa) = 0.02513190
#
# Stress axis : x y z
#
# Youngs Moduli (GPa) = 72.71989 50.34407 50.54083
#
# Poissons Ratio (x) = 0.32057 0.13381
# Poissons Ratio (y) = 0.46305 0.25873
# Poissons Ratio (z) = 0.19254 0.25772
#
# Static dielectric constant tensor:
#      x y z
#    x 1.700580 0.000000 0.040500 
#    y 0.000000 1.736680 0.000000 
#    z 0.040500 0.000000 1.727380 
# 
# From -- ./inp_files/260292.got.cif
#   From: 2010.05.17/outbox.cif.g08.bks.cpg/sg12_131_cif.got.tgz:260292.got - 2010.06.03 13:09:07.
