data_PCOD9203546
_publ_section_title
;
Structure prediction by ZEFSAII (Michael W. Deem and Ramdas Pophale) SiO2 
 PCOD9203546
Probable space group: C 2/M
;
_chemical_formula_sum "Si O2"
_cell_formula_units_Z 48
_cell_length_a 32.230188
_cell_length_b 17.172901
_cell_length_c 9.368729
_cell_angle_alpha 90.000000
_cell_angle_beta 28.574750
_cell_angle_gamma 90.000000
_cell_volume 2480.230256
_symmetry_space_group_name_H-M "C 2/M"
_symmetry_group_IT_number 12
_symmetry_cell_setting 'monoclinic'
loop_
_space_group_symop_operation_xyz
x,y,z
-x,y,-z
-x,-y,-z
x,-y,z
1/2+x,1/2+y,z
1/2-x,1/2+y,-z
1/2-x,1/2-y,-z
1/2+x,1/2-y,z
loop_
_atom_site_type_symbol
_atom_site_label
_atom_site_fract_x
_atom_site_fract_y
_atom_site_fract_z
Si Si1 0.505777 0.755580 0.815237
Si Si2 0.665186 0.699241 0.760072
Si Si3 0.690911 0.589272 0.951590
Si Si4 0.559820 0.582050 0.601023
Si Si5 0.189953 0.327078 0.179416
Si Si6 0.717788 0.587330 0.344598
O O1 0.514350 0.662055 0.772161
O O2 0.590828 0.799004 0.498697
O O3 0.500000 0.774714 0.000000
O O4 0.413374 0.761462 0.017210
O O5 0.750000 0.750000 0.500000
O O6 0.667425 0.646770 0.894636
O O7 0.678971 0.640905 0.585353
O O8 0.708791 0.500000 0.852945
O O9 0.770566 0.621295 0.809303
O O10 0.606072 0.587271 0.308731
O O11 0.509501 0.500000 0.764296
O O12 0.639189 0.579266 0.470680
O O13 0.250000 0.250000 0.000000
O O14 0.208034 0.371070 0.975284
O O15 0.742959 0.500000 0.315460
#
# Coordination Sequence:
#
# PCOD9203546 Si02
#       6
#     8   8   8   8   8   8
#     4  12  22  37  61  91 122 163 205 250 303 366
#     4  12  25  39  59  91 125 158 201 257 314 361
#     4  10  21  39  61  89 125 161 196 253 313 360
#     4   9  19  35  58  88 119 154 196 235 296 372
#     4  11  19  39  65  87 121 158 209 248 295 369
#     4  10  20  39  64  88 119 163 203 247 300 364
#
# _framework density 19.353041000000001
#
# number of rings (size 3 to 8) (size 9 to 14) (size 15 to 20)
#    0.000    1.333    5.000    4.000    0.000    2.333 
#    0.000    1.667    0.000   12.000    0.000    0.000 
#    0.000    0.000    0.000    0.000    0.000    0.000 
#
# Total GULP energy -133857.243912 kJ/mol
# GULP energy per Si atom -5577.385163 kJ/mol
# Density = 1.930899 g / cm^3
# Si number density = 19.353041 Si / 1000 Ang^3
#
#
#
# Elastic Constant Matrix: (Units=GPa)
#
#
# Indices 1 2 3 4 5 6 
#
# 1 66.9711 5.6067 26.9071 0.0000 10.2667 0.0000
# 2 5.6067 38.7342 13.0278 0.0000 -0.9498 0.0000
# 3 26.9071 13.0278 89.4834 0.0000 -12.6704 0.0000
# 4 0.0000 0.0000 0.0000 26.4526 0.0000 -3.4045
# 5 10.2667 -0.9498 -12.6704 0.0000 37.6432 0.0000
# 6 0.0000 0.0000 0.0000 -3.4045 0.0000 10.5959
#
#
#
# Elastic Compliance Matrix: (Units=1/GPa)
#
#
# Indices 1 2 3 4 5 6 
#
# 1 0.018760 -0.000682 -0.006582 0.000000 -0.007349 0.000000
# 2 -0.000682 0.027188 -0.003811 0.000000 -0.000411 0.000000
# 3 -0.006582 -0.003811 0.014648 0.000000 0.006630 0.000000
# 4 0.000000 0.000000 0.000000 0.039434 0.000000 0.012670
# 5 -0.007349 -0.000411 0.006630 0.000000 0.030791 0.000000
# 6 0.000000 0.000000 0.000000 0.012670 0.000000 0.098447
#
#
# Mechanical properties :
#
#
# Convention : Reuss Voigt Hill
#
# Bulk Modulus (GPa) = 26.01141 31.80798 28.90969
# Shear Modulus (GPa) = 18.92262 24.91481 21.91872
#
# Velocity S-wave (km/s) = 3.13031 3.59191 3.36902
# Velocity P-wave (km/s) = 5.15119 5.80291 5.48673
#
# Compressibility (1/GPa) = 0.03844467
#
# Stress axis : x y z
#
# Youngs Moduli (GPa) = 53.30428 36.78160 68.26784
#
# Poissons Ratio (x) = 0.02508 0.44937
# Poissons Ratio (y) = 0.03634 0.26020
# Poissons Ratio (z) = 0.35087 0.14019
#
# Static dielectric constant tensor:
#      x y z
#    x 1.682920 0.000000 -0.032090 
#    y 0.000000 1.792060 0.000000 
#    z -0.032090 0.000000 1.708360 
# 
# From -- ./inp_files/75072.got.cif
#   From: 2010.05.17/outbox.cif.g08.bks.cpg/sg12_38_cif.got.tgz:75072.got - 2010.06.03 13:09:07.
