data_PCOD9203706
_publ_section_title
;
Structure prediction by ZEFSAII (Michael W. Deem and Ramdas Pophale) SiO2 
 PCOD9203706
Probable space group: C 2/M
;
_chemical_formula_sum "Si O2"
_cell_formula_units_Z 56
_cell_length_a 23.400991
_cell_length_b 7.699043
_cell_length_c 15.010180
_cell_angle_alpha 90.000000
_cell_angle_beta 54.155252
_cell_angle_gamma 90.000000
_cell_volume 2192.133983
_symmetry_space_group_name_H-M "C 2/M"
_symmetry_group_IT_number 12
_symmetry_cell_setting 'monoclinic'
loop_
_space_group_symop_operation_xyz
x,y,z
-x,y,-z
-x,-y,-z
x,-y,z
1/2+x,1/2+y,z
1/2-x,1/2+y,-z
1/2-x,1/2-y,-z
1/2+x,1/2-y,z
loop_
_atom_site_type_symbol
_atom_site_label
_atom_site_fract_x
_atom_site_fract_y
_atom_site_fract_z
Si Si1 0.124669 0.806504 0.898105
Si Si2 0.909225 0.799085 0.719325
Si Si3 0.038423 0.795758 0.138430
Si Si4 0.396730 0.791956 0.350028
Si Si5 0.879090 0.208461 0.561364
Si Si6 0.775730 0.298643 0.349152
Si Si7 0.245337 0.696411 0.903184
O O1 0.163190 0.709883 0.782169
O O2 0.191032 0.817874 0.904237
O O3 0.102298 0.000000 0.889290
O O4 0.065796 0.726842 0.018268
O O5 0.930059 0.721795 0.796853
O O6 0.920477 0.722343 0.610315
O O7 0.824153 0.801090 0.795491
O O8 0.935466 0.000000 0.697238
O O9 0.955838 0.775379 0.229106
O O10 0.057711 0.000000 0.118365
O O11 0.415812 0.740673 0.433189
O O12 0.319229 0.723183 0.393253
O O13 0.395211 0.000000 0.346830
O O14 0.798427 0.277257 0.618292
O O15 0.875016 0.000000 0.578502
O O16 0.760617 0.500000 0.380348
O O17 0.218329 0.500000 0.918381
O O18 0.250000 0.750000 0.000000
#
# Coordination Sequence:
#
# PCOD9203706 Si02
#       7
#     8   8   8   8   8   8   8
#     4  11  22  36  60  93 122 153 199 248 297 353
#     4   9  18  35  60  87 117 153 195 235 285 357
#     4  10  22  41  60  84 121 163 200 234 286 364
#     4  11  25  42  59  85 119 157 202 252 299 347
#     4  10  20  39  66  89 112 153 198 244 302 357
#     4  10  22  41  64  88 118 155 196 246 307 362
#     4  11  19  33  56  87 125 159 195 241 298 357
#
# _framework density 25.545884000000001
#
# number of rings (size 3 to 8) (size 9 to 14) (size 15 to 20)
#    0.000    1.714    2.857    1.714    0.000    4.000 
#    0.000    6.429    0.000    0.000    0.000    0.000 
#    0.000    0.000    0.000    0.000    0.000    0.000 
#
# Total GULP energy -156374.962121 kJ/mol
# GULP energy per Si atom -5584.820076 kJ/mol
# Density = 2.548774 g / cm^3
# Si number density = 25.545884 Si / 1000 Ang^3
#
#
#
# Elastic Constant Matrix: (Units=GPa)
#
#
# Indices 1 2 3 4 5 6 
#
# 1 67.5344 9.1469 4.9129 0.0000 0.8512 0.0000
# 2 9.1469 69.7180 12.2868 -0.0001 1.6451 0.0001
# 3 4.9129 12.2868 110.3593 -0.0001 -14.3427 0.0000
# 4 0.0000 -0.0001 -0.0001 21.4273 0.0000 -0.4520
# 5 0.8512 1.6451 -14.3427 0.0000 44.8171 0.0000
# 6 0.0000 0.0001 0.0000 -0.4520 0.0000 17.8039
#
#
#
# Elastic Compliance Matrix: (Units=1/GPa)
#
#
# Indices 1 2 3 4 5 6 
#
# 1 0.015104 -0.001882 -0.000512 0.000000 -0.000382 0.000000
# 2 -0.001882 0.014918 -0.001715 0.000000 -0.001061 0.000000
# 3 -0.000512 -0.001715 0.009687 0.000000 0.003173 0.000000
# 4 0.000000 0.000000 0.000000 0.046694 0.000000 0.001185
# 5 -0.000382 -0.001061 0.003173 0.000000 0.023375 0.000000
# 6 0.000000 0.000000 0.000000 0.001185 0.000000 0.056198
#
#
# Mechanical properties :
#
#
# Convention : Reuss Voigt Hill
#
# Bulk Modulus (GPa) = 31.75605 33.36719 32.56162
# Shear Modulus (GPa) = 27.07208 31.56066 29.31637
#
# Velocity S-wave (km/s) = 3.25890 3.51871 3.39129
# Velocity P-wave (km/s) = 5.15932 5.44045 5.30175
#
# Compressibility (1/GPa) = 0.03149006
#
# Stress axis : x y z
#
# Youngs Moduli (GPa) = 66.20626 67.03443 103.22669
#
# Poissons Ratio (x) = 0.12618 0.05290
# Poissons Ratio (y) = 0.12462 0.17702
# Poissons Ratio (z) = 0.03393 0.11496
#
# Static dielectric constant tensor:
#      x y z
#    x 1.974650 0.000000 0.058930 
#    y 0.000000 1.652290 0.000000 
#    z 0.058930 0.000000 2.097470 
# 
# From -- ./inp_files/238318.got.cif
#   From: 2010.05.17/outbox.cif.g08.bks.cpg/sg12_120_cif.got.tgz:238318.got - 2010.06.03 13:09:07.
