data_PCOD9203700
_publ_section_title
;
Structure prediction by ZEFSAII (Michael W. Deem and Ramdas Pophale) SiO2 
 PCOD9203700
Probable space group: C 2/M
;
_chemical_formula_sum "Si O2"
_cell_formula_units_Z 40
_cell_length_a 13.949011
_cell_length_b 17.410787
_cell_length_c 10.437110
_cell_angle_alpha 90.000000
_cell_angle_beta 136.129296
_cell_angle_gamma 90.000000
_cell_volume 1756.694291
_symmetry_space_group_name_H-M "C 2/M"
_symmetry_group_IT_number 12
_symmetry_cell_setting 'monoclinic'
loop_
_space_group_symop_operation_xyz
x,y,z
-x,y,-z
-x,-y,-z
x,-y,z
1/2+x,1/2+y,z
1/2-x,1/2+y,-z
1/2-x,1/2-y,-z
1/2+x,1/2-y,z
loop_
_atom_site_type_symbol
_atom_site_label
_atom_site_fract_x
_atom_site_fract_y
_atom_site_fract_z
Si Si1 0.658589 0.248125 0.041497
Si Si2 0.380904 0.212430 0.470499
Si Si3 0.700852 0.914392 0.118623
Si Si4 0.484811 0.641546 0.259318
Si Si5 0.774062 0.582176 0.550771
O O1 0.753828 0.264982 0.255638
O O2 0.608387 0.159935 0.996093
O O3 0.750000 0.250000 0.000000
O O4 0.553481 0.315912 0.909860
O O5 0.500000 0.173486 0.500000
O O6 0.452385 0.289100 0.594329
O O7 0.335274 0.155750 0.538392
O O8 0.851047 0.896012 0.199072
O O9 0.713474 0.914051 0.283919
O O10 0.654256 0.000000 0.034550
O O11 0.610535 0.584349 0.364419
O O12 0.833180 0.500000 0.564573
#
# Coordination Sequence:
#
# PCOD9203700 Si02
#       5
#     8   8   8   8   8
#     4  10  21  38  63  99 121 165 212 249 313 380
#     4  12  22  42  63  89 128 168 215 255 308 376
#     4  10  20  39  65  98 128 154 205 270 316 360
#     4  11  21  40  69  96 123 164 212 259 313 371
#     4  11  24  40  64  97 126 166 212 260 321 366
#
# _framework density 22.770040999999999
#
# number of rings (size 3 to 8) (size 9 to 14) (size 15 to 20)
#    0.000    1.200    6.000    1.800    0.000    2.800 
#    0.000    7.000    0.000    2.400    0.000    0.000 
#    0.000    0.000    0.000    0.000    0.000    0.000 
#
# Total GULP energy -111793.605629 kJ/mol
# GULP energy per Si atom -5589.680281 kJ/mol
# Density = 2.271822 g / cm^3
# Si number density = 22.770041 Si / 1000 Ang^3
#
#
#
# Elastic Constant Matrix: (Units=GPa)
#
#
# Indices 1 2 3 4 5 6 
#
# 1 96.2993 31.5603 6.2093 0.0000 -0.0790 0.0000
# 2 31.5603 153.2062 27.1638 0.0000 -18.1824 0.0000
# 3 6.2093 27.1638 97.9635 0.0000 -13.4546 0.0000
# 4 0.0000 0.0000 0.0000 19.9909 0.0000 -9.6607
# 5 -0.0790 -18.1824 -13.4546 0.0000 23.4352 0.0000
# 6 0.0000 0.0000 0.0000 -9.6607 0.0000 27.0767
#
#
#
# Elastic Compliance Matrix: (Units=1/GPa)
#
#
# Indices 1 2 3 4 5 6 
#
# 1 0.011223 -0.002505 -0.000302 0.000000 -0.002079 0.000000
# 2 -0.002505 0.007912 -0.001295 0.000000 0.005387 0.000000
# 3 -0.000302 -0.001295 0.011342 0.000000 0.005506 0.000000
# 4 0.000000 0.000000 0.000000 0.060445 0.000000 0.021566
# 5 -0.002079 0.005387 0.005506 0.000000 0.050004 0.000000
# 6 0.000000 0.000000 0.000000 0.021566 0.000000 0.044627
#
#
# Mechanical properties :
#
#
# Convention : Reuss Voigt Hill
#
# Bulk Modulus (GPa) = 44.89915 53.03729 48.96822
# Shear Modulus (GPa) = 24.85305 32.93627 28.89466
#
# Velocity S-wave (km/s) = 3.30734 3.80738 3.56614
# Velocity P-wave (km/s) = 5.86055 6.53233 6.20553
#
# Compressibility (1/GPa) = 0.02227214
#
# Stress axis : x y z
#
# Youngs Moduli (GPa) = 89.10206 126.38800 88.16462
#
# Poissons Ratio (x) = 0.31662 0.02665
# Poissons Ratio (y) = 0.22321 0.11420
# Poissons Ratio (z) = 0.02694 0.16371
#
# Static dielectric constant tensor:
#      x y z
#    x 1.904000 0.000000 0.062530 
#    y 0.000000 1.866190 0.000000 
#    z 0.062530 0.000000 1.899570 
# 
# From -- ./inp_files/156349.got.cif
#   From: 2010.05.17/outbox.cif.g08.bks.cpg/sg12_79_cif.got.tgz:156349.got - 2010.06.03 13:09:07.
