data_PCOD9203471
_publ_section_title
;
Structure prediction by ZEFSAII (Michael W. Deem and Ramdas Pophale) SiO2 
 PCOD9203471
Probable space group: C 2/M
;
_chemical_formula_sum "Si O2"
_cell_formula_units_Z 52
_cell_length_a 24.449816
_cell_length_b 13.264378
_cell_length_c 18.865323
_cell_angle_alpha 90.000000
_cell_angle_beta 27.571761
_cell_angle_gamma 90.000000
_cell_volume 2831.885122
_symmetry_space_group_name_H-M "C 2/M"
_symmetry_group_IT_number 12
_symmetry_cell_setting 'monoclinic'
loop_
_space_group_symop_operation_xyz
x,y,z
-x,y,-z
-x,-y,-z
x,-y,z
1/2+x,1/2+y,z
1/2-x,1/2+y,-z
1/2-x,1/2-y,-z
1/2+x,1/2-y,z
loop_
_atom_site_type_symbol
_atom_site_label
_atom_site_fract_x
_atom_site_fract_y
_atom_site_fract_z
Si Si1 0.171704 0.674948 0.541529
Si Si2 0.215935 0.000000 0.382963
Si Si3 0.140558 0.877575 0.929099
Si Si4 0.068376 0.799793 0.532478
Si Si5 0.885746 0.114621 0.203674
Si Si6 0.075519 0.500000 0.744347
Si Si7 0.819347 0.500000 0.109217
Si Si8 0.683398 0.290620 0.244962
O O1 0.250000 0.750000 0.500000
O O2 0.098705 0.728708 0.563340
O O3 0.274245 0.617399 0.381381
O O4 0.090484 0.600029 0.679690
O O5 0.129402 0.905086 0.482171
O O6 0.307843 0.000000 0.340920
O O7 0.296977 0.000000 0.219402
O O8 0.144456 0.847484 0.840471
O O9 0.233587 0.806778 0.862121
O O10 0.160738 0.000000 0.914489
O O11 0.005396 0.844916 0.102113
O O12 0.129660 0.775446 0.386184
O O13 0.929237 0.800570 0.676742
O O14 0.918846 0.000000 0.152160
O O15 0.954474 0.500000 0.927897
O O16 0.755484 0.395886 0.158701
#
# Coordination Sequence:
#
# PCOD9203471 Si02
#       8
#     8   4   8   8   8   4   4   8
#     4  12  23  37  58  84 122 155 196 242 304 366
#     4  10  20  42  63  89 120 147 216 250 292 360
#     4   9  18  33  60  87 116 151 195 247 300 351
#     4  10  21  38  62  91 114 163 195 246 307 356
#     4   9  18  35  55  82 114 153 191 239 295 352
#     4  12  25  40  60  90 124 158 200 248 309 355
#     4  10  24  40  63  91 118 160 199 264 297 342
#     4  10  20  39  63  88 123 152 204 250 300 357
#
# _framework density 18.362327000000001
#
# number of rings (size 3 to 8) (size 9 to 14) (size 15 to 20)
#    0.000    1.846    3.846    1.615    2.154    1.846 
#    4.154    1.538    0.000    0.000    0.000    0.000 
#    0.000    0.000    0.000    0.000    0.000    0.000 
#
# Total GULP energy -144792.132498 kJ/mol
# GULP energy per Si atom -5568.928173 kJ/mol
# Density = 1.832053 g / cm^3
# Si number density = 18.362327 Si / 1000 Ang^3
#
#
#
# Elastic Constant Matrix: (Units=GPa)
#
#
# Indices 1 2 3 4 5 6 
#
# 1 111.3787 59.8708 47.0956 0.0000 -28.9333 0.0000
# 2 59.8708 103.0752 50.1924 0.0000 -14.4192 0.0000
# 3 47.0956 50.1924 87.7674 0.0000 -24.5400 0.0000
# 4 0.0000 0.0000 0.0000 55.2324 0.0000 -57.4780
# 5 -28.9333 -14.4192 -24.5400 0.0000 27.1405 0.0000
# 6 0.0000 0.0000 0.0000 -57.4780 0.0000 88.8278
#
#
#
# Elastic Compliance Matrix: (Units=1/GPa)
#
#
# Indices 1 2 3 4 5 6 
#
# 1 0.016799 -0.007373 -0.001185 0.000000 0.012920 0.000000
# 2 -0.007373 0.016683 -0.007099 0.000000 -0.005415 0.000000
# 3 -0.001185 -0.007099 0.019649 0.000000 0.012731 0.000000
# 4 0.000000 0.000000 0.000000 0.055432 0.000000 0.035869
# 5 0.012920 -0.005415 0.012731 0.000000 0.059253 0.000000
# 6 0.000000 0.000000 0.000000 0.035869 0.000000 0.034467
#
#
# Mechanical properties :
#
#
# Convention : Reuss Voigt Hill
#
# Bulk Modulus (GPa) = 45.83472 68.50433 57.16952
# Shear Modulus (GPa) = 20.75791 43.91096 32.33443
#
# Velocity S-wave (km/s) = 3.36588 4.89546 4.20087
# Velocity P-wave (km/s) = 6.33411 8.32719 7.39808
#
# Compressibility (1/GPa) = 0.02181752
#
# Stress axis : x y z
#
# Youngs Moduli (GPa) = 59.52627 59.93951 50.89296
#
# Poissons Ratio (x) = 0.44195 0.06033
# Poissons Ratio (y) = 0.43890 0.36127
# Poissons Ratio (z) = 0.07056 0.42549
#
# Static dielectric constant tensor:
#      x y z
#    x 1.638210 0.000000 0.002450 
#    y 0.000000 1.690500 0.000000 
#    z 0.002450 0.000000 1.642030 
# 
# From -- ./inp_files/284281.got.cif
#   From: 2010.05.17/outbox.cif.g08.bks.cpg/sg12_143_cif.got.tgz:284281.got - 2010.06.03 13:09:07.
