data_PCOD9203674
_publ_section_title
;
Structure prediction by ZEFSAII (Michael W. Deem and Ramdas Pophale) SiO2 
 PCOD9203674
Probable space group: C 2/M
;
_chemical_formula_sum "Si O2"
_cell_formula_units_Z 40
_cell_length_a 14.740217
_cell_length_b 10.578969
_cell_length_c 20.050515
_cell_angle_alpha 90.000000
_cell_angle_beta 143.308055
_cell_angle_gamma 90.000000
_cell_volume 1868.184190
_symmetry_space_group_name_H-M "C 2/M"
_symmetry_group_IT_number 12
_symmetry_cell_setting 'monoclinic'
loop_
_space_group_symop_operation_xyz
x,y,z
-x,y,-z
-x,-y,-z
x,-y,z
1/2+x,1/2+y,z
1/2-x,1/2+y,-z
1/2-x,1/2-y,-z
1/2+x,1/2-y,z
loop_
_atom_site_type_symbol
_atom_site_label
_atom_site_fract_x
_atom_site_fract_y
_atom_site_fract_z
Si Si1 0.500151 0.746632 0.340968
Si Si2 0.727298 0.857417 0.579070
Si Si3 0.258879 0.141535 0.100350
Si Si4 0.058537 0.640956 0.932454
Si Si5 0.783142 0.859258 0.318393
O O1 0.610416 0.834943 0.449668
O O2 0.605823 0.670411 0.352013
O O3 0.375427 0.826008 0.227660
O O4 0.412736 0.655210 0.339850
O O5 0.696848 0.751359 0.616348
O O6 0.715065 0.000000 0.597621
O O7 0.356491 0.145372 0.089215
O O8 0.196686 0.000000 0.070784
O O9 0.131848 0.248944 0.019196
O O10 0.085424 0.500000 0.976409
O O11 0.880858 0.656758 0.812978
O O12 0.786143 0.000000 0.350822
#
# Coordination Sequence:
#
# PCOD9203674 Si02
#       5
#     8   8   8   8   8
#     4  11  24  41  66  96 128 167 213 260 316 378
#     4  11  25  43  65  95 130 168 212 264 316 372
#     4  10  20  39  65  92 125 167 210 259 315 374
#     4   9  20  39  63  91 125 165 209 259 314 374
#     4  11  24  44  67  94 129 169 212 260 315 377
#
# _framework density 21.411163999999999
#
# number of rings (size 3 to 8) (size 9 to 14) (size 15 to 20)
#    0.000    1.600    2.000    1.800    0.000   10.400 
#    0.000    3.000    0.000    0.000    0.000    0.000 
#    0.000    0.000    0.000    0.000    0.000    0.000 
#
# Total GULP energy -111900.905444 kJ/mol
# GULP energy per Si atom -5595.045272 kJ/mol
# Density = 2.136243 g / cm^3
# Si number density = 21.411164 Si / 1000 Ang^3
#
#
#
# Elastic Constant Matrix: (Units=GPa)
#
#
# Indices 1 2 3 4 5 6 
#
# 1 72.7950 30.3129 4.2411 0.0000 0.8292 0.0000
# 2 30.3129 188.4757 66.1937 0.0000 -13.8043 0.0000
# 3 4.2411 66.1937 66.6026 0.0000 -9.5513 0.0000
# 4 0.0000 0.0000 0.0000 16.3685 0.0000 -5.6055
# 5 0.8292 -13.8043 -9.5513 0.0000 23.4808 0.0000
# 6 0.0000 0.0000 0.0000 -5.6055 0.0000 15.9622
#
#
#
# Elastic Compliance Matrix: (Units=1/GPa)
#
#
# Indices 1 2 3 4 5 6 
#
# 1 0.014988 -0.003245 0.002040 0.000000 -0.001607 0.000000
# 2 -0.003245 0.008909 -0.008369 0.000000 0.001948 0.000000
# 3 0.002040 -0.008369 0.023879 0.000000 0.004721 0.000000
# 4 0.000000 0.000000 0.000000 0.069445 0.000000 0.024387
# 5 -0.001607 0.001948 0.004721 0.000000 0.045711 0.000000
# 6 0.000000 0.000000 0.000000 0.024387 0.000000 0.071212
#
#
# Mechanical properties :
#
#
# Convention : Reuss Voigt Hill
#
# Bulk Modulus (GPa) = 34.92940 58.81873 46.87407
# Shear Modulus (GPa) = 19.02345 26.30400 22.66373
#
# Velocity S-wave (km/s) = 2.98398 3.50882 3.25699
# Velocity P-wave (km/s) = 5.31236 6.62922 6.00698
#
# Compressibility (1/GPa) = 0.02862917
#
# Stress axis : x y z
#
# Youngs Moduli (GPa) = 66.72106 112.24115 41.87793
#
# Poissons Ratio (x) = 0.36418 -0.08543
# Poissons Ratio (y) = 0.21648 0.35046
# Poissons Ratio (z) = -0.13610 0.93931
#
# Static dielectric constant tensor:
#      x y z
#    x 1.774980 0.000000 -0.002730 
#    y 0.000000 1.756320 0.000000 
#    z -0.002730 0.000000 1.740440 
# 
# From -- ./inp_files/188558.got.cif
#   From: 2010.05.17/outbox.cif.g08.bks.cpg/sg12_95_cif.got.tgz:188558.got - 2010.06.03 13:09:07.
