data_PCOD9203813
_publ_section_title
;
Structure prediction by ZEFSAII (Michael W. Deem and Ramdas Pophale) SiO2 
 PCOD9203813
Probable space group: C 2/M
;
_chemical_formula_sum "Si O2"
_cell_formula_units_Z 40
_cell_length_a 10.622567
_cell_length_b 15.579912
_cell_length_c 12.248141
_cell_angle_alpha 90.000000
_cell_angle_beta 101.954653
_cell_angle_gamma 90.000000
_cell_volume 1983.087921
_symmetry_space_group_name_H-M "C 2/M"
_symmetry_group_IT_number 12
_symmetry_cell_setting 'monoclinic'
loop_
_space_group_symop_operation_xyz
x,y,z
-x,y,-z
-x,-y,-z
x,-y,z
1/2+x,1/2+y,z
1/2-x,1/2+y,-z
1/2-x,1/2-y,-z
1/2+x,1/2-y,z
loop_
_atom_site_type_symbol
_atom_site_label
_atom_site_fract_x
_atom_site_fract_y
_atom_site_fract_z
Si Si1 0.437300 0.853591 0.751488
Si Si2 0.351728 0.101135 0.513070
Si Si3 0.083026 0.000000 0.903108
Si Si4 0.370317 0.000000 0.905623
Si Si5 0.538255 0.325679 0.131969
Si Si6 0.279982 0.099078 0.268272
O O1 0.347707 0.851461 0.627792
O O2 0.475131 0.760648 0.802344
O O3 0.572530 0.896417 0.741620
O O4 0.374946 0.915221 0.830769
O O5 0.500000 0.106610 0.500000
O O6 0.271587 0.130354 0.392865
O O7 0.324555 0.000000 0.527315
O O8 0.236273 0.000000 0.947265
O O9 0.041035 0.090421 0.841627
O O10 0.000000 0.000000 0.000000
O O11 0.500000 0.000000 0.000000
O O12 0.687681 0.350435 0.171232
O O13 0.500000 0.309898 0.000000
O O14 0.240031 0.000000 0.260395
#
# Coordination Sequence:
#
# PCOD9203813 Si02
#       6
#     8   8   4   4   8   8
#     4  11  22  38  63  97 127 157 213 275 310 362
#     4   8  15  34  61  92 122 159 209 267 312 365
#     4  10  26  48  61  82 133 177 206 258 314 386
#     4  12  26  40  66  98 128 166 211 267 320 363
#     4  11  25  40  61  89 128 173 209 254 320 388
#     4  10  20  39  68  90 120 172 219 254 314 380
#
# _framework density 20.170563000000001
#
# number of rings (size 3 to 8) (size 9 to 14) (size 15 to 20)
#    0.000    1.800    3.000    1.800    8.400    1.600 
#    0.000    0.000    0.000    1.200    0.000    0.000 
#    0.000    0.000    0.000    0.000    0.000    0.000 
#
# Total GULP energy -111558.822516 kJ/mol
# GULP energy per Si atom -5577.941126 kJ/mol
# Density = 2.012465 g / cm^3
# Si number density = 20.170563 Si / 1000 Ang^3
#
#
#
# Elastic Constant Matrix: (Units=GPa)
#
#
# Indices 1 2 3 4 5 6 
#
# 1 74.5938 3.2182 26.8784 0.0000 4.6182 0.0000
# 2 3.2182 112.0250 42.7244 0.0000 -8.2779 0.0000
# 3 26.8784 42.7244 132.7107 0.0000 5.8012 0.0000
# 4 0.0000 0.0000 0.0000 22.7376 0.0000 5.8922
# 5 4.6182 -8.2779 5.8012 0.0000 19.6627 0.0000
# 6 0.0000 0.0000 0.0000 5.8922 0.0000 24.2766
#
#
#
# Elastic Compliance Matrix: (Units=1/GPa)
#
#
# Indices 1 2 3 4 5 6 
#
# 1 0.014621 0.000572 -0.003045 0.000000 -0.002295 0.000000
# 2 0.000572 0.010779 -0.003828 0.000000 0.005533 0.000000
# 3 -0.003045 -0.003828 0.009546 0.000000 -0.003713 0.000000
# 4 0.000000 0.000000 0.000000 0.046932 0.000000 -0.011391
# 5 -0.002295 0.005533 -0.003713 0.000000 0.054821 0.000000
# 6 0.000000 0.000000 0.000000 -0.011391 0.000000 0.043957
#
#
# Mechanical properties :
#
#
# Convention : Reuss Voigt Hill
#
# Bulk Modulus (GPa) = 44.75487 51.66350 48.20919
# Shear Modulus (GPa) = 24.91215 29.76929 27.34072
#
# Velocity S-wave (km/s) = 3.51818 3.84588 3.68567
# Velocity P-wave (km/s) = 6.22413 6.73721 6.48575
#
# Compressibility (1/GPa) = 0.02234394
#
# Stress axis : x y z
#
# Youngs Moduli (GPa) = 68.39699 92.77442 104.75077
#
# Poissons Ratio (x) = -0.05304 0.31895
# Poissons Ratio (y) = -0.03910 0.40096
# Poissons Ratio (z) = 0.20826 0.35512
#
# Static dielectric constant tensor:
#      x y z
#    x 1.702330 0.000000 0.008710 
#    y 0.000000 1.754080 0.000000 
#    z 0.008710 0.000000 1.766710 
# 
# From -- ./inp_files/129840.got.cif
#   From: 2010.05.17/outbox.cif.g08.bks.cpg/sg12_65_cif.got.tgz:129840.got - 2010.06.03 13:09:07.
