data_PCOD9203835
_publ_section_title
;
Structure prediction by ZEFSAII (Michael W. Deem and Ramdas Pophale) SiO2 
 PCOD9203835
Probable space group: C 2/M
;
_chemical_formula_sum "Si O2"
_cell_formula_units_Z 48
_cell_length_a 31.121901
_cell_length_b 14.173605
_cell_length_c 15.970042
_cell_angle_alpha 90.000000
_cell_angle_beta 163.435418
_cell_angle_gamma 90.000000
_cell_volume 2008.368938
_symmetry_space_group_name_H-M "C 2/M"
_symmetry_group_IT_number 12
_symmetry_cell_setting 'monoclinic'
loop_
_space_group_symop_operation_xyz
x,y,z
-x,y,-z
-x,-y,-z
x,-y,z
1/2+x,1/2+y,z
1/2-x,1/2+y,-z
1/2-x,1/2-y,-z
1/2+x,1/2-y,z
loop_
_atom_site_type_symbol
_atom_site_label
_atom_site_fract_x
_atom_site_fract_y
_atom_site_fract_z
Si Si1 0.111033 0.113415 0.130047
Si Si2 0.309770 0.687288 0.885959
Si Si3 0.968948 0.598755 0.577496
Si Si4 0.296429 0.897580 0.839768
Si Si5 0.091298 0.784189 0.741067
Si Si6 0.935834 0.610003 0.795095
O O1 0.076562 0.163610 0.977089
O O2 0.278058 0.149220 0.467731
O O3 0.111097 0.000000 0.115967
O O4 0.000000 0.130440 0.000000
O O5 0.174443 0.612529 0.630737
O O6 0.235936 0.790864 0.732070
O O7 0.378512 0.678911 0.108132
O O8 0.950520 0.500000 0.497175
O O9 0.117862 0.595512 0.911551
O O10 0.985195 0.693155 0.556471
O O11 0.429129 0.891516 0.018880
O O12 0.216410 0.000000 0.677068
O O13 0.000000 0.843601 0.500000
O O14 0.250000 0.750000 0.000000
O O15 0.897947 0.500000 0.743361
O O16 0.000000 0.653505 0.000000
#
# Coordination Sequence:
#
# PCOD9203835 Si02
#       6
#     8   8   8   8   8   8
#     4  10  21  40  64  96 137 181 229 280 338 404
#     4  11  21  38  68  98 132 174 235 278 334 400
#     4  10  20  39  69  97 125 178 234 268 326 418
#     4   9  19  36  59  88 125 170 222 274 330 398
#     4  11  23  43  66 100 135 176 222 287 345 407
#     4   9  17  34  58  85 120 167 220 275 326 386
#
# _framework density 23.899992000000001
#
# number of rings (size 3 to 8) (size 9 to 14) (size 15 to 20)
#    0.000    2.000    3.333    0.500    0.000    1.000 
#    6.000    1.667    0.000    9.500    0.000    0.000 
#    0.000    0.667    0.000    0.000    0.000    0.000 
#
# Total GULP energy -133839.613913 kJ/mol
# GULP energy per Si atom -5576.650580 kJ/mol
# Density = 2.384559 g / cm^3
# Si number density = 23.899992 Si / 1000 Ang^3
#
#
#
# Elastic Constant Matrix: (Units=GPa)
#
#
# Indices 1 2 3 4 5 6 
#
# 1 153.2098 14.4020 35.0425 0.0000 -16.4429 0.0000
# 2 14.4020 111.4719 3.9664 0.0000 0.4802 0.0000
# 3 35.0425 3.9664 63.2674 0.0000 -13.6054 0.0000
# 4 0.0000 0.0000 0.0000 16.6695 0.0000 8.9883
# 5 -16.4429 0.4802 -13.6054 0.0000 36.7079 0.0000
# 6 0.0000 0.0000 0.0000 8.9883 0.0000 31.8585
#
#
#
# Elastic Compliance Matrix: (Units=1/GPa)
#
#
# Indices 1 2 3 4 5 6 
#
# 1 0.007690 -0.000869 -0.003762 0.000000 0.002062 0.000000
# 2 -0.000869 0.009093 -0.000215 0.000000 -0.000588 0.000000
# 3 -0.003762 -0.000215 0.019060 0.000000 0.005382 0.000000
# 4 0.000000 0.000000 0.000000 0.070753 0.000000 -0.019962
# 5 0.002062 -0.000588 0.005382 0.000000 0.030168 0.000000
# 6 0.000000 0.000000 0.000000 -0.019962 0.000000 0.037021
#
#
# Mechanical properties :
#
#
# Convention : Reuss Voigt Hill
#
# Bulk Modulus (GPa) = 38.23697 48.30787 43.27242
# Shear Modulus (GPa) = 26.01520 35.34971 30.68246
#
# Velocity S-wave (km/s) = 3.30283 3.85004 3.58688
# Velocity P-wave (km/s) = 5.52977 6.32614 5.94132
#
# Compressibility (1/GPa) = 0.02615270
#
# Stress axis : x y z
#
# Youngs Moduli (GPa) = 130.03381 109.97123 52.46482
#
# Poissons Ratio (x) = 0.09552 0.19735
# Poissons Ratio (y) = 0.11295 0.01130
# Poissons Ratio (z) = 0.48914 0.02369
#
# Static dielectric constant tensor:
#      x y z
#    x 1.994510 0.000000 -0.039330 
#    y 0.000000 2.023010 0.000000 
#    z -0.039330 0.000000 1.943440 
# 
# From -- ./inp_files/251509.got.cif
#   From: 2010.05.17/outbox.cif.g08.bks.cpg/sg12_126_cif.got.tgz:251509.got - 2010.06.03 13:09:07.
