data_PCOD9203892
_publ_section_title
;
Structure prediction by ZEFSAII (Michael W. Deem and Ramdas Pophale) SiO2 
 PCOD9203892
Probable space group: C 2/M
;
_chemical_formula_sum "Si O2"
_cell_formula_units_Z 50
_cell_length_a 27.950022
_cell_length_b 13.494083
_cell_length_c 16.784985
_cell_angle_alpha 90.000000
_cell_angle_beta 158.884353
_cell_angle_gamma 90.000000
_cell_volume 2280.617112
_symmetry_space_group_name_H-M "C 2/M"
_symmetry_group_IT_number 12
_symmetry_cell_setting 'monoclinic'
loop_
_space_group_symop_operation_xyz
x,y,z
-x,y,-z
-x,-y,-z
x,-y,z
1/2+x,1/2+y,z
1/2-x,1/2+y,-z
1/2-x,1/2-y,-z
1/2+x,1/2-y,z
loop_
_atom_site_type_symbol
_atom_site_label
_atom_site_fract_x
_atom_site_fract_y
_atom_site_fract_z
Si Si1 0.243529 0.610236 0.056956
Si Si2 0.500000 0.000000 0.000000
Si Si3 0.214424 0.327991 0.326585
Si Si4 0.734339 0.340004 0.252300
Si Si5 0.028819 0.606208 0.266056
Si Si6 0.560822 0.303023 0.211666
Si Si7 0.345160 0.823950 0.253207
O O1 0.299727 0.500000 0.158126
O O2 0.216442 0.627186 0.921207
O O3 0.100378 0.613006 0.879044
O O4 0.325611 0.705094 0.213744
O O5 0.388086 0.086072 0.841802
O O6 0.255224 0.276571 0.307601
O O7 0.337863 0.358978 0.572948
O O8 0.142679 0.236897 0.263130
O O9 0.839478 0.390977 0.474656
O O10 0.774060 0.357858 0.223351
O O11 0.576922 0.358613 0.016732
O O12 0.027558 0.500000 0.218833
O O13 0.029858 0.700303 0.210513
O O14 0.500000 0.847914 0.500000
#
# Coordination Sequence:
#
# PCOD9203892 Si02
#       7
#     8   2   8   8   8   8   8
#     4  10  22  39  58  88 120 156 207 252 298 358
#     4  12  20  40  60  96 114 152 202 250 284 360
#     4  10  23  36  63  87 118 151 197 246 292 358
#     4  11  20  39  61  87 122 160 196 246 302 357
#     4  10  21  35  60  90 116 155 204 247 291 356
#     4  10  20  40  60  84 117 162 192 236 307 353
#     4  11  22  38  64  87 119 167 202 250 306 354
#
# _framework density 21.923891000000001
#
# number of rings (size 3 to 8) (size 9 to 14) (size 15 to 20)
#    0.000    1.600    4.800    0.000    1.120    1.280 
#    2.880    0.000    3.520    2.880    0.000    0.000 
#    0.000    0.000    0.000    0.000    0.000    0.000 
#
# Total GULP energy -139480.715885 kJ/mol
# GULP energy per Si atom -5579.228635 kJ/mol
# Density = 2.187399 g / cm^3
# Si number density = 21.923891 Si / 1000 Ang^3
#
#
#
# Elastic Constant Matrix: (Units=GPa)
#
#
# Indices 1 2 3 4 5 6 
#
# 1 78.4853 -9.1139 -2.9689 0.0000 2.1284 0.0000
# 2 -9.1139 73.5753 -13.6051 0.0000 1.2645 0.0000
# 3 -2.9689 -13.6051 88.8110 0.0000 -1.0219 0.0000
# 4 0.0000 0.0000 0.0000 9.8723 0.0000 5.2863
# 5 2.1284 1.2645 -1.0219 0.0000 24.8240 0.0000
# 6 0.0000 0.0000 0.0000 5.2863 0.0000 9.2359
#
#
#
# Elastic Compliance Matrix: (Units=1/GPa)
#
#
# Indices 1 2 3 4 5 6 
#
# 1 0.013003 0.001759 0.000691 0.000000 -0.001176 0.000000
# 2 0.001759 0.014235 0.002230 0.000000 -0.000784 0.000000
# 3 0.000691 0.002230 0.011628 0.000000 0.000306 0.000000
# 4 0.000000 0.000000 0.000000 0.146060 0.000000 -0.083600
# 5 -0.001176 -0.000784 0.000306 0.000000 0.040437 0.000000
# 6 0.000000 0.000000 0.000000 -0.083600 0.000000 0.156124
#
#
# Mechanical properties :
#
#
# Convention : Reuss Voigt Hill
#
# Bulk Modulus (GPa) = 20.73550 21.05508 20.89529
# Shear Modulus (GPa) = 12.87985 26.55706 19.71845
#
# Velocity S-wave (km/s) = 2.42643 3.48419 3.00226
# Velocity P-wave (km/s) = 4.16276 5.08042 4.64431
#
# Compressibility (1/GPa) = 0.04822646
#
# Stress axis : x y z
#
# Youngs Moduli (GPa) = 76.90246 70.24792 85.99812
#
# Poissons Ratio (x) = -0.12354 -0.05939
# Poissons Ratio (y) = -0.13525 -0.19182
# Poissons Ratio (z) = -0.05311 -0.15669
#
# Static dielectric constant tensor:
#      x y z
#    x 1.478620 0.000000 0.091420 
#    y 0.000000 1.770480 0.000000 
#    z 0.091420 0.000000 1.764720 
# 
# From -- ./inp_files/263019.got.cif
#   From: 2010.05.17/outbox.cif.g08.bks.cpg/sg12_132_cif.got.tgz:263019.got - 2010.06.03 13:09:07.
