data_PCOD9203744
_publ_section_title
;
Structure prediction by ZEFSAII (Michael W. Deem and Ramdas Pophale) SiO2 
 PCOD9203744
Probable space group: C 2/M
;
_chemical_formula_sum "Si O2"
_cell_formula_units_Z 58
_cell_length_a 20.107725
_cell_length_b 25.125034
_cell_length_c 6.358426
_cell_angle_alpha 90.000000
_cell_angle_beta 63.298184
_cell_angle_gamma 90.000000
_cell_volume 2869.751770
_symmetry_space_group_name_H-M "C 2/M"
_symmetry_group_IT_number 12
_symmetry_cell_setting 'monoclinic'
loop_
_space_group_symop_operation_xyz
x,y,z
-x,y,-z
-x,-y,-z
x,-y,z
1/2+x,1/2+y,z
1/2-x,1/2+y,-z
1/2-x,1/2-y,-z
1/2+x,1/2-y,z
loop_
_atom_site_type_symbol
_atom_site_label
_atom_site_fract_x
_atom_site_fract_y
_atom_site_fract_z
Si Si1 0.315986 0.633373 0.596712
Si Si2 0.309908 0.861920 0.534287
Si Si3 0.500000 0.000000 0.000000
Si Si4 0.924546 0.806461 0.744488
Si Si5 0.581567 0.598453 0.925163
Si Si6 0.924374 0.393444 0.036215
Si Si7 0.220429 0.061068 0.974934
Si Si8 0.084758 0.313117 0.301605
O O1 0.253064 0.658323 0.536717
O O2 0.356457 0.673459 0.697103
O O3 0.377169 0.608705 0.353178
O O4 0.281718 0.586988 0.791165
O O5 0.368632 0.894265 0.309616
O O6 0.356993 0.817612 0.590173
O O7 0.269587 0.901656 0.753524
O O8 0.547433 0.952460 0.052073
O O9 0.913418 0.744471 0.808369
O O10 0.000000 0.811546 0.500000
O O11 0.928498 0.845180 0.938586
O O12 0.500000 0.575389 0.000000
O O13 0.637065 0.565298 0.995082
O O14 0.893767 0.360261 0.886745
O O15 0.000000 0.363339 0.000000
O O16 0.244926 0.000000 0.942193
O O17 0.000000 0.322205 0.500000
#
# Coordination Sequence:
#
# PCOD9203744 Si02
#       8
#     8   8   2   8   8   8   8   8
#     4  10  22  42  62  92 129 165 206 254 315 374
#     4  11  23  42  63  88 131 163 207 263 309 372
#     4   8  20  40  62  88 120 166 208 256 324 356
#     4  10  21  37  67  96 126 167 206 253 307 374
#     4  10  20  39  66  97 126 161 208 255 311 374
#     4  10  21  40  62  90 124 162 210 262 311 364
#     4  10  24  42  64  91 124 168 209 257 315 372
#     4  11  22  40  62  97 129 161 213 259 308 368
#
# _framework density 20.210806000000002
#
# number of rings (size 3 to 8) (size 9 to 14) (size 15 to 20)
#    0.414    1.379    2.759    0.828    0.966    4.690 
#    3.724   11.379    0.000    0.000    0.000    0.000 
#    0.000    0.000    0.000    0.000    0.000    0.000 
#
# Total GULP energy -161571.187370 kJ/mol
# GULP energy per Si atom -5571.420254 kJ/mol
# Density = 2.016481 g / cm^3
# Si number density = 20.210806 Si / 1000 Ang^3
#
#
#
# Elastic Constant Matrix: (Units=GPa)
#
#
# Indices 1 2 3 4 5 6 
#
# 1 102.7286 -7.8285 13.0654 0.0000 0.0982 0.0000
# 2 -7.8285 84.3512 17.9895 0.0000 2.2258 0.0000
# 3 13.0654 17.9895 93.0154 0.0000 -3.8345 0.0000
# 4 0.0000 0.0000 0.0000 4.1561 0.0000 4.7079
# 5 0.0982 2.2258 -3.8345 0.0000 29.3015 0.0000
# 6 0.0000 0.0000 0.0000 4.7079 0.0000 -12.3366
#
#
#
# Elastic Compliance Matrix: (Units=1/GPa)
#
#
# Indices 1 2 3 4 5 6 
#
# 1 0.010047 0.001299 -0.001677 0.000000 -0.000352 0.000000
# 2 0.001299 0.012580 -0.002669 0.000000 -0.001309 0.000000
# 3 -0.001677 -0.002669 0.011574 0.000000 0.001723 0.000000
# 4 0.000000 0.000000 0.000000 0.167990 0.000000 0.064108
# 5 -0.000352 -0.001309 0.001723 0.000000 0.034454 0.000000
# 6 0.000000 0.000000 0.000000 0.064108 0.000000 -0.056595
#
#
# Mechanical properties :
#
#
# Convention : Reuss Voigt Hill
#
# Bulk Modulus (GPa) = 35.57929 36.28313 35.93121
# Shear Modulus (GPa) = 25.57383 21.34880 23.46131
#
# Velocity S-wave (km/s) = 3.56104 3.25361 3.41079
# Velocity P-wave (km/s) = 5.87795 5.66621 5.77305
#
# Compressibility (1/GPa) = 0.02810624
#
# Stress axis : x y z
#
# Youngs Moduli (GPa) = 99.53180 79.49353 86.40218
#
# Poissons Ratio (x) = -0.10329 0.14490
# Poissons Ratio (y) = -0.12933 0.23065
# Poissons Ratio (z) = 0.16692 0.21220
#
# Static dielectric constant tensor:
#      x y z
#    x 1.793370 0.000000 0.002830 
#    y 0.000000 1.667120 0.000000 
#    z 0.002830 0.000000 1.718790 
# 
# From -- ./inp_files/22305.got.cif
#   From: 2010.05.17/outbox.cif.g08.bks.cpg/sg12_12_cif.got.tgz:22305.got - 2010.06.03 13:09:07.
