data_PCOD9203303
_publ_section_title
;
Structure prediction by ZEFSAII (Michael W. Deem and Ramdas Pophale) SiO2 
 PCOD9203303
Probable space group: C 2/M
;
_chemical_formula_sum "Si O2"
_cell_formula_units_Z 28
_cell_length_a 12.508187
_cell_length_b 8.845322
_cell_length_c 14.039911
_cell_angle_alpha 90.000000
_cell_angle_beta 41.047956
_cell_angle_gamma 90.000000
_cell_volume 1020.077317
_symmetry_space_group_name_H-M "C 2/M"
_symmetry_group_IT_number 12
_symmetry_cell_setting 'monoclinic'
loop_
_space_group_symop_operation_xyz
x,y,z
-x,y,-z
-x,-y,-z
x,-y,z
1/2+x,1/2+y,z
1/2-x,1/2+y,-z
1/2-x,1/2-y,-z
1/2+x,1/2-y,z
loop_
_atom_site_type_symbol
_atom_site_label
_atom_site_fract_x
_atom_site_fract_y
_atom_site_fract_z
Si Si1 0.500000 0.255101 0.500000
Si Si2 0.926246 0.000000 0.395858
Si Si3 0.445831 0.000000 0.299096
Si Si4 0.406580 0.168166 0.962376
Si Si5 0.291010 0.000000 0.708604
Si Si6 0.570564 0.500000 0.087808
O O1 0.489906 0.357050 0.413343
O O2 0.344903 0.147531 0.614433
O O3 0.731530 0.000000 0.537357
O O4 0.992334 0.000000 0.245948
O O5 0.473056 0.860438 0.207992
O O6 0.585402 0.000000 0.284762
O O7 0.341018 0.339201 0.993392
O O8 0.320737 0.000000 0.025699
O O9 0.500000 0.173432 0.000000
O O10 0.101564 0.000000 0.855005
#
# Coordination Sequence:
#
# PCOD9203303 Si02
#       6
#     4   4   4   8   4   4
#     4  10  22  36  52  86 130 154 192 242 286 374
#     4  11  22  37  60  92 118 157 198 237 308 354
#     4  10  20  39  61  86 127 158 191 253 291 354
#     4   9  21  41  65  84 114 158 207 243 295 344
#     4  11  22  34  54  88 122 160 196 235 298 350
#     4  12  22  37  65  90 119 160 195 245 295 358
#
# _framework density 27.448896999999999
#
# number of rings (size 3 to 8) (size 9 to 14) (size 15 to 20)
#    0.857    0.857    0.000    5.571    0.000    3.429 
#    0.000    1.429    0.000    0.000    0.000    0.000 
#    0.000    0.000    0.000    0.000    0.000    0.000 
#
# Total GULP energy -78441.828407 kJ/mol
# GULP energy per Si atom -5602.987743 kJ/mol
# Density = 2.738642 g / cm^3
# Si number density = 27.448897 Si / 1000 Ang^3
#
#
#
# Elastic Constant Matrix: (Units=GPa)
#
#
# Indices 1 2 3 4 5 6 
#
# 1 89.8506 80.7687 47.2840 0.0000 10.4899 0.0000
# 2 80.7687 265.7078 42.4798 0.0000 -0.3029 0.0000
# 3 47.2840 42.4798 116.0964 0.0000 -14.2382 0.0000
# 4 0.0000 0.0000 0.0000 -31.8653 0.0000 -3.3222
# 5 10.4899 -0.3029 -14.2382 0.0000 63.8795 0.0000
# 6 0.0000 0.0000 0.0000 -3.3222 0.0000 57.0715
#
#
#
# Elastic Compliance Matrix: (Units=1/GPa)
#
#
# Indices 1 2 3 4 5 6 
#
# 1 0.019669 -0.004896 -0.006804 0.000000 -0.004770 0.000000
# 2 -0.004896 0.005223 0.000190 0.000000 0.000871 0.000000
# 3 -0.006804 0.000190 0.011774 0.000000 0.003743 0.000000
# 4 0.000000 0.000000 0.000000 -0.031193 0.000000 -0.001816
# 5 -0.004770 0.000871 0.003743 0.000000 0.017276 0.000000
# 6 0.000000 0.000000 0.000000 -0.001816 0.000000 0.017416
#
#
# Mechanical properties :
#
#
# Convention : Reuss Voigt Hill
#
# Bulk Modulus (GPa) = 73.28895 90.30219 81.79557
# Shear Modulus (GPa) = 73.81889 37.89197 55.85543
#
# Velocity S-wave (km/s) = 5.19149 3.71948 4.51587
# Velocity P-wave (km/s) = 7.91793 7.17048 7.55345
#
# Compressibility (1/GPa) = 0.01364462
#
# Stress axis : x y z
#
# Youngs Moduli (GPa) = 50.84259 191.47853 84.93218
#
# Poissons Ratio (x) = 0.93756 0.57788
# Poissons Ratio (y) = 0.24895 -0.01615
# Poissons Ratio (z) = 0.34593 -0.03641
#
# Static dielectric constant tensor:
#      x y z
#    x 2.291070 0.000000 0.012820 
#    y 0.000000 2.146150 0.000000 
#    z 0.012820 0.000000 2.020520 
# 
# From -- ./inp_files/138476.got.cif
#   From: 2010.05.17/outbox.cif.g08.bks.cpg/sg12_70_cif.got.tgz:138476.got - 2010.06.03 13:09:07.
