data_PCOD9203276
_publ_section_title
;
Structure prediction by ZEFSAII (Michael W. Deem and Ramdas Pophale) SiO2 
 PCOD9203276
Probable space group: C 2/M
;
_chemical_formula_sum "Si O2"
_cell_formula_units_Z 56
_cell_length_a 21.918143
_cell_length_b 8.876300
_cell_length_c 15.521911
_cell_angle_alpha 90.000000
_cell_angle_beta 91.925090
_cell_angle_gamma 90.000000
_cell_volume 3018.114644
_symmetry_space_group_name_H-M "C 2/M"
_symmetry_group_IT_number 12
_symmetry_cell_setting 'monoclinic'
loop_
_space_group_symop_operation_xyz
x,y,z
-x,y,-z
-x,-y,-z
x,-y,z
1/2+x,1/2+y,z
1/2-x,1/2+y,-z
1/2-x,1/2-y,-z
1/2+x,1/2-y,z
loop_
_atom_site_type_symbol
_atom_site_label
_atom_site_fract_x
_atom_site_fract_y
_atom_site_fract_z
Si Si1 0.813908 0.320590 0.974803
Si Si2 0.470257 0.818211 0.406662
Si Si3 0.443975 0.817597 0.062060
Si Si4 0.331483 0.819174 0.434298
Si Si5 0.709220 0.819054 0.377246
Si Si6 0.504460 0.678770 0.226960
Si Si7 0.866858 0.680186 0.793288
O O1 0.810020 0.500000 0.988163
O O2 0.825382 0.293175 0.874297
O O3 0.750000 0.250000 0.000000
O O4 0.877039 0.270310 0.024465
O O5 0.500000 0.775576 0.500000
O O6 0.398815 0.778381 0.407547
O O7 0.497918 0.743257 0.323239
O O8 0.476764 0.000000 0.399393
O O9 0.457344 0.751322 0.156892
O O10 0.444918 0.000000 0.065911
O O11 0.500000 0.774027 0.000000
O O12 0.320635 0.771994 0.533218
O O13 0.276778 0.748219 0.377712
O O14 0.326598 0.000000 0.431104
O O15 0.667964 0.775075 0.295067
O O16 0.713324 0.000000 0.377539
O O17 0.498252 0.500000 0.227333
O O18 0.570615 0.730357 0.196854
O O19 0.880657 0.500000 0.790742
#
# Coordination Sequence:
#
# PCOD9203276 Si02
#       7
#     8   8   8   8   8   8   8
#     4  10  22  39  62  89 118 154 193 248 306 357
#     4  10  21  39  61  83 115 159 202 241 286 354
#     4  10  20  41  67  87 116 160 206 244 291 365
#     4   9  18  33  53  80 111 147 189 234 286 342
#     4   9  18  33  57  82 108 145 188 236 288 346
#     4  12  25  37  58  92 122 152 194 252 309 350
#     4  10  20  39  61  81 109 151 201 239 287 362
#
# _framework density 18.55463
#
# number of rings (size 3 to 8) (size 9 to 14) (size 15 to 20)
#    0.000    2.000    1.429    2.143    0.000    6.286 
#    0.000    5.714    0.000    0.000    0.000    0.000 
#    0.000    0.000    0.000    0.000    0.000    0.000 
#
# Total GULP energy -156304.176789 kJ/mol
# GULP energy per Si atom -5582.292028 kJ/mol
# Density = 1.851240 g / cm^3
# Si number density = 18.554630 Si / 1000 Ang^3
#
#
#
# Elastic Constant Matrix: (Units=GPa)
#
#
# Indices 1 2 3 4 5 6 
#
# 1 110.9787 29.0731 33.8594 0.0000 -1.5191 0.0000
# 2 29.0731 18.7193 26.5752 0.0000 -2.6616 0.0000
# 3 33.8594 26.5752 84.0537 0.0000 10.3225 0.0000
# 4 0.0000 0.0000 0.0000 18.6412 0.0000 -3.3762
# 5 -1.5191 -2.6616 10.3225 0.0000 31.5558 0.0000
# 6 0.0000 0.0000 0.0000 -3.3762 0.0000 32.2688
#
#
#
# Elastic Compliance Matrix: (Units=1/GPa)
#
#
# Indices 1 2 3 4 5 6 
#
# 1 0.015685 -0.029557 0.003376 0.000000 -0.002842 0.000000
# 2 -0.029557 0.164893 -0.043509 0.000000 0.026718 0.000000
# 3 0.003376 -0.043509 0.025759 0.000000 -0.011934 0.000000
# 4 0.000000 0.000000 0.000000 0.054681 0.000000 0.005721
# 5 -0.002842 0.026718 -0.011934 0.000000 0.037710 0.000000
# 6 0.000000 0.000000 0.000000 0.005721 0.000000 0.031588
#
#
# Mechanical properties :
#
#
# Convention : Reuss Voigt Hill
#
# Bulk Modulus (GPa) = 14.93497 43.64078 29.28787
# Shear Modulus (GPa) = 10.16226 24.77610 17.46918
#
# Velocity S-wave (km/s) = 2.34283 3.65815 3.07172
# Velocity P-wave (km/s) = 3.92238 6.43537 5.32912
#
# Compressibility (1/GPa) = 0.06695697
#
# Stress axis : x y z
#
# Youngs Moduli (GPa) = 63.75544 6.06452 38.82113
#
# Poissons Ratio (x) = 0.17925 -0.13105
# Poissons Ratio (y) = 1.88441 1.68907
# Poissons Ratio (z) = -0.21522 0.26386
#
# Static dielectric constant tensor:
#      x y z
#    x 1.630940 0.000000 0.005490 
#    y 0.000000 1.627420 0.000000 
#    z 0.005490 0.000000 1.632520 
# 
# From -- ./inp_files/230861.got.cif
#   From: 2010.05.17/outbox.cif.g08.bks.cpg/sg12_116_cif.got.tgz:230861.got - 2010.06.03 13:09:07.
