data_PCOD9203786
_publ_section_title
;
Structure prediction by ZEFSAII (Michael W. Deem and Ramdas Pophale) SiO2 
 PCOD9203786
Probable space group: C 2/M
;
_chemical_formula_sum "Si O2"
_cell_formula_units_Z 64
_cell_length_a 19.257651
_cell_length_b 8.658099
_cell_length_c 31.011205
_cell_angle_alpha 90.000000
_cell_angle_beta 38.712595
_cell_angle_gamma 90.000000
_cell_volume 3233.793159
_symmetry_space_group_name_H-M "C 2/M"
_symmetry_group_IT_number 12
_symmetry_cell_setting 'monoclinic'
loop_
_space_group_symop_operation_xyz
x,y,z
-x,y,-z
-x,-y,-z
x,-y,z
1/2+x,1/2+y,z
1/2-x,1/2+y,-z
1/2-x,1/2-y,-z
1/2+x,1/2-y,z
loop_
_atom_site_type_symbol
_atom_site_label
_atom_site_fract_x
_atom_site_fract_y
_atom_site_fract_z
Si Si1 0.257518 0.680475 0.708351
Si Si2 0.873508 0.188179 0.063255
Si Si3 0.029412 0.817369 0.791419
Si Si4 0.527570 0.821999 0.699881
Si Si5 0.790230 0.313962 0.934605
Si Si6 0.625614 0.315008 0.564145
Si Si7 0.530359 0.184764 0.436342
Si Si8 0.717313 0.821670 0.214639
O O1 0.256757 0.500000 0.699176
O O2 0.134182 0.748246 0.765724
O O3 0.344158 0.764874 0.635068
O O4 0.299124 0.714924 0.736386
O O5 0.796950 0.236618 0.060265
O O6 0.815850 0.232094 0.136027
O O7 0.873876 0.000000 0.062525
O O8 0.000000 0.241958 0.000000
O O9 0.052476 0.774026 0.730454
O O10 0.913011 0.744480 0.862883
O O11 0.023876 0.000000 0.799858
O O12 0.576499 0.751770 0.632499
O O13 0.394613 0.823282 0.758894
O O14 0.564811 0.000000 0.686961
O O15 0.791377 0.500000 0.935076
O O16 0.750000 0.250000 0.000000
O O17 0.626513 0.500000 0.564982
O O18 0.750000 0.250000 0.500000
O O19 0.550575 0.259840 0.560124
O O20 0.500000 0.228854 0.500000
O O21 0.520647 0.000000 0.436931
O O22 0.736756 0.000000 0.219530
#
# Coordination Sequence:
#
# PCOD9203786 Si02
#       8
#     8   8   8   8   8   8   8   8
#     4  12  26  43  66  97 133 169 216 271 327 392
#     4   9  19  37  63  93 125 166 212 258 314 383
#     4  12  26  44  67  94 129 175 224 272 329 390
#     4  11  22  42  69  96 130 168 214 274 330 385
#     4  11  23  42  64  94 133 173 218 269 328 390
#     4  12  26  44  68  98 133 173 220 269 325 388
#     4  11  25  46  69  95 132 172 218 270 326 391
#     4  10  20  39  67  94 128 169 213 264 324 386
#
# _framework density 19.791
#
# number of rings (size 3 to 8) (size 9 to 14) (size 15 to 20)
#    0.000    1.000    2.500    4.500    3.500    1.500 
#    0.000    0.000    0.000    1.875    0.000    0.000 
#    0.000    0.000    0.000    0.000    0.000    0.000 
#
# Total GULP energy -178961.562633 kJ/mol
# GULP energy per Si atom -5592.548832 kJ/mol
# Density = 1.974595 g / cm^3
# Si number density = 19.791000 Si / 1000 Ang^3
#
#
#
# Elastic Constant Matrix: (Units=GPa)
#
#
# Indices 1 2 3 4 5 6 
#
# 1 45.4190 4.0097 5.6868 -0.0002 -6.2874 -0.0004
# 2 4.0097 64.3697 16.9422 -0.0004 -0.6457 -0.0030
# 3 5.6868 16.9422 110.6284 -0.0001 -1.8909 -0.0002
# 4 -0.0002 -0.0004 -0.0001 31.2009 0.0000 -1.1668
# 5 -6.2874 -0.6457 -1.8909 0.0000 38.4686 -0.0002
# 6 -0.0004 -0.0030 -0.0002 -1.1668 -0.0002 28.0047
#
#
#
# Elastic Compliance Matrix: (Units=1/GPa)
#
#
# Indices 1 2 3 4 5 6 
#
# 1 0.022740 -0.001134 -0.000933 0.000000 0.003652 0.000000
# 2 -0.001134 0.016245 -0.002430 0.000000 -0.000032 0.000002
# 3 -0.000933 -0.002430 0.009464 0.000000 0.000272 0.000000
# 4 0.000000 0.000000 0.000000 0.032100 0.000000 0.001337
# 5 0.003652 -0.000032 0.000272 0.000000 0.026605 0.000000
# 6 0.000000 0.000002 0.000000 0.001337 0.000000 0.035764
#
#
# Mechanical properties :
#
#
# Convention : Reuss Voigt Hill
#
# Bulk Modulus (GPa) = 25.34572 30.41051 27.87812
# Shear Modulus (GPa) = 30.29122 32.45337 31.37230
#
# Velocity S-wave (km/s) = 3.91648 4.05384 3.98575
# Velocity P-wave (km/s) = 5.76942 6.10825 5.94125
#
# Compressibility (1/GPa) = 0.03945439
#
# Stress axis : x y z
#
# Youngs Moduli (GPa) = 43.97597 61.55657 105.66321
#
# Poissons Ratio (x) = 0.06983 0.09856
# Poissons Ratio (y) = 0.04989 0.25677
# Poissons Ratio (z) = 0.04102 0.14959
#
# Static dielectric constant tensor:
#      x y z
#    x 1.684470 0.000000 -0.004830 
#    y 0.000000 1.672810 0.000000 
#    z -0.004830 0.000000 1.680080 
# 
# From -- ./inp_files/378144.got.cif
#   From: 2010.05.17/outbox.cif.g08.bks.cpg/sg12_190_cif.got.tgz:378144.got - 2010.06.03 13:09:07.
