data_PCOD9203915
_publ_section_title
;
Structure prediction by ZEFSAII (Michael W. Deem and Ramdas Pophale) SiO2 
 PCOD9203915
Probable space group: C 2/M
;
_chemical_formula_sum "Si O2"
_cell_formula_units_Z 48
_cell_length_a 19.420922
_cell_length_b 9.363992
_cell_length_c 25.168130
_cell_angle_alpha 90.000000
_cell_angle_beta 150.584569
_cell_angle_gamma 90.000000
_cell_volume 2247.945063
_symmetry_space_group_name_H-M "C 2/M"
_symmetry_group_IT_number 12
_symmetry_cell_setting 'monoclinic'
loop_
_space_group_symop_operation_xyz
x,y,z
-x,y,-z
-x,-y,-z
x,-y,z
1/2+x,1/2+y,z
1/2-x,1/2+y,-z
1/2-x,1/2-y,-z
1/2+x,1/2-y,z
loop_
_atom_site_type_symbol
_atom_site_label
_atom_site_fract_x
_atom_site_fract_y
_atom_site_fract_z
Si Si1 0.668781 0.169430 0.113809
Si Si2 0.924609 0.663874 0.571781
Si Si3 0.090406 0.835155 0.334128
Si Si4 0.896454 0.335283 0.759403
Si Si5 0.187436 0.335017 0.007113
Si Si6 0.805688 0.331020 0.304739
O O1 0.735544 0.266125 0.204290
O O2 0.700047 0.000000 0.143594
O O3 0.500000 0.183043 0.000000
O O4 0.720293 0.211320 0.089212
O O5 0.950156 0.500000 0.606654
O O6 0.956322 0.770287 0.641317
O O7 0.760668 0.674820 0.448587
O O8 0.028471 0.690067 0.592691
O O9 0.045594 0.741655 0.254047
O O10 0.050214 0.000000 0.301887
O O11 0.863531 0.500000 0.725889
O O12 0.764019 0.251846 0.693563
O O13 0.019196 0.330281 0.885750
O O14 0.230015 0.500000 0.030741
O O15 0.250000 0.250000 0.000000
O O16 0.777827 0.500000 0.291072
#
# Coordination Sequence:
#
# PCOD9203915 Si02
#       6
#     8   8   8   8   8   8
#     4  10  20  40  61  81 115 156 192 233 287 340
#     4   9  21  41  61  86 120 153 188 237 295 345
#     4  10  21  39  63  88 116 152 194 239 286 345
#     4  11  23  41  60  84 120 156 191 239 293 342
#     4  10  23  40  59  83 116 154 191 236 288 341
#     4  11  23  38  60  89 117 152 196 240 287 342
#
# _framework density 21.352834000000001
#
# number of rings (size 3 to 8) (size 9 to 14) (size 15 to 20)
#    0.000    1.833    1.667    1.500    2.333    5.000 
#    0.000    3.333    0.000    0.000    0.000    0.000 
#    0.000    0.000    0.000    0.000    0.000    0.000 
#
# Total GULP energy -134194.808562 kJ/mol
# GULP energy per Si atom -5591.450357 kJ/mol
# Density = 2.130423 g / cm^3
# Si number density = 21.352834 Si / 1000 Ang^3
#
#
#
# Elastic Constant Matrix: (Units=GPa)
#
#
# Indices 1 2 3 4 5 6 
#
# 1 101.1691 43.1739 -2.2647 0.0001 0.3390 0.0000
# 2 43.1739 92.9098 16.7677 0.0000 -4.9545 0.0000
# 3 -2.2647 16.7677 37.0815 0.0000 4.0763 0.0000
# 4 0.0001 0.0000 0.0000 23.3501 -0.0001 -1.3557
# 5 0.3390 -4.9545 4.0763 -0.0001 36.9625 0.0000
# 6 0.0000 0.0000 0.0000 -1.3557 0.0000 39.0965
#
#
#
# Elastic Compliance Matrix: (Units=1/GPa)
#
#
# Indices 1 2 3 4 5 6 
#
# 1 0.012875 -0.006786 0.004017 0.000000 -0.001471 0.000000
# 2 -0.006786 0.015473 -0.007740 0.000000 0.002990 0.000000
# 3 0.004017 -0.007740 0.031209 0.000000 -0.004516 0.000000
# 4 0.000000 0.000000 0.000000 0.042913 0.000000 0.001488
# 5 -0.001471 0.002990 -0.004516 0.000000 0.027967 0.000000
# 6 0.000000 0.000000 0.000000 0.001488 0.000000 0.025629
#
#
# Mechanical properties :
#
#
# Convention : Reuss Voigt Hill
#
# Bulk Modulus (GPa) = 25.94797 38.50156 32.22477
# Shear Modulus (GPa) = 26.32532 31.44738 28.88635
#
# Velocity S-wave (km/s) = 3.51504 3.84181 3.68205
# Velocity P-wave (km/s) = 5.35279 6.14407 5.76203
#
# Compressibility (1/GPa) = 0.03853866
#
# Stress axis : x y z
#
# Youngs Moduli (GPa) = 77.66788 64.62922 32.04187
#
# Poissons Ratio (x) = 0.43859 -0.12870
# Poissons Ratio (y) = 0.52708 0.24800
# Poissons Ratio (z) = -0.31197 0.50021
#
# Static dielectric constant tensor:
#      x y z
#    x 1.764380 0.000000 0.032710 
#    y 0.000000 1.717370 0.000000 
#    z 0.032710 0.000000 1.810220 
# 
# From -- ./inp_files/221654.got.cif
#   From: 2010.05.17/outbox.cif.g08.bks.cpg/sg12_111_cif.got.tgz:221654.got - 2010.06.03 13:09:07.
