data_PCOD9203779
_publ_section_title
;
Structure prediction by ZEFSAII (Michael W. Deem and Ramdas Pophale) SiO2 
 PCOD9203779
Probable space group: C 2/M
;
_chemical_formula_sum "Si O2"
_cell_formula_units_Z 40
_cell_length_a 17.244232
_cell_length_b 23.201288
_cell_length_c 7.630484
_cell_angle_alpha 90.000000
_cell_angle_beta 36.332581
_cell_angle_gamma 90.000000
_cell_volume 1808.736937
_symmetry_space_group_name_H-M "C 2/M"
_symmetry_group_IT_number 12
_symmetry_cell_setting 'monoclinic'
loop_
_space_group_symop_operation_xyz
x,y,z
-x,y,-z
-x,-y,-z
x,-y,z
1/2+x,1/2+y,z
1/2-x,1/2+y,-z
1/2-x,1/2-y,-z
1/2+x,1/2-y,z
loop_
_atom_site_type_symbol
_atom_site_label
_atom_site_fract_x
_atom_site_fract_y
_atom_site_fract_z
Si Si1 0.967208 0.432666 0.361892
Si Si2 0.723345 0.615094 0.898730
Si Si3 0.762692 0.569490 0.227315
Si Si4 0.861254 0.733422 0.660259
Si Si5 0.944240 0.156653 0.287721
O O1 0.995259 0.500000 0.316443
O O2 0.811897 0.427421 0.619793
O O3 0.000000 0.410422 0.500000
O O4 0.085072 0.411652 0.023651
O O5 0.803881 0.673143 0.700449
O O6 0.733199 0.590481 0.079780
O O7 0.571836 0.629512 0.149065
O O8 0.744607 0.500000 0.276838
O O9 0.664285 0.606802 0.522677
O O10 0.000000 0.723975 0.500000
O O11 0.884425 0.787393 0.490795
O O12 0.750000 0.750000 0.000000
O O13 0.000000 0.174981 0.000000
#
# Coordination Sequence:
#
# PCOD9203779 Si02
#       5
#     8   8   8   8   8
#     4   8  16  32  60  95 118 145 199 260 306 348
#     4  11  21  38  66  90 121 158 207 265 304 357
#     4  10  20  39  67  94 121 159 210 260 304 362
#     4  12  22  42  68  92 118 156 210 263 304 360
#     4  12  27  42  56  90 133 167 203 248 314 377
#
# _framework density 22.114879999999999
#
# number of rings (size 3 to 8) (size 9 to 14) (size 15 to 20)
#    0.000    1.400    4.000    4.200    0.000    3.600 
#    0.000    1.000    0.000    2.400    0.000    0.000 
#    0.000    0.000    0.000    0.000    0.000    0.000 
#
# Total GULP energy -111423.075612 kJ/mol
# GULP energy per Si atom -5571.153781 kJ/mol
# Density = 2.206455 g / cm^3
# Si number density = 22.114880 Si / 1000 Ang^3
#
#
#
# Elastic Constant Matrix: (Units=GPa)
#
#
# Indices 1 2 3 4 5 6 
#
# 1 40.0277 3.0896 20.9195 0.0000 -3.8926 0.0000
# 2 3.0896 100.6131 47.7434 0.0000 5.9027 0.0000
# 3 20.9195 47.7434 179.6289 0.0000 -8.1189 0.0000
# 4 0.0000 0.0000 0.0000 42.8564 0.0000 -7.9122
# 5 -3.8926 5.9027 -8.1189 0.0000 21.9948 0.0000
# 6 0.0000 0.0000 0.0000 -7.9122 0.0000 3.8889
#
#
#
# Elastic Compliance Matrix: (Units=1/GPa)
#
#
# Indices 1 2 3 4 5 6 
#
# 1 0.026905 0.000435 -0.003091 0.000000 0.003504 0.000000
# 2 0.000435 0.011783 -0.003378 0.000000 -0.004332 0.000000
# 3 -0.003091 -0.003378 0.006957 0.000000 0.002928 0.000000
# 4 0.000000 0.000000 0.000000 0.037371 0.000000 0.076033
# 5 0.003504 -0.004332 0.002928 0.000000 0.048329 0.000000
# 6 0.000000 0.000000 0.000000 0.076033 0.000000 0.411835
#
#
# Mechanical properties :
#
#
# Convention : Reuss Voigt Hill
#
# Bulk Modulus (GPa) = 29.78209 51.53052 40.65630
# Shear Modulus (GPa) = 8.82705 30.31582 19.57144
#
# Velocity S-wave (km/s) = 2.00003 3.70649 2.97810
# Velocity P-wave (km/s) = 4.33932 6.45518 5.49996
#
# Compressibility (1/GPa) = 0.03357723
#
# Stress axis : x y z
#
# Youngs Moduli (GPa) = 37.16769 84.86858 143.73651
#
# Poissons Ratio (x) = -0.03690 0.44422
# Poissons Ratio (y) = -0.01616 0.48557
# Poissons Ratio (z) = 0.11487 0.28670
#
# Static dielectric constant tensor:
#      x y z
#    x 1.922010 0.000000 -0.013840 
#    y 0.000000 2.130950 0.000000 
#    z -0.013840 0.000000 1.865890 
# 
# From -- ./inp_files/90540.got.cif
#   From: 2010.05.17/outbox.cif.g08.bks.cpg/sg12_46_cif.got.tgz:90540.got - 2010.06.03 13:09:07.
