data_PCOD9203653
_publ_section_title
;
Structure prediction by ZEFSAII (Michael W. Deem and Ramdas Pophale) SiO2 
 PCOD9203653
Probable space group: C 2/M
;
_chemical_formula_sum "Si O2"
_cell_formula_units_Z 40
_cell_length_a 12.285088
_cell_length_b 21.615553
_cell_length_c 10.732086
_cell_angle_alpha 90.000000
_cell_angle_beta 43.109832
_cell_angle_gamma 90.000000
_cell_volume 1947.615148
_symmetry_space_group_name_H-M "C 2/M"
_symmetry_group_IT_number 12
_symmetry_cell_setting 'monoclinic'
loop_
_space_group_symop_operation_xyz
x,y,z
-x,y,-z
-x,-y,-z
x,-y,z
1/2+x,1/2+y,z
1/2-x,1/2+y,-z
1/2-x,1/2-y,-z
1/2+x,1/2-y,z
loop_
_atom_site_type_symbol
_atom_site_label
_atom_site_fract_x
_atom_site_fract_y
_atom_site_fract_z
Si Si1 0.456648 0.700779 0.396862
Si Si2 0.071110 0.567584 0.078139
Si Si3 0.773102 0.071425 0.272243
Si Si4 0.607823 0.395413 0.096801
Si Si5 0.892051 0.339335 0.403006
O O1 0.500000 0.680068 0.500000
O O2 0.563537 0.668807 0.200713
O O3 0.275640 0.680241 0.520101
O O4 0.469343 0.774796 0.378764
O O5 0.024738 0.500000 0.169156
O O6 0.999622 0.622877 0.217865
O O7 0.262125 0.572390 0.924234
O O8 0.000000 0.571581 0.000000
O O9 0.652557 0.114038 0.448604
O O10 0.938610 0.071824 0.212633
O O11 0.724940 0.000000 0.293078
O O12 0.812621 0.103323 0.106778
#
# Coordination Sequence:
#
# PCOD9203653 Si02
#       5
#     8   8   8   8   8
#     4  10  22  42  60  82 122 159 206 239 287 358
#     4  11  23  39  59  89 122 154 196 245 302 356
#     4  10  20  39  65  91 120 153 198 248 297 354
#     4  10  21  38  61  90 119 158 195 245 295 354
#     4  10  23  40  59  91 117 158 199 246 298 348
#
# _framework density 20.537938
#
# number of rings (size 3 to 8) (size 9 to 14) (size 15 to 20)
#    0.000    1.800    0.000    4.200    2.800    0.800 
#   10.800    2.000    0.000   12.600    0.000    0.000 
#    0.000    0.000    0.000    0.000    0.000    0.000 
#
# Total GULP energy -111688.051635 kJ/mol
# GULP energy per Si atom -5584.402582 kJ/mol
# Density = 2.049119 g / cm^3
# Si number density = 20.537938 Si / 1000 Ang^3
#
#
#
# Elastic Constant Matrix: (Units=GPa)
#
#
# Indices 1 2 3 4 5 6 
#
# 1 129.2677 41.5551 28.7397 0.0000 -3.7890 0.0000
# 2 41.5551 154.4323 70.3044 0.0000 18.9138 0.0000
# 3 28.7397 70.3044 58.3985 0.0000 10.5809 0.0000
# 4 0.0000 0.0000 0.0000 31.3456 0.0000 11.4632
# 5 -3.7890 18.9138 10.5809 0.0000 25.2060 0.0000
# 6 0.0000 0.0000 0.0000 11.4632 0.0000 19.7165
#
#
#
# Elastic Compliance Matrix: (Units=1/GPa)
#
#
# Indices 1 2 3 4 5 6 
#
# 1 0.009061 -0.001242 -0.003658 0.000000 0.003829 0.000000
# 2 -0.001242 0.014842 -0.016457 0.000000 -0.004416 0.000000
# 3 -0.003658 -0.016457 0.039611 0.000000 -0.004829 0.000000
# 4 0.000000 0.000000 0.000000 0.040517 0.000000 -0.023557
# 5 0.003829 -0.004416 -0.004829 0.000000 0.045589 0.000000
# 6 0.000000 0.000000 0.000000 -0.023557 0.000000 0.064415
#
#
# Mechanical properties :
#
#
# Convention : Reuss Voigt Hill
#
# Bulk Modulus (GPa) = 48.07583 69.25520 58.66551
# Shear Modulus (GPa) = 18.96224 28.68689 23.82457
#
# Velocity S-wave (km/s) = 3.04185 3.74140 3.40961
# Velocity P-wave (km/s) = 5.98299 7.24278 6.64282
#
# Compressibility (1/GPa) = 0.02080047
#
# Stress axis : x y z
#
# Youngs Moduli (GPa) = 110.36855 67.37523 25.24556
#
# Poissons Ratio (x) = 0.08367 0.09234
# Poissons Ratio (y) = 0.13706 0.41547
# Poissons Ratio (z) = 0.40370 1.10880
#
# Static dielectric constant tensor:
#      x y z
#    x 1.760760 0.000000 -0.023900 
#    y 0.000000 1.707250 0.000000 
#    z -0.023900 0.000000 1.705380 
# 
# From -- ./inp_files/133641.got.cif
#   From: 2010.05.17/outbox.cif.g08.bks.cpg/sg12_67_cif.got.tgz:133641.got - 2010.06.03 13:09:07.
