data_PCOD9203498
_publ_section_title
;
Structure prediction by ZEFSAII (Michael W. Deem and Ramdas Pophale) SiO2 
 PCOD9203498
Probable space group: C 2/M
;
_chemical_formula_sum "Si O2"
_cell_formula_units_Z 42
_cell_length_a 19.231117
_cell_length_b 13.140474
_cell_length_c 10.075278
_cell_angle_alpha 90.000000
_cell_angle_beta 136.018266
_cell_angle_gamma 90.000000
_cell_volume 1768.073984
_symmetry_space_group_name_H-M "C 2/M"
_symmetry_group_IT_number 12
_symmetry_cell_setting 'monoclinic'
loop_
_space_group_symop_operation_xyz
x,y,z
-x,y,-z
-x,-y,-z
x,-y,z
1/2+x,1/2+y,z
1/2-x,1/2+y,-z
1/2-x,1/2-y,-z
1/2+x,1/2-y,z
loop_
_atom_site_type_symbol
_atom_site_label
_atom_site_fract_x
_atom_site_fract_y
_atom_site_fract_z
Si Si1 0.000000 0.000000 0.500000
Si Si2 0.995033 0.291486 0.839118
Si Si3 0.821335 0.500000 0.198219
Si Si4 0.165792 0.883106 0.354272
Si Si5 0.306963 0.392276 0.317139
Si Si6 0.790499 0.193182 0.878866
Si Si7 0.533433 0.000000 0.348716
O O1 0.924773 0.914126 0.462658
O O2 0.958937 0.391806 0.714462
O O3 0.919502 0.197566 0.730004
O O4 0.101182 0.241935 0.942909
O O5 0.000000 0.321528 0.000000
O O6 0.749768 0.598238 0.093728
O O7 0.917938 0.500000 0.238036
O O8 0.880764 0.500000 0.421475
O O9 0.227994 0.882992 0.576906
O O10 0.208978 0.847457 0.273254
O O11 0.130261 0.000000 0.289066
O O12 0.261034 0.500000 0.203691
O O13 0.282104 0.288787 0.212108
#
# Coordination Sequence:
#
# PCOD9203498 Si02
#       7
#     2   8   4   8   8   8   4
#     4   8  20  36  56  90 112 162 206 256 310 354
#     4  10  24  41  68  93 127 170 206 273 323 383
#     4  11  26  43  67  91 131 176 210 264 313 398
#     4  10  20  39  63  91 124 166 209 262 321 377
#     4   9  20  37  60  94 120 165 213 265 306 372
#     4  11  22  39  64  95 124 161 216 265 317 377
#     4  11  25  47  60  93 134 173 212 254 336 385
#
# _framework density 23.754662
#
# number of rings (size 3 to 8) (size 9 to 14) (size 15 to 20)
#    0.571    1.333    0.952    2.000    2.667    6.476 
#    1.714    1.905    0.000    0.000    0.000    0.000 
#    0.000    0.000    0.000    0.000    0.000    0.000 
#
# Total GULP energy -117055.885428 kJ/mol
# GULP energy per Si atom -5574.089782 kJ/mol
# Density = 2.370060 g / cm^3
# Si number density = 23.754662 Si / 1000 Ang^3
#
#
#
# Elastic Constant Matrix: (Units=GPa)
#
#
# Indices 1 2 3 4 5 6 
#
# 1 83.9821 42.4416 15.6160 0.0000 4.0684 0.0000
# 2 42.4416 158.9513 12.6319 0.0000 -21.7072 0.0000
# 3 15.6160 12.6319 32.7801 0.0000 -12.7292 0.0000
# 4 0.0000 0.0000 0.0000 5.6237 0.0000 -34.1559
# 5 4.0684 -21.7072 -12.7292 0.0000 20.5141 0.0000
# 6 0.0000 0.0000 0.0000 -34.1559 0.0000 -19.9515
#
#
#
# Elastic Compliance Matrix: (Units=1/GPa)
#
#
# Indices 1 2 3 4 5 6 
#
# 1 0.018708 -0.006517 -0.013859 0.000000 -0.019205 0.000000
# 2 -0.006517 0.009625 0.005075 0.000000 0.014627 0.000000
# 3 -0.013859 0.005075 0.050466 0.000000 0.039433 0.000000
# 4 0.000000 0.000000 0.000000 0.015601 0.000000 -0.026709
# 5 -0.019205 0.014627 0.039433 0.000000 0.092502 0.000000
# 6 0.000000 0.000000 0.000000 -0.026709 0.000000 -0.004398
#
#
# Mechanical properties :
#
#
# Convention : Reuss Voigt Hill
#
# Bulk Modulus (GPa) = 20.74765 46.34360 33.54562
# Shear Modulus (GPa) = 21.81770 14.90555 18.36162
#
# Velocity S-wave (km/s) = 3.03390 2.50767 2.78325
# Velocity P-wave (km/s) = 4.58539 5.28547 4.94783
#
# Compressibility (1/GPa) = 0.04819823
#
# Stress axis : x y z
#
# Youngs Moduli (GPa) = 53.45318 103.89140 19.81549
#
# Poissons Ratio (x) = 0.67702 0.27462
# Poissons Ratio (y) = 0.34834 -0.10057
# Poissons Ratio (z) = 0.74080 -0.52727
#
# Static dielectric constant tensor:
#      x y z
#    x 1.919680 0.000000 -0.029990 
#    y 0.000000 1.885450 0.000000 
#    z -0.029990 0.000000 1.974850 
# 
# From -- ./inp_files/165268.got.cif
#   From: 2010.05.17/outbox.cif.g08.bks.cpg/sg12_83_cif.got.tgz:165268.got - 2010.06.03 13:09:07.
