data_PCOD9203486
_publ_section_title
;
Structure prediction by ZEFSAII (Michael W. Deem and Ramdas Pophale) SiO2 
 PCOD9203486
Probable space group: C 2/M
;
_chemical_formula_sum "Si O2"
_cell_formula_units_Z 40
_cell_length_a 27.143647
_cell_length_b 10.455018
_cell_length_c 17.176763
_cell_angle_alpha 90.000000
_cell_angle_beta 157.373287
_cell_angle_gamma 90.000000
_cell_volume 1875.363744
_symmetry_space_group_name_H-M "C 2/M"
_symmetry_group_IT_number 12
_symmetry_cell_setting 'monoclinic'
loop_
_space_group_symop_operation_xyz
x,y,z
-x,y,-z
-x,-y,-z
x,-y,z
1/2+x,1/2+y,z
1/2-x,1/2+y,-z
1/2-x,1/2-y,-z
1/2+x,1/2-y,z
loop_
_atom_site_type_symbol
_atom_site_label
_atom_site_fract_x
_atom_site_fract_y
_atom_site_fract_z
Si Si1 0.443814 0.809285 0.838656
Si Si2 0.579979 0.148908 0.515492
Si Si3 0.639714 0.646841 0.025969
Si Si4 0.707265 0.134619 0.533279
Si Si5 0.627634 0.345235 0.827706
O O1 0.388236 0.871367 0.679076
O O2 0.315450 0.738637 0.679958
O O3 0.500000 0.868509 0.000000
O O4 0.558202 0.725761 0.968600
O O5 0.708752 0.175884 0.751856
O O6 0.628227 0.149892 0.496653
O O7 0.479891 0.264791 0.375903
O O8 0.535496 0.000000 0.465666
O O9 0.629145 0.500000 0.034261
O O10 0.592070 0.657578 0.867845
O O11 0.778812 0.000000 0.641671
O O12 0.644605 0.500000 0.833253
O O13 0.750000 0.250000 0.000000
#
# Coordination Sequence:
#
# PCOD9203486 Si02
#       5
#     8   8   8   8   8
#     4  11  20  34  56  86 124 159 202 240 287 349
#     4  10  20  39  63  90 120 157 203 249 296 353
#     4  10  21  37  61  89 121 158 202 244 293 354
#     4  10  21  34  54  84 121 162 202 243 290 347
#     4  11  24  44  66  90 118 154 198 251 309 362
#
# _framework density 21.329194999999999
#
# number of rings (size 3 to 8) (size 9 to 14) (size 15 to 20)
#    0.000    1.600    4.000    1.200    0.000    2.000 
#    0.000    7.000    0.000    0.000    0.000    0.000 
#    0.000    0.000    0.000    0.000    0.000    0.000 
#
# Total GULP energy -111342.153610 kJ/mol
# GULP energy per Si atom -5567.107680 kJ/mol
# Density = 2.128065 g / cm^3
# Si number density = 21.329195 Si / 1000 Ang^3
#
#
#
# Elastic Constant Matrix: (Units=GPa)
#
#
# Indices 1 2 3 4 5 6 
#
# 1 92.8205 28.7143 12.2181 0.0000 -12.1856 0.0000
# 2 28.7143 122.5372 67.2548 0.0000 20.7617 0.0000
# 3 12.2181 67.2548 104.6350 0.0000 -14.2668 0.0000
# 4 0.0000 0.0000 0.0000 26.1621 0.0000 18.4491
# 5 -12.1856 20.7617 -14.2668 0.0000 34.1298 0.0000
# 6 0.0000 0.0000 0.0000 18.4491 0.0000 28.9228
#
#
#
# Elastic Compliance Matrix: (Units=1/GPa)
#
#
# Indices 1 2 3 4 5 6 
#
# 1 0.014345 -0.008540 0.005537 0.000000 0.012631 0.000000
# 2 -0.008540 0.024513 -0.018247 0.000000 -0.025588 0.000000
# 3 0.005537 -0.018247 0.023777 0.000000 0.023016 0.000000
# 4 0.000000 0.000000 0.000000 0.069474 0.000000 -0.044315
# 5 0.012631 -0.025588 0.023016 0.000000 0.058997 0.000000
# 6 0.000000 0.000000 0.000000 -0.044315 0.000000 0.062842
#
#
# Mechanical properties :
#
#
# Convention : Reuss Voigt Hill
#
# Bulk Modulus (GPa) = 49.67045 59.59634 54.63340
# Shear Modulus (GPa) = 16.49291 31.96331 24.22811
#
# Velocity S-wave (km/s) = 2.78376 3.87534 3.37399
# Velocity P-wave (km/s) = 5.80263 6.93009 6.39127
#
# Compressibility (1/GPa) = 0.02013270
#
# Stress axis : x y z
#
# Youngs Moduli (GPa) = 69.71094 40.79526 42.05681
#
# Poissons Ratio (x) = 0.34841 -0.23285
# Poissons Ratio (y) = 0.59536 0.76743
# Poissons Ratio (z) = -0.38596 0.74441
#
# Static dielectric constant tensor:
#      x y z
#    x 1.765290 0.000000 -0.014670 
#    y 0.000000 1.935690 0.000000 
#    z -0.014670 0.000000 1.801520 
# 
# From -- ./inp_files/140396.got.cif
#   From: 2010.05.17/outbox.cif.g08.bks.cpg/sg12_71_cif.got.tgz:140396.got - 2010.06.03 13:09:07.
