data_PCOD9203102
_publ_section_title
;
Structure prediction by ZEFSAII (Michael W. Deem and Ramdas Pophale) SiO2 
 PCOD9203102
Probable space group: C 2/M
;
_chemical_formula_sum "Si O2"
_cell_formula_units_Z 56
_cell_length_a 18.144112
_cell_length_b 27.207587
_cell_length_c 5.138929
_cell_angle_alpha 90.000000
_cell_angle_beta 106.236037
_cell_angle_gamma 90.000000
_cell_volume 2435.695440
_symmetry_space_group_name_H-M "C 2/M"
_symmetry_group_IT_number 12
_symmetry_cell_setting 'monoclinic'
loop_
_space_group_symop_operation_xyz
x,y,z
-x,y,-z
-x,-y,-z
x,-y,z
1/2+x,1/2+y,z
1/2-x,1/2+y,-z
1/2-x,1/2-y,-z
1/2+x,1/2-y,z
loop_
_atom_site_type_symbol
_atom_site_label
_atom_site_fract_x
_atom_site_fract_y
_atom_site_fract_z
Si Si1 0.694722 0.746848 0.695146
Si Si2 0.306891 0.641253 0.457573
Si Si3 0.124782 0.000000 0.620304
Si Si4 0.954296 0.094955 0.691629
Si Si5 0.643669 0.149631 0.597013
Si Si6 0.426065 0.055076 0.738477
Si Si7 0.792590 0.418898 0.971271
Si Si8 0.724598 0.500000 0.227727
O O1 0.750000 0.750000 0.500000
O O2 0.666558 0.691082 0.654277
O O3 0.633291 0.791465 0.609319
O O4 0.750000 0.750000 0.000000
O O5 0.377281 0.623655 0.698670
O O6 0.225870 0.646213 0.527776
O O7 0.286240 0.599292 0.229270
O O8 0.075703 0.953642 0.481957
O O9 0.197243 0.000000 0.493899
O O10 0.154288 0.000000 0.947258
O O11 0.000000 0.121372 0.500000
O O12 0.000000 0.085021 0.000000
O O13 0.586269 0.106963 0.431230
O O14 0.662728 0.130215 0.902638
O O15 0.431575 0.000000 0.614790
O O16 0.500000 0.059494 0.000000
O O17 0.349841 0.053630 0.838659
O O18 0.773997 0.452543 0.199400
#
# Coordination Sequence:
#
# PCOD9203102 Si02
#       8
#     8   8   4   8   8   8   8   4
#     4  10  20  38  66  99 125 160 211 270 329 375
#     4  10  22  40  63  90 126 161 213 270 319 374
#     4  12  24  43  60  88 128 167 212 269 310 374
#     4  12  26  41  61  87 129 174 213 255 317 382
#     4  10  22  38  67  94 123 166 214 273 319 387
#     4  10  23  41  59  90 135 177 215 260 324 399
#     4  11  21  36  63  94 123 165 210 268 319 379
#     4  12  24  35  65  95 125 160 212 271 315 360
#
# _framework density 22.991382000000002
#
# number of rings (size 3 to 8) (size 9 to 14) (size 15 to 20)
#    0.000    1.286    3.571    2.143    5.000    0.571 
#    0.000    2.143    3.143    0.000    0.000    0.000 
#    0.000    0.000    0.000    0.000    0.000    0.000 
#
# Total GULP energy -156245.915447 kJ/mol
# GULP energy per Si atom -5580.211266 kJ/mol
# Density = 2.293905 g / cm^3
# Si number density = 22.991382 Si / 1000 Ang^3
#
#
#
# Elastic Constant Matrix: (Units=GPa)
#
#
# Indices 1 2 3 4 5 6 
#
# 1 67.4259 24.4405 20.1882 0.0000 4.7659 0.0000
# 2 24.4405 162.6254 37.9109 0.0000 25.1487 0.0000
# 3 20.1882 37.9109 115.3958 0.0000 23.6555 0.0000
# 4 0.0000 0.0000 0.0000 23.1205 0.0000 2.3662
# 5 4.7659 25.1487 23.6555 0.0000 42.0004 0.0000
# 6 0.0000 0.0000 0.0000 2.3662 0.0000 16.1775
#
#
#
# Elastic Compliance Matrix: (Units=1/GPa)
#
#
# Indices 1 2 3 4 5 6 
#
# 1 0.016201 -0.001998 -0.002314 0.000000 0.000661 0.000000
# 2 -0.001998 0.007286 -0.001353 0.000000 -0.003374 0.000000
# 3 -0.002314 -0.001353 0.010508 0.000000 -0.004846 0.000000
# 4 0.000000 0.000000 0.000000 0.043909 0.000000 -0.006422
# 5 0.000661 -0.003374 -0.004846 0.000000 0.028484 0.000000
# 6 0.000000 0.000000 0.000000 -0.006422 0.000000 0.062753
#
#
# Mechanical properties :
#
#
# Convention : Reuss Voigt Hill
#
# Bulk Modulus (GPa) = 44.11418 56.72516 50.41967
# Shear Modulus (GPa) = 26.59200 33.78685 30.18943
#
# Velocity S-wave (km/s) = 3.40458 3.83762 3.62757
# Velocity P-wave (km/s) = 5.88930 6.66051 6.28674
#
# Compressibility (1/GPa) = 0.02266845
#
# Stress axis : x y z
#
# Youngs Moduli (GPa) = 61.72375 137.24067 95.16223
#
# Poissons Ratio (x) = 0.27416 0.22016
# Poissons Ratio (y) = 0.12331 0.12872
# Poissons Ratio (z) = 0.14280 0.18563
#
# Static dielectric constant tensor:
#      x y z
#    x 1.895120 0.000000 0.003280 
#    y 0.000000 1.945860 0.000000 
#    z 0.003280 0.000000 1.887140 
# 
# From -- ./inp_files/18405.got.cif
#   From: 2010.05.17/outbox.cif.g08.bks.cpg/sg12_10_cif.got.tgz:18405.got - 2010.06.03 13:09:07.
