data_PCOD9203196
_publ_section_title
;
Structure prediction by ZEFSAII (Michael W. Deem and Ramdas Pophale) SiO2 
 PCOD9203196
Probable space group: C 2/M
;
_chemical_formula_sum "Si O2"
_cell_formula_units_Z 56
_cell_length_a 11.884320
_cell_length_b 22.515304
_cell_length_c 23.703069
_cell_angle_alpha 90.000000
_cell_angle_beta 29.606126
_cell_angle_gamma 90.000000
_cell_volume 3133.388900
_symmetry_space_group_name_H-M "C 2/M"
_symmetry_group_IT_number 12
_symmetry_cell_setting 'monoclinic'
loop_
_space_group_symop_operation_xyz
x,y,z
-x,y,-z
-x,-y,-z
x,-y,z
1/2+x,1/2+y,z
1/2-x,1/2+y,-z
1/2-x,1/2-y,-z
1/2+x,1/2-y,z
loop_
_atom_site_type_symbol
_atom_site_label
_atom_site_fract_x
_atom_site_fract_y
_atom_site_fract_z
Si Si1 0.010585 0.824841 0.141855
Si Si2 0.227500 0.406332 0.457352
Si Si3 0.440461 0.171808 0.732764
Si Si4 0.813528 0.065909 0.296829
Si Si5 0.286283 0.766462 0.551219
Si Si6 0.786163 0.067739 0.552979
Si Si7 0.732524 0.292302 0.930731
O O1 0.108937 0.765436 0.128295
O O2 0.760430 0.817713 0.224144
O O3 0.966082 0.882554 0.201000
O O4 0.171304 0.825764 0.015732
O O5 0.337149 0.434446 0.354209
O O6 0.226370 0.336878 0.444574
O O7 0.358282 0.422658 0.456889
O O8 0.962364 0.423330 0.585810
O O9 0.584170 0.231748 0.668937
O O10 0.595641 0.116670 0.648139
O O11 0.346135 0.163829 0.836481
O O12 0.862076 0.000000 0.252490
O O13 0.500000 0.751308 0.500000
O O14 0.250000 0.750000 0.500000
O O15 0.000000 0.077600 0.500000
O O16 0.704955 0.000000 0.595515
O O17 0.500000 0.272279 0.000000
#
# Coordination Sequence:
#
# PCOD9203196 Si02
#       7
#     8   8   8   8   8   8   8
#     4  10  20  39  58  83 110 148 196 243 299 357
#     4  11  21  35  53  84 119 155 193 233 287 349
#     4  11  22  34  57  82 114 155 195 243 290 350
#     4  11  20  34  59  84 112 148 189 238 284 345
#     4  12  23  35  54  88 129 158 198 246 296 360
#     4  11  23  38  54  80 123 164 197 232 286 357
#     4   9  21  38  59  82 112 144 190 250 308 351
#
# _framework density 17.872022999999999
#
# number of rings (size 3 to 8) (size 9 to 14) (size 15 to 20)
#    0.000    1.286    4.286    3.000    2.000    0.000 
#    0.000    2.143    0.000    3.000    0.000    0.000 
#    0.000    0.000    0.000    0.000    0.000    0.000 
#
# Total GULP energy -155869.953455 kJ/mol
# GULP energy per Si atom -5566.784052 kJ/mol
# Density = 1.783135 g / cm^3
# Si number density = 17.872023 Si / 1000 Ang^3
#
#
#
# Elastic Constant Matrix: (Units=GPa)
#
#
# Indices 1 2 3 4 5 6 
#
# 1 123.5180 31.3048 43.1869 -0.0098 18.3114 -0.0009
# 2 31.3048 106.3214 51.9392 0.1814 3.1059 -0.0475
# 3 43.1869 51.9392 73.0344 -0.5849 13.8432 0.1573
# 4 -0.0098 0.1814 -0.5849 130.2898 0.1180 -28.5017
# 5 18.3114 3.1059 13.8432 0.1180 23.2558 -0.0182
# 6 -0.0009 -0.0475 0.1573 -28.5017 -0.0182 27.1680
#
#
#
# Elastic Compliance Matrix: (Units=1/GPa)
#
#
# Indices 1 2 3 4 5 6 
#
# 1 0.010778 -0.000625 -0.004887 -0.000013 -0.005493 0.000010
# 2 -0.000625 0.014922 -0.011225 -0.000072 0.005182 0.000019
# 3 -0.004887 -0.011225 0.026548 0.000136 -0.010456 -0.000038
# 4 -0.000013 -0.000072 0.000136 0.009962 -0.000103 0.010450
# 5 -0.005493 0.005182 -0.010456 -0.000103 0.052858 -0.000003
# 6 0.000010 0.000019 -0.000038 0.010450 -0.000003 0.047771
#
#
# Mechanical properties :
#
#
# Convention : Reuss Voigt Hill
#
# Bulk Modulus (GPa) = 53.26914 61.74840 57.50877
# Shear Modulus (GPa) = 24.68270 47.90556 36.29413
#
# Velocity S-wave (km/s) = 3.72032 5.18295 4.51131
# Velocity P-wave (km/s) = 6.95162 8.39301 7.70609
#
# Compressibility (1/GPa) = 0.01877260
#
# Stress axis : x y z
#
# Youngs Moduli (GPa) = 92.78470 67.01624 37.66791
#
# Poissons Ratio (x) = 0.04191 0.18409
# Poissons Ratio (y) = 0.05802 0.42281
# Poissons Ratio (z) = 0.45346 0.75224
#
# Static dielectric constant tensor:
#      x y z
#    x 1.687540 0.000050 0.016450 
#    y 0.000050 1.621920 -0.000030 
#    z 0.016450 -0.000030 1.628680 
# 
# From -- ./inp_files/336744.got.cif
#   From: 2010.05.17/outbox.cif.g08.bks.cpg/sg12_169_cif.got.tgz:336744.got - 2010.06.03 13:09:07.
