data_PCOD9203974
_publ_section_title
;
Structure prediction by ZEFSAII (Michael W. Deem and Ramdas Pophale) SiO2 
 PCOD9203974
Probable space group: C 2/M
;
_chemical_formula_sum "Si O2"
_cell_formula_units_Z 56
_cell_length_a 9.962337
_cell_length_b 14.912515
_cell_length_c 31.157099
_cell_angle_alpha 90.000000
_cell_angle_beta 143.468489
_cell_angle_gamma 90.000000
_cell_volume 2755.366250
_symmetry_space_group_name_H-M "C 2/M"
_symmetry_group_IT_number 12
_symmetry_cell_setting 'monoclinic'
loop_
_space_group_symop_operation_xyz
x,y,z
-x,y,-z
-x,-y,-z
x,-y,z
1/2+x,1/2+y,z
1/2-x,1/2+y,-z
1/2-x,1/2-y,-z
1/2+x,1/2-y,z
loop_
_atom_site_type_symbol
_atom_site_label
_atom_site_fract_x
_atom_site_fract_y
_atom_site_fract_z
Si Si1 0.512140 0.361176 0.193020
Si Si2 0.011602 0.645520 0.185438
Si Si3 0.493380 0.652102 0.712565
Si Si4 0.246716 0.107003 0.437174
Si Si5 0.110800 0.500000 0.075967
Si Si6 0.453393 0.603427 0.441007
Si Si7 0.731846 0.000000 0.930536
Si Si8 0.987243 0.633822 0.277942
O O1 0.475875 0.253651 0.176884
O O2 0.589350 0.376393 0.262112
O O3 0.283179 0.415508 0.125316
O O4 0.730129 0.391428 0.222177
O O5 0.834473 0.588675 0.113380
O O6 0.030202 0.613580 0.239301
O O7 0.248970 0.623077 0.224765
O O8 0.363958 0.621223 0.637485
O O9 0.497967 0.759259 0.713109
O O10 0.500000 0.143025 0.500000
O O11 0.094111 0.144261 0.437117
O O12 0.259848 0.000000 0.446791
O O13 0.915352 0.500000 0.062745
O O14 0.000000 0.500000 0.000000
O O15 0.500000 0.643903 0.500000
O O16 0.529393 0.500000 0.463745
O O17 0.190615 0.601303 0.360174
O O18 0.000000 0.000000 0.000000
#
# Coordination Sequence:
#
# PCOD9203974 Si02
#       8
#     8   8   8   8   4   8   4   8
#     4  10  24  42  67 101 134 170 208 273 329 381
#     4  10  22  44  69  98 132 166 224 268 315 383
#     4  10  20  40  62  92 122 166 218 268 318 383
#     4  10  22  37  57  83 118 165 213 267 322 378
#     4  12  28  48  68 104 139 170 211 259 328 394
#     4  10  22  38  54  83 123 163 210 268 324 378
#     4  12  28  46  74 102 129 178 220 252 317 399
#     4  10  22  38  64  92 124 164 216 266 326 374
#
# _framework density 20.323975999999998
#
# number of rings (size 3 to 8) (size 9 to 14) (size 15 to 20)
#    0.000    1.714    2.857    0.000    8.000    1.143 
#    0.000    2.857    0.000    0.000    0.000    0.000 
#    0.000    0.000    0.000    0.000    0.000    0.000 
#
# Total GULP energy -156240.853096 kJ/mol
# GULP energy per Si atom -5580.030468 kJ/mol
# Density = 2.027772 g / cm^3
# Si number density = 20.323976 Si / 1000 Ang^3
#
#
#
# Elastic Constant Matrix: (Units=GPa)
#
#
# Indices 1 2 3 4 5 6 
#
# 1 75.4588 19.7519 25.9665 0.0000 -7.9550 0.0000
# 2 19.7519 59.9770 30.1090 0.0000 -0.2180 0.0000
# 3 25.9665 30.1090 124.6758 -0.0001 -3.0829 0.0000
# 4 0.0000 0.0000 -0.0001 41.3150 0.0000 1.9327
# 5 -7.9550 -0.2180 -3.0829 0.0000 36.2578 0.0000
# 6 0.0000 0.0000 0.0000 1.9327 0.0000 12.8931
#
#
#
# Elastic Compliance Matrix: (Units=1/GPa)
#
#
# Indices 1 2 3 4 5 6 
#
# 1 0.015368 -0.003962 -0.002166 0.000000 0.003164 0.000000
# 2 -0.003962 0.019998 -0.004031 0.000000 -0.001092 0.000000
# 3 -0.002166 -0.004031 0.009453 0.000000 0.000304 0.000000
# 4 0.000000 0.000000 0.000000 0.024375 0.000000 -0.003654
# 5 0.003164 -0.001092 0.000304 0.000000 0.028294 0.000000
# 6 0.000000 0.000000 0.000000 -0.003654 0.000000 0.078108
#
#
# Mechanical properties :
#
#
# Convention : Reuss Voigt Hill
#
# Bulk Modulus (GPa) = 40.81572 45.75181 43.28377
# Shear Modulus (GPa) = 24.50003 30.37880 27.43942
#
# Velocity S-wave (km/s) = 3.47576 3.87036 3.67836
# Velocity P-wave (km/s) = 6.01947 6.52174 6.27563
#
# Compressibility (1/GPa) = 0.02450037
#
# Stress axis : x y z
#
# Youngs Moduli (GPa) = 65.06934 50.00577 105.78791
#
# Poissons Ratio (x) = 0.19815 0.22910
# Poissons Ratio (y) = 0.25783 0.42645
# Poissons Ratio (z) = 0.14092 0.20158
#
# Static dielectric constant tensor:
#      x y z
#    x 1.743620 0.000000 0.000860 
#    y 0.000000 1.760650 0.000000 
#    z 0.000860 0.000000 1.688640 
# 
# From -- ./inp_files/356777.got.cif
#   From: 2010.05.17/outbox.cif.g08.bks.cpg/sg12_179_cif.got.tgz:356777.got - 2010.06.03 13:09:07.
