data_PCOD9203617
_publ_section_title
;
Structure prediction by ZEFSAII (Michael W. Deem and Ramdas Pophale) SiO2 
 PCOD9203617
Probable space group: C 2/M
;
_chemical_formula_sum "Si O2"
_cell_formula_units_Z 36
_cell_length_a 12.313002
_cell_length_b 23.389974
_cell_length_c 7.518992
_cell_angle_alpha 90.000000
_cell_angle_beta 137.370357
_cell_angle_gamma 90.000000
_cell_volume 1466.582943
_symmetry_space_group_name_H-M "C 2/M"
_symmetry_group_IT_number 12
_symmetry_cell_setting 'monoclinic'
loop_
_space_group_symop_operation_xyz
x,y,z
-x,y,-z
-x,-y,-z
x,-y,z
1/2+x,1/2+y,z
1/2-x,1/2+y,-z
1/2-x,1/2-y,-z
1/2+x,1/2-y,z
loop_
_atom_site_type_symbol
_atom_site_label
_atom_site_fract_x
_atom_site_fract_y
_atom_site_fract_z
Si Si1 0.593777 0.500000 0.302818
Si Si2 0.289559 0.789844 0.880546
Si Si3 0.532416 0.877654 0.328061
Si Si4 0.500000 0.701570 0.000000
Si Si5 0.472661 0.000000 0.678565
Si Si6 0.881720 0.874632 0.574090
O O1 0.783173 0.500000 0.486371
O O2 0.563676 0.440563 0.370862
O O3 0.500000 0.500000 0.000000
O O4 0.347007 0.743069 0.806074
O O5 0.167590 0.836208 0.653690
O O6 0.250000 0.750000 0.000000
O O7 0.439875 0.827350 0.122716
O O8 0.500000 0.873992 0.500000
O O9 0.718692 0.875802 0.498805
O O10 0.463701 0.939246 0.178465
O O11 0.509004 0.660839 0.841672
O O12 0.500000 0.000000 0.500000
#
# Coordination Sequence:
#
# PCOD9203617 Si02
#       6
#     4   8   8   4   4   8
#     4  10  20  41  71 100 132 178 223 286 352 400
#     4  12  26  40  64  95 137 180 226 278 337 406
#     4  10  20  39  64  97 128 172 225 279 337 401
#     4  12  24  41  66  89 142 170 226 272 342 408
#     4   8  18  35  65  93 128 167 222 273 339 399
#     4  11  23  43  66  99 132 179 224 280 340 409
#
# _framework density 24.546856999999999
#
# number of rings (size 3 to 8) (size 9 to 14) (size 15 to 20)
#    0.000    1.333    3.333    2.000    3.111    0.889 
#    0.000    3.333    0.000    4.000    0.000    0.000 
#    0.000    0.000    0.000    0.000    0.000    0.000 
#
# Total GULP energy -100628.317360 kJ/mol
# GULP energy per Si atom -5590.462076 kJ/mol
# Density = 2.449099 g / cm^3
# Si number density = 24.546857 Si / 1000 Ang^3
#
#
#
# Elastic Constant Matrix: (Units=GPa)
#
#
# Indices 1 2 3 4 5 6 
#
# 1 82.4775 39.6428 14.3937 0.0000 -22.1448 0.0000
# 2 39.6428 257.0874 66.3549 0.0000 -14.6714 0.0000
# 3 14.3937 66.3549 82.4734 0.0000 -18.7597 0.0000
# 4 0.0000 0.0000 0.0000 1.9446 0.0000 126.0765
# 5 -22.1448 -14.6714 -18.7597 0.0000 31.7961 0.0000
# 6 0.0000 0.0000 0.0000 126.0765 0.0000 -363.2423
#
#
#
# Elastic Compliance Matrix: (Units=1/GPa)
#
#
# Indices 1 2 3 4 5 6 
#
# 1 0.015852 -0.002206 0.001488 0.000000 0.010900 0.000000
# 2 -0.002206 0.005216 -0.004174 0.000000 -0.001592 0.000000
# 3 0.001488 -0.004174 0.017350 0.000000 0.009347 0.000000
# 4 0.000000 0.000000 0.000000 0.021880 0.000000 0.007594
# 5 0.010900 -0.001592 0.009347 0.000000 0.043822 0.000000
# 6 0.000000 0.000000 0.000000 0.007594 0.000000 -0.000117
#
#
# Mechanical properties :
#
#
# Convention : Reuss Voigt Hill
#
# Bulk Modulus (GPa) = 34.92447 73.64678 54.28563
# Shear Modulus (GPa) = 40.54098 -45.79054 -2.62478
#
# Velocity S-wave (km/s) = 4.06837 -4.32375 -1.03519
# Velocity P-wave (km/s) = 6.02722 2.26743 4.55349
#
# Compressibility (1/GPa) = 0.02863322
#
# Stress axis : x y z
#
# Youngs Moduli (GPa) = 63.08362 191.70252 57.63772
#
# Poissons Ratio (x) = 0.42297 -0.08576
# Poissons Ratio (y) = 0.13919 0.24058
# Poissons Ratio (z) = -0.09387 0.80018
#
# Static dielectric constant tensor:
#      x y z
#    x 2.119390 0.000000 -0.120280 
#    y 0.000000 1.964360 0.000000 
#    z -0.120280 0.000000 2.005380 
# 
# From -- ./inp_files/64176.got.cif
#   From: 2010.05.17/outbox.cif.g08.bks.cpg/sg12_33_cif.got.tgz:64176.got - 2010.06.03 13:09:07.
