data_PCOD9203081
_publ_section_title
;
Structure prediction by ZEFSAII (Michael W. Deem and Ramdas Pophale) SiO2 
 PCOD9203081
Probable space group: C 2/M
;
_chemical_formula_sum "Si O2"
_cell_formula_units_Z 40
_cell_length_a 14.505379
_cell_length_b 18.753314
_cell_length_c 8.607901
_cell_angle_alpha 90.000000
_cell_angle_beta 47.685968
_cell_angle_gamma 90.000000
_cell_volume 1731.500918
_symmetry_space_group_name_H-M "C 2/M"
_symmetry_group_IT_number 12
_symmetry_cell_setting 'monoclinic'
loop_
_space_group_symop_operation_xyz
x,y,z
-x,y,-z
-x,-y,-z
x,-y,z
1/2+x,1/2+y,z
1/2-x,1/2+y,-z
1/2-x,1/2-y,-z
1/2+x,1/2-y,z
loop_
_atom_site_type_symbol
_atom_site_label
_atom_site_fract_x
_atom_site_fract_y
_atom_site_fract_z
Si Si1 0.872573 0.199791 0.715489
Si Si2 0.068294 0.915208 0.149137
Si Si3 0.894229 0.292856 0.997759
Si Si4 0.023678 0.414896 0.658390
Si Si5 0.193630 0.086528 0.683076
O O1 0.882628 0.116967 0.748316
O O2 0.877355 0.237704 0.877109
O O3 0.000000 0.226036 0.500000
O O4 0.743854 0.208325 0.772355
O O5 0.926398 0.889427 0.279087
O O6 0.065562 0.000000 0.155398
O O7 0.156638 0.895524 0.902833
O O8 0.934637 0.366978 0.867338
O O9 0.000000 0.274120 0.000000
O O10 0.010126 0.500000 0.706106
O O11 0.167704 0.391061 0.520129
O O12 0.000000 0.405835 0.500000
O O13 0.195925 0.000000 0.673766
#
# Coordination Sequence:
#
# PCOD9203081 Si02
#       5
#     8   8   8   8   8
#     4  11  26  45  64  93 125 166 213 255 321 381
#     4   9  18  35  61  94 128 160 205 260 306 365
#     4  11  27  46  64  92 128 165 211 266 314 373
#     4  10  20  38  66  95 127 167 209 256 314 375
#     4   8  16  31  58  94 124 159 205 251 304 365
#
# _framework density 23.101344999999998
#
# number of rings (size 3 to 8) (size 9 to 14) (size 15 to 20)
#    0.000    2.200    0.000    3.000    5.600    5.600 
#    0.000    0.000    0.000    0.000    0.000    0.000 
#    0.000    0.000    0.000    0.000    0.000    0.000 
#
# Total GULP energy -111705.215662 kJ/mol
# GULP energy per Si atom -5585.260783 kJ/mol
# Density = 2.304877 g / cm^3
# Si number density = 23.101345 Si / 1000 Ang^3
#
#
#
# Elastic Constant Matrix: (Units=GPa)
#
#
# Indices 1 2 3 4 5 6 
#
# 1 135.4194 14.5787 40.2393 0.0000 -33.8132 0.0000
# 2 14.5787 55.9557 15.1312 0.0000 -11.4338 0.0000
# 3 40.2393 15.1312 74.2978 0.0000 -41.1173 0.0000
# 4 0.0000 0.0000 0.0000 20.5820 0.0000 14.2720
# 5 -33.8132 -11.4338 -41.1173 0.0000 37.4102 0.0000
# 6 0.0000 0.0000 0.0000 14.2720 0.0000 31.6480
#
#
#
# Elastic Compliance Matrix: (Units=1/GPa)
#
#
# Indices 1 2 3 4 5 6 
#
# 1 0.009594 -0.000730 -0.000949 0.000000 0.007405 0.000000
# 2 -0.000730 0.019200 -0.001614 0.000000 0.003434 0.000000
# 3 -0.000949 -0.001614 0.034600 0.000000 0.036677 0.000000
# 4 0.000000 0.000000 0.000000 0.070692 0.000000 -0.031879
# 5 0.007405 0.003434 0.036677 0.000000 0.074784 0.000000
# 6 0.000000 0.000000 0.000000 -0.031879 0.000000 0.045974
#
#
# Mechanical properties :
#
#
# Convention : Reuss Voigt Hill
#
# Bulk Modulus (GPa) = 17.60375 45.06348 31.33361
# Shear Modulus (GPa) = 17.83379 30.97629 24.40504
#
# Velocity S-wave (km/s) = 2.78147 3.66578 3.25381
# Velocity P-wave (km/s) = 4.23700 6.12099 5.26397
#
# Compressibility (1/GPa) = 0.05680609
#
# Stress axis : x y z
#
# Youngs Moduli (GPa) = 104.23017 52.08415 28.90200
#
# Poissons Ratio (x) = 0.03801 0.02744
# Poissons Ratio (y) = 0.07607 0.04666
# Poissons Ratio (z) = 0.09896 0.08409
#
# Static dielectric constant tensor:
#      x y z
#    x 1.861620 0.000000 -0.041560 
#    y 0.000000 1.918820 0.000000 
#    z -0.041560 0.000000 1.955850 
# 
# From -- ./inp_files/63166.got.cif
#   From: 2010.05.17/outbox.cif.g08.bks.cpg/sg12_32_cif.got.tgz:63166.got - 2010.06.03 13:09:07.
