data_PCOD9203280
_publ_section_title
;
Structure prediction by ZEFSAII (Michael W. Deem and Ramdas Pophale) SiO2 
 PCOD9203280
Probable space group: C 2/M
;
_chemical_formula_sum "Si O2"
_cell_formula_units_Z 50
_cell_length_a 13.916719
_cell_length_b 12.763460
_cell_length_c 17.282804
_cell_angle_alpha 90.000000
_cell_angle_beta 58.296874
_cell_angle_gamma 90.000000
_cell_volume 2611.788478
_symmetry_space_group_name_H-M "C 2/M"
_symmetry_group_IT_number 12
_symmetry_cell_setting 'monoclinic'
loop_
_space_group_symop_operation_xyz
x,y,z
-x,y,-z
-x,-y,-z
x,-y,z
1/2+x,1/2+y,z
1/2-x,1/2+y,-z
1/2-x,1/2-y,-z
1/2+x,1/2-y,z
loop_
_atom_site_type_symbol
_atom_site_label
_atom_site_fract_x
_atom_site_fract_y
_atom_site_fract_z
Si Si1 0.179842 0.625614 0.392850
Si Si2 0.500000 0.000000 0.000000
Si Si3 0.402699 0.617562 0.860512
Si Si4 0.043494 0.625540 0.603811
Si Si5 0.392102 0.233652 0.264182
Si Si6 0.187565 0.661739 0.858544
Si Si7 0.363908 0.383762 0.050537
O O1 0.193624 0.500000 0.384344
O O2 0.080765 0.655144 0.374552
O O3 0.293924 0.684258 0.325181
O O4 0.131471 0.653449 0.498312
O O5 0.403480 0.091901 0.057413
O O6 0.452348 0.500000 0.840123
O O7 0.499353 0.703722 0.813223
O O8 0.312078 0.626715 0.830603
O O9 0.339341 0.629598 0.969690
O O10 0.044981 0.500000 0.609571
O O11 0.073334 0.675782 0.672279
O O12 0.345559 0.156843 0.217428
O O13 0.180362 0.784706 0.884423
O O14 0.323696 0.500000 0.092432
O O15 0.500000 0.383566 0.000000
#
# Coordination Sequence:
#
# PCOD9203280 Si02
#       7
#     8   2   8   8   8   8   8
#     4   9  19  39  63  86 118 158 191 239 297 357
#     4  12  24  44  58  76 122 172 208 224 312 360
#     4  11  23  39  59  85 118 156 199 250 303 348
#     4   9  20  38  60  87 121 156 195 235 292 357
#     4  12  22  36  60  91 121 149 200 246 299 350
#     4  12  24  40  61  86 119 161 199 253 300 362
#     4  10  20  39  61  83 110 149 203 255 301 346
#
# _framework density 19.143969999999999
#
# number of rings (size 3 to 8) (size 9 to 14) (size 15 to 20)
#    0.000    1.440    3.200    3.360    1.120    0.640 
#    0.000    0.800    0.000    0.000    0.000   10.080 
#    0.000    0.000    0.000    0.000    0.000    0.000 
#
# Total GULP energy -139398.784929 kJ/mol
# GULP energy per Si atom -5575.951397 kJ/mol
# Density = 1.910040 g / cm^3
# Si number density = 19.143970 Si / 1000 Ang^3
#
#
#
# Elastic Constant Matrix: (Units=GPa)
#
#
# Indices 1 2 3 4 5 6 
#
# 1 72.6585 13.3999 29.6147 0.0000 30.0931 0.0000
# 2 13.3999 64.9593 21.1505 0.0000 6.5026 0.0000
# 3 29.6147 21.1505 41.9167 0.0000 19.0144 0.0000
# 4 0.0000 0.0000 0.0000 36.4782 0.0000 -10.9045
# 5 30.0931 6.5026 19.0144 0.0000 31.8708 0.0000
# 6 0.0000 0.0000 0.0000 -10.9045 0.0000 39.5512
#
#
#
# Elastic Compliance Matrix: (Units=1/GPa)
#
#
# Indices 1 2 3 4 5 6 
#
# 1 0.025133 -0.000314 -0.009409 0.000000 -0.018054 0.000000
# 2 -0.000314 0.018565 -0.010368 0.000000 0.002694 0.000000
# 3 -0.009409 -0.010368 0.042155 0.000000 -0.014150 0.000000
# 4 0.000000 0.000000 0.000000 0.029876 0.000000 0.008237
# 5 -0.018054 0.002694 -0.014150 0.000000 0.056316 0.000000
# 6 0.000000 0.000000 0.000000 0.008237 0.000000 0.027555
#
#
# Mechanical properties :
#
#
# Convention : Reuss Voigt Hill
#
# Bulk Modulus (GPa) = 21.89543 34.20720 28.05131
# Shear Modulus (GPa) = 19.60742 29.27133 24.43937
#
# Velocity S-wave (km/s) = 3.20380 3.91450 3.57684
# Velocity P-wave (km/s) = 5.01476 6.19179 5.63410
#
# Compressibility (1/GPa) = 0.04567163
#
# Stress axis : x y z
#
# Youngs Moduli (GPa) = 39.78782 53.86451 23.72206
#
# Poissons Ratio (x) = 0.01690 0.22320
# Poissons Ratio (y) = 0.01248 0.24595
# Poissons Ratio (z) = 0.37436 0.55847
#
# Static dielectric constant tensor:
#      x y z
#    x 1.669500 0.000000 0.025810 
#    y 0.000000 1.660360 0.000000 
#    z 0.025810 0.000000 1.672750 
# 
# From -- ./inp_files/268526.got.cif
#   From: 2010.05.17/outbox.cif.g08.bks.cpg/sg12_135_cif.got.tgz:268526.got - 2010.06.03 13:09:07.
