data_PCOD9203932
_publ_section_title
;
Structure prediction by ZEFSAII (Michael W. Deem and Ramdas Pophale) SiO2 
 PCOD9203932
Probable space group: C 2/M
;
_chemical_formula_sum "Si O2"
_cell_formula_units_Z 40
_cell_length_a 9.820466
_cell_length_b 18.388180
_cell_length_c 11.881953
_cell_angle_alpha 90.000000
_cell_angle_beta 74.912114
_cell_angle_gamma 90.000000
_cell_volume 2071.683490
_symmetry_space_group_name_H-M "C 2/M"
_symmetry_group_IT_number 12
_symmetry_cell_setting 'monoclinic'
loop_
_space_group_symop_operation_xyz
x,y,z
-x,y,-z
-x,-y,-z
x,-y,z
1/2+x,1/2+y,z
1/2-x,1/2+y,-z
1/2-x,1/2-y,-z
1/2+x,1/2-y,z
loop_
_atom_site_type_symbol
_atom_site_label
_atom_site_fract_x
_atom_site_fract_y
_atom_site_fract_z
Si Si1 0.872862 0.915438 0.608785
Si Si2 0.180056 0.285524 0.623898
Si Si3 0.228291 0.916506 0.899246
Si Si4 0.929068 0.874254 0.852923
Si Si5 0.126988 0.278293 0.226832
O O1 0.736004 0.867595 0.615800
O O2 0.916047 0.901978 0.728482
O O3 0.000000 0.890595 0.500000
O O4 0.849009 0.000000 0.593205
O O5 0.250000 0.250000 0.500000
O O6 0.244655 0.245854 0.720186
O O7 0.012629 0.281662 0.666501
O O8 0.338553 0.854951 0.838150
O O9 0.081685 0.896732 0.867094
O O10 0.267918 0.000000 0.866409
O O11 0.187059 0.908172 0.039183
O O12 0.902439 0.787412 0.854027
#
# Coordination Sequence:
#
# PCOD9203932 Si02
#       5
#     8   8   8   8   8
#     4  10  21  37  61  88 119 159 207 256 311 372
#     4  11  22  40  61  87 121 163 204 253 309 371
#     4  11  22  37  63  93 127 162 204 259 310 363
#     4  10  20  40  61  88 123 168 208 246 303 382
#     4  11  22  39  62  90 122 158 213 253 299 377
#
# _framework density 19.307969
#
# number of rings (size 3 to 8) (size 9 to 14) (size 15 to 20)
#    0.000    1.400    2.000    6.000    0.000    0.800 
#    0.000    0.000    0.000    8.400    0.000    0.000 
#    0.000    0.000    0.000    0.000    0.000    0.000 
#
# Total GULP energy -111728.021733 kJ/mol
# GULP energy per Si atom -5586.401087 kJ/mol
# Density = 1.926402 g / cm^3
# Si number density = 19.307969 Si / 1000 Ang^3
#
#
#
# Elastic Constant Matrix: (Units=GPa)
#
#
# Indices 1 2 3 4 5 6 
#
# 1 42.2230 15.5903 9.3400 0.0000 -13.0577 0.0000
# 2 15.5903 144.5186 22.0602 0.0000 -11.7388 0.0000
# 3 9.3400 22.0602 74.8891 0.0000 -4.1702 0.0000
# 4 0.0000 0.0000 0.0000 28.5562 0.0000 -7.4537
# 5 -13.0577 -11.7388 -4.1702 0.0000 27.6769 0.0000
# 6 0.0000 0.0000 0.0000 -7.4537 0.0000 23.9979
#
#
#
# Elastic Compliance Matrix: (Units=1/GPa)
#
#
# Indices 1 2 3 4 5 6 
#
# 1 0.028696 -0.001721 -0.002379 0.000000 0.012450 0.000000
# 2 -0.001721 0.007566 -0.001897 0.000000 0.002111 0.000000
# 3 -0.002379 -0.001897 0.014220 0.000000 0.000216 0.000000
# 4 0.000000 0.000000 0.000000 0.038108 0.000000 0.011836
# 5 0.012450 0.002111 0.000216 0.000000 0.042933 0.000000
# 6 0.000000 0.000000 0.000000 0.011836 0.000000 0.045347
#
#
# Mechanical properties :
#
#
# Convention : Reuss Voigt Hill
#
# Bulk Modulus (GPa) = 25.98106 39.51241 32.74674
# Shear Modulus (GPa) = 24.79020 30.35555 27.57287
#
# Velocity S-wave (km/s) = 3.58709 3.96937 3.78306
# Velocity P-wave (km/s) = 5.53549 6.44334 6.00659
#
# Compressibility (1/GPa) = 0.03848958
#
# Stress axis : x y z
#
# Youngs Moduli (GPa) = 34.84848 132.16668 70.32136
#
# Poissons Ratio (x) = 0.22750 0.16726
# Poissons Ratio (y) = 0.05998 0.13337
# Poissons Ratio (z) = 0.08289 0.25066
#
# Static dielectric constant tensor:
#      x y z
#    x 1.651240 0.000000 0.000720 
#    y 0.000000 1.690860 0.000000 
#    z 0.000720 0.000000 1.682110 
# 
# From -- ./inp_files/118929.got.cif
#   From: 2010.05.17/outbox.cif.g08.bks.cpg/sg12_60_cif.got.tgz:118929.got - 2010.06.03 13:09:07.
