data_PCOD9203959
_publ_section_title
;
Structure prediction by ZEFSAII (Michael W. Deem and Ramdas Pophale) SiO2 
 PCOD9203959
Probable space group: C 2/M
;
_chemical_formula_sum "Si O2"
_cell_formula_units_Z 60
_cell_length_a 20.951173
_cell_length_b 22.336404
_cell_length_c 9.040928
_cell_angle_alpha 90.000000
_cell_angle_beta 37.961478
_cell_angle_gamma 90.000000
_cell_volume 2602.571065
_symmetry_space_group_name_H-M "C 2/M"
_symmetry_group_IT_number 12
_symmetry_cell_setting 'monoclinic'
loop_
_space_group_symop_operation_xyz
x,y,z
-x,y,-z
-x,-y,-z
x,-y,z
1/2+x,1/2+y,z
1/2-x,1/2+y,-z
1/2-x,1/2-y,-z
1/2+x,1/2-y,z
loop_
_atom_site_type_symbol
_atom_site_label
_atom_site_fract_x
_atom_site_fract_y
_atom_site_fract_z
Si Si1 0.571305 0.773735 0.137040
Si Si2 0.644946 0.241518 0.317140
Si Si3 0.594348 0.000000 0.043003
Si Si4 0.802800 0.563653 0.882022
Si Si5 0.781212 0.357834 0.658268
Si Si6 0.855551 0.880376 0.612879
Si Si7 0.847660 0.380940 0.211601
Si Si8 0.452932 0.636764 0.923890
O O1 0.461209 0.783258 0.417642
O O2 0.649177 0.775126 0.136622
O O3 0.554637 0.708061 0.096089
O O4 0.599508 0.825438 0.970356
O O5 0.725666 0.211749 0.283072
O O6 0.639275 0.312839 0.337078
O O7 0.613894 0.051310 0.141089
O O8 0.601478 0.054591 0.909915
O O9 0.789798 0.500000 0.827080
O O10 0.696935 0.580300 0.162752
O O11 0.832111 0.611642 0.708051
O O12 0.839082 0.367472 0.400450
O O13 0.665378 0.384521 0.863496
O O14 0.770440 0.883727 0.637293
O O15 0.968989 0.892541 0.338472
O O16 0.500000 0.628186 0.000000
#
# Coordination Sequence:
#
# PCOD9203959 Si02
#       8
#     8   8   4   8   8   8   8   8
#     4  10  23  39  62  90 129 170 205 261 315 386
#     4  10  22  40  63  94 128 164 214 262 317 384
#     4   8  20  40  64  84 121 165 216 263 304 365
#     4   9  21  40  64  87 120 170 215 263 306 365
#     4  12  24  37  64  94 127 168 212 266 322 379
#     4  10  20  40  62  88 128 169 210 256 314 379
#     4  11  22  37  65  91 127 168 210 259 323 374
#     4  11  23  38  59  95 136 165 206 259 322 381
#
# _framework density 23.054126
#
# number of rings (size 3 to 8) (size 9 to 14) (size 15 to 20)
#    0.400    1.333    1.333    3.200    4.667    4.267 
#    0.000    1.333    1.467    4.800    0.000    0.000 
#    0.000    0.000    0.000    0.000    0.000    0.000 
#
# Total GULP energy -167068.055501 kJ/mol
# GULP energy per Si atom -5568.935183 kJ/mol
# Density = 2.300165 g / cm^3
# Si number density = 23.054126 Si / 1000 Ang^3
#
#
#
# Elastic Constant Matrix: (Units=GPa)
#
#
# Indices 1 2 3 4 5 6 
#
# 1 56.7496 -10.0010 15.3489 0.0000 14.8955 0.0000
# 2 -10.0010 52.6468 -1.5894 0.0000 22.2576 0.0000
# 3 15.3489 -1.5894 68.3741 0.0000 31.5551 0.0000
# 4 0.0000 0.0000 0.0000 8.3399 0.0000 12.8597
# 5 14.8955 22.2576 31.5551 0.0000 46.0203 0.0000
# 6 0.0000 0.0000 0.0000 12.8597 0.0000 18.4310
#
#
#
# Elastic Compliance Matrix: (Units=1/GPa)
#
#
# Indices 1 2 3 4 5 6 
#
# 1 0.022331 0.009576 0.000999 -0.000002 -0.012544 0.000001
# 2 0.009576 0.032034 0.010497 -0.000002 -0.025790 0.000001
# 3 0.000999 0.010497 0.025071 -0.000002 -0.022591 0.000001
# 4 -0.000002 -0.000002 -0.000002 -1.581105 0.000004 1.103165
# 5 -0.012544 -0.025790 -0.022591 0.000004 0.053753 -0.000002
# 6 0.000001 0.000001 0.000001 1.103165 -0.000002 -0.715442
#
#
# Mechanical properties :
#
#
# Convention : Reuss Voigt Hill
#
# Bulk Modulus (GPa) = 8.22506 20.58749 14.40627
# Shear Modulus (GPa) = -2.30950 26.15907 11.92479
#
# Velocity S-wave (km/s) = -1.00197 3.37216 2.27678
# Velocity P-wave (km/s) = 1.49562 4.91033 3.62962
#
# Compressibility (1/GPa) = 0.12157967
#
# Stress axis : x y z
#
# Youngs Moduli (GPa) = 44.78046 31.21700 39.88646
#
# Poissons Ratio (x) = -0.29892 -0.03984
# Poissons Ratio (y) = -0.42880 -0.41871
# Poissons Ratio (z) = -0.04472 -0.32770
#
# Static dielectric constant tensor:
#      x y z
#    x 1.969120 0.000000 -0.104030 
#    y 0.000000 1.800270 0.000000 
#    z -0.104030 0.000000 1.888950 
# 
# From -- ./inp_files/99783.got.cif
#   From: 2010.05.17/outbox.cif.g08.bks.cpg/sg12_50_cif.got.tgz:99783.got - 2010.06.03 13:09:07.
