data_PCOD9203594
_publ_section_title
;
Structure prediction by ZEFSAII (Michael W. Deem and Ramdas Pophale) SiO2 
 PCOD9203594
Probable space group: C 2/M
;
_chemical_formula_sum "Si O2"
_cell_formula_units_Z 50
_cell_length_a 17.263218
_cell_length_b 19.733903
_cell_length_c 8.448153
_cell_angle_alpha 90.000000
_cell_angle_beta 128.457246
_cell_angle_gamma 90.000000
_cell_volume 2253.712243
_symmetry_space_group_name_H-M "C 2/M"
_symmetry_group_IT_number 12
_symmetry_cell_setting 'monoclinic'
loop_
_space_group_symop_operation_xyz
x,y,z
-x,y,-z
-x,-y,-z
x,-y,z
1/2+x,1/2+y,z
1/2-x,1/2+y,-z
1/2-x,1/2-y,-z
1/2+x,1/2-y,z
loop_
_atom_site_type_symbol
_atom_site_label
_atom_site_fract_x
_atom_site_fract_y
_atom_site_fract_z
Si Si1 0.432374 0.290180 0.572223
Si Si2 0.342105 0.615515 0.676863
Si Si3 0.628283 0.708738 0.990466
Si Si4 0.963896 0.579133 0.123747
Si Si5 0.209271 0.352170 0.978751
Si Si6 0.361498 0.142743 0.469961
Si Si7 0.000000 0.000000 0.000000
O O1 0.500000 0.289958 0.500000
O O2 0.371262 0.357041 0.540447
O O3 0.513976 0.284451 0.812652
O O4 0.364370 0.224082 0.493983
O O5 0.224411 0.602725 0.543930
O O6 0.350775 0.677592 0.813351
O O7 0.419377 0.559187 0.836234
O O8 0.677391 0.780903 0.016362
O O9 0.676281 0.656499 0.921803
O O10 0.984069 0.500000 0.162692
O O11 0.846805 0.592332 0.990620
O O12 0.031854 0.616758 0.338947
O O13 0.000000 0.604915 0.000000
O O14 0.161330 0.364316 0.744470
#
# Coordination Sequence:
#
# PCOD9203594 Si02
#       7
#     8   8   8   8   8   8   2
#     4  12  21  39  64 100 132 153 215 274 330 388
#     4  11  26  42  68  94 128 180 213 268 327 387
#     4  10  20  39  64  93 125 161 215 264 325 380
#     4  11  25  41  59  90 134 177 219 263 326 398
#     4  10  21  39  63  94 124 165 214 271 320 387
#     4  11  23  41  67  97 127 165 219 275 332 387
#     4  12  24  48  66  88 136 172 242 252 306 414
#
# _framework density 22.185618999999999
#
# number of rings (size 3 to 8) (size 9 to 14) (size 15 to 20)
#    0.000    1.120    4.800    0.960    3.360    2.560 
#    4.320    0.400    0.000    0.000    0.000    0.000 
#    0.000    0.000    0.000    0.000    0.000    0.000 
#
# Total GULP energy -139217.662993 kJ/mol
# GULP energy per Si atom -5568.706520 kJ/mol
# Density = 2.213512 g / cm^3
# Si number density = 22.185619 Si / 1000 Ang^3
#
#
#
# Elastic Constant Matrix: (Units=GPa)
#
#
# Indices 1 2 3 4 5 6 
#
# 1 119.6167 39.8145 11.9729 0.0000 13.4200 0.0000
# 2 39.8145 60.9446 9.5080 0.0000 -5.0699 0.0000
# 3 11.9729 9.5080 33.3086 0.0000 3.2136 0.0000
# 4 0.0000 0.0000 0.0000 -13.6291 0.0000 0.4398
# 5 13.4200 -5.0699 3.2136 0.0000 34.8442 0.0000
# 6 0.0000 0.0000 0.0000 0.4398 0.0000 18.9260
#
#
#
# Elastic Compliance Matrix: (Units=1/GPa)
#
#
# Indices 1 2 3 4 5 6 
#
# 1 0.011763 -0.007924 -0.001431 0.000000 -0.005552 0.000000
# 2 -0.007924 0.022822 -0.004320 0.000000 0.006771 0.000000
# 3 -0.001431 -0.004320 0.032062 0.000000 -0.003034 0.000000
# 4 0.000000 0.000000 0.000000 -0.073317 0.000000 0.001704
# 5 -0.005552 0.006771 -0.003034 0.000000 0.032102 0.000000
# 6 0.000000 0.000000 0.000000 0.001704 0.000000 0.052798
#
#
# Mechanical properties :
#
#
# Convention : Reuss Voigt Hill
#
# Bulk Modulus (GPa) = 25.44568 37.38454 31.41511
# Shear Modulus (GPa) = 42.13051 18.19984 30.16518
#
# Velocity S-wave (km/s) = 4.36248 2.86727 3.69137
# Velocity P-wave (km/s) = 6.07201 5.27722 5.68851
#
# Compressibility (1/GPa) = 0.03929940
#
# Stress axis : x y z
#
# Youngs Moduli (GPa) = 85.00895 43.81761 31.18911
#
# Poissons Ratio (x) = 0.34719 0.04463
# Poissons Ratio (y) = 0.67357 0.13473
# Poissons Ratio (z) = 0.12165 0.18928
#
# Static dielectric constant tensor:
#      x y z
#    x 1.922810 0.000000 -0.037580 
#    y 0.000000 1.795720 0.000000 
#    z -0.037580 0.000000 1.846820 
# 
# From -- ./inp_files/76053.got.cif
#   From: 2010.05.17/outbox.cif.g08.bks.cpg/sg12_39_cif.got.tgz:76053.got - 2010.06.03 13:09:07.
