data_PCOD9203841
_publ_section_title
;
Structure prediction by ZEFSAII (Michael W. Deem and Ramdas Pophale) SiO2 
 PCOD9203841
Probable space group: C 2/M
;
_chemical_formula_sum "Si O2"
_cell_formula_units_Z 36
_cell_length_a 21.377796
_cell_length_b 14.277851
_cell_length_c 9.536900
_cell_angle_alpha 90.000000
_cell_angle_beta 35.964872
_cell_angle_gamma 90.000000
_cell_volume 1709.562443
_symmetry_space_group_name_H-M "C 2/M"
_symmetry_group_IT_number 12
_symmetry_cell_setting 'monoclinic'
loop_
_space_group_symop_operation_xyz
x,y,z
-x,y,-z
-x,-y,-z
x,-y,z
1/2+x,1/2+y,z
1/2-x,1/2+y,-z
1/2-x,1/2-y,-z
1/2+x,1/2-y,z
loop_
_atom_site_type_symbol
_atom_site_label
_atom_site_fract_x
_atom_site_fract_y
_atom_site_fract_z
Si Si1 0.666781 0.175539 0.319872
Si Si2 0.891897 0.500000 0.104653
Si Si3 0.694894 0.149407 0.945219
Si Si4 0.936731 0.138166 0.475495
Si Si5 0.958937 0.000000 0.919394
Si Si6 0.788695 0.500000 0.581170
O O1 0.724541 0.259969 0.865018
O O2 0.573415 0.249935 0.517980
O O3 0.662542 0.092289 0.436776
O O4 0.661378 0.142124 0.168439
O O5 0.877069 0.591370 0.032148
O O6 0.802225 0.500000 0.389533
O O7 0.000000 0.500000 0.000000
O O8 0.814205 0.107224 0.713294
O O9 0.000000 0.114093 0.500000
O O10 0.994306 0.089587 0.244174
O O11 0.000000 0.000000 0.000000
O O12 0.832852 0.000000 0.149580
#
# Coordination Sequence:
#
# PCOD9203841 Si02
#       6
#     8   4   8   8   4   4
#     4   9  22  41  74  94 141 176 233 292 342 394
#     4  12  27  46  69  96 147 194 232 274 359 432
#     4   9  20  44  68 100 139 183 231 297 334 404
#     4  10  20  39  70 106 130 178 228 294 343 406
#     4  12  25  40  64 103 143 177 225 284 356 428
#     4  12  25  46  63 107 137 195 218 290 358 416
#
# _framework density 21.058019000000002
#
# number of rings (size 3 to 8) (size 9 to 14) (size 15 to 20)
#    1.333    0.444    0.000    4.333    0.000    2.667 
#    0.000    1.667    0.000    0.000    0.000    0.000 
#    0.000    0.000    0.000    0.000    0.000    0.000 
#
# Total GULP energy -100473.053375 kJ/mol
# GULP energy per Si atom -5581.836299 kJ/mol
# Density = 2.101009 g / cm^3
# Si number density = 21.058019 Si / 1000 Ang^3
#
#
#
# Elastic Constant Matrix: (Units=GPa)
#
#
# Indices 1 2 3 4 5 6 
#
# 1 144.7519 69.9387 41.1167 0.0000 17.7047 0.0000
# 2 69.9387 119.5747 45.2694 0.0000 29.1772 0.0000
# 3 41.1167 45.2694 106.9908 0.0000 21.6506 0.0000
# 4 0.0000 0.0000 0.0000 38.0795 0.0000 4.7068
# 5 17.7047 29.1772 21.6506 0.0000 47.1897 0.0000
# 6 0.0000 0.0000 0.0000 4.7068 0.0000 36.6374
#
#
#
# Elastic Compliance Matrix: (Units=1/GPa)
#
#
# Indices 1 2 3 4 5 6 
#
# 1 0.009859 -0.005214 -0.001639 0.000000 0.000276 0.000000
# 2 -0.005214 0.013739 -0.002741 0.000000 -0.005281 0.000000
# 3 -0.001639 -0.002741 0.011761 0.000000 -0.003086 0.000000
# 4 0.000000 0.000000 0.000000 0.026685 0.000000 -0.003428
# 5 0.000276 -0.005281 -0.003086 0.000000 0.025769 0.000000
# 6 0.000000 0.000000 0.000000 -0.003428 0.000000 0.027735
#
#
# Mechanical properties :
#
#
# Convention : Reuss Voigt Hill
#
# Bulk Modulus (GPa) = 61.83564 75.99636 68.91600
# Shear Modulus (GPa) = 35.68285 38.71415 37.19850
#
# Velocity S-wave (km/s) = 4.12090 4.29237 4.20751
# Velocity P-wave (km/s) = 7.21599 7.79316 7.51012
#
# Compressibility (1/GPa) = 0.01617190
#
# Stress axis : x y z
#
# Youngs Moduli (GPa) = 101.42957 72.78775 85.02954
#
# Poissons Ratio (x) = 0.37948 0.13935
# Poissons Ratio (y) = 0.52881 0.23305
# Poissons Ratio (z) = 0.16623 0.19949
#
# Static dielectric constant tensor:
#      x y z
#    x 2.372850 0.000000 -0.506500 
#    y 0.000000 1.789310 0.000000 
#    z -0.506500 0.000000 2.064690 
# 
# From -- ./inp_files/86287.got.cif
#   From: 2010.05.17/outbox.cif.g08.bks.cpg/sg12_44_cif.got.tgz:86287.got - 2010.06.03 13:09:07.
