data_PCOD9203838
_publ_section_title
;
Structure prediction by ZEFSAII (Michael W. Deem and Ramdas Pophale) SiO2 
 PCOD9203838
Probable space group: C 2/M
;
_chemical_formula_sum "Si O2"
_cell_formula_units_Z 64
_cell_length_a 24.363444
_cell_length_b 16.513160
_cell_length_c 9.598142
_cell_angle_alpha 90.000000
_cell_angle_beta 43.076292
_cell_angle_gamma 90.000000
_cell_volume 2637.294785
_symmetry_space_group_name_H-M "C 2/M"
_symmetry_group_IT_number 12
_symmetry_cell_setting 'monoclinic'
loop_
_space_group_symop_operation_xyz
x,y,z
-x,y,-z
-x,-y,-z
x,-y,z
1/2+x,1/2+y,z
1/2-x,1/2+y,-z
1/2-x,1/2-y,-z
1/2+x,1/2-y,z
loop_
_atom_site_type_symbol
_atom_site_label
_atom_site_fract_x
_atom_site_fract_y
_atom_site_fract_z
Si Si1 0.377855 0.807965 0.017437
Si Si2 0.543894 0.658916 0.269782
Si Si3 0.098859 0.093822 0.626923
Si Si4 0.735851 0.404503 0.584128
Si Si5 0.506990 0.905524 0.649544
Si Si6 0.243889 0.095188 0.168242
Si Si7 0.210319 0.092260 0.931504
Si Si8 0.418759 0.863116 0.214437
O O1 0.407722 0.739967 0.857855
O O2 0.420526 0.889301 0.877712
O O3 0.286959 0.835768 0.177771
O O4 0.408988 0.792738 0.116325
O O5 0.500000 0.662416 0.500000
O O6 0.519845 0.642783 0.734929
O O7 0.614817 0.593280 0.132646
O O8 0.162865 0.125298 0.622346
O O9 0.152015 0.093549 0.387571
O O10 0.077112 0.000000 0.698677
O O11 0.717930 0.500000 0.624719
O O12 0.829654 0.400485 0.368415
O O13 0.728443 0.366394 0.751249
O O14 0.500000 0.882707 0.500000
O O15 0.563362 0.855806 0.653630
O O16 0.530861 0.000000 0.612317
O O17 0.251408 0.123229 0.994948
O O18 0.269111 0.000000 0.139053
O O19 0.239531 0.000000 0.867073
O O20 0.500000 0.905352 0.000000
#
# Coordination Sequence:
#
# PCOD9203838 Si02
#       8
#     8   8   8   8   8   8   8   8
#     4  11  24  41  62  95 137 184 233 278 348 422
#     4  12  25  45  67  99 142 191 233 293 355 426
#     4  10  21  41  73 102 131 181 241 297 352 416
#     4  10  21  40  66 103 136 169 227 296 358 413
#     4  10  22  39  63  95 129 175 228 285 343 405
#     4  10  20  39  70 101 130 176 240 298 351 421
#     4  10  23  42  69 104 136 177 235 300 362 419
#     4  10  22  41  64  95 138 184 229 280 342 420
#
# _framework density 24.267292000000001
#
# number of rings (size 3 to 8) (size 9 to 14) (size 15 to 20)
#    0.000    1.625    2.500    1.500    1.750    6.500 
#    6.750    2.500    0.000    0.000    0.000    0.000 
#    0.000    0.000    0.000    0.000    0.000    0.000 
#
# Total GULP energy -178321.696366 kJ/mol
# GULP energy per Si atom -5572.553011 kJ/mol
# Density = 2.421206 g / cm^3
# Si number density = 24.267292 Si / 1000 Ang^3
#
#
#
# Elastic Constant Matrix: (Units=GPa)
#
#
# Indices 1 2 3 4 5 6 
#
# 1 125.3746 25.0889 27.2269 0.0000 19.1917 0.0000
# 2 25.0889 46.8088 21.3705 0.0000 -4.6987 0.0000
# 3 27.2269 21.3705 74.5842 0.0000 17.0653 0.0000
# 4 0.0000 0.0000 0.0000 14.8295 0.0000 7.5456
# 5 19.1917 -4.6987 17.0653 0.0000 49.7377 0.0000
# 6 0.0000 0.0000 0.0000 7.5456 0.0000 -5.8430
#
#
#
# Elastic Compliance Matrix: (Units=1/GPa)
#
#
# Indices 1 2 3 4 5 6 
#
# 1 0.009859 -0.005098 -0.001256 0.000000 -0.003855 0.000000
# 2 -0.005098 0.028489 -0.007996 0.000000 0.007402 0.000000
# 3 -0.001256 -0.007996 0.017601 0.000000 -0.006309 0.000000
# 4 0.000000 0.000000 0.000000 0.040694 0.000000 0.052552
# 5 -0.003855 0.007402 -0.006309 0.000000 0.024457 0.000000
# 6 0.000000 0.000000 0.000000 0.052552 0.000000 -0.103281
#
#
# Mechanical properties :
#
#
# Convention : Reuss Voigt Hill
#
# Bulk Modulus (GPa) = 36.69755 43.79334 40.24545
# Shear Modulus (GPa) = 89.92551 23.28361 56.60456
#
# Velocity S-wave (km/s) = 6.09399 3.10088 4.83488
# Velocity P-wave (km/s) = 8.04181 5.55932 6.91291
#
# Compressibility (1/GPa) = 0.02724978
#
# Stress axis : x y z
#
# Youngs Moduli (GPa) = 101.42910 35.10115 56.81514
#
# Poissons Ratio (x) = 0.17893 0.07139
# Poissons Ratio (y) = 0.51705 0.45427
# Poissons Ratio (z) = 0.12744 0.28065
#
# Static dielectric constant tensor:
#      x y z
#    x 2.014330 0.000000 0.034420 
#    y 0.000000 1.920800 0.000000 
#    z 0.034420 0.000000 1.954130 
# 
# From -- ./inp_files/99100.got.cif
#   From: 2010.05.17/outbox.cif.g08.bks.cpg/sg12_50_cif.got.tgz:99100.got - 2010.06.03 13:09:07.
