data_PCOD9203666
_publ_section_title
;
Structure prediction by ZEFSAII (Michael W. Deem and Ramdas Pophale) SiO2 
 PCOD9203666
Probable space group: C 2/M
;
_chemical_formula_sum "Si O2"
_cell_formula_units_Z 58
_cell_length_a 25.398063
_cell_length_b 15.306319
_cell_length_c 21.355614
_cell_angle_alpha 90.000000
_cell_angle_beta 157.248411
_cell_angle_gamma 90.000000
_cell_volume 3210.691831
_symmetry_space_group_name_H-M "C 2/M"
_symmetry_group_IT_number 12
_symmetry_cell_setting 'monoclinic'
loop_
_space_group_symop_operation_xyz
x,y,z
-x,y,-z
-x,-y,-z
x,-y,z
1/2+x,1/2+y,z
1/2-x,1/2+y,-z
1/2-x,1/2-y,-z
1/2+x,1/2-y,z
loop_
_atom_site_type_symbol
_atom_site_label
_atom_site_fract_x
_atom_site_fract_y
_atom_site_fract_z
Si Si1 0.943347 0.255263 0.775037
Si Si2 0.424537 0.848846 0.318584
Si Si3 0.135320 0.272874 0.454601
Si Si4 0.068033 0.603485 0.006483
Si Si5 0.637169 0.599032 0.955765
Si Si6 0.126228 0.157283 0.683558
Si Si7 0.496500 0.405127 0.325879
Si Si8 0.000000 0.500000 0.500000
O O1 0.919543 0.285200 0.676577
O O2 0.796749 0.217040 0.634174
O O3 0.995129 0.333848 0.875548
O O4 0.049843 0.175267 0.892505
O O5 0.550051 0.829190 0.410082
O O6 0.293943 0.877193 0.135356
O O7 0.384818 0.759932 0.311719
O O8 0.459756 0.924000 0.405072
O O9 0.103547 0.172691 0.438585
O O10 0.057409 0.500000 0.979467
O O11 0.227448 0.630714 0.182617
O O12 0.000000 0.616886 0.000000
O O13 0.611969 0.500000 0.952007
O O14 0.592472 0.600081 0.834466
O O15 0.098759 0.109067 0.718994
O O16 0.000000 0.135252 0.500000
O O17 0.563164 0.500000 0.402050
#
# Coordination Sequence:
#
# PCOD9203666 Si02
#       8
#     8   8   8   8   8   8   8   2
#     4  10  21  43  63  88 130 159 207 255 311 360
#     4  11  22  39  65  90 122 161 206 254 313 368
#     4   9  22  39  64  92 120 168 201 253 308 370
#     4  11  26  41  59  89 123 164 205 253 308 374
#     4  10  20  39  65  92 120 160 201 257 310 359
#     4  11  23  40  62  86 120 163 204 253 307 370
#     4   9  20  35  62  93 119 152 206 253 303 363
#     4  12  24  40  60  98 130 152 204 266 316 368
#
# _framework density 18.064644000000001
#
# number of rings (size 3 to 8) (size 9 to 14) (size 15 to 20)
#    0.000    1.793    2.759    0.414    5.793    3.310 
#    2.483    1.379    0.000    1.241    0.000    0.000 
#    0.000    0.000    0.000    0.000    0.000    0.000 
#
# Total GULP energy -161577.424171 kJ/mol
# GULP energy per Si atom -5571.635316 kJ/mol
# Density = 1.802353 g / cm^3
# Si number density = 18.064644 Si / 1000 Ang^3
#
#
#
# Elastic Constant Matrix: (Units=GPa)
#
#
# Indices 1 2 3 4 5 6 
#
# 1 80.3871 40.3787 30.9893 -0.0001 18.3600 -0.0001
# 2 40.3787 112.0891 33.2392 -0.0001 -5.8110 -0.0001
# 3 30.9893 33.2392 69.5989 0.0000 19.4513 0.0000
# 4 -0.0001 -0.0001 0.0000 8.9601 0.0001 -28.5532
# 5 18.3600 -5.8110 19.4513 0.0001 16.9940 0.0001
# 6 -0.0001 -0.0001 0.0000 -28.5532 0.0001 -6.2720
#
#
#
# Elastic Compliance Matrix: (Units=1/GPa)
#
#
# Indices 1 2 3 4 5 6 
#
# 1 0.025433 -0.012719 0.005360 0.000000 -0.037961 0.000000
# 2 -0.012719 0.019435 -0.013699 0.000000 0.036067 0.000000
# 3 0.005360 -0.013699 0.031541 0.000000 -0.046576 0.000000
# 4 0.000000 0.000000 0.000000 0.007197 0.000000 -0.032764
# 5 -0.037961 0.036067 -0.046576 0.000000 0.165500 0.000001
# 6 0.000000 0.000000 0.000000 -0.032764 0.000001 -0.010281
#
#
# Mechanical properties :
#
#
# Convention : Reuss Voigt Hill
#
# Bulk Modulus (GPa) = 29.16083 52.36548 40.76315
# Shear Modulus (GPa) = 17.10154 14.43429 15.76792
#
# Velocity S-wave (km/s) = 3.08016 2.82979 2.95763
# Velocity P-wave (km/s) = 5.36912 6.30299 5.85470
#
# Compressibility (1/GPa) = 0.03429258
#
# Stress axis : x y z
#
# Youngs Moduli (GPa) = 39.31953 51.45250 31.70505
#
# Poissons Ratio (x) = 0.65443 -0.16993
# Poissons Ratio (y) = 0.50011 0.43431
# Poissons Ratio (z) = -0.21074 0.70482
#
# Static dielectric constant tensor:
#      x y z
#    x 1.610680 0.000000 -0.001850 
#    y 0.000000 1.621290 0.000000 
#    z -0.001850 0.000000 1.614520 
# 
# From -- ./inp_files/328405.got.cif
#   From: 2010.05.17/outbox.cif.g08.bks.cpg/sg12_165_cif.got.tgz:328405.got - 2010.06.03 13:09:07.
