data_PCOD9203864
_publ_section_title
;
Structure prediction by ZEFSAII (Michael W. Deem and Ramdas Pophale) SiO2 
 PCOD9203864
Probable space group: C 2/M
;
_chemical_formula_sum "Si O2"
_cell_formula_units_Z 48
_cell_length_a 22.317090
_cell_length_b 11.239830
_cell_length_c 24.486145
_cell_angle_alpha 90.000000
_cell_angle_beta 24.707166
_cell_angle_gamma 90.000000
_cell_volume 2567.284219
_symmetry_space_group_name_H-M "C 2/M"
_symmetry_group_IT_number 12
_symmetry_cell_setting 'monoclinic'
loop_
_space_group_symop_operation_xyz
x,y,z
-x,y,-z
-x,-y,-z
x,-y,z
1/2+x,1/2+y,z
1/2-x,1/2+y,-z
1/2-x,1/2-y,-z
1/2+x,1/2-y,z
loop_
_atom_site_type_symbol
_atom_site_label
_atom_site_fract_x
_atom_site_fract_y
_atom_site_fract_z
Si Si1 0.548644 0.357391 0.518864
Si Si2 0.356001 0.356009 0.388346
Si Si3 0.178712 0.211237 0.706947
Si Si4 0.872649 0.859319 0.765382
Si Si5 0.571864 0.750550 0.001394
Si Si6 0.155047 0.000000 0.900772
Si Si7 0.669623 0.000000 0.352735
O O1 0.500000 0.315129 0.500000
O O2 0.543204 0.500000 0.523378
O O3 0.708612 0.315819 0.397676
O O4 0.440673 0.307368 0.653416
O O5 0.322945 0.500000 0.428339
O O6 0.250000 0.250000 0.500000
O O7 0.360244 0.342940 0.319430
O O8 0.514195 0.326526 0.281228
O O9 0.260998 0.112984 0.674743
O O10 0.048980 0.254375 0.852339
O O11 0.704912 0.833828 0.905244
O O12 0.885848 0.000000 0.750691
O O13 0.647556 0.621003 0.939999
O O14 0.500000 0.768657 0.000000
O O15 0.277146 0.000000 0.753923
O O16 0.000000 0.000000 0.000000
O O17 0.500000 0.000000 0.500000
#
# Coordination Sequence:
#
# PCOD9203864 Si02
#       7
#     8   8   8   8   8   4   4
#     4  10  21  37  60  90 125 163 207 261 319 376
#     4  11  24  44  67  90 130 172 219 272 328 381
#     4  12  22  38  65  92 122 167 211 258 317 380
#     4  10  23  42  60  86 126 168 211 264 317 377
#     4  11  22  39  64  91 130 163 201 257 327 390
#     4  10  20  40  58  88 136 160 186 258 330 378
#     4  12  24  36  62 100 128 160 208 260 320 384
#
# _framework density 18.6968
#
# number of rings (size 3 to 8) (size 9 to 14) (size 15 to 20)
#    0.000    1.167    5.833    1.500    2.333    1.667 
#    1.500    0.000    0.000    0.000    0.000    0.000 
#    0.000    0.000    0.000    0.000    0.000    0.000 
#
# Total GULP energy -133736.906309 kJ/mol
# GULP energy per Si atom -5572.371096 kJ/mol
# Density = 1.865425 g / cm^3
# Si number density = 18.696800 Si / 1000 Ang^3
#
#
#
# Elastic Constant Matrix: (Units=GPa)
#
#
# Indices 1 2 3 4 5 6 
#
# 1 88.9826 21.3062 54.8086 -0.0003 -11.8452 -0.0001
# 2 21.3062 29.7381 19.1243 0.0068 -6.9540 0.0003
# 3 54.8086 19.1243 167.4691 0.0055 -2.8779 0.0003
# 4 -0.0003 0.0068 0.0055 31.2159 0.0006 -12.4502
# 5 -11.8452 -6.9540 -2.8779 0.0006 28.5708 0.0000
# 6 -0.0001 0.0003 0.0003 -12.4502 0.0000 9.5124
#
#
#
# Elastic Compliance Matrix: (Units=1/GPa)
#
#
# Indices 1 2 3 4 5 6 
#
# 1 0.016432 -0.007905 -0.004399 0.000006 0.004446 0.000008
# 2 -0.007905 0.042242 -0.002120 -0.000020 0.006791 -0.000027
# 3 -0.004399 -0.002120 0.007626 -0.000002 -0.001572 -0.000003
# 4 0.000006 -0.000020 -0.000002 0.067022 -0.000004 0.087720
# 5 0.004446 0.006791 -0.001572 -0.000004 0.038338 -0.000005
# 6 0.000008 -0.000027 -0.000003 0.087720 -0.000005 0.219937
#
#
# Mechanical properties :
#
#
# Convention : Reuss Voigt Hill
#
# Bulk Modulus (GPa) = 26.70039 52.96311 39.83175
# Shear Modulus (GPa) = 11.54927 26.58986 19.06957
#
# Velocity S-wave (km/s) = 2.48808 3.77525 3.19711
# Velocity P-wave (km/s) = 4.75035 6.88420 5.91430
#
# Compressibility (1/GPa) = 0.03745264
#
# Stress axis : x y z
#
# Youngs Moduli (GPa) = 60.85681 23.67339 131.13100
#
# Poissons Ratio (x) = 0.18713 0.57681
# Poissons Ratio (y) = 0.48104 0.27802
# Poissons Ratio (z) = 0.26769 0.05019
#
# Static dielectric constant tensor:
#      x y z
#    x 1.671560 0.000000 0.018660 
#    y 0.000000 1.731500 0.000000 
#    z 0.018660 0.000000 1.631250 
# 
# From -- ./inp_files/367916.got.cif
#   From: 2010.05.17/outbox.cif.g08.bks.cpg/sg12_184_cif.got.tgz:367916.got - 2010.06.03 13:09:07.
