data_PCOD9203173
_publ_section_title
;
Structure prediction by ZEFSAII (Michael W. Deem and Ramdas Pophale) SiO2 
 PCOD9203173
Probable space group: C 2/M
;
_chemical_formula_sum "Si O2"
_cell_formula_units_Z 46
_cell_length_a 7.967407
_cell_length_b 15.340092
_cell_length_c 27.064219
_cell_angle_alpha 90.000000
_cell_angle_beta 137.360974
_cell_angle_gamma 90.000000
_cell_volume 2240.634587
_symmetry_space_group_name_H-M "C 2/M"
_symmetry_group_IT_number 12
_symmetry_cell_setting 'monoclinic'
loop_
_space_group_symop_operation_xyz
x,y,z
-x,y,-z
-x,-y,-z
x,-y,z
1/2+x,1/2+y,z
1/2-x,1/2+y,-z
1/2-x,1/2-y,-z
1/2+x,1/2-y,z
loop_
_atom_site_type_symbol
_atom_site_label
_atom_site_fract_x
_atom_site_fract_y
_atom_site_fract_z
Si Si1 0.000000 0.000000 0.500000
Si Si2 0.789552 0.149179 0.995893
Si Si3 0.626043 0.107242 0.250911
Si Si4 0.000000 0.304927 0.500000
Si Si5 0.734048 0.896516 0.164688
Si Si6 0.033313 0.847915 0.584399
Si Si7 0.426617 0.398160 0.846021
O O1 0.908651 0.923911 0.441455
O O2 0.886612 0.107695 0.067522
O O3 0.750000 0.250000 0.000000
O O4 0.531284 0.114467 0.919093
O O5 0.000000 0.137331 0.000000
O O6 0.718468 0.136913 0.217039
O O7 0.341418 0.136348 0.196735
O O8 0.792284 0.144479 0.330666
O O9 0.636131 0.000000 0.254318
O O10 0.945505 0.242521 0.441155
O O11 0.246788 0.357478 0.539796
O O12 0.942796 0.857820 0.173777
O O13 0.778542 0.000000 0.178303
O O14 0.386032 0.500000 0.826777
#
# Coordination Sequence:
#
# PCOD9203173 Si02
#       7
#     2   8   8   4   8   8   8
#     4  10  20  38  72  90 128 154 216 254 308 350
#     4  12  23  38  57  82 119 160 207 257 298 363
#     4  10  20  39  62  90 124 154 206 259 314 361
#     4   9  22  42  64  87 134 166 212 233 328 386
#     4  10  21  39  60  87 117 159 205 253 308 364
#     4  10  20  43  63  97 123 171 202 264 301 390
#     4  10  21  39  61  86 117 160 199 252 308 361
#
# _framework density 20.529896999999998
#
# number of rings (size 3 to 8) (size 9 to 14) (size 15 to 20)
#    0.000    1.739    2.609    2.087    0.000    2.435 
#   12.522    0.000    0.000    0.000    0.000    0.000 
#    0.000    0.000    0.000    0.000    0.000    0.000 
#
# Total GULP energy -128220.341452 kJ/mol
# GULP energy per Si atom -5574.797454 kJ/mol
# Density = 2.048317 g / cm^3
# Si number density = 20.529897 Si / 1000 Ang^3
#
#
#
# Elastic Constant Matrix: (Units=GPa)
#
#
# Indices 1 2 3 4 5 6 
#
# 1 113.3226 -1.7750 36.8311 0.0000 -35.9975 0.0000
# 2 -1.7750 19.4182 -0.8742 0.0000 -2.5552 0.0000
# 3 36.8311 -0.8742 133.3964 0.0000 -39.9815 -0.0001
# 4 0.0000 0.0000 0.0000 -19.4580 0.0000 10.3742
# 5 -35.9975 -2.5552 -39.9815 0.0000 26.3241 0.0000
# 6 0.0000 0.0000 -0.0001 10.3742 0.0000 5.7007
#
#
#
# Elastic Compliance Matrix: (Units=1/GPa)
#
#
# Indices 1 2 3 4 5 6 
#
# 1 0.017385 0.005934 0.004657 0.000000 0.031423 0.000000
# 2 0.005934 0.055050 0.005059 0.000000 0.021141 0.000000
# 3 0.004657 0.005059 0.015235 0.000000 0.029998 0.000000
# 4 0.000000 0.000000 0.000000 -0.026085 0.000000 0.047469
# 5 0.031423 0.021141 0.029998 0.000000 0.128571 0.000001
# 6 0.000000 0.000000 0.000000 0.047469 0.000001 0.089033
#
#
# Mechanical properties :
#
#
# Convention : Reuss Voigt Hill
#
# Bulk Modulus (GPa) = 8.40556 37.16677 22.78616
# Shear Modulus (GPa) = 17.38847 17.97706 17.68277
#
# Velocity S-wave (km/s) = 2.91345 2.96235 2.93801
# Velocity P-wave (km/s) = 3.92693 5.46294 4.75734
#
# Compressibility (1/GPa) = 0.11896892
#
# Stress axis : x y z
#
# Youngs Moduli (GPa) = 57.51957 18.16526 65.63921
#
# Poissons Ratio (x) = -0.10779 -0.30566
# Poissons Ratio (y) = -0.34130 -0.33206
# Poissons Ratio (z) = -0.26785 -0.09190
#
# Static dielectric constant tensor:
#      x y z
#    x 1.763020 0.000000 0.004080 
#    y 0.000000 1.600500 0.000000 
#    z 0.004080 0.000000 1.682480 
# 
# From -- ./inp_files/256229.got.cif
#   From: 2010.05.17/outbox.cif.g08.bks.cpg/sg12_129_cif.got.tgz:256229.got - 2010.06.03 13:09:07.
