data_PCOD9203997
_publ_section_title
;
Structure prediction by ZEFSAII (Michael W. Deem and Ramdas Pophale) SiO2 
 PCOD9203997
Probable space group: C 2/M
;
_chemical_formula_sum "Si O2"
_cell_formula_units_Z 64
_cell_length_a 33.194420
_cell_length_b 13.565415
_cell_length_c 22.774194
_cell_angle_alpha 90.000000
_cell_angle_beta 19.826672
_cell_angle_gamma 90.000000
_cell_volume 3478.292830
_symmetry_space_group_name_H-M "C 2/M"
_symmetry_group_IT_number 12
_symmetry_cell_setting 'monoclinic'
loop_
_space_group_symop_operation_xyz
x,y,z
-x,y,-z
-x,-y,-z
x,-y,z
1/2+x,1/2+y,z
1/2-x,1/2+y,-z
1/2-x,1/2-y,-z
1/2+x,1/2-y,z
loop_
_atom_site_type_symbol
_atom_site_label
_atom_site_fract_x
_atom_site_fract_y
_atom_site_fract_z
Si Si1 0.744725 0.385770 0.903801
Si Si2 0.121300 0.617556 0.001116
Si Si3 0.738013 0.614480 0.776152
Si Si4 0.546645 0.244433 0.211687
Si Si5 0.858000 0.116482 0.518941
Si Si6 0.107272 0.118884 0.392556
Si Si7 0.110724 0.704815 0.890914
Si Si8 0.988916 0.382944 0.624211
O O1 0.726283 0.500000 0.947009
O O2 0.708547 0.377677 0.885386
O O3 0.883858 0.363674 0.722007
O O4 0.662959 0.313154 0.052829
O O5 0.114202 0.500000 0.020121
O O6 0.054231 0.677896 0.143149
O O7 0.261394 0.648632 0.808869
O O8 0.079050 0.645400 0.993765
O O9 0.722513 0.500000 0.779862
O O10 0.661744 0.689937 0.842617
O O11 0.877626 0.640137 0.578901
O O12 0.434129 0.317250 0.370553
O O13 0.541168 0.174305 0.275374
O O14 0.905023 0.137504 0.521086
O O15 0.720595 0.147950 0.709863
O O16 0.870108 0.000000 0.491325
O O17 0.000000 0.157578 0.500000
O O18 0.107141 0.000000 0.387495
O O19 0.000000 0.714001 0.000000
O O20 0.987328 0.500000 0.637594
#
# Coordination Sequence:
#
# PCOD9203997 Si02
#       8
#     8   8   8   8   8   8   8   8
#     4  10  21  36  57  86 120 161 200 232 276 339
#     4  10  22  39  59  87 119 154 197 244 295 350
#     4  10  20  40  63  86 120 154 194 245 284 333
#     4  12  21  36  55  86 128 160 187 234 287 354
#     4  10  22  39  59  87 119 154 197 244 295 350
#     4   8  16  33  55  78 111 153 196 242 283 328
#     4  11  22  43  69  90 108 141 200 256 302 350
#     4  10  21  36  57  86 120 161 200 232 276 339
#
# _framework density 18.399830999999999
#
# number of rings (size 3 to 8) (size 9 to 14) (size 15 to 20)
#    0.000    1.875    2.500    2.625    0.000    4.750 
#    0.000    3.125    0.000    0.000    0.000    0.000 
#    0.000    0.000    0.000    0.000    0.000    0.000 
#
# Total GULP energy -178735.154673 kJ/mol
# GULP energy per Si atom -5585.473584 kJ/mol
# Density = 1.835795 g / cm^3
# Si number density = 18.399831 Si / 1000 Ang^3
#
#
#
# Elastic Constant Matrix: (Units=GPa)
#
#
# Indices 1 2 3 4 5 6 
#
# 1 74.8720 30.6413 51.6017 0.0000 -14.6599 0.0000
# 2 30.6413 103.3468 34.8435 0.0000 3.6739 0.0000
# 3 51.6017 34.8435 75.1372 0.0000 3.1727 0.0000
# 4 0.0000 0.0000 0.0000 34.3986 0.0000 7.1691
# 5 -14.6599 3.6739 3.1727 0.0000 33.0683 0.0000
# 6 0.0000 0.0000 0.0000 7.1691 0.0000 25.8253
#
#
#
# Elastic Compliance Matrix: (Units=1/GPa)
#
#
# Indices 1 2 3 4 5 6 
#
# 1 0.033202 -0.002990 -0.022141 0.000000 0.017176 0.000000
# 2 -0.002990 0.011758 -0.003301 0.000000 -0.002315 0.000000
# 3 -0.022141 -0.003301 0.030568 0.000000 -0.012382 0.000000
# 4 0.000000 0.000000 0.000000 0.030856 0.000000 -0.008566
# 5 0.017176 -0.002315 -0.012382 0.000000 0.039300 0.000000
# 6 0.000000 0.000000 0.000000 -0.008566 0.000000 0.041100
#
#
# Mechanical properties :
#
#
# Convention : Reuss Voigt Hill
#
# Bulk Modulus (GPa) = 53.57863 54.16989 53.87426
# Shear Modulus (GPa) = 20.01037 27.74306 23.87671
#
# Velocity S-wave (km/s) = 3.30135 3.88724 3.60621
# Velocity P-wave (km/s) = 6.61167 7.04641 6.83250
#
# Compressibility (1/GPa) = 0.01866416
#
# Stress axis : x y z
#
# Youngs Moduli (GPa) = 30.11845 85.04838 32.71346
#
# Poissons Ratio (x) = 0.25428 0.72431
# Poissons Ratio (y) = 0.09005 0.10800
# Poissons Ratio (z) = 0.66685 0.28079
#
# Static dielectric constant tensor:
#      x y z
#    x 1.600140 0.000000 0.005750 
#    y 0.000000 1.673020 0.000000 
#    z 0.005750 0.000000 1.623330 
# 
# From -- ./inp_files/330336.got.cif
#   From: 2010.05.17/outbox.cif.g08.bks.cpg/sg12_166_cif.got.tgz:330336.got - 2010.06.03 13:09:07.
