data_PCOD9203234
_publ_section_title
;
Structure prediction by ZEFSAII (Michael W. Deem and Ramdas Pophale) SiO2 
 PCOD9203234
Probable space group: C 2/M
;
_chemical_formula_sum "Si O2"
_cell_formula_units_Z 40
_cell_length_a 19.601694
_cell_length_b 7.577091
_cell_length_c 13.641488
_cell_angle_alpha 90.000000
_cell_angle_beta 60.721473
_cell_angle_gamma 90.000000
_cell_volume 1767.258731
_symmetry_space_group_name_H-M "C 2/M"
_symmetry_group_IT_number 12
_symmetry_cell_setting 'monoclinic'
loop_
_space_group_symop_operation_xyz
x,y,z
-x,y,-z
-x,-y,-z
x,-y,z
1/2+x,1/2+y,z
1/2-x,1/2+y,-z
1/2-x,1/2-y,-z
1/2+x,1/2-y,z
loop_
_atom_site_type_symbol
_atom_site_label
_atom_site_fract_x
_atom_site_fract_y
_atom_site_fract_z
Si Si1 0.319644 0.211385 0.024685
Si Si2 0.490793 0.212499 0.891078
Si Si3 0.256796 0.704579 0.725480
Si Si4 0.413975 0.716903 0.526812
Si Si5 0.865520 0.797913 0.345883
O O1 0.293739 0.281720 0.149625
O O2 0.330375 0.000000 0.026330
O O3 0.250000 0.250000 0.000000
O O4 0.403407 0.275927 0.927651
O O5 0.559002 0.290626 0.777503
O O6 0.497666 0.000000 0.874707
O O7 0.500000 0.250330 0.000000
O O8 0.268760 0.500000 0.742758
O O9 0.343113 0.778143 0.646242
O O10 0.205801 0.711412 0.662471
O O11 0.500000 0.773410 0.500000
O O12 0.414585 0.500000 0.526021
O O13 0.391187 0.774878 0.433066
O O14 0.841621 0.000000 0.377825
#
# Coordination Sequence:
#
# PCOD9203234 Si02
#       5
#     8   8   8   8   8
#     4  10  22  37  58  85 113 150 188 229 280 334
#     4  10  20  39  60  81 113 152 191 223 273 346
#     4  10  20  39  62  80 111 157 191 224 279 342
#     4   9  20  37  58  84 112 146 190 234 280 336
#     4  11  22  35  59  90 114 143 188 241 282 322
#
# _framework density 22.633924
#
# number of rings (size 3 to 8) (size 9 to 14) (size 15 to 20)
#    0.000    2.000    2.000    1.200    2.800    2.000 
#    0.000    1.000    0.000    3.000    0.000    0.000 
#    0.000    0.000    0.000    0.000    0.000    0.000 
#
# Total GULP energy -111757.872082 kJ/mol
# GULP energy per Si atom -5587.893604 kJ/mol
# Density = 2.258241 g / cm^3
# Si number density = 22.633924 Si / 1000 Ang^3
#
#
#
# Elastic Constant Matrix: (Units=GPa)
#
#
# Indices 1 2 3 4 5 6 
#
# 1 117.2140 -10.3164 21.5475 0.0000 -27.6427 0.0000
# 2 -10.3164 46.3702 1.0743 0.0000 -1.3707 0.0000
# 3 21.5475 1.0743 72.1005 0.0000 -22.1542 0.0000
# 4 0.0000 0.0000 0.0000 -3.0845 0.0000 6.8461
# 5 -27.6427 -1.3707 -22.1542 0.0000 46.5812 0.0000
# 6 0.0000 0.0000 0.0000 6.8461 0.0000 21.3941
#
#
#
# Elastic Compliance Matrix: (Units=1/GPa)
#
#
# Indices 1 2 3 4 5 6 
#
# 1 0.010313 0.002491 -0.001424 0.000000 0.005516 0.000000
# 2 0.002491 0.022187 -0.000492 0.000000 0.001897 0.000000
# 3 -0.001424 -0.000492 0.016441 0.000000 0.006960 0.000000
# 4 0.000000 0.000000 0.000000 -0.189565 0.000000 0.060660
# 5 0.005516 0.001897 0.006960 0.000000 0.028107 0.000000
# 6 0.000000 0.000000 0.000000 0.060660 0.000000 0.027331
#
#
# Mechanical properties :
#
#
# Convention : Reuss Voigt Hill
#
# Bulk Modulus (GPa) = 19.96419 28.92173 24.44296
# Shear Modulus (GPa) = -71.80054 27.87011 -21.96521
#
# Velocity S-wave (km/s) = -5.63839 3.51286 -3.11859
# Velocity P-wave (km/s) = 5.79214 5.40919 1.46451
#
# Compressibility (1/GPa) = 0.05008970
#
# Stress axis : x y z
#
# Youngs Moduli (GPa) = 96.96204 45.07120 60.82349
#
# Poissons Ratio (x) = -0.11225 0.08663
# Poissons Ratio (y) = -0.24149 0.02993
# Poissons Ratio (z) = 0.13811 0.02218
#
# Static dielectric constant tensor:
#      x y z
#    x 1.833710 0.000000 -0.029800 
#    y 0.000000 1.876410 0.000000 
#    z -0.029800 0.000000 1.847050 
# 
# From -- ./inp_files/220568.got.cif
#   From: 2010.05.17/outbox.cif.g08.bks.cpg/sg12_111_cif.got.tgz:220568.got - 2010.06.03 13:09:07.
