data_PCOD9203190
_publ_section_title
;
Structure prediction by ZEFSAII (Michael W. Deem and Ramdas Pophale) SiO2 
 PCOD9203190
Probable space group: C 2/M
;
_chemical_formula_sum "Si O2"
_cell_formula_units_Z 44
_cell_length_a 17.208432
_cell_length_b 14.353849
_cell_length_c 11.941533
_cell_angle_alpha 90.000000
_cell_angle_beta 126.885277
_cell_angle_gamma 90.000000
_cell_volume 2359.240901
_symmetry_space_group_name_H-M "C 2/M"
_symmetry_group_IT_number 12
_symmetry_cell_setting 'monoclinic'
loop_
_space_group_symop_operation_xyz
x,y,z
-x,y,-z
-x,-y,-z
x,-y,z
1/2+x,1/2+y,z
1/2-x,1/2+y,-z
1/2-x,1/2-y,-z
1/2+x,1/2-y,z
loop_
_atom_site_type_symbol
_atom_site_label
_atom_site_fract_x
_atom_site_fract_y
_atom_site_fract_z
Si Si1 0.289117 0.160388 0.100741
Si Si2 0.995324 0.665697 0.373959
Si Si3 0.142934 0.500000 0.006524
Si Si4 0.071740 0.867545 0.457761
Si Si5 0.841860 0.000000 0.903417
Si Si6 0.743064 0.500000 0.663651
Si Si7 0.947482 0.500000 0.736172
Si Si8 0.537657 0.500000 0.220611
O O1 0.383593 0.191824 0.252238
O O2 0.218782 0.094284 0.116497
O O3 0.250000 0.250000 0.000000
O O4 0.325477 0.089284 0.037461
O O5 0.061394 0.757475 0.433751
O O6 0.028694 0.591709 0.313148
O O7 0.000000 0.621088 0.500000
O O8 0.205772 0.500000 0.172225
O O9 0.025708 0.500000 0.904811
O O10 0.174561 0.911030 0.582256
O O11 0.000000 0.891438 0.500000
O O12 0.044690 0.914578 0.315107
O O13 0.880570 0.000000 0.807707
O O14 0.936062 0.000000 0.066281
O O15 0.834708 0.500000 0.662752
#
# Coordination Sequence:
#
# PCOD9203190 Si02
#       8
#     8   8   4   8   4   4   4   4
#     4  10  21  37  63  89 118 164 204 249 300 366
#     4  10  22  39  60  87 120 156 204 251 298 360
#     4   9  22  38  61  90 119 154 210 242 300 367
#     4  10  23  38  63  91 119 161 207 255 305 363
#     4  10  22  36  62  90 122 168 205 252 313 357
#     4  11  22  37  64  89 115 165 193 252 314 354
#     4  10  22  42  57  87 128 158 191 256 303 367
#     4  10  20  39  57  90 134 152 199 268 307 362
#
# _framework density 18.650067
#
# number of rings (size 3 to 8) (size 9 to 14) (size 15 to 20)
#    0.000    2.000    0.000    3.273   10.182    3.636 
#    3.273    0.000    0.000    0.000    0.000    0.000 
#    0.000    0.000    0.000    0.000    0.000    0.000 
#
# Total GULP energy -122591.400379 kJ/mol
# GULP energy per Si atom -5572.336381 kJ/mol
# Density = 1.860762 g / cm^3
# Si number density = 18.650067 Si / 1000 Ang^3
#
#
#
# Elastic Constant Matrix: (Units=GPa)
#
#
# Indices 1 2 3 4 5 6 
#
# 1 135.1691 55.5197 63.3875 0.0000 4.9054 0.0000
# 2 55.5197 125.4708 45.8136 0.0000 5.8100 0.0000
# 3 63.3875 45.8136 143.8113 0.0000 4.2917 0.0000
# 4 0.0000 0.0000 0.0000 19.1247 0.0000 -5.6852
# 5 4.9054 5.8100 4.2917 0.0000 39.9764 0.0000
# 6 0.0000 0.0000 0.0000 -5.6852 0.0000 24.8247
#
#
#
# Elastic Compliance Matrix: (Units=1/GPa)
#
#
# Indices 1 2 3 4 5 6 
#
# 1 0.010426 -0.003305 -0.003530 0.000000 -0.000420 0.000000
# 2 -0.003305 0.010107 -0.001737 0.000000 -0.000877 0.000000
# 3 -0.003530 -0.001737 0.009071 0.000000 -0.000288 0.000000
# 4 0.000000 0.000000 0.000000 0.056108 0.000000 0.012850
# 5 -0.000420 -0.000877 -0.000288 0.000000 0.025225 0.000000
# 6 0.000000 0.000000 0.000000 0.012850 0.000000 0.043225
#
#
# Mechanical properties :
#
#
# Convention : Reuss Voigt Hill
#
# Bulk Modulus (GPa) = 80.25208 81.54364 80.89786
# Shear Modulus (GPa) = 28.49633 32.76719 30.63176
#
# Velocity S-wave (km/s) = 3.91314 4.19614 4.05711
# Velocity P-wave (km/s) = 7.97124 8.20334 8.08812
#
# Compressibility (1/GPa) = 0.01246074
#
# Stress axis : x y z
#
# Youngs Moduli (GPa) = 95.91007 98.93857 110.23580
#
# Poissons Ratio (x) = 0.32701 0.38915
# Poissons Ratio (y) = 0.31700 0.19147
# Poissons Ratio (z) = 0.33858 0.17184
#
# Static dielectric constant tensor:
#      x y z
#    x 1.653850 0.000000 -0.002050 
#    y 0.000000 1.665220 0.000000 
#    z -0.002050 0.000000 1.651030 
# 
# From -- ./inp_files/156319.got.cif
#   From: 2010.05.17/outbox.cif.g08.bks.cpg/sg12_79_cif.got.tgz:156319.got - 2010.06.03 13:09:07.
