data_PCOD9203703
_publ_section_title
;
Structure prediction by ZEFSAII (Michael W. Deem and Ramdas Pophale) SiO2 
 PCOD9203703
Probable space group: C 2/M
;
_chemical_formula_sum "Si O2"
_cell_formula_units_Z 36
_cell_length_a 11.033101
_cell_length_b 23.064251
_cell_length_c 10.072020
_cell_angle_alpha 90.000000
_cell_angle_beta 42.982467
_cell_angle_gamma 90.000000
_cell_volume 1747.407921
_symmetry_space_group_name_H-M "C 2/M"
_symmetry_group_IT_number 12
_symmetry_cell_setting 'monoclinic'
loop_
_space_group_symop_operation_xyz
x,y,z
-x,y,-z
-x,-y,-z
x,-y,z
1/2+x,1/2+y,z
1/2-x,1/2+y,-z
1/2-x,1/2-y,-z
1/2+x,1/2-y,z
loop_
_atom_site_type_symbol
_atom_site_label
_atom_site_fract_x
_atom_site_fract_y
_atom_site_fract_z
Si Si1 0.000000 0.797970 0.500000
Si Si2 0.685346 0.500000 0.939920
Si Si3 0.469358 0.500000 0.364571
Si Si4 0.693875 0.706923 0.810654
Si Si5 0.421006 0.885623 0.714110
Si Si6 0.809852 0.124424 0.441581
O O1 0.167091 0.756246 0.338626
O O2 0.061597 0.839851 0.566855
O O3 0.806040 0.443657 0.816437
O O4 0.500000 0.500000 0.000000
O O5 0.641027 0.500000 0.132280
O O6 0.500000 0.500000 0.500000
O O7 0.367361 0.557723 0.399461
O O8 0.790773 0.668308 0.844696
O O9 0.671638 0.659332 0.711115
O O10 0.500000 0.729357 0.000000
O O11 0.500000 0.883988 0.500000
O O12 0.602377 0.877111 0.650630
#
# Coordination Sequence:
#
# PCOD9203703 Si02
#       6
#     4   4   4   8   8   8
#     4  12  24  45  64  95 138 184 222 274 338 404
#     4  12  22  39  73 106 134 175 239 290 340 410
#     4  12  25  45  65  97 137 187 219 276 352 412
#     4  11  23  41  69 103 129 170 229 285 340 396
#     4  10  20  39  66 103 135 171 224 288 347 398
#     4  11  23  45  69  90 138 181 221 275 347 407
#
# _framework density 20.601942999999999
#
# number of rings (size 3 to 8) (size 9 to 14) (size 15 to 20)
#    0.000    0.889    4.444    6.333    0.000    0.889 
#    4.000    2.222    0.000    0.000    0.000    0.000 
#    0.000    0.000    0.000    0.000    0.000    0.000 
#
# Total GULP energy -100420.985659 kJ/mol
# GULP energy per Si atom -5578.943648 kJ/mol
# Density = 2.055505 g / cm^3
# Si number density = 20.601943 Si / 1000 Ang^3
#
#
#
# Elastic Constant Matrix: (Units=GPa)
#
#
# Indices 1 2 3 4 5 6 
#
# 1 74.4679 20.8612 30.6459 0.0000 -6.1310 0.0000
# 2 20.8612 126.8296 27.3076 0.0000 -15.0567 0.0000
# 3 30.6459 27.3076 107.6820 0.0000 -31.6290 0.0000
# 4 0.0000 0.0000 0.0000 -94.8740 0.0000 32.0193
# 5 -6.1310 -15.0567 -31.6290 0.0000 27.3451 0.0000
# 6 0.0000 0.0000 0.0000 32.0193 0.0000 13.9873
#
#
#
# Elastic Compliance Matrix: (Units=1/GPa)
#
#
# Indices 1 2 3 4 5 6 
#
# 1 0.015731 -0.001908 -0.004946 0.000000 -0.003245 0.000000
# 2 -0.001908 0.008766 -0.000588 0.000000 0.003720 0.000000
# 3 -0.004946 -0.000588 0.015786 0.000000 0.016826 0.000000
# 4 0.000000 0.000000 0.000000 -0.005946 0.000000 0.013612
# 5 -0.003245 0.003720 0.016826 0.000000 0.057352 0.000000
# 6 0.000000 0.000000 0.000000 0.013612 0.000000 0.040333
#
#
# Mechanical properties :
#
#
# Convention : Reuss Voigt Hill
#
# Bulk Modulus (GPa) = 39.37008 51.84544 45.60776
# Shear Modulus (GPa) = 32.18070 4.63598 18.40834
#
# Velocity S-wave (km/s) = 3.95653 1.50172 2.99243
# Velocity P-wave (km/s) = 6.32642 5.31289 5.84168
#
# Compressibility (1/GPa) = 0.02540000
#
# Stress axis : x y z
#
# Youngs Moduli (GPa) = 63.56681 114.07082 63.34901
#
# Poissons Ratio (x) = 0.21762 0.31335
# Poissons Ratio (y) = 0.12127 0.03723
# Poissons Ratio (z) = 0.31442 0.06704
#
# Static dielectric constant tensor:
#      x y z
#    x 1.280950 0.000000 0.033780 
#    y 0.000000 1.736350 0.000000 
#    z 0.033780 0.000000 1.762880 
# 
# From -- ./inp_files/134655.got.cif
#   From: 2010.05.17/outbox.cif.g08.bks.cpg/sg12_68_cif.got.tgz:134655.got - 2010.06.03 13:09:07.
