data_PCOD9203597
_publ_section_title
;
Structure prediction by ZEFSAII (Michael W. Deem and Ramdas Pophale) SiO2 
 PCOD9203597
Probable space group: C 2/M
;
_chemical_formula_sum "Si O2"
_cell_formula_units_Z 58
_cell_length_a 21.700921
_cell_length_b 17.220368
_cell_length_c 11.063249
_cell_angle_alpha 90.000000
_cell_angle_beta 134.873067
_cell_angle_gamma 90.000000
_cell_volume 2929.869592
_symmetry_space_group_name_H-M "C 2/M"
_symmetry_group_IT_number 12
_symmetry_cell_setting 'monoclinic'
loop_
_space_group_symop_operation_xyz
x,y,z
-x,y,-z
-x,-y,-z
x,-y,z
1/2+x,1/2+y,z
1/2-x,1/2+y,-z
1/2-x,1/2-y,-z
1/2+x,1/2-y,z
loop_
_atom_site_type_symbol
_atom_site_label
_atom_site_fract_x
_atom_site_fract_y
_atom_site_fract_z
Si Si1 0.255354 0.910400 0.747070
Si Si2 0.649436 0.297380 0.985197
Si Si3 0.925625 0.358074 0.556104
Si Si4 0.743754 0.093412 0.534844
Si Si5 0.441322 0.846668 0.038984
Si Si6 0.406972 0.592588 0.915104
Si Si7 0.341133 0.735446 0.274086
Si Si8 0.000000 0.500000 0.500000
O O1 0.254213 0.889340 0.603871
O O2 0.194617 0.847663 0.729136
O O3 0.227967 0.000000 0.725472
O O4 0.356604 0.901971 0.925597
O O5 0.602551 0.237986 0.011884
O O6 0.625442 0.275985 0.815634
O O7 0.617627 0.380345 0.985184
O O8 0.753221 0.287722 0.141605
O O9 0.837962 0.370746 0.511190
O O10 0.907779 0.280723 0.452354
O O11 0.001009 0.355734 0.761245
O O12 0.945426 0.430877 0.497022
O O13 0.831306 0.120584 0.721122
O O14 0.737480 0.000000 0.537205
O O15 0.500000 0.857478 0.000000
O O16 0.408164 0.500000 0.911032
O O17 0.500000 0.621548 0.000000
#
# Coordination Sequence:
#
# PCOD9203597 Si02
#       8
#     8   8   8   8   8   8   8   2
#     4  10  23  41  64  95 132 175 225 272 330 393
#     4  10  21  40  58  87 126 169 220 272 322 393
#     4  12  23  42  63  95 137 174 217 268 330 406
#     4  10  20  39  64  93 129 169 212 275 329 390
#     4  11  23  38  63  97 130 169 217 279 337 389
#     4  10  21  38  64  95 123 163 223 281 331 385
#     4  10  23  41  61  88 129 178 221 263 326 399
#     4  12  28  40  66 104 132 184 210 260 342 396
#
# _framework density 19.796102999999999
#
# number of rings (size 3 to 8) (size 9 to 14) (size 15 to 20)
#    0.000    1.517    3.448    1.241    0.966    3.586 
#    0.000    0.000    0.000    0.000    0.000    6.276 
#    0.000    0.000    0.000    0.000    0.000    0.000 
#
# Total GULP energy -161652.103933 kJ/mol
# GULP energy per Si atom -5574.210480 kJ/mol
# Density = 1.975105 g / cm^3
# Si number density = 19.796103 Si / 1000 Ang^3
#
#
#
# Elastic Constant Matrix: (Units=GPa)
#
#
# Indices 1 2 3 4 5 6 
#
# 1 87.4173 49.4552 32.4760 0.0000 -2.6592 0.0000
# 2 49.4552 62.3002 46.6889 0.0000 -3.1607 0.0000
# 3 32.4760 46.6889 78.4472 0.0000 -1.7682 0.0000
# 4 0.0000 0.0000 0.0000 19.0994 0.0000 -3.5558
# 5 -2.6592 -3.1607 -1.7682 0.0000 25.4766 0.0000
# 6 0.0000 0.0000 0.0000 -3.5558 0.0000 23.3656
#
#
#
# Elastic Compliance Matrix: (Units=1/GPa)
#
#
# Indices 1 2 3 4 5 6 
#
# 1 0.020976 -0.018306 0.002213 0.000000 0.000072 0.000000
# 2 -0.018306 0.045098 -0.019209 0.000000 0.002351 0.000000
# 3 0.002213 -0.019209 0.023252 0.000000 -0.000538 0.000000
# 4 0.000000 0.000000 0.000000 0.053884 0.000000 0.008200
# 5 0.000072 0.002351 -0.000538 0.000000 0.039514 0.000000
# 6 0.000000 0.000000 0.000000 0.008200 0.000000 0.044046
#
#
# Mechanical properties :
#
#
# Convention : Reuss Voigt Hill
#
# Bulk Modulus (GPa) = 53.41546 53.93386 53.67466
# Shear Modulus (GPa) = 16.46832 20.22463 18.34647
#
# Velocity S-wave (km/s) = 2.88739 3.19979 3.04760
# Velocity P-wave (km/s) = 6.17717 6.39964 6.28939
#
# Compressibility (1/GPa) = 0.01872117
#
# Stress axis : x y z
#
# Youngs Moduli (GPa) = 47.67447 22.17410 43.00728
#
# Poissons Ratio (x) = 0.40591 -0.09517
# Poissons Ratio (y) = 0.87271 0.82614
# Poissons Ratio (z) = -0.10549 0.42595
#
# Static dielectric constant tensor:
#      x y z
#    x 1.670210 0.000000 -0.003650 
#    y 0.000000 1.709190 0.000000 
#    z -0.003650 0.000000 1.719130 
# 
# From -- ./inp_files/168981.got.cif
#   From: 2010.05.17/outbox.cif.g08.bks.cpg/sg12_85_cif.got.tgz:168981.got - 2010.06.03 13:09:07.
