data_PCOD9203331
_publ_section_title
;
Structure prediction by ZEFSAII (Michael W. Deem and Ramdas Pophale) SiO2 
 PCOD9203331
Probable space group: C 2/M
;
_chemical_formula_sum "Si O2"
_cell_formula_units_Z 48
_cell_length_a 15.513267
_cell_length_b 8.527250
_cell_length_c 19.896092
_cell_angle_alpha 90.000000
_cell_angle_beta 102.616934
_cell_angle_gamma 90.000000
_cell_volume 2568.408565
_symmetry_space_group_name_H-M "C 2/M"
_symmetry_group_IT_number 12
_symmetry_cell_setting 'monoclinic'
loop_
_space_group_symop_operation_xyz
x,y,z
-x,y,-z
-x,-y,-z
x,-y,z
1/2+x,1/2+y,z
1/2-x,1/2+y,-z
1/2-x,1/2-y,-z
1/2+x,1/2-y,z
loop_
_atom_site_type_symbol
_atom_site_label
_atom_site_fract_x
_atom_site_fract_y
_atom_site_fract_z
Si Si1 0.799239 0.687826 0.574748
Si Si2 0.694202 0.187589 0.827905
Si Si3 0.061954 0.189407 0.912034
Si Si4 0.509763 0.310552 0.423602
Si Si5 0.173970 0.810474 0.674806
Si Si6 0.871634 0.809176 0.931637
O O1 0.796478 0.500000 0.572426
O O2 0.750000 0.750000 0.500000
O O3 0.899733 0.744751 0.590424
O O4 0.745909 0.740651 0.631768
O O5 0.609244 0.243774 0.855011
O O6 0.692640 0.247401 0.751756
O O7 0.781833 0.246055 0.882058
O O8 0.696426 0.000000 0.828072
O O9 0.960130 0.237014 0.906302
O O10 0.064105 0.000000 0.909510
O O11 0.114474 0.239701 0.988591
O O12 0.500000 0.262496 0.500000
O O13 0.514331 0.500000 0.423453
O O14 0.422736 0.261596 0.368207
O O15 0.174842 0.000000 0.676926
O O16 0.870583 0.000000 0.931969
#
# Coordination Sequence:
#
# PCOD9203331 Si02
#       6
#     8   8   8   8   8   8
#     4  11  22  38  61  87 113 143 185 233 282 336
#     4  11  22  35  53  82 117 145 182 233 281 326
#     4   9  17  35  60  81 106 147 193 227 272 332
#     4  10  20  39  62  83 109 143 184 232 283 336
#     4  10  23  41  57  78 113 153 187 223 280 345
#     4   8  17  34  57  82 109 146 189 229 270 331
#
# _framework density 18.688614000000001
#
# number of rings (size 3 to 8) (size 9 to 14) (size 15 to 20)
#    0.000    2.167    1.667    2.500    0.000    3.667 
#    0.000    9.167    0.000    0.000    0.000    0.000 
#    0.000    0.000    0.000    0.000    0.000    0.000 
#
# Total GULP energy -134006.682914 kJ/mol
# GULP energy per Si atom -5583.611788 kJ/mol
# Density = 1.864608 g / cm^3
# Si number density = 18.688614 Si / 1000 Ang^3
#
#
#
# Elastic Constant Matrix: (Units=GPa)
#
#
# Indices 1 2 3 4 5 6 
#
# 1 108.1190 18.7979 44.9270 0.0000 -27.8922 0.0000
# 2 18.7979 14.3920 16.6168 0.0000 -5.9130 0.0000
# 3 44.9270 16.6168 97.9760 0.0000 -34.9981 0.0000
# 4 0.0000 0.0000 0.0000 27.9142 0.0000 -1.8187
# 5 -27.8922 -5.9130 -34.9981 0.0000 30.1300 0.0000
# 6 0.0000 0.0000 0.0000 -1.8187 0.0000 29.3511
#
#
#
# Elastic Compliance Matrix: (Units=1/GPa)
#
#
# Indices 1 2 3 4 5 6 
#
# 1 0.014549 -0.014071 -0.000787 0.000000 0.009793 0.000000
# 2 -0.014071 0.100011 -0.013933 0.000000 -0.009583 0.000000
# 3 -0.000787 -0.013933 0.019986 0.000000 0.019753 0.000000
# 4 0.000000 0.000000 0.000000 0.035969 0.000000 0.002229
# 5 0.009793 -0.009583 0.019753 0.000000 0.063319 0.000000
# 6 0.000000 0.000000 0.000000 0.002229 0.000000 0.034208
#
#
# Mechanical properties :
#
#
# Convention : Reuss Voigt Hill
#
# Bulk Modulus (GPa) = 12.99286 42.35226 27.67256
# Shear Modulus (GPa) = 14.23373 26.82207 20.52790
#
# Velocity S-wave (km/s) = 2.76275 3.79253 3.31783
# Velocity P-wave (km/s) = 4.14058 6.47217 5.43293
#
# Compressibility (1/GPa) = 0.07696534
#
# Stress axis : x y z
#
# Youngs Moduli (GPa) = 68.73446 9.99891 50.03424
#
# Poissons Ratio (x) = 0.14069 0.03937
# Poissons Ratio (y) = 0.96715 0.69712
# Poissons Ratio (z) = 0.05408 0.13931
#
# Static dielectric constant tensor:
#      x y z
#    x 1.638490 0.000000 0.005130 
#    y 0.000000 1.642010 0.000000 
#    z 0.005130 0.000000 1.617410 
# 
# From -- ./inp_files/267645.got.cif
#   From: 2010.05.17/outbox.cif.g08.bks.cpg/sg12_134_cif.got.tgz:267645.got - 2010.06.03 13:09:07.
