data_PCOD9203325
_publ_section_title
;
Structure prediction by ZEFSAII (Michael W. Deem and Ramdas Pophale) SiO2 
 PCOD9203325
Probable space group: C 2/M
;
_chemical_formula_sum "Si O2"
_cell_formula_units_Z 44
_cell_length_a 12.865117
_cell_length_b 7.510217
_cell_length_c 23.168778
_cell_angle_alpha 90.000000
_cell_angle_beta 137.161452
_cell_angle_gamma 90.000000
_cell_volume 1522.076992
_symmetry_space_group_name_H-M "C 2/M"
_symmetry_group_IT_number 12
_symmetry_cell_setting 'monoclinic'
loop_
_space_group_symop_operation_xyz
x,y,z
-x,y,-z
-x,-y,-z
x,-y,z
1/2+x,1/2+y,z
1/2-x,1/2+y,-z
1/2-x,1/2-y,-z
1/2+x,1/2-y,z
loop_
_atom_site_type_symbol
_atom_site_label
_atom_site_fract_x
_atom_site_fract_y
_atom_site_fract_z
Si Si1 0.932318 0.711651 0.237597
Si Si2 0.334769 0.000000 0.380091
Si Si3 0.622311 0.714972 0.097535
Si Si4 0.811894 0.706168 0.761729
Si Si5 0.766284 0.287407 0.573985
Si Si6 0.621736 0.287455 0.899336
O O1 0.933282 0.500000 0.244503
O O2 0.779601 0.715832 0.117877
O O3 0.030215 0.756373 0.216681
O O4 0.065092 0.773149 0.336052
O O5 0.298968 0.154323 0.315679
O O6 0.339005 0.157182 0.431801
O O7 0.598880 0.500000 0.095831
O O8 0.774618 0.782800 0.206841
O O9 0.531153 0.778336 0.123306
O O10 0.500000 0.784970 0.000000
O O11 0.790742 0.500000 0.737081
O O12 0.745937 0.500000 0.576058
O O13 0.750000 0.250000 0.500000
O O14 0.620766 0.500000 0.893431
O O15 0.750000 0.250000 0.000000
#
# Coordination Sequence:
#
# PCOD9203325 Si02
#       6
#     8   4   8   8   8   8
#     4  11  23  40  68  98 135 185 231 284 357 421
#     4  12  20  40  69  95 139 185 215 282 354 415
#     4  10  24  43  66  99 138 186 240 296 347 412
#     4  10  20  39  64  92 134 184 228 277 345 410
#     4  11  22  39  67 108 141 173 234 291 347 420
#     4  10  20  39  61  92 131 179 228 281 350 411
#
# _framework density 28.907867
#
# number of rings (size 3 to 8) (size 9 to 14) (size 15 to 20)
#    1.091    0.364    3.636    1.636    1.273    3.273 
#    0.000    0.000    0.000    5.455    0.000    7.636 
#    0.000    0.000    0.000    0.000    0.000    0.000 
#
# Total GULP energy -122651.012717 kJ/mol
# GULP energy per Si atom -5575.046033 kJ/mol
# Density = 2.884207 g / cm^3
# Si number density = 28.907867 Si / 1000 Ang^3
#
#
#
# Elastic Constant Matrix: (Units=GPa)
#
#
# Indices 1 2 3 4 5 6 
#
# 1 210.7600 7.6119 115.1863 0.0000 2.1559 0.0000
# 2 7.6119 251.2563 51.0416 0.0000 -13.3025 0.0000
# 3 115.1863 51.0416 319.3035 0.0000 -63.4153 0.0000
# 4 0.0000 0.0000 0.0000 53.6614 0.0000 -29.1405
# 5 2.1559 -13.3025 -63.4153 0.0000 72.4024 0.0000
# 6 0.0000 0.0000 0.0000 -29.1405 0.0000 12.1160
#
#
#
# Elastic Compliance Matrix: (Units=1/GPa)
#
#
# Indices 1 2 3 4 5 6 
#
# 1 0.006315 0.000246 -0.002840 0.000000 -0.002630 0.000000
# 2 0.000246 0.004126 -0.000726 0.000000 0.000115 0.000000
# 3 -0.002840 -0.000726 0.005160 0.000000 0.004471 0.000000
# 4 0.000000 0.000000 0.000000 -0.060882 0.000000 -0.146430
# 5 -0.002630 0.000115 0.004471 0.000000 0.017827 0.000000
# 6 0.000000 0.000000 0.000000 -0.146430 0.000000 -0.269646
#
#
# Mechanical properties :
#
#
# Convention : Reuss Voigt Hill
#
# Bulk Modulus (GPa) = 111.56869 125.44439 118.50654
# Shear Modulus (GPa) = -17.39283 68.13462 25.37089
#
# Velocity S-wave (km/s) = -2.45555 4.86012 2.96572
# Velocity P-wave (km/s) = 5.53523 8.65928 7.26711
#
# Compressibility (1/GPa) = 0.00896309
#
# Stress axis : x y z
#
# Youngs Moduli (GPa) = 158.36046 242.36396 193.79369
#
# Poissons Ratio (x) = -0.05970 0.55031
# Poissons Ratio (y) = -0.03901 0.14060
# Poissons Ratio (z) = 0.44969 0.17584
#
# Static dielectric constant tensor:
#      x y z
#    x 2.464400 0.000000 -0.035150 
#    y 0.000000 1.949170 0.000000 
#    z -0.035150 0.000000 2.457240 
# 
# From -- ./inp_files/318871.got.cif
#   From: 2010.05.17/outbox.cif.g08.bks.cpg/sg12_160_cif.got.tgz:318871.got - 2010.06.03 13:09:07.
