data_PCOD9203755
_publ_section_title
;
Structure prediction by ZEFSAII (Michael W. Deem and Ramdas Pophale) SiO2 
 PCOD9203755
Probable space group: C 2/M
;
_chemical_formula_sum "Si O2"
_cell_formula_units_Z 58
_cell_length_a 23.339746
_cell_length_b 7.849211
_cell_length_c 13.195364
_cell_angle_alpha 90.000000
_cell_angle_beta 90.265371
_cell_angle_gamma 90.000000
_cell_volume 2417.346165
_symmetry_space_group_name_H-M "C 2/M"
_symmetry_group_IT_number 12
_symmetry_cell_setting 'monoclinic'
loop_
_space_group_symop_operation_xyz
x,y,z
-x,y,-z
-x,-y,-z
x,-y,z
1/2+x,1/2+y,z
1/2-x,1/2+y,-z
1/2-x,1/2-y,-z
1/2+x,1/2-y,z
loop_
_atom_site_type_symbol
_atom_site_label
_atom_site_fract_x
_atom_site_fract_y
_atom_site_fract_z
Si Si1 0.339998 0.209205 0.833771
Si Si2 0.719091 0.699750 0.748815
Si Si3 0.095916 0.701190 0.364024
Si Si4 0.000000 0.000000 0.000000
Si Si5 0.853959 0.206005 0.439305
Si Si6 0.144052 0.304765 0.936315
Si Si7 0.474767 0.302605 0.349699
Si Si8 0.511435 0.183876 0.871562
O O1 0.279271 0.269756 0.788562
O O2 0.386352 0.258015 0.748832
O O3 0.340790 0.000000 0.836986
O O4 0.346616 0.266348 0.950369
O O5 0.728794 0.500000 0.729432
O O6 0.691256 0.769826 0.644915
O O7 0.675343 0.714568 0.843010
O O8 0.085741 0.500000 0.362522
O O9 0.146954 0.735283 0.444461
O O10 0.037324 0.790248 0.400604
O O11 0.983102 0.151050 0.918618
O O12 0.917036 0.261589 0.401129
O O13 0.852033 0.000000 0.439796
O O14 0.165060 0.500000 0.936141
O O15 0.076821 0.307102 0.911459
O O16 0.463839 0.500000 0.324584
O O17 0.483797 0.199340 0.247575
O O18 0.484577 0.000000 0.896398
#
# Coordination Sequence:
#
# PCOD9203755 Si02
#       8
#     8   8   8   2   8   8   8   8
#     4   9  21  40  60  89 125 165 204 259 325 391
#     4  10  20  39  67  89 120 164 211 259 323 390
#     4  11  24  40  61  90 126 167 213 265 327 393
#     4  12  26  40  60  94 138 180 222 264 336 390
#     4  10  22  40  63  90 122 161 212 271 326 387
#     4  10  21  38  62  92 127 160 208 266 321 383
#     4  11  22  41  64  91 126 166 214 268 326 392
#     4  11  24  40  63  95 132 176 222 271 323 390
#
# _framework density 23.993254
#
# number of rings (size 3 to 8) (size 9 to 14) (size 15 to 20)
#    0.000    1.655    2.069    1.862    2.897    3.862 
#    0.000    2.759    0.000    0.000    0.000    0.000 
#    0.000    0.000    0.000    0.000    0.000    0.000 
#
# Total GULP energy -161836.924552 kJ/mol
# GULP energy per Si atom -5580.583605 kJ/mol
# Density = 2.393864 g / cm^3
# Si number density = 23.993254 Si / 1000 Ang^3
#
#
#
# Elastic Constant Matrix: (Units=GPa)
#
#
# Indices 1 2 3 4 5 6 
#
# 1 69.7490 1.3467 7.5024 0.0000 26.7089 0.0000
# 2 1.3467 79.4905 0.2172 0.0000 0.0474 0.0000
# 3 7.5024 0.2172 111.3045 0.0000 41.0193 0.0000
# 4 0.0000 0.0000 0.0000 23.3202 0.0000 0.1688
# 5 26.7089 0.0474 41.0193 0.0000 40.8669 0.0000
# 6 0.0000 0.0000 0.0000 0.1688 0.0000 7.7602
#
#
#
# Elastic Compliance Matrix: (Units=1/GPa)
#
#
# Indices 1 2 3 4 5 6 
#
# 1 0.021297 -0.000365 0.005864 0.000000 -0.019804 0.000000
# 2 -0.000365 0.012586 -0.000131 0.000000 0.000355 0.000000
# 3 0.005864 -0.000131 0.015873 0.000000 -0.019764 0.000000
# 4 0.000000 0.000000 0.000000 0.042888 0.000000 -0.000933
# 5 -0.019804 0.000355 -0.019764 0.000000 0.057250 0.000000
# 6 0.000000 0.000000 0.000000 -0.000933 0.000000 0.128883
#
#
# Mechanical properties :
#
#
# Convention : Reuss Voigt Hill
#
# Bulk Modulus (GPa) = 16.53120 30.96406 23.74763
# Shear Modulus (GPa) = 17.34867 31.15463 24.25165
#
# Velocity S-wave (km/s) = 2.69190 3.60734 3.18271
# Velocity P-wave (km/s) = 4.07022 5.50308 4.83997
#
# Compressibility (1/GPa) = 0.06049169
#
# Stress axis : x y z
#
# Youngs Moduli (GPa) = 46.95521 79.45050 62.99921
#
# Poissons Ratio (x) = 0.02900 -0.36940
# Poissons Ratio (y) = 0.01714 0.00825
# Poissons Ratio (z) = -0.27532 0.01040
#
# Static dielectric constant tensor:
#      x y z
#    x 1.930220 0.000000 0.028820 
#    y 0.000000 1.885440 0.000000 
#    z 0.028820 0.000000 1.940210 
# 
# From -- ./inp_files/180956.got.cif
#   From: 2010.05.17/outbox.cif.g08.bks.cpg/sg12_91_cif.got.tgz:180956.got - 2010.06.03 13:09:07.
