data_PCOD9203193
_publ_section_title
;
Structure prediction by ZEFSAII (Michael W. Deem and Ramdas Pophale) SiO2 
 PCOD9203193
Probable space group: C 2/M
;
_chemical_formula_sum "Si O2"
_cell_formula_units_Z 34
_cell_length_a 5.304579
_cell_length_b 23.604172
_cell_length_c 13.868170
_cell_angle_alpha 90.000000
_cell_angle_beta 90.717727
_cell_angle_gamma 90.000000
_cell_volume 1736.300034
_symmetry_space_group_name_H-M "C 2/M"
_symmetry_group_IT_number 12
_symmetry_cell_setting 'monoclinic'
loop_
_space_group_symop_operation_xyz
x,y,z
-x,y,-z
-x,-y,-z
x,-y,z
1/2+x,1/2+y,z
1/2-x,1/2+y,-z
1/2-x,1/2-y,-z
1/2+x,1/2-y,z
loop_
_atom_site_type_symbol
_atom_site_label
_atom_site_fract_x
_atom_site_fract_y
_atom_site_fract_z
Si Si1 0.579289 0.931407 0.716331
Si Si2 0.000000 0.000000 0.000000
Si Si3 0.205269 0.773218 0.890360
Si Si4 0.426268 0.431030 0.392059
Si Si5 0.686735 0.102520 0.090128
O O1 0.853613 0.912775 0.680757
O O2 0.490356 0.910874 0.819948
O O3 0.353251 0.914479 0.642665
O O4 0.586069 0.000000 0.720079
O O5 0.138582 0.950366 0.935276
O O6 0.472749 0.759747 0.843878
O O7 0.159756 0.839982 0.892531
O O8 0.250000 0.750000 0.000000
O O9 0.500000 0.412834 0.500000
O O10 0.427578 0.500000 0.392177
O O11 0.500000 0.112779 0.000000
#
# Coordination Sequence:
#
# PCOD9203193 Si02
#       5
#     8   2   8   8   8
#     4  10  21  33  50  79 112 144 187 225 272 345
#     4  12  26  36  52  78 118 178 186 210 282 356
#     4  10  20  39  58  76  99 150 197 253 276 305
#     4   9  18  34  54  73 103 145 186 231 278 326
#     4  12  25  36  56  79 122 160 195 230 282 342
#
# _framework density 19.581869999999999
#
# number of rings (size 3 to 8) (size 9 to 14) (size 15 to 20)
#    0.000    1.647    3.529    2.471    3.294    2.824 
#    0.000    0.000    0.000    0.000    0.000    0.000 
#    0.000   18.824    0.000    0.000    0.000    0.000 
#
# Total GULP energy -94660.584600 kJ/mol
# GULP energy per Si atom -5568.269682 kJ/mol
# Density = 1.953730 g / cm^3
# Si number density = 19.581870 Si / 1000 Ang^3
#
#
#
# Elastic Constant Matrix: (Units=GPa)
#
#
# Indices 1 2 3 4 5 6 
#
# 1 72.4660 22.6679 -13.2701 0.0000 -7.5439 0.0000
# 2 22.6679 102.7919 -5.9843 0.0000 -9.8431 0.0000
# 3 -13.2701 -5.9843 44.6282 0.0000 -5.9806 0.0000
# 4 0.0000 0.0000 0.0000 -0.9372 0.0000 -3.7695
# 5 -7.5439 -9.8431 -5.9806 0.0000 31.0611 0.0000
# 6 0.0000 0.0000 0.0000 -3.7695 0.0000 0.3552
#
#
#
# Elastic Compliance Matrix: (Units=1/GPa)
#
#
# Indices 1 2 3 4 5 6 
#
# 1 0.016002 -0.002868 0.004899 0.000000 0.003921 0.000000
# 2 -0.002868 0.010693 0.000967 0.000000 0.002878 0.000000
# 3 0.004899 0.000967 0.024835 0.000000 0.006278 0.000000
# 4 0.000000 0.000000 0.000000 -0.024422 0.000000 -0.259212
# 5 0.003921 0.002878 0.006278 0.000000 0.035268 0.000000
# 6 0.000000 0.000000 0.000000 -0.259212 0.000000 0.064444
#
#
# Mechanical properties :
#
#
# Convention : Reuss Voigt Hill
#
# Bulk Modulus (GPa) = 17.38379 25.19033 21.28706
# Shear Modulus (GPa) = 35.71463 20.52732 28.12097
#
# Velocity S-wave (km/s) = 4.27530 3.24123 3.79367
# Velocity P-wave (km/s) = 5.76782 5.18647 5.48485
#
# Compressibility (1/GPa) = 0.05752487
#
# Stress axis : x y z
#
# Youngs Moduli (GPa) = 62.49204 93.52129 40.26574
#
# Poissons Ratio (x) = 0.26823 -0.19726
# Poissons Ratio (y) = 0.17924 -0.03892
# Poissons Ratio (z) = -0.30615 -0.09040
#
# Static dielectric constant tensor:
#      x y z
#    x 1.823490 0.000000 -0.027070 
#    y 0.000000 1.648440 0.000000 
#    z -0.027070 0.000000 1.701910 
# 
# From -- ./inp_files/114981.got.cif
#   From: 2010.05.17/outbox.cif.g08.bks.cpg/sg12_58_cif.got.tgz:114981.got - 2010.06.03 13:09:07.
