data_PCOD9203572
_publ_section_title
;
Structure prediction by ZEFSAII (Michael W. Deem and Ramdas Pophale) SiO2 
 PCOD9203572
Probable space group: C 2/M
;
_chemical_formula_sum "Si O2"
_cell_formula_units_Z 56
_cell_length_a 14.388324
_cell_length_b 23.899924
_cell_length_c 7.398491
_cell_angle_alpha 90.000000
_cell_angle_beta 112.230885
_cell_angle_gamma 90.000000
_cell_volume 2355.073987
_symmetry_space_group_name_H-M "C 2/M"
_symmetry_group_IT_number 12
_symmetry_cell_setting 'monoclinic'
loop_
_space_group_symop_operation_xyz
x,y,z
-x,y,-z
-x,-y,-z
x,-y,z
1/2+x,1/2+y,z
1/2-x,1/2+y,-z
1/2-x,1/2-y,-z
1/2+x,1/2-y,z
loop_
_atom_site_type_symbol
_atom_site_label
_atom_site_fract_x
_atom_site_fract_y
_atom_site_fract_z
Si Si1 0.880174 0.438524 0.429563
Si Si2 0.789080 0.852251 0.401213
Si Si3 0.416848 0.114895 0.817513
Si Si4 0.538358 0.782141 0.731607
Si Si5 0.925212 0.834839 0.161399
Si Si6 0.761970 0.669613 0.239174
Si Si7 0.942764 0.062513 0.648498
O O1 0.847752 0.500000 0.349680
O O2 0.874297 0.427179 0.637610
O O3 0.821422 0.389642 0.286433
O O4 0.000000 0.433037 0.500000
O O5 0.689643 0.858918 0.203201
O O6 0.874727 0.832705 0.325487
O O7 0.759064 0.818290 0.561906
O O8 0.836855 0.908817 0.523157
O O9 0.482772 0.166361 0.787082
O O10 0.500000 0.085138 0.000000
O O11 0.500000 0.783473 0.500000
O O12 0.514172 0.722972 0.803575
O O13 0.658369 0.789779 0.799215
O O14 0.992774 0.890314 0.201194
O O15 0.839118 0.834942 0.947983
O O16 0.000000 0.056796 0.500000
O O17 0.934368 0.000000 0.722323
#
# Coordination Sequence:
#
# PCOD9203572 Si02
#       7
#     8   8   8   8   8   8   8
#     4  10  20  39  64  90 131 176 209 262 340 400
#     4  10  22  41  65  97 122 172 220 270 331 394
#     4  11  22  40  67  98 134 171 220 273 332 399
#     4  12  21  44  63  91 140 181 212 277 338 392
#     4  11  25  42  66  96 130 175 230 268 330 394
#     4  11  22  41  65  96 135 170 217 276 329 396
#     4   9  20  44  67  90 130 172 217 280 334 385
#
# _framework density 23.778447
#
# number of rings (size 3 to 8) (size 9 to 14) (size 15 to 20)
#    0.000    1.429    4.286    2.571    0.000    4.286 
#    7.714    0.714    0.000    0.000    0.000    0.000 
#    0.000    0.000    0.000    0.000    0.000    0.000 
#
# Total GULP energy -156396.381375 kJ/mol
# GULP energy per Si atom -5585.585049 kJ/mol
# Density = 2.372433 g / cm^3
# Si number density = 23.778447 Si / 1000 Ang^3
#
#
#
# Elastic Constant Matrix: (Units=GPa)
#
#
# Indices 1 2 3 4 5 6 
#
# 1 103.3320 12.9861 15.8989 0.0000 10.8070 0.0000
# 2 12.9861 119.0194 11.9787 0.0000 6.2704 0.0000
# 3 15.8989 11.9787 95.5355 0.0000 28.6848 0.0000
# 4 0.0000 0.0000 0.0000 1.0849 0.0000 14.9175
# 5 10.8070 6.2704 28.6848 0.0000 45.5003 0.0000
# 6 0.0000 0.0000 0.0000 14.9175 0.0000 -7.4931
#
#
#
# Elastic Compliance Matrix: (Units=1/GPa)
#
#
# Indices 1 2 3 4 5 6 
#
# 1 0.010127 -0.000911 -0.001094 0.000000 -0.001590 0.000000
# 2 -0.000911 0.008605 -0.000785 0.000000 -0.000475 0.000000
# 3 -0.001094 -0.000785 0.013121 0.000000 -0.007904 0.000000
# 4 0.000000 0.000000 0.000000 0.032486 0.000000 0.064673
# 5 -0.001590 -0.000475 -0.007904 0.000000 0.027404 0.000000
# 6 0.000000 0.000000 0.000000 0.064673 0.000000 -0.004704
#
#
# Mechanical properties :
#
#
# Convention : Reuss Voigt Hill
#
# Bulk Modulus (GPa) = 38.06043 44.40160 41.23101
# Shear Modulus (GPa) = 49.32151 26.28663 37.80407
#
# Velocity S-wave (km/s) = 4.55929 3.32849 3.99161
# Velocity P-wave (km/s) = 6.61492 5.78665 6.21460
#
# Compressibility (1/GPa) = 0.02627401
#
# Stress axis : x y z
#
# Youngs Moduli (GPa) = 98.74969 116.20611 76.21449
#
# Poissons Ratio (x) = 0.10587 0.08334
# Poissons Ratio (y) = 0.08997 0.05982
# Poissons Ratio (z) = 0.10799 0.09120
#
# Static dielectric constant tensor:
#      x y z
#    x 2.101900 0.000000 -0.036190 
#    y 0.000000 1.900430 0.000000 
#    z -0.036190 0.000000 1.961410 
# 
# From -- ./inp_files/65997.got.cif
#   From: 2010.05.17/outbox.cif.g08.bks.cpg/sg12_33_cif.got.tgz:65997.got - 2010.06.03 13:09:07.
