data_PCOD9203165
_publ_section_title
;
Structure prediction by ZEFSAII (Michael W. Deem and Ramdas Pophale) SiO2 
 PCOD9203165
Probable space group: C 2/M
;
_chemical_formula_sum "Si O2"
_cell_formula_units_Z 52
_cell_length_a 9.485213
_cell_length_b 18.299390
_cell_length_c 24.149576
_cell_angle_alpha 90.000000
_cell_angle_beta 33.508955
_cell_angle_gamma 90.000000
_cell_volume 2314.116627
_symmetry_space_group_name_H-M "C 2/M"
_symmetry_group_IT_number 12
_symmetry_cell_setting 'monoclinic'
loop_
_space_group_symop_operation_xyz
x,y,z
-x,y,-z
-x,-y,-z
x,-y,z
1/2+x,1/2+y,z
1/2-x,1/2+y,-z
1/2-x,1/2-y,-z
1/2+x,1/2-y,z
loop_
_atom_site_type_symbol
_atom_site_label
_atom_site_fract_x
_atom_site_fract_y
_atom_site_fract_z
Si Si1 0.701696 0.584066 0.772436
Si Si2 0.197456 0.914183 0.533657
Si Si3 0.992410 0.287703 0.148265
Si Si4 0.812997 0.085658 0.341915
Si Si5 0.793033 0.640274 0.023180
Si Si6 0.500000 0.688185 0.500000
Si Si7 0.017529 0.292045 0.718887
O O1 0.774994 0.500000 0.741640
O O2 0.605130 0.615910 0.744558
O O3 0.462189 0.592540 0.891292
O O4 0.935335 0.631435 0.717711
O O5 0.099430 0.889192 0.626383
O O6 0.504900 0.910542 0.438085
O O7 0.102971 0.862736 0.515841
O O8 0.132355 0.000000 0.545869
O O9 0.195206 0.221056 0.074401
O O10 0.958004 0.303546 0.223925
O O11 0.724128 0.259030 0.212831
O O12 0.090587 0.351372 0.075930
O O13 0.884601 0.000000 0.318432
O O14 0.000000 0.614320 0.000000
O O15 0.726572 0.733100 0.396345
#
# Coordination Sequence:
#
# PCOD9203165 Si02
#       7
#     8   8   8   8   8   4   8
#     4  10  21  37  63  99 133 158 193 254 325 373
#     4   9  17  31  54  82 122 171 213 237 282 378
#     4  10  22  43  65  90 117 161 223 259 302 359
#     4   8  15  32  54  80 119 167 204 236 287 364
#     4  10  20  38  70  92 117 162 211 258 302 376
#     4  12  23  34  56  96 122 162 207 262 318 348
#     4  11  24  42  64  88 125 166 211 261 306 363
#
# _framework density 22.470776999999998
#
# number of rings (size 3 to 8) (size 9 to 14) (size 15 to 20)
#    0.000    2.154    3.077    1.154    0.000    2.769 
#    0.000    1.538    0.000    0.000    0.000    0.000 
#    0.000    0.000    0.000    0.000    0.000    0.000 
#
# Total GULP energy -145308.773477 kJ/mol
# GULP energy per Si atom -5588.798980 kJ/mol
# Density = 2.241963 g / cm^3
# Si number density = 22.470777 Si / 1000 Ang^3
#
#
#
# Elastic Constant Matrix: (Units=GPa)
#
#
# Indices 1 2 3 4 5 6 
#
# 1 110.1572 6.6985 48.9128 -0.0157 36.4753 -0.0011
# 2 6.6985 36.5129 9.9869 -0.0125 12.8568 0.0045
# 3 48.9128 9.9869 143.5620 -0.0206 26.4497 0.0164
# 4 -0.0157 -0.0125 -0.0206 9.0679 0.0105 6.9252
# 5 36.4753 12.8568 26.4497 0.0105 49.9643 -0.0014
# 6 -0.0011 0.0045 0.0164 6.9252 -0.0014 17.0948
#
#
#
# Elastic Compliance Matrix: (Units=1/GPa)
#
#
# Indices 1 2 3 4 5 6 
#
# 1 0.013087 0.001349 -0.003023 0.000036 -0.008300 -0.000012
# 2 0.001349 0.030326 -0.001053 0.000083 -0.008231 -0.000041
# 3 -0.003023 -0.001053 0.008435 0.000030 -0.001987 -0.000021
# 4 0.000036 0.000083 0.000030 0.159682 -0.000099 -0.064688
# 5 -0.008300 -0.008231 -0.001987 -0.000099 0.029244 0.000046
# 6 -0.000012 -0.000041 -0.000021 -0.064688 0.000046 0.084703
#
#
# Mechanical properties :
#
#
# Convention : Reuss Voigt Hill
#
# Bulk Modulus (GPa) = 21.55466 46.82538 34.19002
# Shear Modulus (GPa) = 14.43434 30.20100 22.31767
#
# Velocity S-wave (km/s) = 2.53723 3.67005 3.15490
# Velocity P-wave (km/s) = 4.26574 6.23239 5.34037
#
# Compressibility (1/GPa) = 0.04639367
#
# Stress axis : x y z
#
# Youngs Moduli (GPa) = 76.41299 32.97458 118.55236
#
# Poissons Ratio (x) = -0.04448 0.35843
# Poissons Ratio (y) = -0.10307 0.12480
# Poissons Ratio (z) = 0.23102 0.03471
#
# Static dielectric constant tensor:
#      x y z
#    x 1.804560 0.000000 0.025960 
#    y 0.000000 1.852420 0.000000 
#    z 0.025960 0.000000 1.877230 
# 
# From -- ./inp_files/302255.got.cif
#   From: 2010.05.17/outbox.cif.g08.bks.cpg/sg12_152_cif.got.tgz:302255.got - 2010.06.03 13:09:07.
