data_PCOD9203729
_publ_section_title
;
Structure prediction by ZEFSAII (Michael W. Deem and Ramdas Pophale) SiO2 
 PCOD9203729
Probable space group: C 2/M
;
_chemical_formula_sum "Si O2"
_cell_formula_units_Z 42
_cell_length_a 29.427989
_cell_length_b 7.604603
_cell_length_c 7.576876
_cell_angle_alpha 90.000000
_cell_angle_beta 77.570321
_cell_angle_gamma 90.000000
_cell_volume 1655.871571
_symmetry_space_group_name_H-M "C 2/M"
_symmetry_group_IT_number 12
_symmetry_cell_setting 'monoclinic'
loop_
_space_group_symop_operation_xyz
x,y,z
-x,y,-z
-x,-y,-z
x,-y,z
1/2+x,1/2+y,z
1/2-x,1/2+y,-z
1/2-x,1/2-y,-z
1/2+x,1/2-y,z
loop_
_atom_site_type_symbol
_atom_site_label
_atom_site_fract_x
_atom_site_fract_y
_atom_site_fract_z
Si Si1 0.611791 0.214974 0.944968
Si Si2 0.689455 0.207870 0.392861
Si Si3 0.037582 0.806885 0.728903
Si Si4 0.089220 0.286338 0.344891
Si Si5 0.000000 0.500000 0.000000
Si Si6 0.287257 0.788576 0.233490
O O1 0.586605 0.269486 0.144614
O O2 0.606701 0.000000 0.933504
O O3 0.586605 0.291921 0.796282
O O4 0.666356 0.258994 0.911300
O O5 0.640580 0.274937 0.364185
O O6 0.702094 0.279348 0.576237
O O7 0.735065 0.230230 0.233192
O O8 0.682750 0.000000 0.421821
O O9 0.051394 0.777773 0.514418
O O10 0.017659 0.000000 0.770809
O O11 0.008588 0.652701 0.841975
O O12 0.088514 0.500000 0.348296
O O13 0.285803 0.000000 0.236063
#
# Coordination Sequence:
#
# PCOD9203729 Si02
#       6
#     8   8   8   8   2   8
#     4  10  20  39  66  93 131 180 221 269 332 390
#     4   9  17  30  51  82 125 173 223 271 320 374
#     4  12  25  45  74 103 130 168 215 265 334 407
#     4  10  20  39  66  93 131 180 221 269 332 390
#     4  12  26  52  78  98 140 166 210 276 342 406
#     4   9  17  30  51  82 125 173 223 271 320 374
#
# _framework density 25.364284000000001
#
# number of rings (size 3 to 8) (size 9 to 14) (size 15 to 20)
#    0.000    1.905    3.810    0.286    0.000    3.048 
#    0.000    1.905    0.000    2.286    0.000    0.000 
#    0.000    0.000    0.000    0.000    0.000    0.000 
#
# Total GULP energy -117287.206307 kJ/mol
# GULP energy per Si atom -5585.105062 kJ/mol
# Density = 2.530655 g / cm^3
# Si number density = 25.364284 Si / 1000 Ang^3
#
#
#
# Elastic Constant Matrix: (Units=GPa)
#
#
# Indices 1 2 3 4 5 6 
#
# 1 132.0131 5.0576 28.5692 0.0000 -17.5887 0.0000
# 2 5.0576 109.9565 24.0169 0.0000 -17.7433 0.0000
# 3 28.5692 24.0169 151.7244 0.0000 -31.2798 0.0000
# 4 0.0000 0.0000 0.0000 -52.2968 0.0000 9.9165
# 5 -17.5887 -17.7433 -31.2798 0.0000 17.3445 0.0000
# 6 0.0000 0.0000 0.0000 9.9165 0.0000 8.2062
#
#
#
# Elastic Compliance Matrix: (Units=1/GPa)
#
#
# Indices 1 2 3 4 5 6 
#
# 1 0.008916 0.001291 0.000403 0.000000 0.011089 0.000000
# 2 0.001291 0.011160 0.000977 0.000000 0.014488 0.000000
# 3 0.000403 0.000977 0.010587 0.000000 0.020501 0.000000
# 4 0.000000 0.000000 0.000000 -0.015557 0.000000 0.018799
# 5 0.011089 0.014488 0.020501 0.000000 0.120695 0.000000
# 6 0.000000 0.000000 0.000000 0.018799 0.000000 0.099142
#
#
# Mechanical properties :
#
#
# Convention : Reuss Voigt Hill
#
# Bulk Modulus (GPa) = 27.77379 56.55350 42.16364
# Shear Modulus (GPa) = 20.69531 17.05411 18.87471
#
# Velocity S-wave (km/s) = 2.85954 2.59582 2.73086
# Velocity P-wave (km/s) = 4.67721 5.59726 5.15779
#
# Compressibility (1/GPa) = 0.03600517
#
# Stress axis : x y z
#
# Youngs Moduli (GPa) = 112.16093 89.60934 94.45599
#
# Poissons Ratio (x) = -0.11571 -0.03806
# Poissons Ratio (y) = -0.14483 -0.09231
# Poissons Ratio (z) = -0.04519 -0.08757
#
# Static dielectric constant tensor:
#      x y z
#    x 2.114140 0.000000 -0.005980 
#    y 0.000000 1.935960 0.000000 
#    z -0.005980 0.000000 1.967230 
# 
# From -- ./inp_files/107892.got.cif
#   From: 2010.05.17/outbox.cif.g08.bks.cpg/sg12_54_cif.got.tgz:107892.got - 2010.06.03 13:09:07.
