data_PCOD9203772
_publ_section_title
;
Structure prediction by ZEFSAII (Michael W. Deem and Ramdas Pophale) SiO2 
 PCOD9203772
Probable space group: C 2/M
;
_chemical_formula_sum "Si O2"
_cell_formula_units_Z 40
_cell_length_a 23.802286
_cell_length_b 21.708134
_cell_length_c 7.986280
_cell_angle_alpha 90.000000
_cell_angle_beta 26.714818
_cell_angle_gamma 90.000000
_cell_volume 1855.084627
_symmetry_space_group_name_H-M "C 2/M"
_symmetry_group_IT_number 12
_symmetry_cell_setting 'monoclinic'
loop_
_space_group_symop_operation_xyz
x,y,z
-x,y,-z
-x,-y,-z
x,-y,z
1/2+x,1/2+y,z
1/2-x,1/2+y,-z
1/2-x,1/2-y,-z
1/2+x,1/2-y,z
loop_
_atom_site_type_symbol
_atom_site_label
_atom_site_fract_x
_atom_site_fract_y
_atom_site_fract_z
Si Si1 0.558530 0.930307 0.655721
Si Si2 0.696889 0.383423 0.846828
Si Si3 0.175437 0.623598 0.858345
Si Si4 0.347939 0.752214 0.898070
Si Si5 0.552262 0.500000 0.128777
Si Si6 0.800173 0.000000 0.622524
O O1 0.697640 0.907160 0.306935
O O2 0.552296 0.000000 0.608678
O O3 0.500000 0.931674 0.000000
O O4 0.471711 0.885904 0.780809
O O5 0.759048 0.379236 0.497427
O O6 0.594814 0.437214 0.104445
O O7 0.660313 0.315182 0.996574
O O8 0.222353 0.563098 0.831727
O O9 0.203278 0.688940 0.864340
O O10 0.500000 0.762472 0.500000
O O11 0.250000 0.750000 0.000000
O O12 0.627565 0.500000 0.750295
O O13 0.406722 0.500000 0.477461
#
# Coordination Sequence:
#
# PCOD9203772 Si02
#       6
#     8   8   8   8   4   4
#     4   9  15  30  61  97 121 140 187 258 311 349
#     4  10  20  39  67  93 119 158 205 254 304 364
#     4  10  20  39  67  94 118 156 207 254 304 366
#     4  12  28  46  60  85 131 172 207 251 305 363
#     4   9  18  33  61  96 122 147 198 260 307 354
#     4   9  18  33  61  97 122 144 196 266 309 348
#
# _framework density 21.562359000000001
#
# number of rings (size 3 to 8) (size 9 to 14) (size 15 to 20)
#    0.000    2.000    2.000    1.800    2.800    0.000 
#    0.000    4.000    0.000    0.000    0.000    0.000 
#    0.000    0.000    0.000    0.000    0.000    0.000 
#
# Total GULP energy -111670.017432 kJ/mol
# GULP energy per Si atom -5583.500872 kJ/mol
# Density = 2.151328 g / cm^3
# Si number density = 21.562359 Si / 1000 Ang^3
#
#
#
# Elastic Constant Matrix: (Units=GPa)
#
#
# Indices 1 2 3 4 5 6 
#
# 1 132.3587 86.4235 57.4695 0.0000 -31.8569 0.0000
# 2 86.4235 203.1093 28.6597 0.0000 -14.5944 0.0000
# 3 57.4695 28.6597 57.0066 0.0000 -21.2572 0.0000
# 4 0.0000 0.0000 0.0000 13.7997 0.0000 -22.8100
# 5 -31.8569 -14.5944 -21.2572 0.0000 36.9761 0.0000
# 6 0.0000 0.0000 0.0000 -22.8100 0.0000 13.4672
#
#
#
# Elastic Compliance Matrix: (Units=1/GPa)
#
#
# Indices 1 2 3 4 5 6 
#
# 1 0.018540 -0.005530 -0.013706 0.000000 0.005911 0.000000
# 2 -0.005530 0.006964 0.001683 0.000000 -0.001048 0.000000
# 3 -0.013706 0.001683 0.033550 0.000000 0.008143 0.000000
# 4 0.000000 0.000000 0.000000 -0.040266 0.000000 -0.068201
# 5 0.005911 -0.001048 0.008143 0.000000 0.036405 0.000000
# 6 0.000000 0.000000 0.000000 -0.068201 0.000000 -0.041260
#
#
# Mechanical properties :
#
#
# Convention : Reuss Voigt Hill
#
# Bulk Modulus (GPa) = 41.75888 81.95332 61.85610
# Shear Modulus (GPa) = 87.68901 27.51004 57.59953
#
# Velocity S-wave (km/s) = 6.38404 3.57576 5.17407
# Velocity P-wave (km/s) = 8.58777 7.42551 8.02770
#
# Compressibility (1/GPa) = 0.02394700
#
# Stress axis : x y z
#
# Youngs Moduli (GPa) = 53.93788 143.60226 29.80666
#
# Poissons Ratio (x) = 0.79412 0.40853
# Poissons Ratio (y) = 0.29828 -0.05017
# Poissons Ratio (z) = 0.73928 -0.24170
#
# Static dielectric constant tensor:
#      x y z
#    x 1.855110 0.000000 0.047380 
#    y 0.000000 1.742120 0.000000 
#    z 0.047380 0.000000 1.826770 
# 
# From -- ./inp_files/48639.got.cif
#   From: 2010.05.17/outbox.cif.g08.bks.cpg/sg12_25_cif.got.tgz:48639.got - 2010.06.03 13:09:07.
