data_PCOD9203992
_publ_section_title
;
Structure prediction by ZEFSAII (Michael W. Deem and Ramdas Pophale) SiO2 
 PCOD9203992
Probable space group: C 2/M
;
_chemical_formula_sum "Si O2"
_cell_formula_units_Z 64
_cell_length_a 24.116698
_cell_length_b 7.973853
_cell_length_c 15.194434
_cell_angle_alpha 90.000000
_cell_angle_beta 87.183968
_cell_angle_gamma 90.000000
_cell_volume 2918.406870
_symmetry_space_group_name_H-M "C 2/M"
_symmetry_group_IT_number 12
_symmetry_cell_setting 'monoclinic'
loop_
_space_group_symop_operation_xyz
x,y,z
-x,y,-z
-x,-y,-z
x,-y,z
1/2+x,1/2+y,z
1/2-x,1/2+y,-z
1/2-x,1/2-y,-z
1/2+x,1/2-y,z
loop_
_atom_site_type_symbol
_atom_site_label
_atom_site_fract_x
_atom_site_fract_y
_atom_site_fract_z
Si Si1 0.563684 0.797130 0.005879
Si Si2 0.385664 0.298374 0.810719
Si Si3 0.144355 0.294165 0.842954
Si Si4 0.768227 0.688291 0.594713
Si Si5 0.762089 0.196126 0.786695
Si Si6 0.901774 0.694558 0.341393
Si Si7 0.973133 0.797989 0.654845
Si Si8 0.618474 0.692838 0.467175
O O1 0.603890 0.738507 0.924022
O O2 0.562447 0.000000 0.002926
O O3 0.500000 0.738233 0.000000
O O4 0.589645 0.744605 0.096497
O O5 0.382678 0.500000 0.801400
O O6 0.322968 0.230831 0.802426
O O7 0.429370 0.243429 0.732965
O O8 0.144401 0.500000 0.843934
O O9 0.208231 0.235197 0.841501
O O10 0.120186 0.242604 0.750210
O O11 0.748612 0.500000 0.608404
O O12 0.750000 0.750000 0.500000
O O13 0.750965 0.788961 0.682697
O O14 0.834813 0.698632 0.583094
O O15 0.764909 0.000000 0.808765
O O16 0.885838 0.500000 0.352220
O O17 0.879153 0.788178 0.428710
O O18 0.968127 0.711929 0.338168
O O19 0.942057 0.764355 0.565237
O O20 0.982050 0.000000 0.659888
O O21 0.629863 0.500000 0.440900
#
# Coordination Sequence:
#
# PCOD9203992 Si02
#       8
#     8   8   8   8   8   8   8   8
#     4  10  21  39  62  89 120 156 197 245 304 366
#     4  10  21  38  61  88 117 155 200 250 309 366
#     4   9  20  38  60  84 116 156 197 242 300 362
#     4  12  24  38  59  87 120 160 207 254 302 358
#     4  10  20  40  63  84 117 160 202 247 303 366
#     4  11  22  36  57  88 119 155 203 254 303 358
#     4  10  21  38  57  81 117 160 199 240 304 370
#     4  11  22  39  59  83 118 160 202 247 303 364
#
# _framework density 21.929773000000001
#
# number of rings (size 3 to 8) (size 9 to 14) (size 15 to 20)
#    0.000    1.625    1.250    3.750    0.000    6.250 
#    0.000    2.500    0.000    0.000    0.000    0.000 
#    0.000    0.000    0.000    0.000    0.000    0.000 
#
# Total GULP energy -178889.241659 kJ/mol
# GULP energy per Si atom -5590.288802 kJ/mol
# Density = 2.187986 g / cm^3
# Si number density = 21.929773 Si / 1000 Ang^3
#
#
#
# Elastic Constant Matrix: (Units=GPa)
#
#
# Indices 1 2 3 4 5 6 
#
# 1 109.0492 5.2298 31.0449 0.0000 -15.8753 0.0000
# 2 5.2298 22.1943 -5.7499 0.0000 -0.8105 0.0000
# 3 31.0449 -5.7499 106.0570 0.0000 -8.1074 0.0000
# 4 0.0000 0.0000 0.0000 26.5961 0.0000 4.0295
# 5 -15.8753 -0.8105 -8.1074 0.0000 39.0937 0.0000
# 6 0.0000 0.0000 0.0000 4.0295 0.0000 17.7258
#
#
#
# Elastic Compliance Matrix: (Units=1/GPa)
#
#
# Indices 1 2 3 4 5 6 
#
# 1 0.010718 -0.003177 -0.003030 0.000000 0.003658 0.000000
# 2 -0.003177 0.046725 0.003494 0.000000 0.000403 0.000000
# 3 -0.003030 0.003494 0.010584 0.000000 0.001037 0.000000
# 4 0.000000 0.000000 0.000000 0.038941 0.000000 -0.008852
# 5 0.003658 0.000403 0.001037 0.000000 0.027288 0.000000
# 6 0.000000 0.000000 0.000000 -0.008852 0.000000 0.058427
#
#
# Mechanical properties :
#
#
# Convention : Reuss Voigt Hill
#
# Bulk Modulus (GPa) = 15.97398 33.15000 24.56199
# Shear Modulus (GPa) = 22.83353 30.46818 26.65086
#
# Velocity S-wave (km/s) = 3.23028 3.73145 3.48987
# Velocity P-wave (km/s) = 4.60575 5.80639 5.24057
#
# Compressibility (1/GPa) = 0.06260179
#
# Stress axis : x y z
#
# Youngs Moduli (GPa) = 93.30439 21.40177 94.47790
#
# Poissons Ratio (x) = 0.06799 0.28625
# Poissons Ratio (y) = 0.29641 -0.33010
# Poissons Ratio (z) = 0.28270 -0.07478
#
# Static dielectric constant tensor:
#      x y z
#    x 1.824140 0.000000 -0.000860 
#    y 0.000000 1.787860 0.000000 
#    z -0.000860 0.000000 1.767730 
# 
# From -- ./inp_files/238615.got.cif
#   From: 2010.05.17/outbox.cif.g08.bks.cpg/sg12_120_cif.got.tgz:238615.got - 2010.06.03 13:09:07.
