data_PCOD9203132
_publ_section_title
;
Structure prediction by ZEFSAII (Michael W. Deem and Ramdas Pophale) SiO2 
 PCOD9203132
Probable space group: C 2/M
;
_chemical_formula_sum "Si O2"
_cell_formula_units_Z 56
_cell_length_a 8.040414
_cell_length_b 23.638792
_cell_length_c 13.740889
_cell_angle_alpha 90.000000
_cell_angle_beta 63.628614
_cell_angle_gamma 90.000000
_cell_volume 2339.884367
_symmetry_space_group_name_H-M "C 2/M"
_symmetry_group_IT_number 12
_symmetry_cell_setting 'monoclinic'
loop_
_space_group_symop_operation_xyz
x,y,z
-x,y,-z
-x,-y,-z
x,-y,z
1/2+x,1/2+y,z
1/2-x,1/2+y,-z
1/2-x,1/2-y,-z
1/2+x,1/2-y,z
loop_
_atom_site_type_symbol
_atom_site_label
_atom_site_fract_x
_atom_site_fract_y
_atom_site_fract_z
Si Si1 0.096772 0.834742 0.201168
Si Si2 0.722802 0.934684 0.551860
Si Si3 0.852275 0.310278 0.451094
Si Si4 0.840298 0.655404 0.961938
Si Si5 0.592987 0.439425 0.694014
Si Si6 0.875823 0.562893 0.787510
Si Si7 0.433622 0.227000 0.221971
O O1 0.257700 0.800210 0.214538
O O2 0.052436 0.889513 0.275884
O O3 0.920463 0.793820 0.240706
O O4 0.157891 0.847505 0.074826
O O5 0.774753 0.866228 0.538336
O O6 0.746279 0.939686 0.429084
O O7 0.541393 0.931861 0.665956
O O8 0.796854 0.000000 0.560415
O O9 0.750000 0.250000 0.500000
O O10 0.955438 0.299556 0.322303
O O11 0.000000 0.321589 0.500000
O O12 0.867698 0.608422 0.873407
O O13 0.889943 0.713263 0.892585
O O14 0.000000 0.646935 0.000000
O O15 0.497175 0.500000 0.713600
O O16 0.690507 0.432919 0.771845
O O17 0.889101 0.500000 0.826736
#
# Coordination Sequence:
#
# PCOD9203132 Si02
#       7
#     8   8   8   8   8   8   8
#     4  11  25  44  69  98 134 182 224 284 332 398
#     4  10  21  40  69 102 135 174 224 276 336 408
#     4  12  24  39  66 100 136 173 215 272 335 402
#     4  10  23  42  63  94 136 178 227 277 334 400
#     4  10  22  41  67 101 136 173 221 278 343 406
#     4  10  20  38  68 100 133 178 227 280 336 404
#     4  11  24  44  65  98 138 176 228 271 341 403
#
# _framework density 23.932804999999998
#
# number of rings (size 3 to 8) (size 9 to 14) (size 15 to 20)
#    0.000    1.429    1.429    3.429    2.000    4.571 
#    0.000    4.286    0.000    2.143    0.000    0.000 
#    0.000    0.000    0.000    0.000    0.000    0.000 
#
# Total GULP energy -156070.091801 kJ/mol
# GULP energy per Si atom -5573.931850 kJ/mol
# Density = 2.387833 g / cm^3
# Si number density = 23.932805 Si / 1000 Ang^3
#
#
#
# Elastic Constant Matrix: (Units=GPa)
#
#
# Indices 1 2 3 4 5 6 
#
# 1 63.2691 34.0720 43.5722 0.0000 9.9867 0.0000
# 2 34.0720 188.1822 46.3930 0.0000 -8.6004 0.0000
# 3 43.5722 46.3930 138.6340 0.0000 15.7521 0.0000
# 4 0.0000 0.0000 0.0000 44.4034 0.0000 -4.7951
# 5 9.9867 -8.6004 15.7521 0.0000 23.3848 0.0000
# 6 0.0000 0.0000 0.0000 -4.7951 0.0000 0.5940
#
#
#
# Elastic Compliance Matrix: (Units=1/GPa)
#
#
# Indices 1 2 3 4 5 6 
#
# 1 0.022101 -0.003067 -0.005110 0.000000 -0.007124 0.000000
# 2 -0.003067 0.006533 -0.001780 0.000000 0.004912 0.000000
# 3 -0.005110 -0.001780 0.010007 0.000000 -0.005213 0.000000
# 4 0.000000 0.000000 0.000000 0.175646 0.000000 1.417963
# 5 -0.007124 0.004912 -0.005213 0.000000 0.051123 0.000000
# 6 0.000000 0.000000 0.000000 1.417963 0.000000 13.130588
#
#
# Mechanical properties :
#
#
# Convention : Reuss Voigt Hill
#
# Bulk Modulus (GPa) = 53.40254 70.90662 62.15458
# Shear Modulus (GPa) = 0.37252 31.41298 15.89275
#
# Velocity S-wave (km/s) = 0.39496 3.62684 2.57973
# Velocity P-wave (km/s) = 4.75079 6.87243 5.90763
#
# Compressibility (1/GPa) = 0.01872570
#
# Stress axis : x y z
#
# Youngs Moduli (GPa) = 45.24623 153.07585 99.92507
#
# Poissons Ratio (x) = 0.46954 0.51066
# Poissons Ratio (y) = 0.13879 0.17788
# Poissons Ratio (z) = 0.23123 0.27250
#
# Static dielectric constant tensor:
#      x y z
#    x 1.950240 0.000000 -0.056280 
#    y 0.000000 2.004890 0.000000 
#    z -0.056280 0.000000 1.898930 
# 
# From -- ./inp_files/198807.got.cif
#   From: 2010.05.17/outbox.cif.g08.bks.cpg/sg12_100_cif.got.tgz:198807.got - 2010.06.03 13:09:07.
