data_PCOD9203180
_publ_section_title
;
Structure prediction by ZEFSAII (Michael W. Deem and Ramdas Pophale) SiO2 
 PCOD9203180
Probable space group: C 2/M
;
_chemical_formula_sum "Si O2"
_cell_formula_units_Z 56
_cell_length_a 10.096754
_cell_length_b 27.890761
_cell_length_c 14.154746
_cell_angle_alpha 90.000000
_cell_angle_beta 57.755246
_cell_angle_gamma 90.000000
_cell_volume 3371.319591
_symmetry_space_group_name_H-M "C 2/M"
_symmetry_group_IT_number 12
_symmetry_cell_setting 'monoclinic'
loop_
_space_group_symop_operation_xyz
x,y,z
-x,y,-z
-x,-y,-z
x,-y,z
1/2+x,1/2+y,z
1/2-x,1/2+y,-z
1/2-x,1/2-y,-z
1/2+x,1/2-y,z
loop_
_atom_site_type_symbol
_atom_site_label
_atom_site_fract_x
_atom_site_fract_y
_atom_site_fract_z
Si Si1 0.456136 0.795302 0.908162
Si Si2 0.242062 0.055599 0.625348
Si Si3 0.978793 0.135604 0.720588
Si Si4 0.594604 0.684045 0.056066
Si Si5 0.142108 0.205329 0.515148
Si Si6 0.535018 0.055665 0.643161
Si Si7 0.183762 0.360794 0.699641
O O1 0.464150 0.737770 0.894968
O O2 0.572766 0.823153 0.795482
O O3 0.500000 0.806084 0.000000
O O4 0.277054 0.810665 0.960986
O O5 0.097194 0.091223 0.678578
O O6 0.365980 0.066897 0.661582
O O7 0.340999 0.059314 0.490508
O O8 0.194665 0.000000 0.653392
O O9 0.067882 0.179543 0.634464
O O10 0.929298 0.151148 0.843999
O O11 0.826553 0.125526 0.714476
O O12 0.500000 0.667801 0.000000
O O13 0.250000 0.250000 0.500000
O O14 0.241119 0.165901 0.419335
O O15 0.000000 0.220375 0.500000
O O16 0.587520 0.093196 0.701695
O O17 0.534338 0.000000 0.674369
#
# Coordination Sequence:
#
# PCOD9203180 Si02
#       7
#     8   8   8   8   8   8   8
#     4  10  20  39  56  77 111 148 190 233 264 314
#     4   9  19  36  57  82 113 143 182 229 272 331
#     4  11  21  36  55  83 115 141 183 231 276 331
#     4  10  22  37  58  81 106 148 196 230 268 318
#     4  10  22  36  50  79 116 147 177 220 277 332
#     4   9  19  36  57  83 111 144 184 224 275 336
#     4  11  21  35  57  82 113 147 181 226 278 330
#
# _framework density 16.610707000000001
#
# number of rings (size 3 to 8) (size 9 to 14) (size 15 to 20)
#    0.000    2.000    2.857    1.714    2.000    1.714 
#    0.000    1.429    0.000    1.714    0.000    0.000 
#    0.000    0.000    0.000    0.000    0.000    0.000 
#
# Total GULP energy -156262.457883 kJ/mol
# GULP energy per Si atom -5580.802067 kJ/mol
# Density = 1.657290 g / cm^3
# Si number density = 16.610707 Si / 1000 Ang^3
#
#
#
# Elastic Constant Matrix: (Units=GPa)
#
#
# Indices 1 2 3 4 5 6 
#
# 1 101.8151 58.8375 17.8019 0.0000 3.0265 0.0000
# 2 58.8375 68.9416 11.3994 0.0000 -0.3755 0.0000
# 3 17.8019 11.3994 41.4641 0.0000 2.6437 0.0000
# 4 0.0000 0.0000 0.0000 20.5329 0.0000 -1.2944
# 5 3.0265 -0.3755 2.6437 0.0000 22.0956 0.0000
# 6 0.0000 0.0000 0.0000 -1.2944 0.0000 27.6072
#
#
#
# Elastic Compliance Matrix: (Units=1/GPa)
#
#
# Indices 1 2 3 4 5 6 
#
# 1 0.020162 -0.016570 -0.003937 0.000000 -0.002572 0.000000
# 2 -0.016570 0.028827 -0.000994 0.000000 0.002879 0.000000
# 3 -0.003937 -0.000994 0.026248 0.000000 -0.002618 0.000000
# 4 0.000000 0.000000 0.000000 0.048847 0.000000 0.002290
# 5 -0.002572 0.002879 -0.002618 0.000000 0.045972 0.000000
# 6 0.000000 0.000000 0.000000 0.002290 0.000000 0.036330
#
#
# Mechanical properties :
#
#
# Convention : Reuss Voigt Hill
#
# Bulk Modulus (GPa) = 31.02337 43.14427 37.08382
# Shear Modulus (GPa) = 19.22086 22.32592 20.77339
#
# Velocity S-wave (km/s) = 3.40536 3.67013 3.54022
# Velocity P-wave (km/s) = 5.84630 6.63249 6.25177
#
# Compressibility (1/GPa) = 0.03223377
#
# Stress axis : x y z
#
# Youngs Moduli (GPa) = 49.59748 34.68974 38.09846
#
# Poissons Ratio (x) = 0.57482 0.14999
# Poissons Ratio (y) = 0.82185 0.03789
# Poissons Ratio (z) = 0.19525 0.03450
#
# Static dielectric constant tensor:
#      x y z
#    x 1.557530 0.000000 0.000610 
#    y 0.000000 1.534560 0.000000 
#    z 0.000610 0.000000 1.543390 
# 
# From -- ./inp_files/124335.got.cif
#   From: 2010.05.17/outbox.cif.g08.bks.cpg/sg12_63_cif.got.tgz:124335.got - 2010.06.03 13:09:07.
