data_PCOD9203803
_publ_section_title
;
Structure prediction by ZEFSAII (Michael W. Deem and Ramdas Pophale) SiO2 
 PCOD9203803
Probable space group: C 2/M
;
_chemical_formula_sum "Si O2"
_cell_formula_units_Z 32
_cell_length_a 14.529307
_cell_length_b 21.189457
_cell_length_c 13.179592
_cell_angle_alpha 90.000000
_cell_angle_beta 160.549240
_cell_angle_gamma 90.000000
_cell_volume 1351.159230
_symmetry_space_group_name_H-M "C 2/M"
_symmetry_group_IT_number 12
_symmetry_cell_setting 'monoclinic'
loop_
_space_group_symop_operation_xyz
x,y,z
-x,y,-z
-x,-y,-z
x,-y,z
1/2+x,1/2+y,z
1/2-x,1/2+y,-z
1/2-x,1/2-y,-z
1/2+x,1/2-y,z
loop_
_atom_site_type_symbol
_atom_site_label
_atom_site_fract_x
_atom_site_fract_y
_atom_site_fract_z
Si Si1 0.844818 0.367849 0.731805
Si Si2 0.973431 0.165674 0.850685
Si Si3 0.019911 0.253545 0.642094
Si Si4 0.653749 0.572628 0.867589
O O1 0.648021 0.308260 0.498928
O O2 0.610666 0.421786 0.482699
O O3 0.000000 0.356766 0.000000
O O4 0.093041 0.388647 0.917067
O O5 0.060208 0.105599 0.875507
O O6 0.659720 0.186748 0.511844
O O7 0.164111 0.225628 0.013535
O O8 0.000000 0.156429 0.000000
O O9 0.000000 0.247796 0.500000
O O10 0.730654 0.500000 0.961713
#
# Coordination Sequence:
#
# PCOD9203803 Si02
#       4
#     8   8   8   8
#     4  12  25  43  67  94 131 171 212 271 325 373
#     4  10  22  41  67  97 131 164 204 268 329 381
#     4  10  20  39  67  98 127 159 207 263 332 395
#     4  12  27  43  63  95 130 176 229 256 301 387
#
# _framework density 23.683368000000002
#
# number of rings (size 3 to 8) (size 9 to 14) (size 15 to 20)
#    0.000    1.000    0.000    8.250    0.000    9.500 
#    0.000    0.000    0.000    7.500    0.000    0.000 
#    0.000    0.000    0.000    0.000    0.000    0.000 
#
# Total GULP energy -89459.701637 kJ/mol
# GULP energy per Si atom -5591.231352 kJ/mol
# Density = 2.362946 g / cm^3
# Si number density = 23.683368 Si / 1000 Ang^3
#
#
#
# Elastic Constant Matrix: (Units=GPa)
#
#
# Indices 1 2 3 4 5 6 
#
# 1 138.4553 64.3904 40.0464 0.0003 15.3359 0.0000
# 2 64.3904 113.8607 42.2266 -0.0002 -2.1550 -0.0002
# 3 40.0464 42.2266 150.5258 0.0047 18.3077 0.0020
# 4 0.0003 -0.0002 0.0047 23.1894 0.0010 -4.6883
# 5 15.3359 -2.1550 18.3077 0.0010 39.5548 0.0003
# 6 0.0000 -0.0002 0.0020 -4.6883 0.0003 10.7961
#
#
#
# Elastic Compliance Matrix: (Units=1/GPa)
#
#
# Indices 1 2 3 4 5 6 
#
# 1 0.010574 -0.005802 -0.000687 0.000000 -0.004098 0.000000
# 2 -0.005802 0.013125 -0.002648 0.000001 0.004190 0.000001
# 3 -0.000687 -0.002648 0.008005 -0.000002 -0.003583 -0.000002
# 4 0.000000 0.000001 -0.000002 0.047273 -0.000001 0.020529
# 5 -0.004098 0.004190 -0.003583 -0.000001 0.028757 0.000000
# 6 0.000000 0.000001 -0.000002 0.020529 0.000000 0.101541
#
#
# Mechanical properties :
#
#
# Convention : Reuss Voigt Hill
#
# Bulk Modulus (GPa) = 74.46513 77.35206 75.90860
# Shear Modulus (GPa) = 21.54931 31.78661 26.66796
#
# Velocity S-wave (km/s) = 3.01971 3.66751 3.35926
# Velocity P-wave (km/s) = 6.60821 7.11801 6.86784
#
# Compressibility (1/GPa) = 0.01342910
#
# Stress axis : x y z
#
# Youngs Moduli (GPa) = 94.57540 76.18844 124.92604
#
# Poissons Ratio (x) = 0.44207 0.08582
# Poissons Ratio (y) = 0.54876 0.33080
# Poissons Ratio (z) = 0.06497 0.20175
#
# Static dielectric constant tensor:
#      x y z
#    x 1.955110 0.000000 -0.042710 
#    y 0.000000 1.895400 0.000000 
#    z -0.042710 0.000000 1.877970 
# 
# From -- ./inp_files/217822.got.cif
#   From: 2010.05.17/outbox.cif.g08.bks.cpg/sg12_109_cif.got.tgz:217822.got - 2010.06.03 13:09:07.
