data_PCOD9203738
_publ_section_title
;
Structure prediction by ZEFSAII (Michael W. Deem and Ramdas Pophale) SiO2 
 PCOD9203738
Probable space group: C 2/M
;
_chemical_formula_sum "Si O2"
_cell_formula_units_Z 48
_cell_length_a 23.347863
_cell_length_b 9.045396
_cell_length_c 12.004571
_cell_angle_alpha 90.000000
_cell_angle_beta 116.364330
_cell_angle_gamma 90.000000
_cell_volume 2271.557590
_symmetry_space_group_name_H-M "C 2/M"
_symmetry_group_IT_number 12
_symmetry_cell_setting 'monoclinic'
loop_
_space_group_symop_operation_xyz
x,y,z
-x,y,-z
-x,-y,-z
x,-y,z
1/2+x,1/2+y,z
1/2-x,1/2+y,-z
1/2-x,1/2-y,-z
1/2+x,1/2-y,z
loop_
_atom_site_type_symbol
_atom_site_label
_atom_site_fract_x
_atom_site_fract_y
_atom_site_fract_z
Si Si1 0.751939 0.839409 0.171281
Si Si2 0.584589 0.000000 0.461177
Si Si3 0.513475 0.333458 0.894233
Si Si4 0.568138 0.000000 0.706954
Si Si5 0.096579 0.178798 0.361788
Si Si6 0.272170 0.667272 0.630001
Si Si7 0.141500 0.749867 0.906038
O O1 0.751144 0.727100 0.272283
O O2 0.813826 0.829555 0.145827
O O3 0.748374 0.000000 0.221583
O O4 0.691538 0.816977 0.037674
O O5 0.609030 0.833114 0.443008
O O6 0.590999 0.000000 0.599512
O O7 0.508711 0.000000 0.364987
O O8 0.488984 0.500000 0.886062
O O9 0.470926 0.284949 0.753632
O O10 0.587852 0.335103 0.929131
O O11 0.500000 0.253505 0.000000
O O12 0.599350 0.135444 0.799870
O O13 0.150918 0.175304 0.313812
O O14 0.096198 0.000000 0.405403
O O15 0.250869 0.500000 0.600866
O O16 0.250000 0.750000 0.500000
#
# Coordination Sequence:
#
# PCOD9203738 Si02
#       7
#     8   4   8   4   8   8   8
#     4  11  25  41  65  98 136 182 229 279 343 413
#     4  11  24  44  74 100 138 184 227 291 353 415
#     4  10  20  39  66  95 131 172 221 284 349 409
#     4  11  24  44  66 102 134 180 230 279 353 418
#     4  10  23  43  66  99 135 174 231 285 347 417
#     4  11  26  45  68  98 137 180 229 284 344 410
#     4  11  23  42  65  95 138 173 231 284 339 410
#
# _framework density 21.130876000000001
#
# number of rings (size 3 to 8) (size 9 to 14) (size 15 to 20)
#    0.000    1.333    2.500    2.000    5.833    2.667 
#    0.000    3.333    0.000    0.000    0.000    0.000 
#    0.000    0.000    0.000    0.000    0.000    0.000 
#
# Total GULP energy -133603.606231 kJ/mol
# GULP energy per Si atom -5566.816926 kJ/mol
# Density = 2.108278 g / cm^3
# Si number density = 21.130876 Si / 1000 Ang^3
#
#
#
# Elastic Constant Matrix: (Units=GPa)
#
#
# Indices 1 2 3 4 5 6 
#
# 1 103.4021 24.7237 32.1486 0.0000 -2.0306 0.0000
# 2 24.7237 136.4931 52.1339 0.0000 -20.2796 0.0000
# 3 32.1486 52.1339 90.1434 0.0000 -13.7854 0.0000
# 4 0.0000 0.0000 0.0000 23.1186 0.0000 0.1592
# 5 -2.0306 -20.2796 -13.7854 0.0000 36.3208 0.0000
# 6 0.0000 0.0000 0.0000 0.1592 0.0000 20.1385
#
#
#
# Elastic Compliance Matrix: (Units=1/GPa)
#
#
# Indices 1 2 3 4 5 6 
#
# 1 0.010966 -0.000771 -0.003649 0.000000 -0.001202 0.000000
# 2 -0.000771 0.009866 -0.004878 0.000000 0.003614 0.000000
# 3 -0.003649 -0.004878 0.015678 0.000000 0.003023 0.000000
# 4 0.000000 0.000000 0.000000 0.043258 0.000000 -0.000342
# 5 -0.001202 0.003614 0.003023 0.000000 0.030630 0.000000
# 6 0.000000 0.000000 0.000000 -0.000342 0.000000 0.049659
#
#
# Mechanical properties :
#
#
# Convention : Reuss Voigt Hill
#
# Bulk Modulus (GPa) = 55.82222 60.89457 58.35840
# Shear Modulus (GPa) = 27.08174 30.65106 28.86640
#
# Velocity S-wave (km/s) = 3.58385 3.81272 3.70006
# Velocity P-wave (km/s) = 6.60304 6.94714 6.77727
#
# Compressibility (1/GPa) = 0.01791401
#
# Stress axis : x y z
#
# Youngs Moduli (GPa) = 91.18894 101.35434 63.78217
#
# Poissons Ratio (x) = 0.07818 0.23273
# Poissons Ratio (y) = 0.07034 0.31115
# Poissons Ratio (z) = 0.33273 0.49444
#
# Static dielectric constant tensor:
#      x y z
#    x 1.788400 0.000000 0.016950 
#    y 0.000000 1.805850 0.000000 
#    z 0.016950 0.000000 1.781570 
# 
# From -- ./inp_files/173126.got.cif
#   From: 2010.05.17/outbox.cif.g08.bks.cpg/sg12_87_cif.got.tgz:173126.got - 2010.06.03 13:09:07.
