data_PCOD9203764
_publ_section_title
;
Structure prediction by ZEFSAII (Michael W. Deem and Ramdas Pophale) SiO2 
 PCOD9203764
Probable space group: C 2/M
;
_chemical_formula_sum "Si O2"
_cell_formula_units_Z 64
_cell_length_a 19.402060
_cell_length_b 18.991652
_cell_length_c 19.312099
_cell_angle_alpha 90.000000
_cell_angle_beta 29.618194
_cell_angle_gamma 90.000000
_cell_volume 3516.888319
_symmetry_space_group_name_H-M "C 2/M"
_symmetry_group_IT_number 12
_symmetry_cell_setting 'monoclinic'
loop_
_space_group_symop_operation_xyz
x,y,z
-x,y,-z
-x,-y,-z
x,-y,z
1/2+x,1/2+y,z
1/2-x,1/2+y,-z
1/2-x,1/2-y,-z
1/2+x,1/2-y,z
loop_
_atom_site_type_symbol
_atom_site_label
_atom_site_fract_x
_atom_site_fract_y
_atom_site_fract_z
Si Si1 0.448572 0.080242 0.754579
Si Si2 0.032663 0.280473 0.051675
Si Si3 0.803219 0.201434 0.344938
Si Si4 0.800043 0.279104 0.882814
Si Si5 0.079635 0.582002 0.787376
Si Si6 0.591160 0.416800 0.486883
Si Si7 0.606802 0.918491 0.469640
Si Si8 0.420916 0.694812 0.391170
O O1 0.327459 0.137817 0.862992
O O2 0.553454 0.092896 0.727742
O O3 0.527115 0.086821 0.612868
O O4 0.397948 0.000000 0.805223
O O5 0.922390 0.237948 0.195340
O O6 0.017501 0.361423 0.089876
O O7 0.000000 0.276404 0.000000
O O8 0.182929 0.246553 0.932728
O O9 0.728017 0.139123 0.368882
O O10 0.691992 0.260308 0.466657
O O11 0.863740 0.174763 0.365469
O O12 0.947224 0.244620 0.735546
O O13 0.750000 0.250000 0.000000
O O14 0.047223 0.500000 0.830811
O O15 0.241448 0.594233 0.666151
O O16 0.500000 0.394995 0.500000
O O17 0.570644 0.500000 0.514892
O O18 0.543547 0.372821 0.594610
O O19 0.500000 0.903983 0.500000
O O20 0.654366 0.000000 0.420531
#
# Coordination Sequence:
#
# PCOD9203764 Si02
#       8
#     8   8   8   8   8   8   8   8
#     4  10  20  39  67  91 118 165 210 253 311 369
#     4  12  27  41  61  94 131 167 205 253 317 373
#     4  11  22  40  63  93 120 156 214 255 305 364
#     4  12  23  42  62  93 131 162 203 262 306 368
#     4  10  20  40  65  89 121 164 212 253 301 372
#     4  10  22  38  60  93 129 162 202 257 314 364
#     4  10  22  38  62  94 122 153 208 265 308 363
#     4  11  22  38  67  90 120 162 209 257 301 361
#
# _framework density 18.197904999999999
#
# number of rings (size 3 to 8) (size 9 to 14) (size 15 to 20)
#    0.000    1.250    5.000    0.750    3.500    2.250 
#    0.000    1.875    0.000    0.750    0.000    0.000 
#    0.000    0.000    0.000    0.000    0.000    0.000 
#
# Total GULP energy -178698.292099 kJ/mol
# GULP energy per Si atom -5584.321628 kJ/mol
# Density = 1.815649 g / cm^3
# Si number density = 18.197905 Si / 1000 Ang^3
#
#
#
# Elastic Constant Matrix: (Units=GPa)
#
#
# Indices 1 2 3 4 5 6 
#
# 1 141.5331 45.9410 15.2527 0.0011 -9.3934 -0.0006
# 2 45.9410 90.4002 15.7811 -0.0004 -15.9991 -0.0004
# 3 15.2527 15.7811 27.7065 -0.0026 -6.2634 0.0004
# 4 0.0011 -0.0004 -0.0026 22.6418 0.0010 -4.0957
# 5 -9.3934 -15.9991 -6.2634 0.0010 23.3765 0.0003
# 6 -0.0006 -0.0004 0.0004 -4.0957 0.0003 30.7844
#
#
#
# Elastic Compliance Matrix: (Units=1/GPa)
#
#
# Indices 1 2 3 4 5 6 
#
# 1 0.008614 -0.003925 -0.002482 -0.000001 0.000110 0.000000
# 2 -0.003925 0.015234 -0.004807 0.000000 0.007561 0.000000
# 3 -0.002482 -0.004807 0.041757 0.000004 0.006901 0.000000
# 4 -0.000001 0.000000 0.000004 0.045255 -0.000001 0.006021
# 5 0.000110 0.007561 0.006901 -0.000001 0.049846 -0.000001
# 6 0.000000 0.000000 0.000000 0.006021 -0.000001 0.033285
#
#
# Mechanical properties :
#
#
# Convention : Reuss Voigt Hill
#
# Bulk Modulus (GPa) = 23.16005 45.95437 34.55721
# Shear Modulus (GPa) = 21.66270 27.53820 24.60045
#
# Velocity S-wave (km/s) = 3.45395 3.89429 3.68071
# Velocity P-wave (km/s) = 5.35358 6.74744 6.09052
#
# Compressibility (1/GPa) = 0.04317781
#
# Stress axis : x y z
#
# Youngs Moduli (GPa) = 116.08624 65.64304 23.94816
#
# Poissons Ratio (x) = 0.25765 0.05943
# Poissons Ratio (y) = 0.45564 0.11512
# Poissons Ratio (z) = 0.28810 0.31554
#
# Static dielectric constant tensor:
#      x y z
#    x 1.711660 0.000000 -0.021740 
#    y 0.000000 1.638450 0.000000 
#    z -0.021740 0.000000 1.602570 
# 
# From -- ./inp_files/279107.got.cif
#   From: 2010.05.17/outbox.cif.g08.bks.cpg/sg12_140_cif.got.tgz:279107.got - 2010.06.03 13:09:07.
