data_PCOD9203235
_publ_section_title
;
Structure prediction by ZEFSAII (Michael W. Deem and Ramdas Pophale) SiO2 
 PCOD9203235
Probable space group: C 2/M
;
_chemical_formula_sum "Si O2"
_cell_formula_units_Z 48
_cell_length_a 18.454703
_cell_length_b 26.044519
_cell_length_c 8.843231
_cell_angle_alpha 90.000000
_cell_angle_beta 34.000812
_cell_angle_gamma 90.000000
_cell_volume 2376.868457
_symmetry_space_group_name_H-M "C 2/M"
_symmetry_group_IT_number 12
_symmetry_cell_setting 'monoclinic'
loop_
_space_group_symop_operation_xyz
x,y,z
-x,y,-z
-x,-y,-z
x,-y,z
1/2+x,1/2+y,z
1/2-x,1/2+y,-z
1/2-x,1/2-y,-z
1/2+x,1/2-y,z
loop_
_atom_site_type_symbol
_atom_site_label
_atom_site_fract_x
_atom_site_fract_y
_atom_site_fract_z
Si Si1 0.148471 0.060477 0.686454
Si Si2 0.632378 0.081943 0.194609
Si Si3 0.227758 0.353743 0.310033
Si Si4 0.039736 0.655799 0.098782
Si Si5 0.113151 0.057364 0.405654
Si Si6 0.644662 0.744208 0.815490
O O1 0.228704 0.100020 0.652475
O O2 0.147224 0.078673 0.513006
O O3 0.192754 0.000000 0.619170
O O4 0.000000 0.061603 0.000000
O O5 0.500000 0.059642 0.500000
O O6 0.691414 0.121333 0.214167
O O7 0.586072 0.110695 0.124648
O O8 0.758581 0.052580 0.917701
O O9 0.329621 0.307704 0.136676
O O10 0.095959 0.327147 0.595052
O O11 0.140271 0.702489 0.915381
O O12 0.000000 0.638312 0.000000
O O13 0.000000 0.082788 0.500000
O O14 0.062640 0.000000 0.531205
O O15 0.750000 0.750000 0.500000
O O16 0.500000 0.740837 0.000000
#
# Coordination Sequence:
#
# PCOD9203235 Si02
#       6
#     8   8   8   8   8   8
#     4  10  21  38  64  94 125 163 205 255 310 372
#     4  10  23  39  60  87 122 166 202 252 312 362
#     4  11  21  38  61  90 123 161 203 253 309 364
#     4  10  20  39  60  82 118 158 202 255 299 365
#     4  10  21  38  60  89 124 159 203 258 312 363
#     4  11  21  37  62  91 116 165 205 254 306 361
#
# _framework density 20.194638999999999
#
# number of rings (size 3 to 8) (size 9 to 14) (size 15 to 20)
#    0.000    1.667    3.333    2.500    0.000    3.000 
#    0.000    2.500    0.000    9.000    0.000    0.000 
#    0.000    0.000    0.000    0.000    0.000    0.000 
#
# Total GULP energy -133686.953027 kJ/mol
# GULP energy per Si atom -5570.289709 kJ/mol
# Density = 2.014868 g / cm^3
# Si number density = 20.194639 Si / 1000 Ang^3
#
#
#
# Elastic Constant Matrix: (Units=GPa)
#
#
# Indices 1 2 3 4 5 6 
#
# 1 102.9319 31.7636 12.0573 0.0000 15.5508 0.0000
# 2 31.7636 73.5027 23.4185 0.0000 3.2382 0.0000
# 3 12.0573 23.4185 117.5571 0.0001 2.0469 0.0000
# 4 0.0000 0.0000 0.0001 31.7651 0.0000 -9.0618
# 5 15.5508 3.2382 2.0469 0.0000 34.3334 0.0000
# 6 0.0000 0.0000 0.0000 -9.0618 0.0000 19.1146
#
#
#
# Elastic Compliance Matrix: (Units=1/GPa)
#
#
# Indices 1 2 3 4 5 6 
#
# 1 0.012001 -0.004915 -0.000165 0.000000 -0.004962 0.000000
# 2 -0.004915 0.016589 -0.002815 0.000000 0.000829 0.000000
# 3 -0.000165 -0.002815 0.009088 0.000000 -0.000201 0.000000
# 4 0.000000 0.000000 0.000000 0.036405 0.000000 0.017259
# 5 -0.004962 0.000829 -0.000201 0.000000 0.031307 0.000000
# 6 0.000000 0.000000 0.000000 0.017259 0.000000 0.060498
#
#
# Mechanical properties :
#
#
# Convention : Reuss Voigt Hill
#
# Bulk Modulus (GPa) = 45.68853 47.60782 46.64817
# Shear Modulus (GPa) = 26.45868 32.15946 29.30907
#
# Velocity S-wave (km/s) = 3.62357 3.99491 3.81376
# Velocity P-wave (km/s) = 6.33879 6.70110 6.52246
#
# Compressibility (1/GPa) = 0.02188733
#
# Stress axis : x y z
#
# Youngs Moduli (GPa) = 83.32735 60.28026 110.03806
#
# Poissons Ratio (x) = 0.29626 0.01820
# Poissons Ratio (y) = 0.40953 0.30977
# Poissons Ratio (z) = 0.01378 0.16969
#
# Static dielectric constant tensor:
#      x y z
#    x 1.772250 0.000000 0.006460 
#    y 0.000000 1.759100 0.000000 
#    z 0.006460 0.000000 1.766090 
# 
# From -- ./inp_files/80602.got.cif
#   From: 2010.05.17/outbox.cif.g08.bks.cpg/sg12_41_cif.got.tgz:80602.got - 2010.06.03 13:09:07.
