data_PCOD9203340
_publ_section_title
;
Structure prediction by ZEFSAII (Michael W. Deem and Ramdas Pophale) SiO2 
 PCOD9203340
Probable space group: C 2/M
;
_chemical_formula_sum "Si O2"
_cell_formula_units_Z 64
_cell_length_a 15.850822
_cell_length_b 8.670426
_cell_length_c 24.536330
_cell_angle_alpha 90.000000
_cell_angle_beta 89.958690
_cell_angle_gamma 90.000000
_cell_volume 3372.109868
_symmetry_space_group_name_H-M "C 2/M"
_symmetry_group_IT_number 12
_symmetry_cell_setting 'monoclinic'
loop_
_space_group_symop_operation_xyz
x,y,z
-x,y,-z
-x,-y,-z
x,-y,z
1/2+x,1/2+y,z
1/2-x,1/2+y,-z
1/2-x,1/2-y,-z
1/2+x,1/2-y,z
loop_
_atom_site_type_symbol
_atom_site_label
_atom_site_fract_x
_atom_site_fract_y
_atom_site_fract_z
Si Si1 0.470448 0.812463 0.939661
Si Si2 0.776864 0.314141 0.940956
Si Si3 0.628324 0.187131 0.866192
Si Si4 0.963834 0.683689 0.672109
Si Si5 0.125966 0.688137 0.740209
Si Si6 0.786524 0.816041 0.670408
Si Si7 0.273898 0.319066 0.441687
Si Si8 0.025449 0.182209 0.560307
O O1 0.373803 0.764889 0.929128
O O2 0.541947 0.764100 0.896671
O O3 0.470239 0.000000 0.939644
O O4 0.500000 0.763028 0.000000
O O5 0.774783 0.500000 0.942408
O O6 0.709184 0.252900 0.897650
O O7 0.750000 0.250000 0.000000
O O8 0.627404 0.234792 0.803114
O O9 0.632256 0.000000 0.868688
O O10 0.960135 0.500000 0.675466
O O11 0.875362 0.752705 0.690599
O O12 0.042201 0.739584 0.708538
O O13 0.980862 0.732033 0.609759
O O14 0.125783 0.500000 0.739136
O O15 0.208381 0.739962 0.707082
O O16 0.771919 0.762364 0.608449
O O17 0.787582 0.000000 0.671617
O O18 0.253610 0.500000 0.441025
O O19 0.250000 0.250000 0.500000
O O20 0.374222 0.300726 0.433660
O O21 0.000000 0.236926 0.500000
O O22 0.003906 0.000000 0.563637
#
# Coordination Sequence:
#
# PCOD9203340 Si02
#       8
#     8   8   8   8   8   8   8   8
#     4   9  17  32  56  84 114 154 194 232 289 350
#     4  11  21  35  57  88 120 156 197 244 297 350
#     4  10  20  39  62  84 116 158 200 242 291 354
#     4  11  22  39  62  89 115 152 205 249 294 355
#     4   9  21  40  62  85 116 159 200 241 296 356
#     4  11  22  40  61  85 119 159 199 246 301 357
#     4  11  22  36  58  89 122 157 196 243 301 361
#     4  10  21  37  57  85 119 153 190 240 303 361
#
# _framework density 18.979216000000001
#
# number of rings (size 3 to 8) (size 9 to 14) (size 15 to 20)
#    0.000    1.750    2.500    2.250    0.000    2.750 
#    0.000    5.625    0.000    0.000    0.000    0.000 
#    0.000    0.000    0.000    0.000    0.000    0.000 
#
# Total GULP energy -178769.527218 kJ/mol
# GULP energy per Si atom -5586.547726 kJ/mol
# Density = 1.893602 g / cm^3
# Si number density = 18.979216 Si / 1000 Ang^3
#
#
#
# Elastic Constant Matrix: (Units=GPa)
#
#
# Indices 1 2 3 4 5 6 
#
# 1 187.0695 44.2360 100.4174 0.0000 1.8450 0.0000
# 2 44.2360 37.0652 21.4439 0.0000 -0.9230 0.0000
# 3 100.4174 21.4439 147.6355 0.0000 1.0528 0.0000
# 4 0.0000 0.0000 0.0000 17.4594 0.0000 4.2715
# 5 1.8450 -0.9230 1.0528 0.0000 29.3015 0.0000
# 6 0.0000 0.0000 0.0000 4.2715 0.0000 29.4847
#
#
#
# Elastic Compliance Matrix: (Units=1/GPa)
#
#
# Indices 1 2 3 4 5 6 
#
# 1 0.010784 -0.009443 -0.005958 0.000000 -0.000762 0.000000
# 2 -0.009443 0.037757 0.000926 0.000000 0.001751 0.000000
# 3 -0.005958 0.000926 0.010691 0.000000 0.000020 0.000000
# 4 0.000000 0.000000 0.000000 0.059380 0.000000 -0.008603
# 5 -0.000762 0.001751 0.000020 0.000000 0.034230 0.000000
# 6 0.000000 0.000000 0.000000 -0.008603 0.000000 0.035162
#
#
# Mechanical properties :
#
#
# Convention : Reuss Voigt Hill
#
# Bulk Modulus (GPa) = 33.02204 78.21831 55.62017
# Shear Modulus (GPa) = 22.02164 28.96065 25.49114
#
# Velocity S-wave (km/s) = 3.41002 3.91053 3.66882
# Velocity P-wave (km/s) = 5.73944 7.85441 6.87869
#
# Compressibility (1/GPa) = 0.03028280
#
# Stress axis : x y z
#
# Youngs Moduli (GPa) = 92.72722 26.48532 93.53307
#
# Poissons Ratio (x) = 0.25009 0.55729
# Poissons Ratio (y) = 0.87559 -0.08661
# Poissons Ratio (z) = 0.55249 -0.02452
#
# Static dielectric constant tensor:
#      x y z
#    x 1.660680 0.000000 -0.002590 
#    y 0.000000 1.652630 0.000000 
#    z -0.002590 0.000000 1.627800 
# 
# From -- ./inp_files/338907.got.cif
#   From: 2010.05.17/outbox.cif.g08.bks.cpg/sg12_170_cif.got.tgz:338907.got - 2010.06.03 13:09:07.
