data_PCOD9203712
_publ_section_title
;
Structure prediction by ZEFSAII (Michael W. Deem and Ramdas Pophale) SiO2 
 PCOD9203712
Probable space group: C 2/M
;
_chemical_formula_sum "Si O2"
_cell_formula_units_Z 56
_cell_length_a 18.646462
_cell_length_b 18.663116
_cell_length_c 9.112995
_cell_angle_alpha 90.000000
_cell_angle_beta 110.467964
_cell_angle_gamma 90.000000
_cell_volume 2971.119134
_symmetry_space_group_name_H-M "C 2/M"
_symmetry_group_IT_number 12
_symmetry_cell_setting 'monoclinic'
loop_
_space_group_symop_operation_xyz
x,y,z
-x,y,-z
-x,-y,-z
x,-y,z
1/2+x,1/2+y,z
1/2-x,1/2+y,-z
1/2-x,1/2-y,-z
1/2+x,1/2-y,z
loop_
_atom_site_type_symbol
_atom_site_label
_atom_site_fract_x
_atom_site_fract_y
_atom_site_fract_z
Si Si1 0.047422 0.916627 0.382440
Si Si2 0.039344 0.196155 0.876938
Si Si3 0.621830 0.915544 0.238285
Si Si4 0.645375 0.916072 0.916642
Si Si5 0.702971 0.584682 0.649765
Si Si6 0.711223 0.671906 0.957464
Si Si7 0.989520 0.338882 0.320589
O O1 0.135269 0.899512 0.487432
O O2 0.000000 0.908255 0.500000
O O3 0.008864 0.866709 0.234526
O O4 0.042993 0.000000 0.336105
O O5 0.127153 0.174034 0.965351
O O6 0.036894 0.264099 0.768016
O O7 0.000000 0.216663 0.000000
O O8 0.710714 0.909640 0.348646
O O9 0.565139 0.868082 0.293326
O O10 0.599659 0.000000 0.229845
O O11 0.621651 0.892965 0.065992
O O12 0.577670 0.894844 0.761532
O O13 0.656653 0.000000 0.933437
O O14 0.724878 0.879985 0.929595
O O15 0.693149 0.500000 0.689222
O O16 0.698620 0.638842 0.784542
O O17 0.750000 0.750000 0.000000
O O18 0.000000 0.330866 0.500000
#
# Coordination Sequence:
#
# PCOD9203712 Si02
#       7
#     8   8   8   8   8   8   8
#     4  10  20  39  66  90 120 160 203 253 307 365
#     4  12  26  42  61  90 128 165 209 254 305 367
#     4   9  19  38  65  93 123 158 202 250 302 372
#     4  10  21  40  67  93 120 162 208 253 304 368
#     4   9  19  38  67  95 120 157 205 255 307 369
#     4  11  21  37  63  90 122 162 207 253 300 362
#     4  12  25  40  61  90 126 167 202 251 312 374
#
# _framework density 18.848115
#
# number of rings (size 3 to 8) (size 9 to 14) (size 15 to 20)
#    0.000    1.571    2.857    3.429    2.000    3.143 
#    2.571    0.714    0.000    0.000    0.000    0.000 
#    0.000    0.000    0.000    0.000    0.000    0.000 
#
# Total GULP energy -156331.877469 kJ/mol
# GULP energy per Si atom -5583.281338 kJ/mol
# Density = 1.880522 g / cm^3
# Si number density = 18.848115 Si / 1000 Ang^3
#
#
#
# Elastic Constant Matrix: (Units=GPa)
#
#
# Indices 1 2 3 4 5 6 
#
# 1 109.6920 24.4279 37.0491 0.0000 10.9296 0.0000
# 2 24.4279 57.1819 17.2114 0.0000 0.3400 0.0000
# 3 37.0491 17.2114 59.3521 0.0000 5.9842 0.0000
# 4 0.0000 0.0000 0.0000 37.4411 0.0000 5.6293
# 5 10.9296 0.3400 5.9842 0.0000 22.2632 0.0000
# 6 0.0000 0.0000 0.0000 5.6293 0.0000 27.0748
#
#
#
# Elastic Compliance Matrix: (Units=1/GPa)
#
#
# Indices 1 2 3 4 5 6 
#
# 1 0.012448 -0.003380 -0.006351 0.000000 -0.004352 0.000000
# 2 -0.003380 0.020111 -0.003966 0.000000 0.002418 0.000000
# 3 -0.006351 -0.003966 0.022246 0.000000 -0.002801 0.000000
# 4 0.000000 0.000000 0.000000 0.027570 0.000000 -0.005732
# 5 -0.004352 0.002418 -0.002801 0.000000 0.047770 0.000000
# 6 0.000000 0.000000 0.000000 -0.005732 0.000000 0.038127
#
#
# Mechanical properties :
#
#
# Convention : Reuss Voigt Hill
#
# Bulk Modulus (GPa) = 36.48258 42.62252 39.55255
# Shear Modulus (GPa) = 24.41364 27.19167 25.80266
#
# Velocity S-wave (km/s) = 3.60291 3.80237 3.70398
# Velocity P-wave (km/s) = 6.05855 6.47612 6.27081
#
# Compressibility (1/GPa) = 0.02741034
#
# Stress axis : x y z
#
# Youngs Moduli (GPa) = 80.33392 49.72308 44.95238
#
# Poissons Ratio (x) = 0.16807 0.28551
# Poissons Ratio (y) = 0.27154 0.17828
# Poissons Ratio (z) = 0.51023 0.19720
#
# Static dielectric constant tensor:
#      x y z
#    x 1.649940 0.000000 0.014160 
#    y 0.000000 1.653650 0.000000 
#    z 0.014160 0.000000 1.631060 
# 
# From -- ./inp_files/75967.got.cif
#   From: 2010.05.17/outbox.cif.g08.bks.cpg/sg12_38_cif.got.tgz:75967.got - 2010.06.03 13:09:07.
