data_PCOD9203879
_publ_section_title
;
Structure prediction by ZEFSAII (Michael W. Deem and Ramdas Pophale) SiO2 
 PCOD9203879
Probable space group: C 2/M
;
_chemical_formula_sum "Si O2"
_cell_formula_units_Z 56
_cell_length_a 11.329898
_cell_length_b 31.054414
_cell_length_c 9.054157
_cell_angle_alpha 90.000000
_cell_angle_beta 66.531569
_cell_angle_gamma 90.000000
_cell_volume 2922.127175
_symmetry_space_group_name_H-M "C 2/M"
_symmetry_group_IT_number 12
_symmetry_cell_setting 'monoclinic'
loop_
_space_group_symop_operation_xyz
x,y,z
-x,y,-z
-x,-y,-z
x,-y,z
1/2+x,1/2+y,z
1/2-x,1/2+y,-z
1/2-x,1/2-y,-z
1/2+x,1/2-y,z
loop_
_atom_site_type_symbol
_atom_site_label
_atom_site_fract_x
_atom_site_fract_y
_atom_site_fract_z
Si Si1 0.227271 0.681527 0.072695
Si Si2 0.140084 0.739840 0.855011
Si Si3 0.634808 0.590135 0.017020
Si Si4 0.545415 0.813965 0.640657
Si Si5 0.636759 0.909257 0.594576
Si Si6 0.869423 0.449163 0.727962
Si Si7 0.869930 0.050945 0.659043
O O1 0.290264 0.714764 0.157562
O O2 0.083060 0.673718 0.202924
O O3 0.216081 0.705702 0.920439
O O4 0.308659 0.638428 0.017168
O O5 0.118672 0.721688 0.701734
O O6 0.000000 0.744216 0.000000
O O7 0.613768 0.573258 0.191859
O O8 0.500000 0.587826 0.000000
O O9 0.745175 0.561260 0.886425
O O10 0.500000 0.800192 0.500000
O O11 0.626929 0.857784 0.587836
O O12 0.500418 0.927478 0.721998
O O13 0.651001 0.928618 0.423427
O O14 0.752751 0.926014 0.634611
O O15 0.888928 0.500000 0.704626
O O16 0.000000 0.055233 0.500000
O O17 0.842697 0.000000 0.689290
#
# Coordination Sequence:
#
# PCOD9203879 Si02
#       7
#     8   8   8   8   8   8   8
#     4  10  20  40  59  87 118 158 211 252 313 372
#     4   9  20  36  62  85 117 160 200 255 312 382
#     4  12  24  39  62  88 124 167 215 267 310 376
#     4  11  20  36  61  93 125 157 203 256 317 370
#     4  11  20  40  63  89 126 165 206 257 313 371
#     4  11  22  38  62  91 121 169 214 255 309 370
#     4  11  25  42  61  89 126 167 209 262 322 373
#
# _framework density 19.164121000000002
#
# number of rings (size 3 to 8) (size 9 to 14) (size 15 to 20)
#    0.000    1.286    2.857    4.286    0.000    3.429 
#    0.000    1.429    0.000   11.143    0.000    0.000 
#    0.000    0.000    0.000    0.000    0.000    0.000 
#
# Total GULP energy -156502.833029 kJ/mol
# GULP energy per Si atom -5589.386894 kJ/mol
# Density = 1.912050 g / cm^3
# Si number density = 19.164121 Si / 1000 Ang^3
#
#
#
# Elastic Constant Matrix: (Units=GPa)
#
#
# Indices 1 2 3 4 5 6 
#
# 1 130.0314 37.7510 34.4608 0.0000 23.0793 0.0000
# 2 37.7510 98.7611 31.4932 0.0000 21.2974 0.0000
# 3 34.4608 31.4932 79.4001 0.0000 13.8256 0.0000
# 4 0.0000 0.0000 0.0000 20.0059 0.0000 0.1453
# 5 23.0793 21.2974 13.8256 0.0000 31.8638 0.0000
# 6 0.0000 0.0000 0.0000 0.1453 0.0000 29.0657
#
#
#
# Elastic Compliance Matrix: (Units=1/GPa)
#
#
# Indices 1 2 3 4 5 6 
#
# 1 0.009774 -0.001874 -0.002687 0.000000 -0.004661 0.000000
# 2 -0.001874 0.013216 -0.003382 0.000000 -0.006008 0.000000
# 3 -0.002687 -0.003382 0.015544 0.000000 -0.002537 0.000000
# 4 0.000000 0.000000 0.000000 0.049987 0.000000 -0.000250
# 5 -0.004661 -0.006008 -0.002537 0.000000 0.039876 0.000000
# 6 0.000000 0.000000 0.000000 -0.000250 0.000000 0.034406
#
#
# Mechanical properties :
#
#
# Convention : Reuss Voigt Hill
#
# Bulk Modulus (GPa) = 44.15616 57.28918 50.72267
# Shear Modulus (GPa) = 26.84709 29.81958 28.33333
#
# Velocity S-wave (km/s) = 3.74693 3.94891 3.84924
# Velocity P-wave (km/s) = 6.46609 7.12395 6.80298
#
# Compressibility (1/GPa) = 0.02264690
#
# Stress axis : x y z
#
# Youngs Moduli (GPa) = 102.31308 75.66532 64.33297
#
# Poissons Ratio (x) = 0.14180 0.17287
# Poissons Ratio (y) = 0.19174 0.21760
# Poissons Ratio (z) = 0.27493 0.25593
#
# Static dielectric constant tensor:
#      x y z
#    x 1.668820 0.000000 0.002920 
#    y 0.000000 1.652470 0.000000 
#    z 0.002920 0.000000 1.659080 
# 
# From -- ./inp_files/54603.got.cif
#   From: 2010.05.17/outbox.cif.g08.bks.cpg/sg12_28_cif.got.tgz:54603.got - 2010.06.03 13:09:07.
