data_PCOD9203483
_publ_section_title
;
Structure prediction by ZEFSAII (Michael W. Deem and Ramdas Pophale) SiO2 
 PCOD9203483
Probable space group: C 2/M
;
_chemical_formula_sum "Si O2"
_cell_formula_units_Z 40
_cell_length_a 11.076372
_cell_length_b 26.569092
_cell_length_c 5.723270
_cell_angle_alpha 90.000000
_cell_angle_beta 99.202797
_cell_angle_gamma 90.000000
_cell_volume 1662.616756
_symmetry_space_group_name_H-M "C 2/M"
_symmetry_group_IT_number 12
_symmetry_cell_setting 'monoclinic'
loop_
_space_group_symop_operation_xyz
x,y,z
-x,y,-z
-x,-y,-z
x,-y,z
1/2+x,1/2+y,z
1/2-x,1/2+y,-z
1/2-x,1/2-y,-z
1/2+x,1/2-y,z
loop_
_atom_site_type_symbol
_atom_site_label
_atom_site_fract_x
_atom_site_fract_y
_atom_site_fract_z
Si Si1 0.928305 0.443223 0.731330
Si Si2 0.140311 0.191856 0.776946
Si Si3 0.107298 0.696273 0.860986
Si Si4 0.970460 0.091665 0.748898
Si Si5 0.725835 0.135099 0.537959
O O1 0.876508 0.500000 0.723416
O O2 0.825607 0.400647 0.679401
O O3 0.000000 0.441301 0.500000
O O4 0.000000 0.437237 0.000000
O O5 0.080601 0.246363 0.777413
O O6 0.201293 0.182274 0.545274
O O7 0.049547 0.144430 0.781289
O O8 0.256826 0.193362 0.985401
O O9 0.118405 0.657256 0.656799
O O10 0.000000 0.681657 0.000000
O O11 0.826712 0.103635 0.707169
O O12 0.000000 0.070068 0.500000
O O13 0.000000 0.064215 0.000000
#
# Coordination Sequence:
#
# PCOD9203483 Si02
#       5
#     8   8   8   8   8
#     4  10  25  47  73 105 141 173 220 296 370 428
#     4  10  23  40  59  91 140 188 236 292 338 399
#     4  11  24  38  61  95 139 189 243 291 335 407
#     4  10  20  39  63  89 129 181 229 279 334 398
#     4  11  24  40  70  94 133 185 238 282 357 424
#
# _framework density 24.058458000000002
#
# number of rings (size 3 to 8) (size 9 to 14) (size 15 to 20)
#    0.000    1.600    2.000    1.200    8.400    0.000 
#    3.600    0.000    0.000    6.000    0.000    0.000 
#    0.000    0.000    0.000    0.000    0.000    0.000 
#
# Total GULP energy -111787.453242 kJ/mol
# GULP energy per Si atom -5589.372662 kJ/mol
# Density = 2.400370 g / cm^3
# Si number density = 24.058458 Si / 1000 Ang^3
#
#
#
# Elastic Constant Matrix: (Units=GPa)
#
#
# Indices 1 2 3 4 5 6 
#
# 1 93.3351 23.5985 36.6278 0.0000 -6.3232 0.0000
# 2 23.5985 80.0248 17.7263 0.0000 -4.7017 0.0000
# 3 36.6278 17.7263 154.1965 0.0000 -5.4957 0.0000
# 4 0.0000 0.0000 0.0000 12.5705 0.0000 -10.2734
# 5 -6.3232 -4.7017 -5.4957 0.0000 55.5129 0.0000
# 6 0.0000 0.0000 0.0000 -10.2734 0.0000 -15.2425
#
#
#
# Elastic Compliance Matrix: (Units=1/GPa)
#
#
# Indices 1 2 3 4 5 6 
#
# 1 0.012575 -0.003078 -0.002601 0.000000 0.000914 0.000000
# 2 -0.003078 0.013626 -0.000809 0.000000 0.000723 0.000000
# 3 -0.002601 -0.000809 0.007208 0.000000 0.000349 0.000000
# 4 0.000000 0.000000 0.000000 0.051296 0.000000 -0.034573
# 5 0.000914 0.000723 0.000349 0.000000 0.018214 0.000000
# 6 0.000000 0.000000 0.000000 -0.034573 0.000000 -0.042304
#
#
# Mechanical properties :
#
#
# Convention : Reuss Voigt Hill
#
# Bulk Modulus (GPa) = 48.94213 53.71796 51.33004
# Shear Modulus (GPa) = 62.18740 27.20846 44.69793
#
# Velocity S-wave (km/s) = 5.08965 3.36658 4.31500
# Velocity P-wave (km/s) = 7.41125 6.12278 6.79761
#
# Compressibility (1/GPa) = 0.02043230
#
# Stress axis : x y z
#
# Youngs Moduli (GPa) = 79.52349 73.39066 138.72618
#
# Poissons Ratio (x) = 0.22593 0.36077
# Poissons Ratio (y) = 0.24481 0.11228
# Poissons Ratio (z) = 0.20681 0.05940
#
# Static dielectric constant tensor:
#      x y z
#    x 1.930630 0.000000 0.011120 
#    y 0.000000 1.858410 0.000000 
#    z 0.011120 0.000000 2.029380 
# 
# From -- ./inp_files/7722.got.cif
#   From: 2010.05.17/outbox.cif.g08.bks.cpg/sg12_4_cif.got.tgz:7722.got - 2010.06.03 13:09:07.
