data_PCOD9203724
_publ_section_title
;
Structure prediction by ZEFSAII (Michael W. Deem and Ramdas Pophale) SiO2 
 PCOD9203724
Probable space group: C 2/M
;
_chemical_formula_sum "Si O2"
_cell_formula_units_Z 44
_cell_length_a 14.703075
_cell_length_b 17.390565
_cell_length_c 22.926740
_cell_angle_alpha 90.000000
_cell_angle_beta 21.423999
_cell_angle_gamma 90.000000
_cell_volume 2141.284109
_symmetry_space_group_name_H-M "C 2/M"
_symmetry_group_IT_number 12
_symmetry_cell_setting 'monoclinic'
loop_
_space_group_symop_operation_xyz
x,y,z
-x,y,-z
-x,-y,-z
x,-y,z
1/2+x,1/2+y,z
1/2-x,1/2+y,-z
1/2-x,1/2-y,-z
1/2+x,1/2-y,z
loop_
_atom_site_type_symbol
_atom_site_label
_atom_site_fract_x
_atom_site_fract_y
_atom_site_fract_z
Si Si1 0.220258 0.500000 0.192982
Si Si2 0.674037 0.130128 0.590068
Si Si3 0.031388 0.803024 0.288145
Si Si4 0.000000 0.153819 0.500000
Si Si5 0.741423 0.500000 0.691424
Si Si6 0.385261 0.645896 0.892985
Si Si7 0.106735 0.711115 0.821289
O O1 0.209701 0.500000 0.269043
O O2 0.062316 0.575128 0.269731
O O3 0.500000 0.500000 0.000000
O O4 0.591727 0.218970 0.643100
O O5 0.841303 0.109239 0.546281
O O6 0.845722 0.134552 0.429226
O O7 0.097317 0.823160 0.183257
O O8 0.265389 0.796655 0.192360
O O9 0.822639 0.206645 0.644726
O O10 0.564853 0.573474 0.786646
O O11 0.000000 0.500000 0.500000
O O12 0.474306 0.707571 0.888293
O O13 0.086733 0.642669 0.078328
#
# Coordination Sequence:
#
# PCOD9203724 Si02
#       7
#     4   8   8   4   4   8   8
#     4  12  28  43  66  98 141 181 220 279 343 403
#     4  10  22  40  64  97 131 175 224 270 333 402
#     4  10  20  40  68  93 128 172 227 275 324 396
#     4  10  20  39  66  93 124 168 218 274 328 383
#     4  12  28  44  67  99 138 182 220 284 349 403
#     4  11  23  41  65  96 136 170 228 272 334 400
#     4  10  22  37  66  97 126 173 219 276 323 392
#
# _framework density 20.548418000000002
#
# number of rings (size 3 to 8) (size 9 to 14) (size 15 to 20)
#    0.000    1.455    1.818    2.727    3.818    1.818 
#    0.000    5.455    0.000    0.000    0.000    0.000 
#    0.000    0.000    0.000    0.000    0.000    0.000 
#
# Total GULP energy -122750.258541 kJ/mol
# GULP energy per Si atom -5579.557206 kJ/mol
# Density = 2.050165 g / cm^3
# Si number density = 20.548418 Si / 1000 Ang^3
#
#
#
# Elastic Constant Matrix: (Units=GPa)
#
#
# Indices 1 2 3 4 5 6 
#
# 1 107.9654 23.8527 37.8292 0.0091 -13.9381 -0.1283
# 2 23.8527 65.1782 45.3475 0.0659 -8.7855 -0.0599
# 3 37.8292 45.3475 113.3813 0.1604 -24.5648 -0.1516
# 4 0.0091 0.0659 0.1604 33.3134 -0.0504 -5.6723
# 5 -13.9381 -8.7855 -24.5648 -0.0504 27.2610 -0.0054
# 6 -0.1283 -0.0599 -0.1516 -5.6723 -0.0054 35.3955
#
#
#
# Elastic Compliance Matrix: (Units=1/GPa)
#
#
# Indices 1 2 3 4 5 6 
#
# 1 0.010856 -0.002078 -0.002154 0.000021 0.002940 0.000030
# 2 -0.002078 0.021678 -0.008317 -0.000006 -0.001571 -0.000008
# 3 -0.002154 -0.008317 0.014968 -0.000034 0.009706 0.000038
# 4 0.000021 -0.000006 -0.000034 0.030860 0.000036 0.004945
# 5 0.002940 -0.001571 0.009706 0.000036 0.046425 0.000062
# 6 0.000030 -0.000008 0.000038 0.004945 0.000062 0.029045
#
#
# Mechanical properties :
#
#
# Convention : Reuss Voigt Hill
#
# Bulk Modulus (GPa) = 44.63635 55.62043 50.12839
# Shear Modulus (GPa) = 26.82437 31.16036 28.99237
#
# Velocity S-wave (km/s) = 3.61698 3.89837 3.76031
# Velocity P-wave (km/s) = 6.26204 6.88402 6.58038
#
# Compressibility (1/GPa) = 0.02240326
#
# Stress axis : x y z
#
# Youngs Moduli (GPa) = 92.11891 46.12983 66.80960
#
# Poissons Ratio (x) = 0.09585 0.14390
# Poissons Ratio (y) = 0.19141 0.55567
# Poissons Ratio (z) = 0.19842 0.38367
#
# Static dielectric constant tensor:
#      x y z
#    x 1.758070 -0.000020 -0.021670 
#    y -0.000020 1.730770 0.000000 
#    z -0.021670 0.000000 1.835050 
# 
# From -- ./inp_files/340771.got.cif
#   From: 2010.05.17/outbox.cif.g08.bks.cpg/sg12_171_cif.got.tgz:340771.got - 2010.06.03 13:09:07.
