data_PCOD9203043
_publ_section_title
;
Structure prediction by ZEFSAII (Michael W. Deem and Ramdas Pophale) SiO2 
 PCOD9203043
Probable space group: C 2/M
;
_chemical_formula_sum "Si O2"
_cell_formula_units_Z 64
_cell_length_a 10.846862
_cell_length_b 26.798328
_cell_length_c 14.313879
_cell_angle_alpha 90.000000
_cell_angle_beta 41.022452
_cell_angle_gamma 90.000000
_cell_volume 2730.912389
_symmetry_space_group_name_H-M "C 2/M"
_symmetry_group_IT_number 12
_symmetry_cell_setting 'monoclinic'
loop_
_space_group_symop_operation_xyz
x,y,z
-x,y,-z
-x,-y,-z
x,-y,z
1/2+x,1/2+y,z
1/2-x,1/2+y,-z
1/2-x,1/2-y,-z
1/2+x,1/2-y,z
loop_
_atom_site_type_symbol
_atom_site_label
_atom_site_fract_x
_atom_site_fract_y
_atom_site_fract_z
Si Si1 0.774933 0.941538 0.425886
Si Si2 0.701192 0.862336 0.336230
Si Si3 0.130021 0.153751 0.117412
Si Si4 0.856127 0.309981 0.820921
Si Si5 0.080802 0.873652 0.331686
Si Si6 0.362275 0.943327 0.987690
Si Si7 0.048717 0.233024 0.579058
Si Si8 0.381501 0.896283 0.303656
O O1 0.726928 0.919590 0.352167
O O2 0.642817 0.913590 0.576709
O O3 0.975845 0.919736 0.343275
O O4 0.762726 0.000000 0.439283
O O5 0.500000 0.847956 0.500000
O O6 0.707292 0.847719 0.225010
O O7 0.903674 0.839410 0.254451
O O8 0.208493 0.153525 0.178825
O O9 0.213608 0.189590 0.989696
O O10 0.201615 0.097459 0.054106
O O11 0.908801 0.259982 0.734001
O O12 0.037046 0.340329 0.753986
O O13 0.189615 0.894521 0.356540
O O14 0.948746 0.826767 0.426961
O O15 0.495411 0.936096 0.822337
O O16 0.292636 0.000000 0.037742
O O17 0.500000 0.933496 0.000000
O O18 0.250000 0.250000 0.500000
O O19 0.000000 0.247551 0.500000
#
# Coordination Sequence:
#
# PCOD9203043 Si02
#       8
#     8   8   8   8   8   8   8   8
#     4  11  24  40  66 100 139 186 239 297 359 417
#     4  11  23  45  68  99 137 189 236 298 344 426
#     4  10  24  42  71 103 143 182 238 293 357 420
#     4  11  24  44  73  99 141 190 236 295 361 425
#     4  11  24  43  67 102 148 180 234 301 357 430
#     4  10  20  38  65  97 138 189 232 280 356 434
#     4  12  27  45  74 109 144 198 249 297 369 444
#     4  11  21  41  65 101 139 182 233 301 355 427
#
# _framework density 23.435392
#
# number of rings (size 3 to 8) (size 9 to 14) (size 15 to 20)
#    0.000    1.125    2.500    3.750    5.250    4.250 
#    0.000    0.625    5.500    4.500    0.000    0.000 
#    0.000    0.000    0.000    0.000    0.000    0.000 
#
# Total GULP energy -178318.607896 kJ/mol
# GULP energy per Si atom -5572.456497 kJ/mol
# Density = 2.338205 g / cm^3
# Si number density = 23.435392 Si / 1000 Ang^3
#
#
#
# Elastic Constant Matrix: (Units=GPa)
#
#
# Indices 1 2 3 4 5 6 
#
# 1 78.2526 0.2321 12.4816 0.0000 -2.8621 0.0000
# 2 0.2321 117.3211 16.5286 0.0000 -8.4761 0.0000
# 3 12.4816 16.5286 112.5206 0.0000 9.2133 0.0000
# 4 0.0000 0.0000 0.0000 17.0876 0.0000 -2.3849
# 5 -2.8621 -8.4761 9.2133 0.0000 37.8617 0.0000
# 6 0.0000 0.0000 0.0000 -2.3849 0.0000 18.4568
#
#
#
# Elastic Compliance Matrix: (Units=1/GPa)
#
#
# Indices 1 2 3 4 5 6 
#
# 1 0.013089 0.000307 -0.001616 0.000000 0.001451 0.000000
# 2 0.000307 0.008913 -0.001539 0.000000 0.002393 0.000000
# 3 -0.001616 -0.001539 0.009521 0.000000 -0.002783 0.000000
# 4 0.000000 0.000000 0.000000 0.059597 0.000000 0.007701
# 5 0.001451 0.002393 -0.002783 0.000000 0.027735 0.000000
# 6 0.000000 0.000000 0.000000 0.007701 0.000000 0.055176
#
#
# Mechanical properties :
#
#
# Convention : Reuss Voigt Hill
#
# Bulk Modulus (GPa) = 38.72143 40.73099 39.72621
# Shear Modulus (GPa) = 26.54852 33.27136 29.90994
#
# Velocity S-wave (km/s) = 3.36942 3.77199 3.57637
# Velocity P-wave (km/s) = 5.62990 6.03228 5.83456
#
# Compressibility (1/GPa) = 0.02582550
#
# Stress axis : x y z
#
# Youngs Moduli (GPa) = 76.39993 112.19888 105.03638
#
# Poissons Ratio (x) = -0.03440 0.16972
# Poissons Ratio (y) = -0.02342 0.16167
# Poissons Ratio (z) = 0.12345 0.17269
#
# Static dielectric constant tensor:
#      x y z
#    x 1.925210 0.000000 -0.026140 
#    y 0.000000 1.854650 0.000000 
#    z -0.026140 0.000000 2.063690 
# 
# From -- ./inp_files/209365.got.cif
#   From: 2010.05.17/outbox.cif.g08.bks.cpg/sg12_105_cif.got.tgz:209365.got - 2010.06.03 13:09:07.
