data_PCOD9203153
_publ_section_title
;
Structure prediction by ZEFSAII (Michael W. Deem and Ramdas Pophale) SiO2 
 PCOD9203153
Probable space group: C 2/M
;
_chemical_formula_sum "Si O2"
_cell_formula_units_Z 38
_cell_length_a 23.006932
_cell_length_b 9.743601
_cell_length_c 16.783209
_cell_angle_alpha 90.000000
_cell_angle_beta 152.593589
_cell_angle_gamma 90.000000
_cell_volume 1731.782512
_symmetry_space_group_name_H-M "C 2/M"
_symmetry_group_IT_number 12
_symmetry_cell_setting 'monoclinic'
loop_
_space_group_symop_operation_xyz
x,y,z
-x,y,-z
-x,-y,-z
x,-y,z
1/2+x,1/2+y,z
1/2-x,1/2+y,-z
1/2-x,1/2-y,-z
1/2+x,1/2-y,z
loop_
_atom_site_type_symbol
_atom_site_label
_atom_site_fract_x
_atom_site_fract_y
_atom_site_fract_z
Si Si1 0.674793 0.000000 0.453351
Si Si2 0.766866 0.000000 0.403228
Si Si3 0.295137 0.269228 0.212640
Si Si4 0.500000 0.500000 0.000000
Si Si5 0.742167 0.000000 0.938885
Si Si6 0.545954 0.500000 0.677532
Si Si7 0.767265 0.208080 0.691381
Si Si8 0.103962 0.500000 0.938228
O O1 0.783951 0.000000 0.519432
O O2 0.688081 0.131802 0.526105
O O3 0.545491 0.000000 0.246836
O O4 0.699941 0.139762 0.297146
O O5 0.899455 0.000000 0.517575
O O6 0.403339 0.367828 0.308966
O O7 0.310912 0.220266 0.321954
O O8 0.276696 0.136428 0.135382
O O9 0.170140 0.366223 0.056689
O O10 0.610174 0.617982 0.143422
O O11 0.647962 0.000000 0.899227
O O12 0.879066 0.000000 0.147336
#
# Coordination Sequence:
#
# PCOD9203153 Si02
#       8
#     4   4   8   2   4   4   8   4
#     4  11  27  46  66 110 147 188 237 299 363 425
#     4  12  27  45  73 102 146 193 241 292 364 431
#     4  10  22  43  72 104 138 191 239 290 357 426
#     4  10  26  48  68  96 152 178 236 290 346 442
#     4  10  20  38  69 102 134 190 233 286 355 428
#     4  10  23  43  70 105 145 183 235 295 352 430
#     4  11  26  47  70 108 137 192 241 295 367 418
#     4  10  22  41  69 103 143 182 243 289 353 432
#
# _framework density 21.942708
#
# number of rings (size 3 to 8) (size 9 to 14) (size 15 to 20)
#    0.000    1.684    0.000    5.684    8.842    5.474 
#    0.000    1.053    0.000    0.000    0.000    0.000 
#    0.000    0.000    0.000    0.000    0.000    0.000 
#
# Total GULP energy -106038.988780 kJ/mol
# GULP energy per Si atom -5580.999409 kJ/mol
# Density = 2.189277 g / cm^3
# Si number density = 21.942708 Si / 1000 Ang^3
#
#
#
# Elastic Constant Matrix: (Units=GPa)
#
#
# Indices 1 2 3 4 5 6 
#
# 1 99.7724 49.9478 37.2972 0.0000 -19.4835 0.0000
# 2 49.9478 198.3078 49.3640 0.0000 -3.0250 0.0000
# 3 37.2972 49.3640 81.2039 0.0000 19.1481 0.0000
# 4 0.0000 0.0000 0.0000 28.6729 0.0000 -33.4074
# 5 -19.4835 -3.0250 19.1481 0.0000 32.5099 0.0000
# 6 0.0000 0.0000 0.0000 -33.4074 0.0000 -14.2794
#
#
#
# Elastic Compliance Matrix: (Units=1/GPa)
#
#
# Indices 1 2 3 4 5 6 
#
# 1 0.018829 -0.001461 -0.012064 0.000000 0.018254 0.000000
# 2 -0.001461 0.006339 -0.003618 0.000000 0.001845 0.000000
# 3 -0.012064 -0.003618 0.025362 0.000000 -0.022505 0.000000
# 4 0.000000 0.000000 0.000000 0.009361 0.000000 -0.021899
# 5 0.018254 0.001845 -0.022505 0.000000 0.055127 0.000000
# 6 0.000000 0.000000 0.000000 -0.021899 0.000000 -0.018796
#
#
# Mechanical properties :
#
#
# Convention : Reuss Voigt Hill
#
# Bulk Modulus (GPa) = 61.56202 72.50025 67.03114
# Shear Modulus (GPa) = 36.78568 25.55902 31.17235
#
# Velocity S-wave (km/s) = 4.09888 3.41663 3.77321
# Velocity P-wave (km/s) = 7.10759 6.97688 7.04254
#
# Compressibility (1/GPa) = 0.01624378
#
# Stress axis : x y z
#
# Youngs Moduli (GPa) = 53.11023 157.74554 39.42907
#
# Poissons Ratio (x) = 0.23043 0.47569
# Poissons Ratio (y) = 0.07758 0.14265
# Poissons Ratio (z) = 0.64075 0.57070
#
# Static dielectric constant tensor:
#      x y z
#    x 1.815880 0.000000 -0.002510 
#    y 0.000000 1.772330 0.000000 
#    z -0.002510 0.000000 1.810110 
# 
# From -- ./inp_files/288683.got.cif
#   From: 2010.05.17/outbox.cif.g08.bks.cpg/sg12_145_cif.got.tgz:288683.got - 2010.06.03 13:09:07.
