data_PCOD9203549
_publ_section_title
;
Structure prediction by ZEFSAII (Michael W. Deem and Ramdas Pophale) SiO2 
 PCOD9203549
Probable space group: C 2/M
;
_chemical_formula_sum "Si O2"
_cell_formula_units_Z 48
_cell_length_a 9.180529
_cell_length_b 30.764536
_cell_length_c 18.032586
_cell_angle_alpha 90.000000
_cell_angle_beta 30.807805
_cell_angle_gamma 90.000000
_cell_volume 2608.444706
_symmetry_space_group_name_H-M "C 2/M"
_symmetry_group_IT_number 12
_symmetry_cell_setting 'monoclinic'
loop_
_space_group_symop_operation_xyz
x,y,z
-x,y,-z
-x,-y,-z
x,-y,z
1/2+x,1/2+y,z
1/2-x,1/2+y,-z
1/2-x,1/2-y,-z
1/2+x,1/2-y,z
loop_
_atom_site_type_symbol
_atom_site_label
_atom_site_fract_x
_atom_site_fract_y
_atom_site_fract_z
Si Si1 0.819390 0.949541 0.876049
Si Si2 0.768153 0.626665 0.435704
Si Si3 0.038068 0.712030 0.571626
Si Si4 0.022763 0.787162 0.079178
Si Si5 0.078286 0.885597 0.883866
Si Si6 0.243043 0.950243 0.558107
O O1 0.985793 0.919559 0.861484
O O2 0.974002 0.949064 0.729350
O O3 0.814734 0.000000 0.903883
O O4 0.500000 0.934524 0.000000
O O5 0.500000 0.635350 0.500000
O O6 0.815258 0.666623 0.470752
O O7 0.713605 0.582399 0.503845
O O8 0.081523 0.622211 0.262822
O O9 0.250000 0.750000 0.500000
O O10 0.000000 0.712837 0.500000
O O11 0.754581 0.718560 0.746318
O O12 0.077131 0.839211 0.064255
O O13 0.250000 0.750000 0.000000
O O14 0.000000 0.782455 0.000000
O O15 0.000000 0.901148 0.000000
O O16 0.500000 0.936699 0.500000
O O17 0.298411 0.000000 0.510055
#
# Coordination Sequence:
#
# PCOD9203549 Si02
#       6
#     8   8   8   8   8   8
#     4  10  22  40  62  90 122 159 205 253 309 373
#     4  11  24  39  61  90 124 163 208 255 306 371
#     4  11  23  40  64  92 124 161 206 260 312 366
#     4  10  22  41  60  86 122 158 201 250 302 366
#     4  10  23  40  59  88 124 160 201 253 308 365
#     4  10  20  39  64  88 121 161 205 258 310 367
#
# _framework density 18.401769999999999
#
# number of rings (size 3 to 8) (size 9 to 14) (size 15 to 20)
#    0.000    1.667    1.667    2.000    4.667    4.000 
#    0.000    0.000    0.000    0.000    0.000    0.000 
#    0.000    0.000    0.000    0.000    0.000    0.000 
#
# Total GULP energy -133801.492032 kJ/mol
# GULP energy per Si atom -5575.062168 kJ/mol
# Density = 1.835989 g / cm^3
# Si number density = 18.401770 Si / 1000 Ang^3
#
#
#
# Elastic Constant Matrix: (Units=GPa)
#
#
# Indices 1 2 3 4 5 6 
#
# 1 117.5297 59.9349 47.8577 0.0000 5.7192 0.0000
# 2 59.9349 82.4570 18.2520 0.0000 5.5093 0.0000
# 3 47.8577 18.2520 79.1467 0.0000 1.5504 0.0000
# 4 0.0000 0.0000 0.0000 13.2892 0.0000 -10.0599
# 5 5.7192 5.5093 1.5504 0.0000 34.6413 0.0000
# 6 0.0000 0.0000 0.0000 -10.0599 0.0000 23.3084
#
#
#
# Elastic Compliance Matrix: (Units=1/GPa)
#
#
# Indices 1 2 3 4 5 6 
#
# 1 0.017252 -0.010730 -0.007942 0.000000 -0.000786 0.000000
# 2 -0.010730 0.019579 0.002001 0.000000 -0.001432 0.000000
# 3 -0.007942 0.002001 0.016971 0.000000 0.000234 0.000000
# 4 0.000000 0.000000 0.000000 0.111765 0.000000 0.048238
# 5 -0.000786 -0.001432 0.000234 0.000000 0.029214 0.000000
# 6 0.000000 0.000000 0.000000 0.048238 0.000000 0.063723
#
#
# Mechanical properties :
#
#
# Convention : Reuss Voigt Hill
#
# Bulk Modulus (GPa) = 48.87407 59.02471 53.94939
# Shear Modulus (GPa) = 16.74101 24.45370 20.59736
#
# Velocity S-wave (km/s) = 3.01948 3.64933 3.34924
# Velocity P-wave (km/s) = 6.22683 7.06414 6.65866
#
# Compressibility (1/GPa) = 0.02046075
#
# Stress axis : x y z
#
# Youngs Moduli (GPa) = 57.96275 51.07438 58.92304
#
# Poissons Ratio (x) = 0.54801 0.46799
# Poissons Ratio (y) = 0.62192 -0.11789
# Poissons Ratio (z) = 0.46036 -0.10219
#
# Static dielectric constant tensor:
#      x y z
#    x 1.606370 0.000000 0.003870 
#    y 0.000000 1.648860 0.000000 
#    z 0.003870 0.000000 1.729460 
# 
# From -- ./inp_files/80593.got.cif
#   From: 2010.05.17/outbox.cif.g08.bks.cpg/sg12_41_cif.got.tgz:80593.got - 2010.06.03 13:09:07.
