data_PCOD9203067
_publ_section_title
;
Structure prediction by ZEFSAII (Michael W. Deem and Ramdas Pophale) SiO2 
 PCOD9203067
Probable space group: C 2/M
;
_chemical_formula_sum "Si O2"
_cell_formula_units_Z 64
_cell_length_a 15.551404
_cell_length_b 18.763319
_cell_length_c 18.886284
_cell_angle_alpha 90.000000
_cell_angle_beta 36.721529
_cell_angle_gamma 90.000000
_cell_volume 3295.137122
_symmetry_space_group_name_H-M "C 2/M"
_symmetry_group_IT_number 12
_symmetry_cell_setting 'monoclinic'
loop_
_space_group_symop_operation_xyz
x,y,z
-x,y,-z
-x,-y,-z
x,-y,z
1/2+x,1/2+y,z
1/2-x,1/2+y,-z
1/2-x,1/2-y,-z
1/2+x,1/2-y,z
loop_
_atom_site_type_symbol
_atom_site_label
_atom_site_fract_x
_atom_site_fract_y
_atom_site_fract_z
Si Si1 0.170810 0.702213 0.380178
Si Si2 0.920845 0.848628 0.788213
Si Si3 0.961765 0.417561 0.305096
Si Si4 0.392253 0.721961 0.946538
Si Si5 0.670097 0.916333 0.874317
Si Si6 0.718846 0.416717 0.585612
Si Si7 0.813452 0.299985 0.797049
Si Si8 0.854739 0.330836 0.245418
O O1 0.225563 0.635190 0.388924
O O2 0.208486 0.697937 0.272160
O O3 0.247762 0.775150 0.353627
O O4 0.000000 0.707044 0.500000
O O5 0.943756 0.837972 0.857387
O O6 0.773189 0.889889 0.869059
O O7 0.900694 0.771107 0.764511
O O8 0.060365 0.889791 0.668391
O O9 0.003797 0.500000 0.274259
O O10 0.832348 0.409970 0.446769
O O11 0.908757 0.389422 0.264537
O O12 0.091869 0.367265 0.242871
O O13 0.510440 0.783350 0.869136
O O14 0.250000 0.750000 0.000000
O O15 0.335092 0.700917 0.061038
O O16 0.711514 0.869617 0.778728
O O17 0.307748 0.000000 0.152587
O O18 0.500000 0.905482 0.000000
O O19 0.713523 0.500000 0.609973
#
# Coordination Sequence:
#
# PCOD9203067 Si02
#       8
#     8   8   8   8   8   8   8   8
#     4  12  25  41  67  96 122 169 214 269 313 374
#     4  11  21  42  65  94 125 167 213 262 314 379
#     4  11  24  41  64  93 130 170 211 263 318 379
#     4  10  20  38  66  93 121 166 207 264 314 368
#     4  11  24  39  61  95 132 168 204 251 318 391
#     4  11  25  44  65  91 126 171 215 264 323 374
#     4  11  22  40  66  93 127 162 219 259 318 373
#     4  12  23  40  65  94 131 163 212 262 317 379
#
# _framework density 19.422560000000001
#
# number of rings (size 3 to 8) (size 9 to 14) (size 15 to 20)
#    0.000    0.875    6.250    2.250    1.750    1.750 
#    0.000    0.625    0.000    3.750    0.000    0.000 
#    0.000    0.000    0.000    0.000    0.000    0.000 
#
# Total GULP energy -178805.699627 kJ/mol
# GULP energy per Si atom -5587.678113 kJ/mol
# Density = 1.937835 g / cm^3
# Si number density = 19.422560 Si / 1000 Ang^3
#
#
#
# Elastic Constant Matrix: (Units=GPa)
#
#
# Indices 1 2 3 4 5 6 
#
# 1 49.0243 35.4348 25.3290 -0.0011 0.2427 0.0006
# 2 35.4348 142.5797 51.2300 -0.0008 -12.5544 0.0003
# 3 25.3290 51.2300 90.6235 -0.0018 -6.1825 0.0010
# 4 -0.0011 -0.0008 -0.0018 29.7614 0.0007 1.2844
# 5 0.2427 -12.5544 -6.1825 0.0007 40.1323 -0.0004
# 6 0.0006 0.0003 0.0010 1.2844 -0.0004 24.8639
#
#
#
# Elastic Compliance Matrix: (Units=1/GPa)
#
#
# Indices 1 2 3 4 5 6 
#
# 1 0.026541 -0.005131 -0.004687 0.000001 -0.002488 0.000000
# 2 -0.005131 0.009956 -0.004022 0.000000 0.002526 0.000000
# 3 -0.004687 -0.004022 0.014689 0.000001 0.001033 0.000000
# 4 0.000001 0.000000 0.000001 0.033676 -0.000001 -0.001740
# 5 -0.002488 0.002526 0.001033 -0.000001 0.025882 0.000000
# 6 0.000000 0.000000 0.000000 -0.001740 0.000000 0.040309
#
#
# Mechanical properties :
#
#
# Convention : Reuss Voigt Hill
#
# Bulk Modulus (GPa) = 42.54295 56.24613 49.39454
# Shear Modulus (GPa) = 26.79990 30.30043 28.55017
#
# Velocity S-wave (km/s) = 3.71864 3.95405 3.83815
# Velocity P-wave (km/s) = 6.35525 7.06173 6.71778
#
# Compressibility (1/GPa) = 0.02350566
#
# Stress axis : x y z
#
# Youngs Moduli (GPa) = 37.67789 100.43845 68.07886
#
# Poissons Ratio (x) = 0.51535 0.31910
# Poissons Ratio (y) = 0.19332 0.27381
# Poissons Ratio (z) = 0.17660 0.40396
#
# Static dielectric constant tensor:
#      x y z
#    x 1.686930 0.000000 0.008950 
#    y 0.000000 1.665520 0.000000 
#    z 0.008950 0.000000 1.705400 
# 
# From -- ./inp_files/271680.got.cif
#   From: 2010.05.17/outbox.cif.g08.bks.cpg/sg12_136_cif.got.tgz:271680.got - 2010.06.03 13:09:07.
