data_PCOD9203954
_publ_section_title
;
Structure prediction by ZEFSAII (Michael W. Deem and Ramdas Pophale) SiO2 
 PCOD9203954
Probable space group: C 2/M
;
_chemical_formula_sum "Si O2"
_cell_formula_units_Z 64
_cell_length_a 18.486892
_cell_length_b 17.334340
_cell_length_c 16.041011
_cell_angle_alpha 90.000000
_cell_angle_beta 43.099070
_cell_angle_gamma 90.000000
_cell_volume 3512.288402
_symmetry_space_group_name_H-M "C 2/M"
_symmetry_group_IT_number 12
_symmetry_cell_setting 'monoclinic'
loop_
_space_group_symop_operation_xyz
x,y,z
-x,y,-z
-x,-y,-z
x,-y,z
1/2+x,1/2+y,z
1/2-x,1/2+y,-z
1/2-x,1/2-y,-z
1/2+x,1/2-y,z
loop_
_atom_site_type_symbol
_atom_site_label
_atom_site_fract_x
_atom_site_fract_y
_atom_site_fract_z
Si Si1 0.032682 0.195066 0.881037
Si Si2 0.978243 0.908182 0.272497
Si Si3 0.105681 0.685981 0.102131
Si Si4 0.774666 0.740875 0.701964
Si Si5 0.382104 0.086986 0.563155
Si Si6 0.318309 0.321639 0.840148
Si Si7 0.085587 0.409013 0.660740
Si Si8 0.288849 0.679087 0.524832
O O1 0.024313 0.129230 0.817776
O O2 0.150451 0.229600 0.787546
O O3 0.954445 0.262909 0.916659
O O4 0.000000 0.167301 0.000000
O O5 0.880489 0.868315 0.402519
O O6 0.086440 0.881636 0.227100
O O7 0.967879 0.000000 0.278950
O O8 0.146263 0.746558 0.136800
O O9 0.020756 0.631032 0.217352
O O10 0.208854 0.648725 0.973161
O O11 0.820284 0.654002 0.663008
O O12 0.796875 0.789676 0.765912
O O13 0.825443 0.785282 0.581038
O O14 0.500000 0.085181 0.500000
O O15 0.391337 0.105434 0.456928
O O16 0.336435 0.000000 0.609913
O O17 0.077680 0.500000 0.678421
O O18 0.186398 0.374345 0.623410
O O19 0.250000 0.750000 0.500000
#
# Coordination Sequence:
#
# PCOD9203954 Si02
#       8
#     8   8   8   8   8   8   8   8
#     4  11  21  39  67  94 119 156 209 263 308 364
#     4  11  25  44  62  90 133 166 200 253 318 380
#     4  10  20  40  62  87 121 160 211 254 300 360
#     4  12  22  36  65  93 120 158 212 258 299 364
#     4  10  22  36  54  88 128 156 189 248 316 371
#     4  10  23  39  63  88 119 169 210 249 299 367
#     4  11  21  36  59  89 121 155 200 252 310 362
#     4  12  21  38  63  91 118 163 208 251 307 365
#
# _framework density 18.221738999999999
#
# number of rings (size 3 to 8) (size 9 to 14) (size 15 to 20)
#    0.000    1.125    5.000    1.875    1.750    2.250 
#    0.000    1.875    0.000    1.125    0.000    0.000 
#    0.000    0.000    0.000    0.000    0.000    0.000 
#
# Total GULP energy -178708.255898 kJ/mol
# GULP energy per Si atom -5584.632997 kJ/mol
# Density = 1.818027 g / cm^3
# Si number density = 18.221739 Si / 1000 Ang^3
#
#
#
# Elastic Constant Matrix: (Units=GPa)
#
#
# Indices 1 2 3 4 5 6 
#
# 1 77.4857 19.4944 12.6042 0.0000 -1.4847 0.0000
# 2 19.4944 74.4435 32.0662 0.0000 -9.1998 0.0000
# 3 12.6042 32.0662 73.7346 0.0000 -13.0825 0.0000
# 4 0.0000 0.0000 0.0000 3.7869 0.0000 -0.2108
# 5 -1.4847 -9.1998 -13.0825 0.0000 36.3748 0.0000
# 6 0.0000 0.0000 0.0000 -0.2108 0.0000 18.8238
#
#
#
# Elastic Compliance Matrix: (Units=1/GPa)
#
#
# Indices 1 2 3 4 5 6 
#
# 1 0.013886 -0.003254 -0.001073 0.000000 -0.000642 0.000000
# 2 -0.003254 0.017391 -0.006676 0.000000 0.001865 0.000000
# 3 -0.001073 -0.006676 0.017455 0.000000 0.004546 0.000000
# 4 0.000000 0.000000 0.000000 0.264232 0.000000 0.002959
# 5 -0.000642 0.001865 0.004546 0.000000 0.029572 0.000000
# 6 0.000000 0.000000 0.000000 0.002959 0.000000 0.053157
#
#
# Mechanical properties :
#
#
# Convention : Reuss Voigt Hill
#
# Bulk Modulus (GPa) = 37.41402 39.33259 38.37330
# Shear Modulus (GPa) = 11.72035 22.56369 17.14202
#
# Velocity S-wave (km/s) = 2.53890 3.52274 3.07049
# Velocity P-wave (km/s) = 5.40110 6.17889 5.80304
#
# Compressibility (1/GPa) = 0.02672795
#
# Stress axis : x y z
#
# Youngs Moduli (GPa) = 72.01303 57.50037 57.28881
#
# Poissons Ratio (x) = 0.18709 0.06145
# Poissons Ratio (y) = 0.23431 0.38247
# Poissons Ratio (z) = 0.07725 0.38388
#
# Static dielectric constant tensor:
#      x y z
#    x 1.635900 0.000000 -0.000790 
#    y 0.000000 1.615540 0.000000 
#    z -0.000790 0.000000 1.640780 
# 
# From -- ./inp_files/226829.got.cif
#   From: 2010.05.17/outbox.cif.g08.bks.cpg/sg12_114_cif.got.tgz:226829.got - 2010.06.03 13:09:07.
