data_PCOD9203362
_publ_section_title
;
Structure prediction by ZEFSAII (Michael W. Deem and Ramdas Pophale) SiO2 
 PCOD9203362
Probable space group: C 2/M
;
_chemical_formula_sum "Si O2"
_cell_formula_units_Z 64
_cell_length_a 22.645616
_cell_length_b 31.136928
_cell_length_c 15.113783
_cell_angle_alpha 90.000000
_cell_angle_beta 161.542266
_cell_angle_gamma 90.000000
_cell_volume 3374.044968
_symmetry_space_group_name_H-M "C 2/M"
_symmetry_group_IT_number 12
_symmetry_cell_setting 'monoclinic'
loop_
_space_group_symop_operation_xyz
x,y,z
-x,y,-z
-x,-y,-z
x,-y,z
1/2+x,1/2+y,z
1/2-x,1/2+y,-z
1/2-x,1/2-y,-z
1/2+x,1/2-y,z
loop_
_atom_site_type_symbol
_atom_site_label
_atom_site_fract_x
_atom_site_fract_y
_atom_site_fract_z
Si Si1 0.897269 0.313076 0.157727
Si Si2 0.182502 0.551967 0.308026
Si Si3 0.697109 0.400342 0.830651
Si Si4 0.208128 0.729710 0.813956
Si Si5 0.676827 0.677949 0.193589
Si Si6 0.149888 0.922271 0.137219
Si Si7 0.554181 0.051164 0.310541
Si Si8 0.406815 0.550553 0.144959
O O1 0.830117 0.305310 0.163564
O O2 0.119555 0.321266 0.469894
O O3 0.783654 0.352804 0.956585
O O4 0.840747 0.268143 0.032732
O O5 0.172028 0.500000 0.294280
O O6 0.179650 0.565843 0.405868
O O7 0.375134 0.562236 0.536178
O O8 0.000000 0.568669 0.000000
O O9 0.500000 0.401807 0.500000
O O10 0.689410 0.419243 0.919836
O O11 0.849421 0.431017 0.001808
O O12 0.292091 0.706994 0.847990
O O13 0.000000 0.747812 0.500000
O O14 0.632347 0.628920 0.103689
O O15 0.500000 0.692819 0.000000
O O16 0.350929 0.932069 0.465692
O O17 0.135625 0.942647 0.019593
O O18 0.000000 0.937322 0.000000
O O19 0.550575 0.000000 0.308871
O O20 0.376877 0.500000 0.123358
#
# Coordination Sequence:
#
# PCOD9203362 Si02
#       8
#     8   8   8   8   8   8   8   8
#     4  10  20  39  62  86 117 157 201 240 296 367
#     4   9  18  34  55  78 108 153 207 248 292 354
#     4  12  25  40  58  84 122 160 203 258 308 358
#     4   9  19  37  64  91 118 155 197 236 293 374
#     4  10  21  37  61  92 124 153 189 249 310 358
#     4  11  21  38  62  89 123 157 203 254 307 361
#     4  11  22  37  59  84 117 165 207 249 304 359
#     4  11  23  37  57  84 115 157 206 257 304 348
#
# _framework density 18.968330000000002
#
# number of rings (size 3 to 8) (size 9 to 14) (size 15 to 20)
#    0.000    1.625    2.500    2.625    0.000    3.500 
#    0.000    1.250    0.000    2.250    0.000    0.000 
#    0.000    0.000    0.000    0.000    0.000    0.000 
#
# Total GULP energy -178527.299806 kJ/mol
# GULP energy per Si atom -5578.978119 kJ/mol
# Density = 1.892516 g / cm^3
# Si number density = 18.968330 Si / 1000 Ang^3
#
#
#
# Elastic Constant Matrix: (Units=GPa)
#
#
# Indices 1 2 3 4 5 6 
#
# 1 67.8972 26.6283 25.2206 0.0000 10.7617 0.0000
# 2 26.6283 48.7781 17.3871 0.0000 9.4314 0.0000
# 3 25.2206 17.3871 86.5849 -0.0003 2.5711 -0.0001
# 4 0.0000 0.0000 -0.0003 26.0619 -0.0001 -1.8026
# 5 10.7617 9.4314 2.5711 -0.0001 29.6899 0.0000
# 6 0.0000 0.0000 -0.0001 -1.8026 0.0000 12.3421
#
#
#
# Elastic Compliance Matrix: (Units=1/GPa)
#
#
# Indices 1 2 3 4 5 6 
#
# 1 0.020371 -0.008870 -0.004027 0.000000 -0.004218 0.000000
# 2 -0.008870 0.027335 -0.002750 0.000000 -0.005230 0.000000
# 3 -0.004027 -0.002750 0.013239 0.000000 0.001187 0.000000
# 4 0.000000 0.000000 0.000000 0.038762 0.000000 0.005661
# 5 -0.004218 -0.005230 0.001187 0.000000 0.036769 0.000000
# 6 0.000000 0.000000 0.000000 0.005661 0.000000 0.081851
#
#
# Mechanical properties :
#
#
# Convention : Reuss Voigt Hill
#
# Bulk Modulus (GPa) = 33.72597 37.97023 35.84810
# Shear Modulus (GPa) = 19.26750 22.55373 20.91061
#
# Velocity S-wave (km/s) = 3.19058 3.45196 3.32384
# Velocity P-wave (km/s) = 5.60284 5.99576 5.80263
#
# Compressibility (1/GPa) = 0.02965074
#
# Stress axis : x y z
#
# Youngs Moduli (GPa) = 49.08894 36.58375 75.53174
#
# Poissons Ratio (x) = 0.32449 0.30420
# Poissons Ratio (y) = 0.43540 0.20772
# Poissons Ratio (z) = 0.19770 0.10061
#
# Static dielectric constant tensor:
#      x y z
#    x 0.480200 0.000000 -1.789300 
#    y 0.000000 1.619130 0.000000 
#    z -1.789300 0.000000 -0.960110 
# 
# From -- ./inp_files/209831.got.cif
#   From: 2010.05.17/outbox.cif.g08.bks.cpg/sg12_105_cif.got.tgz:209831.got - 2010.06.03 13:09:07.
