data_PCOD9203969
_publ_section_title
;
Structure prediction by ZEFSAII (Michael W. Deem and Ramdas Pophale) SiO2 
 PCOD9203969
Probable space group: C 2/M
;
_chemical_formula_sum "Si O2"
_cell_formula_units_Z 48
_cell_length_a 18.093753
_cell_length_b 17.061963
_cell_length_c 14.736334
_cell_angle_alpha 90.000000
_cell_angle_beta 31.346336
_cell_angle_gamma 90.000000
_cell_volume 2366.604954
_symmetry_space_group_name_H-M "C 2/M"
_symmetry_group_IT_number 12
_symmetry_cell_setting 'monoclinic'
loop_
_space_group_symop_operation_xyz
x,y,z
-x,y,-z
-x,-y,-z
x,-y,z
1/2+x,1/2+y,z
1/2-x,1/2+y,-z
1/2-x,1/2-y,-z
1/2+x,1/2-y,z
loop_
_atom_site_type_symbol
_atom_site_label
_atom_site_fract_x
_atom_site_fract_y
_atom_site_fract_z
Si Si1 0.169589 0.332926 0.565885
Si Si2 0.690079 0.338011 0.948077
Si Si3 0.450252 0.590815 0.293024
Si Si4 0.149785 0.657815 0.035757
Si Si5 0.900770 0.906630 0.683775
Si Si6 0.653307 0.091603 0.386907
O O1 0.250000 0.250000 0.500000
O O2 0.284689 0.396464 0.476647
O O3 0.148286 0.354749 0.482157
O O4 0.019558 0.341195 0.774145
O O5 0.785875 0.368555 0.933203
O O6 0.746184 0.370053 0.794540
O O7 0.527087 0.364991 0.130859
O O8 0.694593 0.245496 0.959991
O O9 0.484844 0.500000 0.247835
O O10 0.526409 0.625458 0.301636
O O11 0.233401 0.608795 0.871194
O O12 0.000000 0.874148 0.500000
O O13 0.918980 0.000000 0.664161
O O14 0.500000 0.090013 0.500000
O O15 0.692242 0.000000 0.366943
#
# Coordination Sequence:
#
# PCOD9203969 Si02
#       6
#     8   8   8   8   8   8
#     4  12  24  42  60  92 134 169 211 266 332 398
#     4  10  20  40  62  91 124 167 218 265 318 394
#     4  10  21  38  61  87 126 167 204 266 336 391
#     4  10  21  38  64  89 125 172 214 262 329 391
#     4   9  20  39  63  91 118 161 223 273 317 382
#     4  11  24  41  67  98 129 168 221 275 323 389
#
# _framework density 20.282219000000001
#
# number of rings (size 3 to 8) (size 9 to 14) (size 15 to 20)
#    0.000    1.667    3.333    1.000    0.000    4.667 
#    0.000    4.167    0.000    3.000    0.000    0.000 
#    0.000    0.000    0.000    0.000    0.000    0.000 
#
# Total GULP energy -133709.748480 kJ/mol
# GULP energy per Si atom -5571.239520 kJ/mol
# Density = 2.023606 g / cm^3
# Si number density = 20.282219 Si / 1000 Ang^3
#
#
#
# Elastic Constant Matrix: (Units=GPa)
#
#
# Indices 1 2 3 4 5 6 
#
# 1 47.3614 26.5559 46.0412 0.0000 4.9505 0.0000
# 2 26.5559 42.9797 13.9932 -0.0005 18.2078 0.0001
# 3 46.0412 13.9932 178.6413 -0.0006 12.3168 0.0001
# 4 0.0000 -0.0005 -0.0006 31.9070 0.0001 -4.1157
# 5 4.9505 18.2078 12.3168 0.0001 34.9442 0.0000
# 6 0.0000 0.0001 0.0001 -4.1157 0.0000 22.8516
#
#
#
# Elastic Compliance Matrix: (Units=1/GPa)
#
#
# Indices 1 2 3 4 5 6 
#
# 1 0.048216 -0.032060 -0.010860 -0.000001 0.013702 0.000000
# 2 -0.032060 0.051472 0.005911 0.000001 -0.024361 0.000000
# 3 -0.010860 0.005911 0.008240 0.000000 -0.004446 0.000000
# 4 -0.000001 0.000001 0.000000 0.032087 -0.000001 0.005779
# 5 0.013702 -0.024361 -0.004446 -0.000001 0.040936 0.000000
# 6 0.000000 0.000000 0.000000 0.005779 0.000000 0.044801
#
#
# Mechanical properties :
#
#
# Convention : Reuss Voigt Hill
#
# Bulk Modulus (GPa) = 29.49106 49.12921 39.31014
# Shear Modulus (GPa) = 16.07338 30.10004 23.08671
#
# Velocity S-wave (km/s) = 2.81817 3.85653 3.37749
# Velocity P-wave (km/s) = 5.01611 6.64122 5.88503
#
# Compressibility (1/GPa) = 0.03390858
#
# Stress axis : x y z
#
# Youngs Moduli (GPa) = 20.74016 19.42822 121.35483
#
# Poissons Ratio (x) = 0.62287 1.31792
# Poissons Ratio (y) = 0.66493 -0.71728
# Poissons Ratio (z) = 0.22524 -0.11483
#
# Static dielectric constant tensor:
#      x y z
#    x 1.771920 0.000000 0.025220 
#    y 0.000000 1.736690 0.000000 
#    z 0.025220 0.000000 1.809570 
# 
# From -- ./inp_files/75125.got.cif
#   From: 2010.05.17/outbox.cif.g08.bks.cpg/sg12_38_cif.got.tgz:75125.got - 2010.06.03 13:09:07.
