data_PCOD9203361
_publ_section_title
;
Structure prediction by ZEFSAII (Michael W. Deem and Ramdas Pophale) SiO2 
 PCOD9203361
Probable space group: C 2/M
;
_chemical_formula_sum "Si O2"
_cell_formula_units_Z 64
_cell_length_a 31.636846
_cell_length_b 8.083923
_cell_length_c 19.918820
_cell_angle_alpha 90.000000
_cell_angle_beta 38.540030
_cell_angle_gamma 90.000000
_cell_volume 3174.020324
_symmetry_space_group_name_H-M "C 2/M"
_symmetry_group_IT_number 12
_symmetry_cell_setting 'monoclinic'
loop_
_space_group_symop_operation_xyz
x,y,z
-x,y,-z
-x,-y,-z
x,-y,z
1/2+x,1/2+y,z
1/2-x,1/2+y,-z
1/2-x,1/2-y,-z
1/2+x,1/2-y,z
loop_
_atom_site_type_symbol
_atom_site_label
_atom_site_fract_x
_atom_site_fract_y
_atom_site_fract_z
Si Si1 0.314099 0.299902 0.964179
Si Si2 0.957360 0.193339 0.733900
Si Si3 0.047711 0.193523 0.754438
Si Si4 0.191891 0.802056 0.520473
Si Si5 0.314703 0.697454 0.117262
Si Si6 0.538686 0.807598 0.016303
Si Si7 0.045492 0.306477 0.503365
Si Si8 0.693320 0.799933 0.363859
O O1 0.318719 0.500000 0.961335
O O2 0.382326 0.241870 0.842213
O O3 0.250000 0.250000 0.000000
O O4 0.310622 0.238708 0.045589
O O5 0.997493 0.198604 0.753796
O O6 0.999976 0.289954 0.626030
O O7 0.953922 0.000000 0.717086
O O8 0.120072 0.258403 0.639496
O O9 0.054940 0.000000 0.765543
O O10 0.012826 0.289079 0.858021
O O11 0.250000 0.750000 0.500000
O O12 0.201835 0.744079 0.431604
O O13 0.188358 0.000000 0.522563
O O14 0.305457 0.500000 0.124684
O O15 0.389431 0.728747 0.053841
O O16 0.255392 0.760689 0.240230
O O17 0.552792 0.000000 0.985232
O O18 0.500000 0.734713 0.000000
O O19 0.056326 0.500000 0.473373
O O20 0.120406 0.237372 0.426593
O O21 0.000000 0.232085 0.500000
O O22 0.692263 0.000000 0.362160
#
# Coordination Sequence:
#
# PCOD9203361 Si02
#       8
#     8   8   8   8   8   8   8   8
#     4  10  22  39  61  88 118 154 197 245 293 348
#     4  10  20  39  62  86 116 152 199 248 293 348
#     4  10  21  41  65  86 114 157 202 242 295 358
#     4  11  24  41  63  90 121 157 198 246 297 353
#     4  10  22  42  63  84 120 164 201 240 289 359
#     4  11  25  41  60  91 123 152 194 251 303 347
#     4  10  22  38  60  90 121 156 198 244 294 348
#     4  10  22  40  61  88 121 160 202 242 293 351
#
# _framework density 20.163702000000001
#
# number of rings (size 3 to 8) (size 9 to 14) (size 15 to 20)
#    0.000    1.750    2.500    0.750    3.500    4.250 
#    0.000    0.000    0.000    0.000    0.000    0.000 
#    0.000    0.000    0.000    0.000    0.000    0.000 
#
# Total GULP energy -178691.192898 kJ/mol
# GULP energy per Si atom -5584.099778 kJ/mol
# Density = 2.011781 g / cm^3
# Si number density = 20.163702 Si / 1000 Ang^3
#
#
#
# Elastic Constant Matrix: (Units=GPa)
#
#
# Indices 1 2 3 4 5 6 
#
# 1 123.8606 0.8210 50.6522 -0.0587 -5.5376 0.0723
# 2 0.8210 9.9416 -0.8557 0.0026 0.1026 -0.0030
# 3 50.6522 -0.8557 131.7599 -0.0566 -13.2662 0.0807
# 4 -0.0587 0.0026 -0.0566 43.5413 -0.0130 -13.0061
# 5 -5.5376 0.1026 -13.2662 -0.0130 35.7359 0.0024
# 6 0.0723 -0.0030 0.0807 -13.0061 0.0024 32.5422
#
#
#
# Elastic Compliance Matrix: (Units=1/GPa)
#
#
# Indices 1 2 3 4 5 6 
#
# 1 0.009592 -0.001110 -0.003682 0.000005 0.000123 -0.000010
# 2 -0.001110 0.100773 0.001075 -0.000004 -0.000062 0.000007
# 3 -0.003682 0.001075 0.009302 0.000004 0.002879 -0.000013
# 4 0.000005 -0.000004 0.000004 0.026080 0.000011 0.010423
# 5 0.000123 -0.000062 0.002879 0.000011 0.029071 -0.000005
# 6 -0.000010 0.000007 -0.000013 0.010423 -0.000005 0.034895
#
#
# Mechanical properties :
#
#
# Convention : Reuss Voigt Hill
#
# Bulk Modulus (GPa) = 8.91015 40.75524 24.83269
# Shear Modulus (GPa) = 19.64174 36.69351 28.16762
#
# Velocity S-wave (km/s) = 3.12447 4.27052 3.74163
# Velocity P-wave (km/s) = 4.17671 6.67626 5.56854
#
# Compressibility (1/GPa) = 0.11223151
#
# Stress axis : x y z
#
# Youngs Moduli (GPa) = 104.24963 9.92333 107.50249
#
# Poissons Ratio (x) = 0.01102 0.39587
# Poissons Ratio (y) = 0.11576 -0.11557
# Poissons Ratio (z) = 0.38389 -0.01067
#
# Static dielectric constant tensor:
#      x y z
#    x 1.698470 -0.000010 0.002480 
#    y -0.000010 1.743150 0.000010 
#    z 0.002480 0.000010 1.650860 
# 
# From -- ./inp_files/295536.got.cif
#   From: 2010.05.17/outbox.cif.g08.bks.cpg/sg12_148_cif.got.tgz:295536.got - 2010.06.03 13:09:07.
