data_PCOD9203978
_publ_section_title
;
Structure prediction by ZEFSAII (Michael W. Deem and Ramdas Pophale) SiO2 
 PCOD9203978
Probable space group: C 2/M
;
_chemical_formula_sum "Si O2"
_cell_formula_units_Z 44
_cell_length_a 22.419408
_cell_length_b 16.416001
_cell_length_c 5.732609
_cell_angle_alpha 90.000000
_cell_angle_beta 105.219954
_cell_angle_gamma 90.000000
_cell_volume 2035.810953
_symmetry_space_group_name_H-M "C 2/M"
_symmetry_group_IT_number 12
_symmetry_cell_setting 'monoclinic'
loop_
_space_group_symop_operation_xyz
x,y,z
-x,y,-z
-x,-y,-z
x,-y,z
1/2+x,1/2+y,z
1/2-x,1/2+y,-z
1/2-x,1/2-y,-z
1/2+x,1/2-y,z
loop_
_atom_site_type_symbol
_atom_site_label
_atom_site_fract_x
_atom_site_fract_y
_atom_site_fract_z
Si Si1 0.412279 0.324261 0.098205
Si Si2 0.161172 0.704550 0.257313
Si Si3 0.324815 0.500000 0.489392
Si Si4 0.058027 0.407084 0.236493
Si Si5 0.102664 0.000000 0.940103
Si Si6 0.500000 0.218150 0.500000
Si Si7 0.792690 0.821236 0.303203
O O1 0.433354 0.415626 0.077429
O O2 0.463925 0.274304 0.284070
O O3 0.347615 0.329484 0.174192
O O4 0.390389 0.272012 0.857562
O O5 0.123835 0.620401 0.204403
O O6 0.188248 0.742298 0.523001
O O7 0.221800 0.694507 0.158660
O O8 0.367260 0.500000 0.293214
O O9 0.292117 0.410403 0.433841
O O10 0.354106 0.500000 0.781387
O O11 0.058430 0.500000 0.316017
O O12 0.047832 0.343188 0.431106
O O13 0.000000 0.397790 0.000000
#
# Coordination Sequence:
#
# PCOD9203978 Si02
#       7
#     8   8   4   8   4   4   8
#     4  11  22  40  63  92 130 170 221 271 343 396
#     4  11  21  39  65  90 123 168 218 271 337 401
#     4  10  20  40  62  95 135 174 214 273 342 390
#     4  11  24  42  64  91 125 169 218 278 330 397
#     4  10  22  39  66  94 134 172 217 279 328 404
#     4  12  23  41  66  88 130 174 222 271 341 400
#     4  10  22  37  63  92 127 167 217 269 336 404
#
# _framework density 21.613007
#
# number of rings (size 3 to 8) (size 9 to 14) (size 15 to 20)
#    0.000    1.273    5.455    0.818    1.273    0.364 
#    0.000    0.000    0.000    3.273    0.000    0.000 
#    0.000    0.000    0.000    0.000    0.000    0.000 
#
# Total GULP energy -122565.251951 kJ/mol
# GULP energy per Si atom -5571.147816 kJ/mol
# Density = 2.156382 g / cm^3
# Si number density = 21.613007 Si / 1000 Ang^3
#
#
#
# Elastic Constant Matrix: (Units=GPa)
#
#
# Indices 1 2 3 4 5 6 
#
# 1 97.9142 27.6112 15.4223 0.0000 10.9449 0.0000
# 2 27.6112 160.2456 16.6931 0.0000 18.1130 0.0000
# 3 15.4223 16.6931 48.0793 0.0000 11.0029 0.0000
# 4 0.0000 0.0000 0.0000 88.7032 0.0000 -13.4716
# 5 10.9449 18.1130 11.0029 0.0000 29.4936 0.0000
# 6 0.0000 0.0000 0.0000 -13.4716 0.0000 35.5126
#
#
#
# Elastic Compliance Matrix: (Units=1/GPa)
#
#
# Indices 1 2 3 4 5 6 
#
# 1 0.011281 -0.001408 -0.002591 0.000000 -0.002355 0.000000
# 2 -0.001408 0.006984 -0.001215 0.000000 -0.003313 0.000000
# 3 -0.002591 -0.001215 0.023683 0.000000 -0.007128 0.000000
# 4 0.000000 0.000000 0.000000 0.011963 0.000000 0.004538
# 5 -0.002355 -0.003313 -0.007128 0.000000 0.039474 0.000000
# 6 0.000000 0.000000 0.000000 0.004538 0.000000 0.029880
#
#
# Mechanical properties :
#
#
# Convention : Reuss Voigt Hill
#
# Bulk Modulus (GPa) = 31.72472 47.29914 39.51193
# Shear Modulus (GPa) = 34.67412 47.17606 40.92509
#
# Velocity S-wave (km/s) = 4.00974 4.67707 4.35620
# Velocity P-wave (km/s) = 6.01230 7.14834 6.60479
#
# Compressibility (1/GPa) = 0.03152116
#
# Stress axis : x y z
#
# Youngs Moduli (GPa) = 88.64173 143.18280 42.22428
#
# Poissons Ratio (x) = 0.20156 0.10940
# Poissons Ratio (y) = 0.12478 0.05130
# Poissons Ratio (z) = 0.22967 0.17397
#
# Static dielectric constant tensor:
#      x y z
#    x 1.831560 0.000000 -0.075440 
#    y 0.000000 1.809730 0.000000 
#    z -0.075440 0.000000 1.835570 
# 
# From -- ./inp_files/20494.got.cif
#   From: 2010.05.17/outbox.cif.g08.bks.cpg/sg12_11_cif.got.tgz:20494.got - 2010.06.03 13:09:07.
