data_PCOD9203854
_publ_section_title
;
Structure prediction by ZEFSAII (Michael W. Deem and Ramdas Pophale) SiO2 
 PCOD9203854
Probable space group: C 2/M
;
_chemical_formula_sum "Si O2"
_cell_formula_units_Z 50
_cell_length_a 9.637958
_cell_length_b 13.546979
_cell_length_c 15.146198
_cell_angle_alpha 90.000000
_cell_angle_beta 103.066088
_cell_angle_gamma 90.000000
_cell_volume 1926.367287
_symmetry_space_group_name_H-M "C 2/M"
_symmetry_group_IT_number 12
_symmetry_cell_setting 'monoclinic'
loop_
_space_group_symop_operation_xyz
x,y,z
-x,y,-z
-x,-y,-z
x,-y,z
1/2+x,1/2+y,z
1/2-x,1/2+y,-z
1/2-x,1/2-y,-z
1/2+x,1/2-y,z
loop_
_atom_site_type_symbol
_atom_site_label
_atom_site_fract_x
_atom_site_fract_y
_atom_site_fract_z
Si Si1 0.500000 0.000000 0.500000
Si Si2 0.109965 0.000000 0.097934
Si Si3 0.385813 0.248596 0.638430
Si Si4 0.128256 0.885545 0.619443
Si Si5 0.170232 0.500000 0.014454
Si Si6 0.985412 0.784887 0.892330
Si Si7 0.267987 0.343269 0.168183
Si Si8 0.352602 0.110435 0.327531
O O1 0.407976 0.083871 0.433449
O O2 0.068917 0.103694 0.136522
O O3 0.264829 0.000000 0.073971
O O4 0.000000 0.000000 0.000000
O O5 0.259911 0.172106 0.592385
O O6 0.480434 0.325111 0.593723
O O7 0.514014 0.174883 0.688090
O O8 0.288367 0.323929 0.682833
O O9 0.168818 0.883846 0.731541
O O10 0.120708 0.000000 0.591522
O O11 0.237788 0.412703 0.080868
O O12 0.000000 0.500000 0.000000
O O13 0.880238 0.706445 0.837815
O O14 0.131281 0.764905 0.864028
O O15 0.000000 0.775147 0.000000
O O16 0.332011 0.000000 0.283228
#
# Coordination Sequence:
#
# PCOD9203854 Si02
#       8
#     2   4   8   8   4   8   8   8
#     4   8  20  36  60  98 134 160 196 254 276 336
#     4  10  20  40  56  74 103 139 179 213 289 389
#     4  10  21  39  65  86 120 172 200 240 298 352
#     4  11  23  40  62  87 117 154 211 250 295 347
#     4  12  24  38  56  78 105 143 179 228 305 369
#     4  11  22  37  59  77 109 141 181 228 309 377
#     4  12  23  39  56  82 109 140 184 251 287 350
#     4   9  19  38  61  92 129 162 203 241 291 337
#
# _framework density 25.955590000000001
#
# number of rings (size 3 to 8) (size 9 to 14) (size 15 to 20)
#    0.480    0.960    4.000    2.880    2.240    0.640 
#    0.000    0.000    1.760    1.920    0.000    0.000 
#    0.000    0.000    0.000    0.000    0.000    0.000 
#
# Total GULP energy -139324.256031 kJ/mol
# GULP energy per Si atom -5572.970241 kJ/mol
# Density = 2.589651 g / cm^3
# Si number density = 25.955590 Si / 1000 Ang^3
#
#
#
# Elastic Constant Matrix: (Units=GPa)
#
#
# Indices 1 2 3 4 5 6 
#
# 1 220.9208 52.3932 20.6751 0.0000 -9.7148 0.0000
# 2 52.3932 153.8256 11.5894 0.0000 5.9106 0.0000
# 3 20.6751 11.5894 103.7363 0.0000 7.7333 0.0000
# 4 0.0000 0.0000 0.0000 0.8346 0.0000 -0.2962
# 5 -9.7148 5.9106 7.7333 0.0000 18.6886 0.0000
# 6 0.0000 0.0000 0.0000 -0.2962 0.0000 26.1565
#
#
#
# Elastic Compliance Matrix: (Units=1/GPa)
#
#
# Indices 1 2 3 4 5 6 
#
# 1 0.005234 -0.001843 -0.001118 0.000000 0.003766 0.000000
# 2 -0.001843 0.007266 -0.000208 0.000000 -0.003170 0.000000
# 3 -0.001118 -0.000208 0.010240 0.000000 -0.004753 0.000000
# 4 0.000000 0.000000 0.000000 1.203037 0.000000 0.013622
# 5 0.003766 -0.003170 -0.004753 0.000000 0.058436 0.000000
# 6 0.000000 0.000000 0.000000 0.013622 0.000000 0.038386
#
#
# Mechanical properties :
#
#
# Convention : Reuss Voigt Hill
#
# Bulk Modulus (GPa) = 60.96917 71.97756 66.47337
# Shear Modulus (GPa) = 3.74699 35.39095 19.56897
#
# Velocity S-wave (km/s) = 1.20281 3.69659 2.74878
# Velocity P-wave (km/s) = 5.04676 6.78314 5.97833
#
# Compressibility (1/GPa) = 0.01640173
#
# Stress axis : x y z
#
# Youngs Moduli (GPa) = 191.06315 137.62483 97.65441
#
# Poissons Ratio (x) = 0.25366 0.10918
# Poissons Ratio (y) = 0.35216 0.02032
# Poissons Ratio (z) = 0.21360 0.02864
#
# Static dielectric constant tensor:
#      x y z
#    x 2.274850 0.000000 -0.201780 
#    y 0.000000 2.339790 0.000000 
#    z -0.201780 0.000000 2.184490 
# 
# From -- ./inp_files/299899.got.cif
#   From: 2010.05.17/outbox.cif.g08.bks.cpg/sg12_150_cif.got.tgz:299899.got - 2010.06.03 13:09:07.
