data_PCOD9203698
_publ_section_title
;
Structure prediction by ZEFSAII (Michael W. Deem and Ramdas Pophale) SiO2 
 PCOD9203698
Probable space group: C 2/M
;
_chemical_formula_sum "Si O2"
_cell_formula_units_Z 56
_cell_length_a 15.012162
_cell_length_b 21.274175
_cell_length_c 11.944093
_cell_angle_alpha 90.000000
_cell_angle_beta 38.407168
_cell_angle_gamma 90.000000
_cell_volume 2369.805076
_symmetry_space_group_name_H-M "C 2/M"
_symmetry_group_IT_number 12
_symmetry_cell_setting 'monoclinic'
loop_
_space_group_symop_operation_xyz
x,y,z
-x,y,-z
-x,-y,-z
x,-y,z
1/2+x,1/2+y,z
1/2-x,1/2+y,-z
1/2-x,1/2-y,-z
1/2+x,1/2-y,z
loop_
_atom_site_type_symbol
_atom_site_label
_atom_site_fract_x
_atom_site_fract_y
_atom_site_fract_z
Si Si1 0.315559 0.927307 0.872577
Si Si2 0.850931 0.685022 0.204690
Si Si3 0.340826 0.266529 0.796824
Si Si4 0.463123 0.833984 0.319785
Si Si5 0.708584 0.073193 0.358554
Si Si6 0.063204 0.885337 0.547700
Si Si7 0.002805 0.928250 0.151138
O O1 0.418907 0.883715 0.842244
O O2 0.358323 0.926093 0.699346
O O3 0.316919 0.000000 0.908993
O O4 0.157153 0.898230 0.020986
O O5 0.771742 0.730263 0.194312
O O6 0.897864 0.706673 0.283025
O O7 0.723954 0.636271 0.358718
O O8 0.000000 0.664369 0.000000
O O9 0.451591 0.209777 0.680134
O O10 0.449383 0.327054 0.681445
O O11 0.250000 0.250000 0.000000
O O12 0.355313 0.877492 0.492973
O O13 0.877911 0.090577 0.189239
O O14 0.698938 0.000000 0.406110
O O15 0.067598 0.924152 0.656824
O O16 0.000000 0.918445 0.500000
O O17 0.040631 0.000000 0.085362
#
# Coordination Sequence:
#
# PCOD9203698 Si02
#       7
#     8   8   8   8   8   8   8
#     4  10  22  39  65 100 138 175 220 278 337 399
#     4  11  24  45  67  94 130 175 219 279 332 395
#     4  11  24  45  66  96 131 176 224 274 334 404
#     4  12  23  42  70  95 132 178 224 270 343 398
#     4  10  21  40  66  99 135 173 220 278 334 399
#     4  10  23  42  66  93 134 174 216 278 339 393
#     4  10  20  39  65  96 132 174 223 274 332 401
#
# _framework density 23.630635000000002
#
# number of rings (size 3 to 8) (size 9 to 14) (size 15 to 20)
#    0.000    1.429    2.857    2.143    2.000    7.143 
#    2.571    0.000    0.000    2.143    0.000    0.000 
#    0.000    0.000    0.000    0.000    0.000    0.000 
#
# Total GULP energy -156205.499618 kJ/mol
# GULP energy per Si atom -5578.767844 kJ/mol
# Density = 2.357685 g / cm^3
# Si number density = 23.630635 Si / 1000 Ang^3
#
#
#
# Elastic Constant Matrix: (Units=GPa)
#
#
# Indices 1 2 3 4 5 6 
#
# 1 125.0043 38.0137 30.6316 0.0012 -4.9440 -0.0012
# 2 38.0137 67.0599 18.1851 0.0021 2.2222 -0.0013
# 3 30.6316 18.1851 120.0924 0.0057 -13.2131 -0.0035
# 4 0.0012 0.0021 0.0057 13.4485 -0.0022 17.3197
# 5 -4.9440 2.2222 -13.2131 -0.0022 42.8835 0.0013
# 6 -0.0012 -0.0013 -0.0035 17.3197 0.0013 17.6598
#
#
#
# Elastic Compliance Matrix: (Units=1/GPa)
#
#
# Indices 1 2 3 4 5 6 
#
# 1 0.010048 -0.005275 -0.001663 -0.000003 0.000919 0.000003
# 2 -0.005275 0.018425 -0.001673 0.000012 -0.002078 -0.000011
# 3 -0.001663 -0.001673 0.009308 0.000019 0.002763 -0.000017
# 4 -0.000003 0.000012 0.000019 -0.282678 -0.000018 0.277234
# 5 0.000919 -0.002078 0.002763 -0.000018 0.024384 0.000016
# 6 0.000003 -0.000011 -0.000017 0.277234 0.000016 -0.215268
#
#
# Mechanical properties :
#
#
# Convention : Reuss Voigt Hill
#
# Bulk Modulus (GPa) = 48.64146 53.97973 51.31059
# Shear Modulus (GPa) = -12.14459 29.82010 8.83776
#
# Velocity S-wave (km/s) = -2.26947 3.55621 1.93599
# Velocity P-wave (km/s) = 3.70964 6.30515 5.17283
#
# Compressibility (1/GPa) = 0.02055859
#
# Stress axis : x y z
#
# Youngs Moduli (GPa) = 99.52470 54.27420 107.42949
#
# Poissons Ratio (x) = 0.28631 0.17864
# Poissons Ratio (y) = 0.52501 0.17975
# Poissons Ratio (z) = 0.16550 0.09081
#
# Static dielectric constant tensor:
#      x y z
#    x 1.927250 0.000000 -0.032410 
#    y 0.000000 1.870910 0.000000 
#    z -0.032410 0.000000 2.012440 
# 
# From -- ./inp_files/149452.got.cif
#   From: 2010.05.17/outbox.cif.g08.bks.cpg/sg12_75_cif.got.tgz:149452.got - 2010.06.03 13:09:07.
