data_PCOD9203512
_publ_section_title
;
Structure prediction by ZEFSAII (Michael W. Deem and Ramdas Pophale) SiO2 
 PCOD9203512
Probable space group: C 2/M
;
_chemical_formula_sum "Si O2"
_cell_formula_units_Z 58
_cell_length_a 16.349476
_cell_length_b 18.253438
_cell_length_c 16.293494
_cell_angle_alpha 90.000000
_cell_angle_beta 144.830807
_cell_angle_gamma 90.000000
_cell_volume 2800.785464
_symmetry_space_group_name_H-M "C 2/M"
_symmetry_group_IT_number 12
_symmetry_cell_setting 'monoclinic'
loop_
_space_group_symop_operation_xyz
x,y,z
-x,y,-z
-x,-y,-z
x,-y,z
1/2+x,1/2+y,z
1/2-x,1/2+y,-z
1/2-x,1/2-y,-z
1/2+x,1/2-y,z
loop_
_atom_site_type_symbol
_atom_site_label
_atom_site_fract_x
_atom_site_fract_y
_atom_site_fract_z
Si Si1 0.566750 0.920340 0.223478
Si Si2 0.792886 0.582538 0.493417
Si Si3 0.923460 0.276149 0.523359
Si Si4 0.534032 0.387491 0.163814
Si Si5 0.805174 0.771101 0.174810
Si Si6 0.000000 0.000000 0.000000
Si Si7 0.140107 0.730017 0.209641
Si Si8 0.229624 0.372068 0.965591
O O1 0.688444 0.914750 0.393132
O O2 0.572737 0.848577 0.172156
O O3 0.414813 0.916682 0.144897
O O4 0.579984 0.000000 0.193226
O O5 0.836656 0.500000 0.505008
O O6 0.891784 0.647203 0.540808
O O7 0.639738 0.596913 0.326264
O O8 0.774151 0.239054 0.380685
O O9 0.000000 0.291692 0.500000
O O10 0.031472 0.225943 0.662204
O O11 0.543918 0.300841 0.150821
O O12 0.575110 0.435646 0.119121
O O13 0.372588 0.410150 0.051339
O O14 0.703639 0.766829 0.170475
O O15 0.795372 0.696432 0.115191
O O16 0.766057 0.837526 0.083898
#
# Coordination Sequence:
#
# PCOD9203512 Si02
#       8
#     8   8   8   8   8   2   8   8
#     4  11  25  43  66  94 134 178 221 274 331 392
#     4  10  21  40  59  91 130 176 220 264 327 395
#     4   9  19  35  62  95 125 164 219 276 327 392
#     4  11  24  39  67  95 134 174 218 273 329 405
#     4  10  20  39  63  95 129 164 221 278 332 393
#     4  12  24  44  64 102 138 168 212 264 354 388
#     4  10  22  41  66  98 128 175 228 273 326 396
#     4  11  23  38  64  95 129 170 212 279 338 387
#
# _framework density 20.708476000000001
#
# number of rings (size 3 to 8) (size 9 to 14) (size 15 to 20)
#    0.000    1.655    2.069    2.483    2.897    3.034 
#    0.000    1.379    0.000    3.724    0.000    0.000 
#    0.000    0.000    0.000    0.000    0.000    0.000 
#
# Total GULP energy -161712.439684 kJ/mol
# GULP energy per Si atom -5576.291024 kJ/mol
# Density = 2.066134 g / cm^3
# Si number density = 20.708476 Si / 1000 Ang^3
#
#
#
# Elastic Constant Matrix: (Units=GPa)
#
#
# Indices 1 2 3 4 5 6 
#
# 1 38.4629 32.4242 19.2348 -0.0004 3.1151 -0.0001
# 2 32.4242 137.6704 3.2891 -0.0004 -5.2372 -0.0001
# 3 19.2348 3.2891 80.4080 -0.0010 -8.9575 -0.0004
# 4 -0.0004 -0.0004 -0.0010 -3.9985 -0.0008 -9.8979
# 5 3.1151 -5.2372 -8.9575 -0.0008 28.1335 -0.0003
# 6 -0.0001 -0.0001 -0.0004 -9.8979 -0.0003 4.8391
#
#
#
# Elastic Compliance Matrix: (Units=1/GPa)
#
#
# Indices 1 2 3 4 5 6 
#
# 1 0.039880 -0.009508 -0.010202 0.000000 -0.009434 0.000000
# 2 -0.009508 0.009584 0.002279 0.000000 0.003563 0.000000
# 3 -0.010202 0.002279 0.015507 -0.000001 0.006491 -0.000001
# 4 0.000000 0.000000 -0.000001 -0.041248 -0.000003 -0.084368
# 5 -0.009434 0.003563 0.006491 -0.000003 0.039319 -0.000002
# 6 0.000000 0.000000 -0.000001 -0.084368 -0.000002 0.034082
#
#
# Mechanical properties :
#
#
# Convention : Reuss Voigt Hill
#
# Bulk Modulus (GPa) = 33.21138 40.71527 36.96332
# Shear Modulus (GPa) = 35.20585 19.23439 27.22012
#
# Velocity S-wave (km/s) = 4.12766 3.05096 3.62946
# Velocity P-wave (km/s) = 6.22810 5.66701 5.95416
#
# Compressibility (1/GPa) = 0.03011016
#
# Stress axis : x y z
#
# Youngs Moduli (GPa) = 25.07525 104.34000 64.48736
#
# Poissons Ratio (x) = 0.99203 0.65789
# Poissons Ratio (y) = 0.23841 -0.14698
# Poissons Ratio (z) = 0.25582 -0.23781
#
# Static dielectric constant tensor:
#      x y z
#    x 1.752450 0.000000 0.004520 
#    y 0.000000 1.718860 0.000000 
#    z 0.004520 0.000000 1.771500 
# 
# From -- ./inp_files/278853.got.cif
#   From: 2010.05.17/outbox.cif.g08.bks.cpg/sg12_140_cif.got.tgz:278853.got - 2010.06.03 13:09:07.
