data_PCOD9203895
_publ_section_title
;
Structure prediction by ZEFSAII (Michael W. Deem and Ramdas Pophale) SiO2 
 PCOD9203895
Probable space group: C 2/M
;
_chemical_formula_sum "Si O2"
_cell_formula_units_Z 60
_cell_length_a 17.826420
_cell_length_b 27.750454
_cell_length_c 17.342065
_cell_angle_alpha 90.000000
_cell_angle_beta 158.615651
_cell_angle_gamma 90.000000
_cell_volume 3128.084183
_symmetry_space_group_name_H-M "C 2/M"
_symmetry_group_IT_number 12
_symmetry_cell_setting 'monoclinic'
loop_
_space_group_symop_operation_xyz
x,y,z
-x,y,-z
-x,-y,-z
x,-y,z
1/2+x,1/2+y,z
1/2-x,1/2+y,-z
1/2-x,1/2-y,-z
1/2+x,1/2-y,z
loop_
_atom_site_type_symbol
_atom_site_label
_atom_site_fract_x
_atom_site_fract_y
_atom_site_fract_z
Si Si1 0.006587 0.355659 0.098215
Si Si2 0.738166 0.598370 0.953548
Si Si3 0.935357 0.944495 0.778762
Si Si4 0.737811 0.735489 0.898434
Si Si5 0.376568 0.670140 0.554860
Si Si6 0.000000 0.111485 0.000000
Si Si7 0.096047 0.367029 0.408333
Si Si8 0.847295 0.685453 0.296561
O O1 0.236639 0.350390 0.352134
O O2 0.887336 0.401965 0.021084
O O3 0.000000 0.356171 0.000000
O O4 0.888469 0.308046 0.018005
O O5 0.897789 0.620239 0.167609
O O6 0.614875 0.558812 0.885307
O O7 0.554270 0.633076 0.750333
O O8 0.004950 0.920222 0.926441
O O9 0.742383 0.912752 0.564025
O O10 0.879662 0.000000 0.737781
O O11 0.503480 0.717968 0.659225
O O12 0.777232 0.780270 0.880285
O O13 0.750000 0.750000 0.000000
O O14 0.227054 0.671880 0.485403
O O15 0.193564 0.147359 0.187048
O O16 0.006378 0.345276 0.398931
O O17 0.000000 0.713555 0.500000
#
# Coordination Sequence:
#
# PCOD9203895 Si02
#       8
#     8   8   8   8   8   4   8   8
#     4  10  22  38  60  90 124 159 205 255 300 356
#     4   9  19  39  63  88 120 158 195 246 306 366
#     4  11  23  40  66  92 118 156 204 253 309 374
#     4  11  25  37  56  87 117 167 217 252 298 352
#     4   9  20  38  62  83 119 156 207 250 299 354
#     4  12  25  42  58  86 128 162 204 254 309 362
#     4  10  20  40  60  85 116 159 201 247 307 364
#     4  12  25  38  57  82 124 169 206 256 306 354
#
# _framework density 19.181069000000001
#
# number of rings (size 3 to 8) (size 9 to 14) (size 15 to 20)
#    0.000    1.600    2.667    2.600    4.667    4.267 
#    0.000    0.667    0.000    0.400    0.000    8.400 
#    0.000    0.000    0.000    0.000    0.000    0.000 
#
# Total GULP energy -167130.965014 kJ/mol
# GULP energy per Si atom -5571.032167 kJ/mol
# Density = 1.913741 g / cm^3
# Si number density = 19.181069 Si / 1000 Ang^3
#
#
#
# Elastic Constant Matrix: (Units=GPa)
#
#
# Indices 1 2 3 4 5 6 
#
# 1 96.3418 19.7987 34.7415 0.0000 -18.7229 -0.0001
# 2 19.7987 61.1695 10.5418 0.0000 -6.3161 -0.0001
# 3 34.7415 10.5418 112.0285 -0.0005 -13.3775 0.0002
# 4 0.0000 0.0000 -0.0005 11.6360 -0.0001 8.0531
# 5 -18.7229 -6.3161 -13.3775 -0.0001 24.3956 -0.0001
# 6 -0.0001 -0.0001 0.0002 8.0531 -0.0001 13.3024
#
#
#
# Elastic Compliance Matrix: (Units=1/GPa)
#
#
# Indices 1 2 3 4 5 6 
#
# 1 0.013651 -0.003073 -0.002983 0.000000 0.008045 0.000000
# 2 -0.003073 0.017625 -0.000473 0.000000 0.001945 0.000000
# 3 -0.002983 -0.000473 0.010281 0.000001 0.003226 -0.000001
# 4 0.000000 0.000000 0.000001 0.147910 0.000000 -0.089542
# 5 0.008045 0.001945 0.003226 0.000000 0.049437 0.000000
# 6 0.000000 0.000000 -0.000001 -0.089542 0.000000 0.129381
#
#
# Mechanical properties :
#
#
# Convention : Reuss Voigt Hill
#
# Bulk Modulus (GPa) = 35.09146 44.41154 39.75150
# Shear Modulus (GPa) = 12.79280 23.49734 18.14507
#
# Velocity S-wave (km/s) = 2.58534 3.50384 3.07903
# Velocity P-wave (km/s) = 5.21982 6.29073 5.78013
#
# Compressibility (1/GPa) = 0.02849696
#
# Stress axis : x y z
#
# Youngs Moduli (GPa) = 73.25718 56.73706 97.26511
#
# Poissons Ratio (x) = 0.17438 0.29018
# Poissons Ratio (y) = 0.22515 0.04602
# Poissons Ratio (z) = 0.21855 0.02684
#
# Static dielectric constant tensor:
#      x y z
#    x 1.716180 0.000000 -0.000120 
#    y 0.000000 1.666100 0.000000 
#    z -0.000120 0.000000 1.691630 
# 
# From -- ./inp_files/279641.got.cif
#   From: 2010.05.17/outbox.cif.g08.bks.cpg/sg12_140_cif.got.tgz:279641.got - 2010.06.03 13:09:07.
