data_PCOD9203818
_publ_section_title
;
Structure prediction by ZEFSAII (Michael W. Deem and Ramdas Pophale) SiO2 
 PCOD9203818
Probable space group: C 2/M
;
_chemical_formula_sum "Si O2"
_cell_formula_units_Z 40
_cell_length_a 14.682370
_cell_length_b 17.699638
_cell_length_c 9.788336
_cell_angle_alpha 90.000000
_cell_angle_beta 47.945046
_cell_angle_gamma 90.000000
_cell_volume 1888.719461
_symmetry_space_group_name_H-M "C 2/M"
_symmetry_group_IT_number 12
_symmetry_cell_setting 'monoclinic'
loop_
_space_group_symop_operation_xyz
x,y,z
-x,y,-z
-x,-y,-z
x,-y,z
1/2+x,1/2+y,z
1/2-x,1/2+y,-z
1/2-x,1/2-y,-z
1/2+x,1/2-y,z
loop_
_atom_site_type_symbol
_atom_site_label
_atom_site_fract_x
_atom_site_fract_y
_atom_site_fract_z
Si Si1 0.880472 0.587994 0.554103
Si Si2 0.240550 0.152500 0.926764
Si Si3 0.981462 0.089327 0.675218
Si Si4 0.242062 0.409976 0.591300
Si Si5 0.635010 0.191976 0.933054
O O1 0.906325 0.500000 0.500539
O O2 0.776652 0.594096 0.773470
O O3 0.840057 0.619879 0.450182
O O4 0.000000 0.624887 0.500000
O O5 0.206898 0.229206 0.880215
O O6 0.351464 0.160067 0.925466
O O7 0.121861 0.130616 0.134805
O O8 0.117622 0.098377 0.597484
O O9 0.000000 0.115034 0.500000
O O10 0.950043 0.000000 0.701921
O O11 0.223635 0.500000 0.634418
O O12 0.208412 0.364560 0.760235
O O13 0.500000 0.200341 0.000000
#
# Coordination Sequence:
#
# PCOD9203818 Si02
#       5
#     8   8   8   8   8
#     4  10  22  41  65  96 129 164 208 262 318 371
#     4  11  24  42  63  95 128 166 213 257 317 375
#     4  10  20  39  68  96 124 161 210 266 314 368
#     4  10  22  41  66  95 124 165 214 260 318 374
#     4  11  25  43  60  91 126 168 216 253 313 379
#
# _framework density 21.178369
#
# number of rings (size 3 to 8) (size 9 to 14) (size 15 to 20)
#    0.000    1.600    2.000    1.800    2.800    2.000 
#    7.200    3.000    0.000    0.000    0.000    0.000 
#    0.000    0.000    0.000    0.000    0.000    0.000 
#
# Total GULP energy -111590.458510 kJ/mol
# GULP energy per Si atom -5579.522925 kJ/mol
# Density = 2.113017 g / cm^3
# Si number density = 21.178369 Si / 1000 Ang^3
#
#
#
# Elastic Constant Matrix: (Units=GPa)
#
#
# Indices 1 2 3 4 5 6 
#
# 1 140.3797 45.2696 50.4176 -0.0001 13.0644 0.0000
# 2 45.2696 30.8028 26.3909 0.0000 3.9593 0.0000
# 3 50.4176 26.3909 88.7882 0.0000 3.1306 0.0000
# 4 -0.0001 0.0000 0.0000 -101.0955 0.0000 28.3408
# 5 13.0644 3.9593 3.1306 0.0000 26.2381 0.0000
# 6 0.0000 0.0000 0.0000 28.3408 0.0000 16.9530
#
#
#
# Elastic Compliance Matrix: (Units=1/GPa)
#
#
# Indices 1 2 3 4 5 6 
#
# 1 0.014339 -0.018378 -0.002537 0.000000 -0.004064 0.000000
# 2 -0.018378 0.067788 -0.009716 0.000000 0.000081 0.000000
# 3 -0.002537 -0.009716 0.015560 0.000000 0.000872 0.000000
# 4 0.000000 0.000000 0.000000 -0.006735 0.000000 0.011259
# 5 -0.004064 0.000081 0.000872 0.000000 0.040020 0.000000
# 6 0.000000 0.000000 0.000000 0.011259 0.000000 0.040164
#
#
# Mechanical properties :
#
#
# Convention : Reuss Voigt Hill
#
# Bulk Modulus (GPa) = 27.45262 56.01412 41.73337
# Shear Modulus (GPa) = 20.44654 -2.38803 9.02925
#
# Velocity S-wave (km/s) = 3.11053 -1.06303 2.06705
# Velocity P-wave (km/s) = 5.08835 4.99995 5.04434
#
# Compressibility (1/GPa) = 0.03642640
#
# Stress axis : x y z
#
# Youngs Moduli (GPa) = 69.73776 14.75179 64.26654
#
# Poissons Ratio (x) = 0.27112 0.16301
# Poissons Ratio (y) = 1.28167 0.62440
# Poissons Ratio (z) = 0.17689 0.14333
#
# Static dielectric constant tensor:
#      x y z
#    x 1.850940 0.000000 -0.016520 
#    y 0.000000 1.764950 0.000000 
#    z -0.016520 0.000000 1.715540 
# 
# From -- ./inp_files/63143.got.cif
#   From: 2010.05.17/outbox.cif.g08.bks.cpg/sg12_32_cif.got.tgz:63143.got - 2010.06.03 13:09:07.
