data_PCOD9203225
_publ_section_title
;
Structure prediction by ZEFSAII (Michael W. Deem and Ramdas Pophale) SiO2 
 PCOD9203225
Probable space group: C 2/M
;
_chemical_formula_sum "Si O2"
_cell_formula_units_Z 40
_cell_length_a 18.911327
_cell_length_b 12.566485
_cell_length_c 18.513674
_cell_angle_alpha 90.000000
_cell_angle_beta 154.389710
_cell_angle_gamma 90.000000
_cell_volume 1901.783742
_symmetry_space_group_name_H-M "C 2/M"
_symmetry_group_IT_number 12
_symmetry_cell_setting 'monoclinic'
loop_
_space_group_symop_operation_xyz
x,y,z
-x,y,-z
-x,-y,-z
x,-y,z
1/2+x,1/2+y,z
1/2-x,1/2+y,-z
1/2-x,1/2-y,-z
1/2+x,1/2-y,z
loop_
_atom_site_type_symbol
_atom_site_label
_atom_site_fract_x
_atom_site_fract_y
_atom_site_fract_z
Si Si1 0.369291 0.115200 0.101919
Si Si2 0.957818 0.319354 0.879326
Si Si3 0.902650 0.175984 0.483599
Si Si4 0.208820 0.123640 0.330650
Si Si5 0.991376 0.165048 0.262548
O O1 0.411519 0.138778 0.057130
O O2 0.456387 0.208862 0.225260
O O3 0.430214 0.000000 0.179937
O O4 0.173119 0.119159 0.924987
O O5 0.781778 0.366678 0.695131
O O6 0.928346 0.192252 0.839811
O O7 0.000000 0.342252 0.000000
O O8 0.867731 0.303313 0.462287
O O9 0.000000 0.156653 0.500000
O O10 0.983541 0.134741 0.631392
O O11 0.146079 0.136202 0.355494
O O12 0.222641 0.000000 0.325141
#
# Coordination Sequence:
#
# PCOD9203225 Si02
#       5
#     8   8   8   8   8
#     4  10  21  36  61  85 111 152 194 235 285 346
#     4   9  20  37  56  83 116 155 183 238 285 335
#     4  10  21  37  58  82 117 157 187 235 288 335
#     4   9  20  35  59  88 114 151 192 233 284 342
#     4  10  20  39  59  85 119 149 188 243 289 333
#
# _framework density 21.032886000000001
#
# number of rings (size 3 to 8) (size 9 to 14) (size 15 to 20)
#    1.200    1.200    0.000    2.400    0.000    2.000 
#    0.000    1.000    0.000    4.200    0.000    0.000 
#    0.000    0.000    0.000    0.000    0.000    0.000 
#
# Total GULP energy -111480.538947 kJ/mol
# GULP energy per Si atom -5574.026947 kJ/mol
# Density = 2.098501 g / cm^3
# Si number density = 21.032886 Si / 1000 Ang^3
#
#
#
# Elastic Constant Matrix: (Units=GPa)
#
#
# Indices 1 2 3 4 5 6 
#
# 1 82.1086 -34.9587 12.5726 -0.0001 -14.4881 0.0000
# 2 -34.9587 96.6979 -8.1647 -0.0004 0.7275 -0.0003
# 3 12.5726 -8.1647 51.9516 -0.0005 -14.2085 -0.0004
# 4 -0.0001 -0.0004 -0.0005 -11.5181 -0.0002 -8.7508
# 5 -14.4881 0.7275 -14.2085 -0.0002 31.9232 -0.0002
# 6 0.0000 -0.0003 -0.0004 -8.7508 -0.0002 -15.0350
#
#
#
# Elastic Compliance Matrix: (Units=1/GPa)
#
#
# Indices 1 2 3 4 5 6 
#
# 1 0.015902 0.005601 -0.001172 0.000000 0.006568 0.000000
# 2 0.005601 0.012462 0.001390 -0.000001 0.002876 0.000000
# 3 -0.001172 0.001390 0.022313 -0.000001 0.009368 0.000000
# 4 0.000000 -0.000001 -0.000001 -0.155644 -0.000001 0.090589
# 5 0.006568 0.002876 0.009368 -0.000001 0.038410 0.000000
# 6 0.000000 0.000000 0.000000 0.090589 0.000000 -0.119236
#
#
# Mechanical properties :
#
#
# Convention : Reuss Voigt Hill
#
# Bulk Modulus (GPa) = 16.04793 18.85071 17.44932
# Shear Modulus (GPa) = -28.30296 18.49461 -4.90417
#
# Velocity S-wave (km/s) = -3.67229 2.96855 -1.52864
# Velocity P-wave (km/s) = 3.21473 4.55320 2.28004
#
# Compressibility (1/GPa) = 0.06231335
#
# Stress axis : x y z
#
# Youngs Moduli (GPa) = 62.88593 80.24439 44.81757
#
# Poissons Ratio (x) = -0.44941 0.05252
# Poissons Ratio (y) = -0.35220 -0.06229
# Poissons Ratio (z) = 0.07370 -0.11153
#
# Static dielectric constant tensor:
#      x y z
#    x 1.715970 0.000000 0.012980 
#    y 0.000000 1.814590 0.000000 
#    z 0.012980 0.000000 1.737460 
# 
# From -- ./inp_files/277689.got.cif
#   From: 2010.05.17/outbox.cif.g08.bks.cpg/sg12_139_cif.got.tgz:277689.got - 2010.06.03 13:09:07.
