data_PCOD9203857
_publ_section_title
;
Structure prediction by ZEFSAII (Michael W. Deem and Ramdas Pophale) SiO2 
 PCOD9203857
Probable space group: C 2/M
;
_chemical_formula_sum "Si O2"
_cell_formula_units_Z 36
_cell_length_a 8.669959
_cell_length_b 28.106094
_cell_length_c 12.101233
_cell_angle_alpha 90.000000
_cell_angle_beta 37.580107
_cell_angle_gamma 90.000000
_cell_volume 1798.392423
_symmetry_space_group_name_H-M "C 2/M"
_symmetry_group_IT_number 12
_symmetry_cell_setting 'monoclinic'
loop_
_space_group_symop_operation_xyz
x,y,z
-x,y,-z
-x,-y,-z
x,-y,z
1/2+x,1/2+y,z
1/2-x,1/2+y,-z
1/2-x,1/2-y,-z
1/2+x,1/2-y,z
loop_
_atom_site_type_symbol
_atom_site_label
_atom_site_fract_x
_atom_site_fract_y
_atom_site_fract_z
Si Si1 0.469668 0.729165 0.242259
Si Si2 0.113616 0.429174 0.560344
Si Si3 0.921570 0.000000 0.736849
Si Si4 0.249490 0.173241 0.431769
Si Si5 0.560414 0.000000 0.156242
Si Si6 0.500000 0.256765 0.000000
O O1 0.405775 0.785499 0.280787
O O2 0.320374 0.700678 0.416592
O O3 0.412452 0.712118 0.152419
O O4 0.763817 0.725346 0.099812
O O5 0.388820 0.455245 0.391547
O O6 0.135360 0.376135 0.595441
O O7 0.957080 0.456833 0.745180
O O8 0.000000 0.431088 0.500000
O O9 0.694849 0.000000 0.775218
O O10 0.788214 0.000000 0.935336
O O11 0.000000 0.164475 0.500000
#
# Coordination Sequence:
#
# PCOD9203857 Si02
#       6
#     8   8   4   8   4   4
#     4  10  22  38  62  80 126 158 202 248 300 346
#     4  11  24  39  64  93 125 157 200 250 299 357
#     4  10  21  44  69  91 120 158 195 247 306 363
#     4  11  22  40  59  86 116 169 198 240 299 365
#     4  10  21  44  69  91 120 158 195 247 306 363
#     4  10  20  40  56  90 112 162 200 258 296 344
#
# _framework density 20.017880000000002
#
# number of rings (size 3 to 8) (size 9 to 14) (size 15 to 20)
#    0.000    1.556    2.222    4.000    3.111    1.778 
#    8.000    0.000    0.000    0.000    0.000    0.000 
#    0.000    0.000    0.000    0.000    0.000    0.000 
#
# Total GULP energy -100294.340936 kJ/mol
# GULP energy per Si atom -5571.907830 kJ/mol
# Density = 1.997232 g / cm^3
# Si number density = 20.017880 Si / 1000 Ang^3
#
#
#
# Elastic Constant Matrix: (Units=GPa)
#
#
# Indices 1 2 3 4 5 6 
#
# 1 90.7684 27.0483 18.6031 0.0000 31.4495 0.0000
# 2 27.0483 129.1898 31.9016 0.0000 10.2973 0.0000
# 3 18.6031 31.9016 111.3066 0.0000 31.1723 0.0000
# 4 0.0000 0.0000 0.0000 0.4220 0.0000 -1.3017
# 5 31.4495 10.2973 31.1723 0.0000 43.4586 0.0000
# 6 0.0000 0.0000 0.0000 -1.3017 0.0000 20.0102
#
#
#
# Elastic Compliance Matrix: (Units=1/GPa)
#
#
# Indices 1 2 3 4 5 6 
#
# 1 0.015560 -0.002683 0.001431 0.000000 -0.011651 0.000000
# 2 -0.002683 0.008796 -0.002544 0.000000 0.001682 0.000000
# 3 0.001431 -0.002544 0.012007 0.000000 -0.009046 0.000000
# 4 0.000000 0.000000 0.000000 2.964441 0.000000 0.192846
# 5 -0.011651 0.001682 -0.009046 0.000000 0.037532 0.000000
# 6 0.000000 0.000000 0.000000 0.192846 0.000000 0.062520
#
#
# Mechanical properties :
#
#
# Convention : Reuss Voigt Hill
#
# Bulk Modulus (GPa) = 34.75387 54.04118 44.39753
# Shear Modulus (GPa) = 1.60357 29.69228 15.64792
#
# Velocity S-wave (km/s) = 0.89600 3.85553 2.79892
# Velocity P-wave (km/s) = 4.29762 6.84654 5.71597
#
# Compressibility (1/GPa) = 0.02877377
#
# Stress axis : x y z
#
# Youngs Moduli (GPa) = 64.26719 113.68430 83.28214
#
# Poissons Ratio (x) = 0.30496 -0.11920
# Poissons Ratio (y) = 0.17240 0.21185
# Poissons Ratio (z) = -0.09198 0.28918
#
# Static dielectric constant tensor:
#      x y z
#    x 1.758960 0.000000 0.033880 
#    y 0.000000 1.700140 0.000000 
#    z 0.033880 0.000000 1.750160 
# 
# From -- ./inp_files/123392.got.cif
#   From: 2010.05.17/outbox.cif.g08.bks.cpg/sg12_62_cif.got.tgz:123392.got - 2010.06.03 13:09:07.
