data_PCOD9203109
_publ_section_title
;
Structure prediction by ZEFSAII (Michael W. Deem and Ramdas Pophale) SiO2 
 PCOD9203109
Probable space group: C 2/M
;
_chemical_formula_sum "Si O2"
_cell_formula_units_Z 34
_cell_length_a 24.393595
_cell_length_b 13.690280
_cell_length_c 15.058235
_cell_angle_alpha 90.000000
_cell_angle_beta 162.085545
_cell_angle_gamma 90.000000
_cell_volume 1546.834531
_symmetry_space_group_name_H-M "C 2/M"
_symmetry_group_IT_number 12
_symmetry_cell_setting 'monoclinic'
loop_
_space_group_symop_operation_xyz
x,y,z
-x,y,-z
-x,-y,-z
x,-y,z
1/2+x,1/2+y,z
1/2-x,1/2+y,-z
1/2-x,1/2-y,-z
1/2+x,1/2-y,z
loop_
_atom_site_type_symbol
_atom_site_label
_atom_site_fract_x
_atom_site_fract_y
_atom_site_fract_z
Si Si1 0.780643 0.608102 0.780638
Si Si2 0.911780 0.612375 0.184406
Si Si3 0.693396 0.680428 0.193392
Si Si4 0.366519 0.387622 0.093898
Si Si5 0.500000 0.500000 0.000000
O O1 0.841445 0.500000 0.841427
O O2 0.856889 0.708401 0.856887
O O3 0.568245 0.611796 0.439766
O O4 0.825225 0.611787 0.953710
O O5 0.960620 0.500000 0.279791
O O6 0.094409 0.671070 0.467148
O O7 0.771178 0.643172 0.042348
O O8 0.603585 0.588358 0.103573
O O9 0.651080 0.671075 0.023818
O O10 0.322289 0.500000 0.003133
#
# Coordination Sequence:
#
# PCOD9203109 Si02
#       5
#     8   8   8   8   2
#     4  10  23  40  64  99 142 166 199 260 340 409
#     4  10  20  38  67 104 138 169 208 264 335 406
#     4  12  23  43  69  90 131 176 227 274 313 378
#     4  10  20  38  67 104 138 169 208 264 335 406
#     4  12  28  48  68  94 120 176 240 294 304 348
#
# _framework density 21.980371999999999
#
# number of rings (size 3 to 8) (size 9 to 14) (size 15 to 20)
#    0.000    1.412    2.353    2.824    0.000   10.353 
#    0.000    5.294    0.000    0.000    0.000    0.000 
#    0.000    0.000    0.000    0.000    0.000    0.000 
#
# Total GULP energy -94672.143288 kJ/mol
# GULP energy per Si atom -5568.949605 kJ/mol
# Density = 2.193034 g / cm^3
# Si number density = 21.980372 Si / 1000 Ang^3
#
#
#
# Elastic Constant Matrix: (Units=GPa)
#
#
# Indices 1 2 3 4 5 6 
#
# 1 66.3010 44.3051 64.0705 0.0000 18.5282 0.0000
# 2 44.3051 268.1046 16.3948 0.0000 16.2756 0.0000
# 3 64.0705 16.3948 97.7858 0.0000 -36.9032 0.0000
# 4 0.0000 0.0000 0.0000 104.8519 0.0000 -49.4580
# 5 18.5282 16.2756 -36.9032 0.0000 17.5711 0.0000
# 6 0.0000 0.0000 0.0000 -49.4580 0.0000 20.0868
#
#
#
# Elastic Compliance Matrix: (Units=1/GPa)
#
#
# Indices 1 2 3 4 5 6 
#
# 1 -0.001121 -0.002029 0.010754 0.000000 0.025648 0.000000
# 2 -0.002029 0.004207 -0.000187 0.000000 -0.002151 0.000000
# 3 0.010754 -0.000187 -0.004834 0.000000 -0.021319 0.000000
# 4 0.000000 0.000000 0.000000 -0.059086 0.000000 -0.145482
# 5 0.025648 -0.002151 -0.021319 0.000000 -0.012916 0.000000
# 6 0.000000 0.000000 0.000000 -0.145482 0.000000 -0.308424
#
#
# Mechanical properties :
#
#
# Convention : Reuss Voigt Hill
#
# Bulk Modulus (GPa) = 65.24386 75.74802 70.49594
# Shear Modulus (GPa) = -12.68584 48.99669 18.15543
#
# Velocity S-wave (km/s) = -2.40499 4.72647 2.87711
# Velocity P-wave (km/s) = 4.69417 8.02013 6.57106
#
# Compressibility (1/GPa) = 0.01532711
#
# Stress axis : x y z
#
# Youngs Moduli (GPa) = -891.90592 237.68414 -206.86871
#
# Poissons Ratio (x) = 0.48235 2.22472
# Poissons Ratio (y) = -1.81000 -0.03876
# Poissons Ratio (z) = 9.59179 0.04454
#
# Static dielectric constant tensor:
#      x y z
#    x 1.726050 0.000000 -0.017240 
#    y 0.000000 1.901810 0.000000 
#    z -0.017240 0.000000 1.755600 
# 
# From -- ./inp_files/240808.got.cif
#   From: 2010.05.17/outbox.cif.g08.bks.cpg/sg12_121_cif.got.tgz:240808.got - 2010.06.03 13:09:07.
