data_PCOD9203161
_publ_section_title
;
Structure prediction by ZEFSAII (Michael W. Deem and Ramdas Pophale) SiO2 
 PCOD9203161
Probable space group: C 2/M
;
_chemical_formula_sum "Si O2"
_cell_formula_units_Z 42
_cell_length_a 10.453260
_cell_length_b 15.993731
_cell_length_c 16.360772
_cell_angle_alpha 90.000000
_cell_angle_beta 49.232850
_cell_angle_gamma 90.000000
_cell_volume 2071.634718
_symmetry_space_group_name_H-M "C 2/M"
_symmetry_group_IT_number 12
_symmetry_cell_setting 'monoclinic'
loop_
_space_group_symop_operation_xyz
x,y,z
-x,y,-z
-x,-y,-z
x,-y,z
1/2+x,1/2+y,z
1/2-x,1/2+y,-z
1/2-x,1/2-y,-z
1/2+x,1/2-y,z
loop_
_atom_site_type_symbol
_atom_site_label
_atom_site_fract_x
_atom_site_fract_y
_atom_site_fract_z
Si Si1 0.696452 0.649261 0.923687
Si Si2 0.971318 0.904506 0.278219
Si Si3 0.836785 0.365132 0.695241
Si Si4 0.936022 0.212027 0.434624
Si Si5 0.000000 0.500000 0.500000
Si Si6 0.188913 0.648616 0.941599
O O1 0.796513 0.610703 0.805338
O O2 0.700634 0.751242 0.919488
O O3 0.500000 0.624083 0.000000
O O4 0.771499 0.628915 0.980596
O O5 0.163547 0.893172 0.172277
O O6 0.846046 0.853088 0.271535
O O7 0.943167 0.873098 0.381226
O O8 0.916991 0.000000 0.292307
O O9 0.941090 0.426795 0.592113
O O10 0.936474 0.278581 0.657746
O O11 0.750000 0.250000 0.500000
O O12 0.000000 0.201865 0.500000
O O13 0.000000 0.621727 0.000000
#
# Coordination Sequence:
#
# PCOD9203161 Si02
#       6
#     8   8   8   8   2   8
#     4  10  20  38  70 105 129 183 242 284 341 447
#     4  12  25  44  70 102 145 186 232 301 361 417
#     4  12  23  43  71 101 143 181 241 290 362 415
#     4  12  25  44  73 102 136 191 243 292 356 434
#     4  12  24  44  66 108 136 180 236 318 336 406
#     4  10  22  39  67 101 144 179 228 286 361 424
#
# _framework density 20.273844
#
# number of rings (size 3 to 8) (size 9 to 14) (size 15 to 20)
#    0.000    0.762    7.619    0.000    0.000    2.286 
#    1.714    1.429    8.381    0.000    0.000    0.000 
#    0.000    0.000    0.000    0.000    0.000    0.000 
#
# Total GULP energy -117078.366586 kJ/mol
# GULP energy per Si atom -5575.160314 kJ/mol
# Density = 2.022770 g / cm^3
# Si number density = 20.273844 Si / 1000 Ang^3
#
#
#
# Elastic Constant Matrix: (Units=GPa)
#
#
# Indices 1 2 3 4 5 6 
#
# 1 154.5023 9.4904 56.2325 0.0000 -0.7014 0.0000
# 2 9.4904 17.4603 12.1167 0.0000 -11.6338 0.0000
# 3 56.2325 12.1167 156.8486 -0.0001 19.8138 0.0000
# 4 0.0000 0.0000 -0.0001 23.9896 0.0000 -2.0752
# 5 -0.7014 -11.6338 19.8138 0.0000 32.4609 0.0000
# 6 0.0000 0.0000 0.0000 -2.0752 0.0000 7.1878
#
#
#
# Elastic Compliance Matrix: (Units=1/GPa)
#
#
# Indices 1 2 3 4 5 6 
#
# 1 0.007574 -0.001211 -0.002804 0.000000 0.001441 0.000000
# 2 -0.001211 0.093308 -0.011914 0.000000 0.040687 0.000000
# 3 -0.002804 -0.011914 0.009587 0.000000 -0.010182 0.000000
# 4 0.000000 0.000000 0.000000 0.042752 0.000000 0.012343
# 5 0.001441 0.040687 -0.010182 0.000000 0.051635 0.000000
# 6 0.000000 0.000000 0.000000 0.012343 0.000000 0.142687
#
#
# Mechanical properties :
#
#
# Convention : Reuss Voigt Hill
#
# Bulk Modulus (GPa) = 12.72063 53.83226 33.27644
# Shear Modulus (GPa) = 12.32728 29.45911 20.89320
#
# Velocity S-wave (km/s) = 2.46852 3.81604 3.21370
# Velocity P-wave (km/s) = 3.79642 6.78428 5.49724
#
# Compressibility (1/GPa) = 0.07861249
#
# Stress axis : x y z
#
# Youngs Moduli (GPa) = 132.03431 10.71720 104.30312
#
# Poissons Ratio (x) = 0.01298 0.29245
# Poissons Ratio (y) = 0.15985 1.24265
# Poissons Ratio (z) = 0.37020 0.12768
#
# Static dielectric constant tensor:
#      x y z
#    x 1.704760 0.000000 -0.001240 
#    y 0.000000 1.729240 0.000000 
#    z -0.001240 0.000000 1.727050 
# 
# From -- ./inp_files/195870.got.cif
#   From: 2010.05.17/outbox.cif.g08.bks.cpg/sg12_98_cif.got.tgz:195870.got - 2010.06.03 13:09:07.
