data_PCOD9203159
_publ_section_title
;
Structure prediction by ZEFSAII (Michael W. Deem and Ramdas Pophale) SiO2 
 PCOD9203159
Probable space group: C 2/M
;
_chemical_formula_sum "Si O2"
_cell_formula_units_Z 40
_cell_length_a 13.566694
_cell_length_b 12.962614
_cell_length_c 12.150492
_cell_angle_alpha 90.000000
_cell_angle_beta 43.607238
_cell_angle_gamma 90.000000
_cell_volume 1473.762995
_symmetry_space_group_name_H-M "C 2/M"
_symmetry_group_IT_number 12
_symmetry_cell_setting 'monoclinic'
loop_
_space_group_symop_operation_xyz
x,y,z
-x,y,-z
-x,-y,-z
x,-y,z
1/2+x,1/2+y,z
1/2-x,1/2+y,-z
1/2-x,1/2-y,-z
1/2+x,1/2-y,z
loop_
_atom_site_type_symbol
_atom_site_label
_atom_site_fract_x
_atom_site_fract_y
_atom_site_fract_z
Si Si1 0.270433 0.311324 0.156327
Si Si2 0.415892 0.845633 0.174558
Si Si3 0.973584 0.383927 0.366161
Si Si4 0.113576 0.162702 0.506557
Si Si5 0.130785 0.887756 0.150638
O O1 0.210645 0.203668 0.151413
O O2 0.348260 0.370024 0.995325
O O3 0.370912 0.269543 0.171386
O O4 0.126349 0.372110 0.303169
O O5 0.262262 0.883042 0.345084
O O6 0.500000 0.886837 0.000000
O O7 0.919611 0.500000 0.422192
O O8 0.877739 0.285622 0.475197
O O9 0.009999 0.362434 0.207095
O O10 0.000000 0.148502 0.500000
O O11 0.033372 0.117243 0.676679
O O12 0.188517 0.000000 0.134710
#
# Coordination Sequence:
#
# PCOD9203159 Si02
#       5
#     8   8   8   8   8
#     4  10  22  44  66 104 151 183 225 300 365 414
#     4  12  24  43  71 101 138 186 236 291 356 421
#     4  11  25  44  73 105 140 189 242 289 353 433
#     4  11  23  45  68 101 145 189 231 298 359 419
#     4  10  20  38  69  98 133 188 237 278 349 427
#
# _framework density 27.141407999999998
#
# number of rings (size 3 to 8) (size 9 to 14) (size 15 to 20)
#    0.000    1.200    4.000    4.800    0.000    2.800 
#    0.000    0.000    0.000   28.200    0.000    0.000 
#    0.000    0.000    0.000    0.000    0.000    0.000 
#
# Total GULP energy -111907.140815 kJ/mol
# GULP energy per Si atom -5595.357041 kJ/mol
# Density = 2.707963 g / cm^3
# Si number density = 27.141408 Si / 1000 Ang^3
#
#
#
# Elastic Constant Matrix: (Units=GPa)
#
#
# Indices 1 2 3 4 5 6 
#
# 1 76.0803 24.3804 3.2261 0.0000 3.0302 0.0000
# 2 24.3804 168.4672 35.9968 0.0000 -8.6098 0.0000
# 3 3.2261 35.9968 195.0830 0.0000 -2.5496 0.0000
# 4 0.0000 0.0000 0.0000 -4.0098 0.0000 1.6710
# 5 3.0302 -8.6098 -2.5496 0.0000 47.4260 0.0000
# 6 0.0000 0.0000 0.0000 1.6710 0.0000 16.1536
#
#
#
# Elastic Compliance Matrix: (Units=1/GPa)
#
#
# Indices 1 2 3 4 5 6 
#
# 1 0.013861 -0.002101 0.000142 0.000000 -0.001259 0.000000
# 2 -0.002101 0.006552 -0.001158 0.000000 0.001261 0.000000
# 3 0.000142 -0.001158 0.005338 0.000000 0.000068 0.000000
# 4 0.000000 0.000000 0.000000 -0.239083 0.000000 0.024731
# 5 -0.001259 0.001261 0.000068 0.000000 0.021399 0.000000
# 6 0.000000 0.000000 0.000000 0.024731 0.000000 0.059348
#
#
# Mechanical properties :
#
#
# Convention : Reuss Voigt Hill
#
# Bulk Modulus (GPa) = 51.23395 62.98192 57.10793
# Shear Modulus (GPa) = -41.72007 36.98242 -2.36882
#
# Velocity S-wave (km/s) = -3.92489 3.69532 -0.93524
# Velocity P-wave (km/s) = 1.27358 6.43915 4.46322
#
# Compressibility (1/GPa) = 0.01951831
#
# Stress axis : x y z
#
# Youngs Moduli (GPa) = 72.14320 152.63172 187.32973
#
# Poissons Ratio (x) = 0.32063 -0.02659
# Poissons Ratio (y) = 0.15155 0.21687
# Poissons Ratio (z) = -0.01024 0.17670
#
# Static dielectric constant tensor:
#      x y z
#    x 2.216160 0.000000 -0.008830 
#    y 0.000000 2.047780 0.000000 
#    z -0.008830 0.000000 2.162090 
# 
# From -- ./inp_files/290609.got.cif
#   From: 2010.05.17/outbox.cif.g08.bks.cpg/sg12_146_cif.got.tgz:290609.got - 2010.06.03 13:09:07.
