data_PCOD9203061
_publ_section_title
;
Structure prediction by ZEFSAII (Michael W. Deem and Ramdas Pophale) SiO2 
 PCOD9203061
Probable space group: C 2/M
;
_chemical_formula_sum "Si O2"
_cell_formula_units_Z 48
_cell_length_a 17.607090
_cell_length_b 13.900165
_cell_length_c 15.544428
_cell_angle_alpha 90.000000
_cell_angle_beta 146.972711
_cell_angle_gamma 90.000000
_cell_volume 2073.525594
_symmetry_space_group_name_H-M "C 2/M"
_symmetry_group_IT_number 12
_symmetry_cell_setting 'monoclinic'
loop_
_space_group_symop_operation_xyz
x,y,z
-x,y,-z
-x,-y,-z
x,-y,z
1/2+x,1/2+y,z
1/2-x,1/2+y,-z
1/2-x,1/2-y,-z
1/2+x,1/2-y,z
loop_
_atom_site_type_symbol
_atom_site_label
_atom_site_fract_x
_atom_site_fract_y
_atom_site_fract_z
Si Si1 0.078802 0.684233 0.989299
Si Si2 0.278332 0.892216 0.388767
Si Si3 0.664380 0.328467 0.864290
Si Si4 0.839085 0.611835 0.648634
Si Si5 0.055133 0.103389 0.934920
Si Si6 0.922121 0.797281 0.506906
O O1 0.967181 0.673379 0.806442
O O2 0.110850 0.798433 0.030031
O O3 0.000000 0.649586 0.000000
O O4 0.220172 0.632821 0.093450
O O5 0.307340 0.874063 0.517993
O O6 0.112069 0.890422 0.219275
O O7 0.355691 0.804796 0.416331
O O8 0.327961 0.000000 0.414583
O O9 0.601114 0.394597 0.878678
O O10 0.538418 0.285228 0.690403
O O11 0.750000 0.250000 0.000000
O O12 0.873093 0.500000 0.694016
O O13 0.703231 0.640965 0.573362
O O14 0.101085 0.000000 0.015453
O O15 0.000000 0.842767 0.500000
#
# Coordination Sequence:
#
# PCOD9203061 Si02
#       6
#     8   8   8   8   8   8
#     4  11  23  41  62  92 131 165 200 254 324 376
#     4  10  20  38  66  92 117 158 208 256 307 364
#     4  10  22  38  60  90 124 166 208 248 306 369
#     4  11  23  41  66  90 117 166 219 257 302 368
#     4  10  20  38  66  92 119 160 208 255 302 369
#     4  12  23  39  64  92 129 163 204 266 315 371
#
# _framework density 23.148978
#
# number of rings (size 3 to 8) (size 9 to 14) (size 15 to 20)
#    0.000    1.333    3.333    3.500    0.000    2.000 
#    0.000    6.667    0.000    0.000    0.000    0.000 
#    0.000    0.000    0.000    0.000    0.000    0.000 
#
# Total GULP energy -134210.755567 kJ/mol
# GULP energy per Si atom -5592.114815 kJ/mol
# Density = 2.309629 g / cm^3
# Si number density = 23.148978 Si / 1000 Ang^3
#
#
#
# Elastic Constant Matrix: (Units=GPa)
#
#
# Indices 1 2 3 4 5 6 
#
# 1 108.9574 4.2403 21.5029 0.0000 20.7386 0.0000
# 2 4.2403 60.1026 7.5066 0.0000 -0.4143 0.0000
# 3 21.5029 7.5066 87.0115 0.0000 8.7523 0.0000
# 4 0.0000 0.0000 0.0000 10.2728 0.0000 -8.4514
# 5 20.7386 -0.4143 8.7523 0.0000 38.7383 0.0000
# 6 0.0000 0.0000 0.0000 -8.4514 0.0000 -8.7342
#
#
#
# Elastic Compliance Matrix: (Units=1/GPa)
#
#
# Indices 1 2 3 4 5 6 
#
# 1 0.010595 -0.000528 -0.002048 0.000000 -0.005215 0.000000
# 2 -0.000528 0.016856 -0.001402 0.000000 0.000780 0.000000
# 3 -0.002048 -0.001402 0.012290 0.000000 -0.001695 0.000000
# 4 0.000000 0.000000 0.000000 0.054199 0.000000 -0.052444
# 5 -0.005215 0.000780 -0.001695 0.000000 0.028997 0.000000
# 6 0.000000 0.000000 0.000000 -0.052444 0.000000 -0.063747
#
#
# Mechanical properties :
#
#
# Convention : Reuss Voigt Hill
#
# Bulk Modulus (GPa) = 31.46100 35.84124 33.65112
# Shear Modulus (GPa) = 64.31469 22.91017 43.61243
#
# Velocity S-wave (km/s) = 5.27667 3.14934 4.34520
# Velocity P-wave (km/s) = 7.12352 5.36105 6.30418
#
# Compressibility (1/GPa) = 0.03178539
#
# Stress axis : x y z
#
# Youngs Moduli (GPa) = 94.38162 59.32623 81.36425
#
# Poissons Ratio (x) = 0.03130 0.16666
# Poissons Ratio (y) = 0.04980 0.11409
# Poissons Ratio (z) = 0.19332 0.08319
#
# Static dielectric constant tensor:
#      x y z
#    x 1.925520 0.000000 -0.019240 
#    y 0.000000 1.876190 0.000000 
#    z -0.019240 0.000000 1.815490 
# 
# From -- ./inp_files/105044.got.cif
#   From: 2010.05.17/outbox.cif.g08.bks.cpg/sg12_53_cif.got.tgz:105044.got - 2010.06.03 13:09:07.
