data_PCOD9203117
_publ_section_title
;
Structure prediction by ZEFSAII (Michael W. Deem and Ramdas Pophale) SiO2 
 PCOD9203117
Probable space group: C 2/M
;
_chemical_formula_sum "Si O2"
_cell_formula_units_Z 56
_cell_length_a 13.235512
_cell_length_b 19.954969
_cell_length_c 15.365896
_cell_angle_alpha 90.000000
_cell_angle_beta 140.582794
_cell_angle_gamma 90.000000
_cell_volume 2576.901367
_symmetry_space_group_name_H-M "C 2/M"
_symmetry_group_IT_number 12
_symmetry_cell_setting 'monoclinic'
loop_
_space_group_symop_operation_xyz
x,y,z
-x,y,-z
-x,-y,-z
x,-y,z
1/2+x,1/2+y,z
1/2-x,1/2+y,-z
1/2-x,1/2-y,-z
1/2+x,1/2-y,z
loop_
_atom_site_type_symbol
_atom_site_label
_atom_site_fract_x
_atom_site_fract_y
_atom_site_fract_z
Si Si1 0.156431 0.286042 0.013983
Si Si2 0.187336 0.420955 0.339158
Si Si3 0.262092 0.425825 0.055530
Si Si4 0.708219 0.789586 0.239256
Si Si5 0.613301 0.577141 0.358105
Si Si6 0.177699 0.345033 0.639730
Si Si7 0.160402 0.576756 0.801440
O O1 0.974876 0.263706 0.885691
O O2 0.250000 0.250000 0.000000
O O3 0.145197 0.366387 0.999802
O O4 0.251538 0.280291 0.167108
O O5 0.191813 0.500000 0.314071
O O6 0.212042 0.363982 0.282220
O O7 0.324516 0.410461 0.503115
O O8 0.016697 0.410905 0.275510
O O9 0.197464 0.500000 0.029435
O O10 0.425704 0.417097 0.215891
O O11 0.280818 0.419902 0.963424
O O12 0.807599 0.734934 0.357181
O O13 0.657166 0.500000 0.367780
O O14 0.702951 0.623486 0.349733
O O15 0.206772 0.372724 0.756357
O O16 0.000000 0.367535 0.500000
O O17 0.160027 0.500000 0.768161
#
# Coordination Sequence:
#
# PCOD9203117 Si02
#       7
#     8   8   8   8   8   8   8
#     4  11  23  43  64  90 133 172 212 269 326 389
#     4  10  21  42  65  91 128 170 218 268 324 386
#     4  10  21  39  65  94 123 165 216 272 331 383
#     4  11  26  39  64  98 122 174 224 262 330 389
#     4  10  22  39  64  96 130 172 217 271 333 389
#     4  12  24  39  59  95 132 171 224 272 328 398
#     4  10  20  38  67  93 125 171 214 271 331 383
#
# _framework density 21.731527
#
# number of rings (size 3 to 8) (size 9 to 14) (size 15 to 20)
#    0.000    1.429    2.857    2.143    0.000    4.571 
#    0.000    3.571    0.000    3.000    0.000    0.000 
#    0.000    0.000    0.000    0.000    0.000    0.000 
#
# Total GULP energy -156292.690647 kJ/mol
# GULP energy per Si atom -5581.881809 kJ/mol
# Density = 2.168206 g / cm^3
# Si number density = 21.731527 Si / 1000 Ang^3
#
#
#
# Elastic Constant Matrix: (Units=GPa)
#
#
# Indices 1 2 3 4 5 6 
#
# 1 30.3949 28.4535 10.2225 0.0000 -18.1331 0.0000
# 2 28.4535 91.1992 22.0190 0.0000 -14.7032 0.0000
# 3 10.2225 22.0190 107.6991 -0.0001 -7.3083 0.0000
# 4 0.0000 0.0000 -0.0001 34.2016 0.0000 -5.0796
# 5 -18.1331 -14.7032 -7.3083 0.0000 23.2124 0.0000
# 6 0.0000 0.0000 0.0000 -5.0796 0.0000 31.1228
#
#
#
# Elastic Compliance Matrix: (Units=1/GPa)
#
#
# Indices 1 2 3 4 5 6 
#
# 1 0.078705 -0.016159 -0.000704 0.000000 0.051026 0.000000
# 2 -0.016159 0.015973 -0.001943 0.000000 -0.003117 0.000000
# 3 -0.000704 -0.001943 0.009839 0.000000 0.001316 0.000000
# 4 0.000000 0.000000 0.000000 0.029965 0.000000 0.004891
# 5 0.051026 -0.003117 0.001316 0.000000 0.081381 0.000000
# 6 0.000000 0.000000 0.000000 0.004891 0.000000 0.032929
#
#
# Mechanical properties :
#
#
# Convention : Reuss Voigt Hill
#
# Bulk Modulus (GPa) = 14.94691 38.96481 26.95586
# Shear Modulus (GPa) = 16.19663 28.94723 22.57193
#
# Velocity S-wave (km/s) = 2.73299 3.65367 3.22634
# Velocity P-wave (km/s) = 4.10511 5.98064 5.12933
#
# Compressibility (1/GPa) = 0.06690348
#
# Stress axis : x y z
#
# Youngs Moduli (GPa) = 12.70564 62.60495 101.63993
#
# Poissons Ratio (x) = 1.01164 0.07158
# Poissons Ratio (y) = 0.20531 0.19753
# Poissons Ratio (z) = 0.00895 0.12167
#
# Static dielectric constant tensor:
#      x y z
#    x 1.737030 0.000000 -0.037120 
#    y 0.000000 1.824020 0.000000 
#    z -0.037120 0.000000 1.813300 
# 
# From -- ./inp_files/217739.got.cif
#   From: 2010.05.17/outbox.cif.g08.bks.cpg/sg12_109_cif.got.tgz:217739.got - 2010.06.03 13:09:07.
