data_PCOD9203585
_publ_section_title
;
Structure prediction by ZEFSAII (Michael W. Deem and Ramdas Pophale) SiO2 
 PCOD9203585
Probable space group: C 2/M
;
_chemical_formula_sum "Si O2"
_cell_formula_units_Z 40
_cell_length_a 18.026573
_cell_length_b 17.532236
_cell_length_c 8.150856
_cell_angle_alpha 90.000000
_cell_angle_beta 130.786564
_cell_angle_gamma 90.000000
_cell_volume 1950.449144
_symmetry_space_group_name_H-M "C 2/M"
_symmetry_group_IT_number 12
_symmetry_cell_setting 'monoclinic'
loop_
_space_group_symop_operation_xyz
x,y,z
-x,y,-z
-x,-y,-z
x,-y,z
1/2+x,1/2+y,z
1/2-x,1/2+y,-z
1/2-x,1/2-y,-z
1/2+x,1/2-y,z
loop_
_atom_site_type_symbol
_atom_site_label
_atom_site_fract_x
_atom_site_fract_y
_atom_site_fract_z
Si Si1 0.079366 0.755907 0.496182
Si Si2 0.251064 0.587357 0.845326
Si Si3 0.794747 0.312729 0.905709
Si Si4 0.556624 0.333121 0.909419
Si Si5 0.188772 0.669956 0.422803
O O1 0.183897 0.777502 0.725675
O O2 0.088388 0.701608 0.351088
O O3 0.000000 0.719414 0.500000
O O4 0.026283 0.830009 0.348684
O O5 0.222455 0.500000 0.821138
O O6 0.225454 0.618230 0.625274
O O7 0.205530 0.637101 0.929619
O O8 0.367821 0.599622 0.016882
O O9 0.810754 0.360327 0.760361
O O10 0.873071 0.242961 0.004363
O O11 0.500000 0.337096 0.000000
O O12 0.250000 0.750000 0.500000
#
# Coordination Sequence:
#
# PCOD9203585 Si02
#       5
#     8   8   8   8   8
#     4  11  19  33  65  98 121 161 226 277 314 376
#     4  12  25  41  64  99 143 175 206 268 347 406
#     4  11  22  42  64  94 134 172 226 269 323 385
#     4  12  21  39  68  99 124 170 228 277 317 386
#     4  10  20  39  64  92 124 172 230 265 307 384
#
# _framework density 20.508095999999998
#
# number of rings (size 3 to 8) (size 9 to 14) (size 15 to 20)
#    0.000    0.800    8.000    3.000    0.000    1.200 
#    0.000    2.000    0.000    6.000    0.000    0.000 
#    0.000    0.000    0.000    0.000    0.000    0.000 
#
# Total GULP energy -111378.707702 kJ/mol
# GULP energy per Si atom -5568.935385 kJ/mol
# Density = 2.046142 g / cm^3
# Si number density = 20.508096 Si / 1000 Ang^3
#
#
#
# Elastic Constant Matrix: (Units=GPa)
#
#
# Indices 1 2 3 4 5 6 
#
# 1 150.7250 21.5964 25.7257 0.0000 -40.7943 0.0000
# 2 21.5964 73.8140 31.2059 0.0000 -23.9207 0.0000
# 3 25.7257 31.2059 70.2476 0.0000 -26.2021 0.0000
# 4 0.0000 0.0000 0.0000 15.4372 0.0000 -3.4338
# 5 -40.7943 -23.9207 -26.2021 0.0000 55.4600 0.0000
# 6 0.0000 0.0000 0.0000 -3.4338 0.0000 18.4632
#
#
#
# Elastic Compliance Matrix: (Units=1/GPa)
#
#
# Indices 1 2 3 4 5 6 
#
# 1 0.008337 -0.000262 -0.000839 0.000000 0.005623 0.000000
# 2 -0.000262 0.017660 -0.006045 0.000000 0.004568 0.000000
# 3 -0.000839 -0.006045 0.019454 0.000000 0.005966 0.000000
# 4 0.000000 0.000000 0.000000 0.067574 0.000000 0.012568
# 5 0.005623 0.004568 0.005966 0.000000 0.026956 0.000000
# 6 0.000000 0.000000 0.000000 0.012568 0.000000 0.056499
#
#
# Mechanical properties :
#
#
# Convention : Reuss Voigt Hill
#
# Bulk Modulus (GPa) = 32.09515 50.20475 41.14995
# Shear Modulus (GPa) = 22.60803 32.28930 27.44866
#
# Velocity S-wave (km/s) = 3.32384 3.97226 3.66243
# Velocity P-wave (km/s) = 5.51493 6.75071 6.16387
#
# Compressibility (1/GPa) = 0.03115735
#
# Stress axis : x y z
#
# Youngs Moduli (GPa) = 119.94273 56.62377 51.40448
#
# Poissons Ratio (x) = 0.01485 0.04315
# Poissons Ratio (y) = 0.03145 0.31076
# Poissons Ratio (z) = 0.10068 0.34231
#
# Static dielectric constant tensor:
#      x y z
#    x 1.860950 0.000000 -0.066220 
#    y 0.000000 1.729570 0.000000 
#    z -0.066220 0.000000 1.915340 
# 
# From -- ./inp_files/74712.got.cif
#   From: 2010.05.17/outbox.cif.g08.bks.cpg/sg12_38_cif.got.tgz:74712.got - 2010.06.03 13:09:07.
