data_PCOD9203610
_publ_section_title
;
Structure prediction by ZEFSAII (Michael W. Deem and Ramdas Pophale) SiO2 
 PCOD9203610
Probable space group: C 2/M
;
_chemical_formula_sum "Si O2"
_cell_formula_units_Z 58
_cell_length_a 12.232640
_cell_length_b 16.569736
_cell_length_c 27.059180
_cell_angle_alpha 90.000000
_cell_angle_beta 31.563145
_cell_angle_gamma 90.000000
_cell_volume 2870.883749
_symmetry_space_group_name_H-M "C 2/M"
_symmetry_group_IT_number 12
_symmetry_cell_setting 'monoclinic'
loop_
_space_group_symop_operation_xyz
x,y,z
-x,y,-z
-x,-y,-z
x,-y,z
1/2+x,1/2+y,z
1/2-x,1/2+y,-z
1/2-x,1/2-y,-z
1/2+x,1/2-y,z
loop_
_atom_site_type_symbol
_atom_site_label
_atom_site_fract_x
_atom_site_fract_y
_atom_site_fract_z
Si Si1 0.500000 0.000000 0.500000
Si Si2 0.791680 0.861101 0.435917
Si Si3 0.375669 0.174023 0.880805
Si Si4 0.710400 0.344556 0.217633
Si Si5 0.130471 0.653792 0.230023
Si Si6 0.071970 0.912248 0.065943
Si Si7 0.254708 0.148675 0.091567
Si Si8 0.290673 0.328384 0.551290
O O1 0.639587 0.928737 0.473662
O O2 0.725746 0.769698 0.445526
O O3 0.796604 0.860379 0.493266
O O4 0.022110 0.872930 0.324437
O O5 0.568804 0.146472 0.840129
O O6 0.388252 0.137595 0.821265
O O7 0.371986 0.270020 0.873199
O O8 0.166266 0.151537 0.991107
O O9 0.683182 0.248553 0.217890
O O10 0.697794 0.382638 0.167893
O O11 0.331885 0.605495 0.170704
O O12 0.915193 0.639803 0.341423
O O13 0.203553 0.908108 0.065604
O O14 0.093742 0.000000 0.034386
O O15 0.500000 0.168659 0.000000
O O16 0.500000 0.349291 0.500000
#
# Coordination Sequence:
#
# PCOD9203610 Si02
#       8
#     2   8   8   8   8   8   8   8
#     4  12  24  48  62 104 146 178 208 290 360 402
#     4  10  23  40  69  99 137 174 220 271 349 404
#     4  11  20  39  67  89 124 165 214 269 312 381
#     4  10  20  39  64  95 120 165 220 263 310 388
#     4  10  22  37  65  96 120 161 219 269 322 375
#     4  12  25  41  59  89 133 173 209 263 330 395
#     4  11  21  38  63  91 125 166 220 265 314 379
#     4  10  20  43  72  99 125 173 233 285 318 412
#
# _framework density 20.202839000000001
#
# number of rings (size 3 to 8) (size 9 to 14) (size 15 to 20)
#    0.000    1.379    3.448    3.310    0.000    2.483 
#    6.207    0.345    3.034    0.000    0.000    0.000 
#    0.000    0.000    0.000    0.000    0.000    0.000 
#
# Total GULP energy -161741.983111 kJ/mol
# GULP energy per Si atom -5577.309762 kJ/mol
# Density = 2.015686 g / cm^3
# Si number density = 20.202839 Si / 1000 Ang^3
#
#
#
# Elastic Constant Matrix: (Units=GPa)
#
#
# Indices 1 2 3 4 5 6 
#
# 1 127.7625 29.3490 78.3705 0.0005 -9.2010 0.0003
# 2 29.3490 47.1091 10.9542 -0.0031 -4.0892 -0.0003
# 3 78.3705 10.9542 136.3718 -0.0048 6.9746 -0.0013
# 4 0.0005 -0.0031 -0.0048 -4.4509 0.0001 -10.3902
# 5 -9.2010 -4.0892 6.9746 0.0001 29.2119 0.0007
# 6 0.0003 -0.0003 -0.0013 -10.3902 0.0007 9.0641
#
#
#
# Elastic Compliance Matrix: (Units=1/GPa)
#
#
# Indices 1 2 3 4 5 6 
#
# 1 0.014914 -0.006862 -0.008312 0.000006 0.005722 0.000004
# 2 -0.006862 0.025145 0.001877 -0.000006 0.000910 -0.000006
# 3 -0.008312 0.001877 0.012229 -0.000006 -0.005275 -0.000004
# 4 0.000006 -0.000006 -0.000006 -0.061120 0.000004 -0.070062
# 5 0.005722 0.000910 -0.005275 0.000004 0.037422 0.000001
# 6 0.000004 -0.000006 -0.000004 -0.070062 0.000001 0.030013
#
#
# Mechanical properties :
#
#
# Convention : Reuss Voigt Hill
#
# Bulk Modulus (GPa) = 38.92037 60.95452 49.93745
# Shear Modulus (GPa) = 53.32675 19.60302 36.46488
#
# Velocity S-wave (km/s) = 5.14325 3.11836 4.25307
# Velocity P-wave (km/s) = 7.38764 6.57285 6.99212
#
# Compressibility (1/GPa) = 0.02569348
#
# Stress axis : x y z
#
# Youngs Moduli (GPa) = 67.04967 39.76945 81.77340
#
# Poissons Ratio (x) = 0.27290 0.67974
# Poissons Ratio (y) = 0.46010 -0.15350
# Poissons Ratio (z) = 0.55735 -0.07465
#
# Static dielectric constant tensor:
#      x y z
#    x 1.698740 0.000000 0.017920 
#    y 0.000000 1.710450 0.000000 
#    z 0.017920 0.000000 1.708060 
# 
# From -- ./inp_files/358774.got.cif
#   From: 2010.05.17/outbox.cif.g08.bks.cpg/sg12_180_cif.got.tgz:358774.got - 2010.06.03 13:09:07.
