data_PCOD9203558
_publ_section_title
;
Structure prediction by ZEFSAII (Michael W. Deem and Ramdas Pophale) SiO2 
 PCOD9203558
Probable space group: C 2/M
;
_chemical_formula_sum "Si O2"
_cell_formula_units_Z 64
_cell_length_a 19.313574
_cell_length_b 9.058766
_cell_length_c 31.031389
_cell_angle_alpha 90.000000
_cell_angle_beta 38.536334
_cell_angle_gamma 90.000000
_cell_volume 3382.427376
_symmetry_space_group_name_H-M "C 2/M"
_symmetry_group_IT_number 12
_symmetry_cell_setting 'monoclinic'
loop_
_space_group_symop_operation_xyz
x,y,z
-x,y,-z
-x,-y,-z
x,-y,z
1/2+x,1/2+y,z
1/2-x,1/2+y,-z
1/2-x,1/2-y,-z
1/2+x,1/2-y,z
loop_
_atom_site_type_symbol
_atom_site_label
_atom_site_fract_x
_atom_site_fract_y
_atom_site_fract_z
Si Si1 0.470050 0.332173 0.211907
Si Si2 0.722249 0.822285 0.559373
Si Si3 0.225521 0.329985 0.297774
Si Si4 0.869792 0.824188 0.944055
Si Si5 0.716789 0.675620 0.213152
Si Si6 0.631781 0.823618 0.436830
Si Si7 0.967985 0.322035 0.064965
Si Si8 0.999001 0.674354 0.716641
O O1 0.481055 0.500000 0.223718
O O2 0.358106 0.328396 0.238604
O O3 0.570234 0.299895 0.131036
O O4 0.460903 0.220933 0.255598
O O5 0.750000 0.750000 0.500000
O O6 0.805244 0.761581 0.555847
O O7 0.596800 0.783395 0.635716
O O8 0.730140 0.000000 0.553009
O O9 0.189509 0.500000 0.307210
O O10 0.196471 0.229163 0.271806
O O11 0.177514 0.283297 0.367303
O O12 0.946984 0.754250 0.943528
O O13 0.861134 0.000000 0.954979
O O14 0.750000 0.750000 0.000000
O O15 0.711944 0.500000 0.212494
O O16 0.840550 0.721899 0.137659
O O17 0.617476 0.745847 0.234427
O O18 0.500000 0.798391 0.500000
O O19 0.651751 0.000000 0.432902
O O20 0.975764 0.500000 0.066551
O O21 0.000000 0.287521 0.000000
O O22 0.983202 0.500000 0.721201
#
# Coordination Sequence:
#
# PCOD9203558 Si02
#       8
#     8   8   8   8   8   8   8   8
#     4  10  21  40  65  89 119 159 202 251 305 361
#     4  11  25  43  63  89 124 164 205 253 305 362
#     4  10  20  39  64  89 122 159 200 252 303 361
#     4  11  24  41  63  92 124 161 206 253 305 364
#     4  11  24  40  63  92 124 162 204 253 307 363
#     4  10  22  40  64  92 122 159 201 247 303 363
#     4  10  23  43  63  87 123 164 205 252 304 361
#     4  11  25  42  63  91 124 161 205 254 304 362
#
# _framework density 18.921323000000001
#
# number of rings (size 3 to 8) (size 9 to 14) (size 15 to 20)
#    0.000    1.500    2.500    1.500    3.500    4.500 
#    0.000    0.000    0.000    0.000    0.000    0.000 
#    0.000    0.000    0.000    0.000    0.000    0.000 
#
# Total GULP energy -178792.119098 kJ/mol
# GULP energy per Si atom -5587.253722 kJ/mol
# Density = 1.887826 g / cm^3
# Si number density = 18.921323 Si / 1000 Ang^3
#
#
#
# Elastic Constant Matrix: (Units=GPa)
#
#
# Indices 1 2 3 4 5 6 
#
# 1 57.9262 27.8633 11.6296 0.0000 -2.2516 -0.0011
# 2 27.8633 44.6329 33.6360 0.0001 2.6949 -0.0021
# 3 11.6296 33.6360 79.4279 0.0000 -2.5241 -0.0002
# 4 0.0000 0.0001 0.0000 27.7725 0.0001 0.5059
# 5 -2.2516 2.6949 -2.5241 0.0001 27.2955 0.0000
# 6 -0.0011 -0.0021 -0.0002 0.5059 0.0000 38.7569
#
#
#
# Elastic Compliance Matrix: (Units=1/GPa)
#
#
# Indices 1 2 3 4 5 6 
#
# 1 0.026264 -0.020399 0.004940 0.000000 0.004637 0.000000
# 2 -0.020399 0.049324 -0.018163 0.000000 -0.008232 0.000002
# 3 0.004940 -0.018163 0.019686 0.000000 0.004021 -0.000001
# 4 0.000000 0.000000 0.000000 0.036015 0.000000 -0.000470
# 5 0.004637 -0.008232 0.004021 0.000000 0.038203 0.000000
# 6 0.000000 0.000002 -0.000001 -0.000470 0.000000 0.025808
#
#
# Mechanical properties :
#
#
# Convention : Reuss Voigt Hill
#
# Bulk Modulus (GPa) = 35.67398 36.47163 36.07280
# Shear Modulus (GPa) = 18.38997 26.02220 22.20608
#
# Velocity S-wave (km/s) = 3.12094 3.71251 3.42950
# Velocity P-wave (km/s) = 5.64640 6.13956 5.89814
#
# Compressibility (1/GPa) = 0.02803164
#
# Stress axis : x y z
#
# Youngs Moduli (GPa) = 38.07487 20.27397 50.79777
#
# Poissons Ratio (x) = 0.41357 -0.25097
# Poissons Ratio (y) = 0.77670 0.92262
# Poissons Ratio (z) = -0.18811 0.36823
#
# Static dielectric constant tensor:
#      x y z
#    x 1.625900 0.000000 -0.009430 
#    y 0.000000 1.643270 0.000000 
#    z -0.009430 0.000000 1.659640 
# 
# From -- ./inp_files/378100.got.cif
#   From: 2010.05.17/outbox.cif.g08.bks.cpg/sg12_190_cif.got.tgz:378100.got - 2010.06.03 13:09:07.
