data_PCOD9203380
_publ_section_title
;
Structure prediction by ZEFSAII (Michael W. Deem and Ramdas Pophale) SiO2 
 PCOD9203380
Probable space group: C 2/M
;
_chemical_formula_sum "Si O2"
_cell_formula_units_Z 42
_cell_length_a 15.079605
_cell_length_b 16.267383
_cell_length_c 7.517285
_cell_angle_alpha 90.000000
_cell_angle_beta 110.101069
_cell_angle_gamma 90.000000
_cell_volume 1731.708905
_symmetry_space_group_name_H-M "C 2/M"
_symmetry_group_IT_number 12
_symmetry_cell_setting 'monoclinic'
loop_
_space_group_symop_operation_xyz
x,y,z
-x,y,-z
-x,-y,-z
x,-y,z
1/2+x,1/2+y,z
1/2-x,1/2+y,-z
1/2-x,1/2-y,-z
1/2+x,1/2-y,z
loop_
_atom_site_type_symbol
_atom_site_label
_atom_site_fract_x
_atom_site_fract_y
_atom_site_fract_z
Si Si1 0.506969 0.623208 0.293233
Si Si2 0.185104 0.912855 0.570775
Si Si3 0.947193 0.298405 0.786585
Si Si4 0.237592 0.748815 0.782143
Si Si5 0.500000 0.500000 0.000000
Si Si6 0.365944 0.907183 0.458922
O O1 0.500000 0.604636 0.500000
O O2 0.616250 0.593041 0.353117
O O3 0.499679 0.718362 0.249225
O O4 0.458132 0.571376 0.107928
O O5 0.179000 0.829585 0.679154
O O6 0.288353 0.916530 0.561692
O O7 0.167863 0.000000 0.653267
O O8 0.840901 0.264502 0.761304
O O9 0.948950 0.366273 0.633101
O O10 0.000000 0.327454 0.000000
O O11 0.182064 0.665512 0.690988
O O12 0.250000 0.750000 0.000000
O O13 0.381403 0.000000 0.396809
#
# Coordination Sequence:
#
# PCOD9203380 Si02
#       6
#     8   8   8   8   2   8
#     4  12  24  39  63  95 138 181 212 270 345 406
#     4  10  20  39  62  87 124 170 217 262 330 394
#     4  11  23  42  65  95 135 172 220 279 338 409
#     4  11  23  40  64  96 129 173 226 276 334 403
#     4  12  26  40  56 102 142 168 224 270 336 420
#     4  10  21  42  68  88 126 176 223 276 334 390
#
# _framework density 24.253499000000001
#
# number of rings (size 3 to 8) (size 9 to 14) (size 15 to 20)
#    0.000    1.143    5.714    1.429    2.667    1.143 
#    0.000    0.000    0.000    4.000    0.000    0.000 
#    0.000    0.000    0.000    0.000    0.000    0.000 
#
# Total GULP energy -116947.959166 kJ/mol
# GULP energy per Si atom -5568.950436 kJ/mol
# Density = 2.419830 g / cm^3
# Si number density = 24.253499 Si / 1000 Ang^3
#
#
#
# Elastic Constant Matrix: (Units=GPa)
#
#
# Indices 1 2 3 4 5 6 
#
# 1 44.6986 10.2333 12.1905 0.0000 -6.8786 0.0000
# 2 10.2333 245.4876 90.2258 0.0000 -6.1316 0.0000
# 3 12.1905 90.2258 141.9445 0.0000 -13.8435 0.0000
# 4 0.0000 0.0000 0.0000 -173.1262 0.0000 -32.0216
# 5 -6.8786 -6.1316 -13.8435 0.0000 39.4514 0.0000
# 6 0.0000 0.0000 0.0000 -32.0216 0.0000 10.7265
#
#
#
# Elastic Compliance Matrix: (Units=1/GPa)
#
#
# Indices 1 2 3 4 5 6 
#
# 1 0.023388 -0.000359 -0.001437 0.000000 0.003518 0.000000
# 2 -0.000359 0.005326 -0.003396 0.000000 -0.000427 0.000000
# 3 -0.001437 -0.003396 0.009579 0.000000 0.002583 0.000000
# 4 0.000000 0.000000 0.000000 -0.003721 0.000000 -0.011109
# 5 0.003518 -0.000427 0.002583 0.000000 0.026801 0.000000
# 6 0.000000 0.000000 0.000000 -0.011109 0.000000 0.060063
#
#
# Mechanical properties :
#
#
# Convention : Reuss Voigt Hill
#
# Bulk Modulus (GPa) = 35.83225 73.04779 54.44002
# Shear Modulus (GPa) = 35.43013 -3.29093 16.06960
#
# Velocity S-wave (km/s) = 3.82622 -1.16612 2.57683
# Velocity P-wave (km/s) = 5.85885 5.32642 5.59896
#
# Compressibility (1/GPa) = 0.02790782
#
# Stress axis : x y z
#
# Youngs Moduli (GPa) = 42.75780 187.75533 104.39321
#
# Poissons Ratio (x) = 0.06735 0.15006
# Poissons Ratio (y) = 0.01534 0.35455
# Poissons Ratio (z) = 0.06146 0.63767
#
# Static dielectric constant tensor:
#      x y z
#    x 2.253960 0.000000 0.124700 
#    y 0.000000 1.969810 0.000000 
#    z 0.124700 0.000000 2.028130 
# 
# From -- ./inp_files/73736.got.cif
#   From: 2010.05.17/outbox.cif.g08.bks.cpg/sg12_37_cif.got.tgz:73736.got - 2010.06.03 13:09:07.
