data_PCOD9203118
_publ_section_title
;
Structure prediction by ZEFSAII (Michael W. Deem and Ramdas Pophale) SiO2 
 PCOD9203118
Probable space group: C 2/M
;
_chemical_formula_sum "Si O2"
_cell_formula_units_Z 58
_cell_length_a 19.948631
_cell_length_b 16.418110
_cell_length_c 28.497053
_cell_angle_alpha 90.000000
_cell_angle_beta 161.767946
_cell_angle_gamma 90.000000
_cell_volume 2920.081919
_symmetry_space_group_name_H-M "C 2/M"
_symmetry_group_IT_number 12
_symmetry_cell_setting 'monoclinic'
loop_
_space_group_symop_operation_xyz
x,y,z
-x,y,-z
-x,-y,-z
x,-y,z
1/2+x,1/2+y,z
1/2-x,1/2+y,-z
1/2-x,1/2-y,-z
1/2+x,1/2-y,z
loop_
_atom_site_type_symbol
_atom_site_label
_atom_site_fract_x
_atom_site_fract_y
_atom_site_fract_z
Si Si1 0.466033 0.210443 0.165078
Si Si2 0.926490 0.693788 0.589089
Si Si3 0.087834 0.406825 0.163824
Si Si4 0.515434 0.903506 0.285180
Si Si5 0.000000 0.500000 0.500000
Si Si6 0.312008 0.626538 0.655545
Si Si7 0.196691 0.908035 0.846947
Si Si8 0.984538 0.139954 0.372710
O O1 0.568838 0.150521 0.195580
O O2 0.427465 0.153454 0.185015
O O3 0.626751 0.283811 0.285077
O O4 0.250000 0.250000 0.000000
O O5 0.750000 0.750000 0.500000
O O6 0.049611 0.640153 0.709134
O O7 0.821769 0.634909 0.481597
O O8 0.042932 0.763621 0.636951
O O9 0.024453 0.500000 0.133063
O O10 0.321154 0.406236 0.296989
O O11 0.921890 0.373767 0.014180
O O12 0.775561 0.892422 0.459131
O O13 0.465503 0.000000 0.248932
O O14 0.824556 0.570990 0.400522
O O15 0.539363 0.593435 0.787204
O O16 0.086505 0.868746 0.728794
O O17 0.236994 0.000000 0.858481
#
# Coordination Sequence:
#
# PCOD9203118 Si02
#       8
#     8   8   8   8   2   8   8   8
#     4  12  25  43  66  90 133 186 224 271 341 424
#     4  10  20  38  67  93 128 167 217 281 330 391
#     4  11  25  39  60  97 134 175 218 273 336 402
#     4  11  22  39  67 101 128 171 227 282 338 401
#     4  12  32  40  72 104 138 176 220 300 336 414
#     4  12  23  45  63 100 129 171 228 268 343 401
#     4  11  20  38  65  90 130 169 214 268 326 402
#     4  11  21  38  63  99 132 165 217 276 335 390
#
# _framework density 19.862456999999999
#
# number of rings (size 3 to 8) (size 9 to 14) (size 15 to 20)
#    0.000    0.828    7.586    2.069    2.897    1.655 
#    1.241    1.379    0.000    0.000    0.000    1.931 
#    0.000    0.000    0.000    0.000    0.000    0.000 
#
# Total GULP energy -161462.772365 kJ/mol
# GULP energy per Si atom -5567.681806 kJ/mol
# Density = 1.981725 g / cm^3
# Si number density = 19.862457 Si / 1000 Ang^3
#
#
#
# Elastic Constant Matrix: (Units=GPa)
#
#
# Indices 1 2 3 4 5 6 
#
# 1 45.3938 26.4637 13.6639 0.0374 -5.6515 0.0009
# 2 26.4637 125.7863 9.5618 0.0515 -14.5609 -0.0301
# 3 13.6639 9.5618 36.0699 0.0446 -12.6937 -0.0029
# 4 0.0374 0.0515 0.0446 18.3632 0.0019 12.2391
# 5 -5.6515 -14.5609 -12.6937 0.0019 31.5245 0.0003
# 6 0.0009 -0.0301 -0.0029 12.2391 0.0003 12.9724
#
#
#
# Elastic Compliance Matrix: (Units=1/GPa)
#
#
# Indices 1 2 3 4 5 6 
#
# 1 0.027835 -0.005278 -0.009609 -0.000021 -0.001317 0.000003
# 2 -0.005278 0.009431 0.000815 -0.000089 0.003738 0.000106
# 3 -0.009609 0.000815 0.035739 -0.000209 0.013044 0.000207
# 4 -0.000021 -0.000089 -0.000209 0.146716 -0.000136 -0.138423
# 5 -0.001317 0.003738 0.013044 -0.000136 0.038464 0.000139
# 6 0.000003 0.000106 0.000207 -0.138423 0.000139 0.207685
#
#
# Mechanical properties :
#
#
# Convention : Reuss Voigt Hill
#
# Bulk Modulus (GPa) = 22.29090 34.06986 28.18038
# Shear Modulus (GPa) = 9.82382 23.07605 16.44993
#
# Velocity S-wave (km/s) = 2.22636 3.41221 2.88095
# Velocity P-wave (km/s) = 4.22562 5.71964 5.02843
#
# Compressibility (1/GPa) = 0.04486136
#
# Stress axis : x y z
#
# Youngs Moduli (GPa) = 35.92624 106.03033 27.98089
#
# Poissons Ratio (x) = 0.55964 0.26886
# Poissons Ratio (y) = 0.18962 -0.02280
# Poissons Ratio (z) = 0.34520 -0.08641
#
# Static dielectric constant tensor:
#      x y z
#    x 1.727530 0.000010 -0.002940 
#    y 0.000010 1.824180 -0.000080 
#    z -0.002940 -0.000080 1.751350 
# 
# From -- ./inp_files/381422.got.cif
#   From: 2010.05.17/outbox.cif.g08.bks.cpg/sg12_191_cif.got.tgz:381422.got - 2010.06.03 13:09:07.
