data_PCOD9203918
_publ_section_title
;
Structure prediction by ZEFSAII (Michael W. Deem and Ramdas Pophale) SiO2 
 PCOD9203918
Probable space group: C 2/M
;
_chemical_formula_sum "Si O2"
_cell_formula_units_Z 60
_cell_length_a 28.516976
_cell_length_b 9.312676
_cell_length_c 12.071586
_cell_angle_alpha 90.000000
_cell_angle_beta 68.521176
_cell_angle_gamma 90.000000
_cell_volume 2983.207013
_symmetry_space_group_name_H-M "C 2/M"
_symmetry_group_IT_number 12
_symmetry_cell_setting 'monoclinic'
loop_
_space_group_symop_operation_xyz
x,y,z
-x,y,-z
-x,-y,-z
x,-y,z
1/2+x,1/2+y,z
1/2-x,1/2+y,-z
1/2-x,1/2-y,-z
1/2+x,1/2-y,z
loop_
_atom_site_type_symbol
_atom_site_label
_atom_site_fract_x
_atom_site_fract_y
_atom_site_fract_z
Si Si1 0.234958 0.264676 0.680217
Si Si2 0.043435 0.329795 0.293900
Si Si3 0.573724 0.831170 0.662096
Si Si4 0.624665 0.327264 0.070923
Si Si5 0.097838 0.833564 0.432624
Si Si6 0.875535 0.663485 0.156021
Si Si7 0.727667 0.500000 0.518192
Si Si8 0.697638 0.666650 0.193673
O O1 0.179992 0.332730 0.743626
O O2 0.268889 0.375428 0.581773
O O3 0.229205 0.123734 0.613336
O O4 0.260038 0.244696 0.779166
O O5 0.054477 0.500000 0.287408
O O6 0.078885 0.248821 0.175398
O O7 0.057185 0.259172 0.399725
O O8 0.985221 0.311536 0.312173
O O9 0.603915 0.735277 0.548163
O O10 0.587095 0.794857 0.776696
O O11 0.586449 0.000000 0.635288
O O12 0.619789 0.500000 0.082185
O O13 0.675913 0.287350 0.093353
O O14 0.623977 0.269973 0.947376
O O15 0.148191 0.826980 0.315498
O O16 0.082860 0.000000 0.454874
O O17 0.887326 0.500000 0.109896
O O18 0.714140 0.500000 0.172164
#
# Coordination Sequence:
#
# PCOD9203918 Si02
#       8
#     8   8   8   8   8   8   4   8
#     4  11  22  40  60  89 122 161 187 235 283 347
#     4  10  20  40  61  83 115 156 194 243 294 348
#     4  10  23  37  57  86 119 153 196 241 296 350
#     4  10  23  42  63  84 116 150 199 249 291 346
#     4  10  21  34  58  90 124 152 192 241 290 349
#     4  11  24  41  60  88 117 155 198 244 289 344
#     4  10  24  36  62  88 124 156 192 232 284 346
#     4   9  19  38  60  85 115 158 193 236 290 338
#
# _framework density 20.112583000000001
#
# number of rings (size 3 to 8) (size 9 to 14) (size 15 to 20)
#    0.000    1.867    1.333    2.400    4.667    4.267 
#    6.000    2.667    0.000    0.000    0.000    0.000 
#    0.000    0.000    0.000    0.000    0.000    0.000 
#
# Total GULP energy -167050.257369 kJ/mol
# GULP energy per Si atom -5568.341912 kJ/mol
# Density = 2.006681 g / cm^3
# Si number density = 20.112583 Si / 1000 Ang^3
#
#
#
# Elastic Constant Matrix: (Units=GPa)
#
#
# Indices 1 2 3 4 5 6 
#
# 1 53.8736 10.1523 21.7714 0.0000 13.4148 0.0000
# 2 10.1523 75.2376 34.9110 0.0000 10.3017 0.0000
# 3 21.7714 34.9110 74.6342 0.0000 31.9904 0.0000
# 4 0.0000 0.0000 0.0000 22.3071 0.0000 13.1555
# 5 13.4148 10.3017 31.9904 0.0000 18.1698 0.0000
# 6 0.0000 0.0000 0.0000 13.1555 0.0000 -4.6462
#
#
#
# Elastic Compliance Matrix: (Units=1/GPa)
#
#
# Indices 1 2 3 4 5 6 
#
# 1 0.023015 -0.001805 0.003975 0.000000 -0.022968 0.000000
# 2 -0.001805 0.018649 -0.017266 0.000000 0.021158 0.000000
# 3 0.003975 -0.017266 0.070829 0.000000 -0.117850 0.000000
# 4 0.000000 0.000000 0.000000 0.016791 0.000000 0.047543
# 5 -0.022968 0.021158 -0.117850 0.000000 0.267488 0.000000
# 6 0.000000 0.000000 0.000000 0.047543 0.000000 -0.080616
#
#
# Mechanical properties :
#
#
# Convention : Reuss Voigt Hill
#
# Bulk Modulus (GPa) = 12.15039 37.49054 24.82046
# Shear Modulus (GPa) = 13.37682 16.29353 14.83517
#
# Velocity S-wave (km/s) = 2.58175 2.84934 2.71884
# Velocity P-wave (km/s) = 3.86543 5.43192 4.71420
#
# Compressibility (1/GPa) = 0.08230188
#
# Stress axis : x y z
#
# Youngs Moduli (GPa) = 43.45054 53.62133 14.11851
#
# Poissons Ratio (x) = 0.09681 -0.05613
# Poissons Ratio (y) = 0.07845 0.24376
# Poissons Ratio (z) = -0.17274 0.92580
#
# Static dielectric constant tensor:
#      x y z
#    x 1.735730 0.000000 0.008820 
#    y 0.000000 1.669810 0.000000 
#    z 0.008820 0.000000 1.717490 
# 
# From -- ./inp_files/187365.got.cif
#   From: 2010.05.17/outbox.cif.g08.bks.cpg/sg12_94_cif.got.tgz:187365.got - 2010.06.03 13:09:07.
