data_PCOD9203221
_publ_section_title
;
Structure prediction by ZEFSAII (Michael W. Deem and Ramdas Pophale) SiO2 
 PCOD9203221
Probable space group: C 2/M
;
_chemical_formula_sum "Si O2"
_cell_formula_units_Z 36
_cell_length_a 15.134670
_cell_length_b 17.598378
_cell_length_c 16.454099
_cell_angle_alpha 90.000000
_cell_angle_beta 25.232441
_cell_angle_gamma 90.000000
_cell_volume 1868.213113
_symmetry_space_group_name_H-M "C 2/M"
_symmetry_group_IT_number 12
_symmetry_cell_setting 'monoclinic'
loop_
_space_group_symop_operation_xyz
x,y,z
-x,y,-z
-x,-y,-z
x,-y,z
1/2+x,1/2+y,z
1/2-x,1/2+y,-z
1/2-x,1/2-y,-z
1/2+x,1/2-y,z
loop_
_atom_site_type_symbol
_atom_site_label
_atom_site_fract_x
_atom_site_fract_y
_atom_site_fract_z
Si Si1 0.500000 0.816323 0.500000
Si Si2 0.412178 0.693262 0.908391
Si Si3 0.302952 0.412453 0.440697
Si Si4 0.719135 0.716993 0.434202
Si Si5 0.670100 0.088641 0.235671
O O1 0.529023 0.759308 0.551150
O O2 0.326750 0.875264 0.676723
O O3 0.526321 0.633128 0.753612
O O4 0.595494 0.752742 0.776540
O O5 0.250000 0.750000 0.000000
O O6 0.303601 0.642717 0.066802
O O7 0.358359 0.500000 0.399861
O O8 0.292317 0.371343 0.537383
O O9 0.072102 0.407731 0.592652
O O10 0.750000 0.750000 0.500000
O O11 0.731682 0.000000 0.183216
#
# Coordination Sequence:
#
# PCOD9203221 Si02
#       5
#     4   8   8   8   8
#     4  12  21  40  61  82 124 158 202 240 287 360
#     4  11  19  36  61  89 120 154 203 234 290 358
#     4  10  20  39  60  86 121 155 193 243 296 346
#     4  10  20  39  59  84 114 157 196 238 287 348
#     4  11  22  36  57  89 124 156 191 245 300 351
#
# _framework density 19.269749999999998
#
# number of rings (size 3 to 8) (size 9 to 14) (size 15 to 20)
#    0.000    1.333    6.667    2.333    0.000    0.889 
#    0.000    1.667    0.000    0.000    0.000    3.111 
#    0.000    0.000    0.000    0.000    0.000    0.000 
#
# Total GULP energy -100202.935676 kJ/mol
# GULP energy per Si atom -5566.829760 kJ/mol
# Density = 1.922589 g / cm^3
# Si number density = 19.269750 Si / 1000 Ang^3
#
#
#
# Elastic Constant Matrix: (Units=GPa)
#
#
# Indices 1 2 3 4 5 6 
#
# 1 47.0873 31.3063 11.4389 -0.0025 17.1643 -0.0041
# 2 31.3063 147.5713 61.8509 -0.0671 19.9545 0.0366
# 3 11.4389 61.8509 113.9159 -0.0387 18.7142 0.0129
# 4 -0.0025 -0.0671 -0.0387 41.5327 0.0163 1.4456
# 5 17.1643 19.9545 18.7142 0.0163 26.8756 -0.0001
# 6 -0.0041 0.0366 0.0129 1.4456 -0.0001 26.8107
#
#
#
# Elastic Compliance Matrix: (Units=1/GPa)
#
#
# Indices 1 2 3 4 5 6 
#
# 1 0.030389 -0.005197 0.002625 0.000002 -0.017377 0.000010
# 2 -0.005197 0.009983 -0.004772 0.000012 -0.000770 -0.000013
# 3 0.002625 -0.004772 0.012194 0.000006 -0.006625 0.000001
# 4 0.000002 0.000012 0.000006 0.024123 -0.000030 -0.001301
# 5 -0.017377 -0.000770 -0.006625 -0.000030 0.053491 0.000003
# 6 0.000010 -0.000013 0.000001 -0.001301 0.000003 0.037369
#
#
# Mechanical properties :
#
#
# Convention : Reuss Voigt Hill
#
# Bulk Modulus (GPa) = 26.40050 57.52964 41.96507
# Shear Modulus (GPa) = 25.65896 32.64236 29.15066
#
# Velocity S-wave (km/s) = 3.65302 4.12025 3.89365
# Velocity P-wave (km/s) = 5.61453 7.24948 6.48375
#
# Compressibility (1/GPa) = 0.03787808
#
# Stress axis : x y z
#
# Youngs Moduli (GPa) = 32.90628 100.16846 82.00731
#
# Poissons Ratio (x) = 0.52062 -0.21528
# Poissons Ratio (y) = 0.17103 0.39134
# Poissons Ratio (z) = -0.08638 0.47800
#
# Static dielectric constant tensor:
#      x y z
#    x 1.792830 0.000000 -0.071390 
#    y 0.000000 1.749910 0.000030 
#    z -0.071390 0.000030 1.768500 
# 
# From -- ./inp_files/278648.got.cif
#   From: 2010.05.17/outbox.cif.g08.bks.cpg/sg12_140_cif.got.tgz:278648.got - 2010.06.03 13:09:07.
