data_PCOD9203468
_publ_section_title
;
Structure prediction by ZEFSAII (Michael W. Deem and Ramdas Pophale) SiO2 
 PCOD9203468
Probable space group: C 2/M
;
_chemical_formula_sum "Si O2"
_cell_formula_units_Z 64
_cell_length_a 30.970924
_cell_length_b 8.962039
_cell_length_c 16.580104
_cell_angle_alpha 90.000000
_cell_angle_beta 133.234879
_cell_angle_gamma 90.000000
_cell_volume 3352.807823
_symmetry_space_group_name_H-M "C 2/M"
_symmetry_group_IT_number 12
_symmetry_cell_setting 'monoclinic'
loop_
_space_group_symop_operation_xyz
x,y,z
-x,y,-z
-x,-y,-z
x,-y,z
1/2+x,1/2+y,z
1/2-x,1/2+y,-z
1/2-x,1/2-y,-z
1/2+x,1/2-y,z
loop_
_atom_site_type_symbol
_atom_site_label
_atom_site_fract_x
_atom_site_fract_y
_atom_site_fract_z
Si Si1 0.341732 0.320218 0.776551
Si Si2 0.839228 0.825091 0.305424
Si Si3 0.992408 0.679716 0.242172
Si Si4 0.121579 0.320723 0.341683
Si Si5 0.451824 0.179544 0.369956
Si Si6 0.795773 0.679922 0.408994
Si Si7 0.612868 0.679119 0.989179
Si Si8 0.775167 0.675611 0.951855
O O1 0.342745 0.500000 0.773096
O O2 0.372718 0.252982 0.737964
O O3 0.272582 0.272953 0.687352
O O4 0.372536 0.276679 0.899957
O O5 0.889985 0.753319 0.315314
O O6 0.834004 0.745319 0.384757
O O7 0.775891 0.808057 0.180645
O O8 0.851146 0.000000 0.330962
O O9 0.986412 0.500000 0.229462
O O10 0.974428 0.723930 0.310179
O O11 0.059922 0.717446 0.306624
O O12 0.947942 0.755287 0.122451
O O13 0.123733 0.500000 0.335602
O O14 0.175459 0.274731 0.469272
O O15 0.500000 0.218437 0.500000
O O16 0.444918 0.000000 0.361682
O O17 0.798041 0.500000 0.406840
O O18 0.612634 0.500000 0.984314
O O19 0.665735 0.743637 0.002128
O O20 0.786588 0.500000 0.979287
O O21 0.750000 0.750000 0.000000
#
# Coordination Sequence:
#
# PCOD9203468 Si02
#       8
#     8   8   8   8   8   8   8   8
#     4  10  22  39  61  89 120 155 198 247 303 358
#     4  11  23  36  56  89 121 151 191 241 297 351
#     4  10  22  40  60  87 119 157 203 249 299 353
#     4  10  22  39  63  90 117 154 202 251 300 357
#     4  10  21  39  62  85 116 160 204 244 291 352
#     4  10  20  39  63  88 120 157 198 243 296 362
#     4  11  23  40  61  86 119 160 201 244 295 355
#     4  11  23  38  58  86 118 153 195 242 293 350
#
# _framework density 19.088479
#
# number of rings (size 3 to 8) (size 9 to 14) (size 15 to 20)
#    0.000    1.625    1.250    3.000    0.000    9.250 
#    0.000    3.750    0.000    0.000    0.000    0.000 
#    0.000    0.000    0.000    0.000    0.000    0.000 
#
# Total GULP energy -178870.624081 kJ/mol
# GULP energy per Si atom -5589.707003 kJ/mol
# Density = 1.904503 g / cm^3
# Si number density = 19.088479 Si / 1000 Ang^3
#
#
#
# Elastic Constant Matrix: (Units=GPa)
#
#
# Indices 1 2 3 4 5 6 
#
# 1 89.8698 16.9754 32.7663 0.0000 -12.5154 0.0000
# 2 16.9754 15.7449 29.8104 0.0000 -0.2236 0.0000
# 3 32.7663 29.8104 115.0002 0.0000 -8.7429 0.0000
# 4 0.0000 0.0000 0.0000 29.6959 0.0000 -0.6444
# 5 -12.5154 -0.2236 -8.7429 0.0000 36.8546 0.0000
# 6 0.0000 0.0000 0.0000 -0.6444 0.0000 34.9068
#
#
#
# Elastic Compliance Matrix: (Units=1/GPa)
#
#
# Indices 1 2 3 4 5 6 
#
# 1 0.014837 -0.016988 0.000561 0.000000 0.005069 0.000000
# 2 -0.016988 0.145998 -0.033990 0.000000 -0.012946 0.000000
# 3 0.000561 -0.033990 0.017664 0.000000 0.004175 0.000000
# 4 0.000000 0.000000 0.000000 0.033688 0.000000 0.000622
# 5 0.005069 -0.012946 0.004175 0.000000 0.029767 0.000000
# 6 0.000000 0.000000 0.000000 0.000622 0.000000 0.028659
#
#
# Mechanical properties :
#
#
# Convention : Reuss Voigt Hill
#
# Bulk Modulus (GPa) = 12.87545 42.19102 27.53324
# Shear Modulus (GPa) = 12.58384 29.69566 21.13975
#
# Velocity S-wave (km/s) = 2.57035 3.94850 3.33146
# Velocity P-wave (km/s) = 3.94572 6.55274 5.40865
#
# Compressibility (1/GPa) = 0.07766717
#
# Stress axis : x y z
#
# Youngs Moduli (GPa) = 67.39830 6.84939 56.61254
#
# Poissons Ratio (x) = 0.11636 -0.03179
# Poissons Ratio (y) = 1.14495 1.92425
# Poissons Ratio (z) = -0.03784 0.23281
#
# Static dielectric constant tensor:
#      x y z
#    x 1.629150 0.000000 0.006320 
#    y 0.000000 1.641590 0.000000 
#    z 0.006320 0.000000 1.666740 
# 
# From -- ./inp_files/249966.got.cif
#   From: 2010.05.17/outbox.cif.g08.bks.cpg/sg12_125_cif.got.tgz:249966.got - 2010.06.03 13:09:07.
