data_PCOD9203641
_publ_section_title
;
Structure prediction by ZEFSAII (Michael W. Deem and Ramdas Pophale) SiO2 
 PCOD9203641
Probable space group: C 2/M
;
_chemical_formula_sum "Si O2"
_cell_formula_units_Z 48
_cell_length_a 9.781565
_cell_length_b 14.652028
_cell_length_c 26.378317
_cell_angle_alpha 90.000000
_cell_angle_beta 37.697437
_cell_angle_gamma 90.000000
_cell_volume 2311.765065
_symmetry_space_group_name_H-M "C 2/M"
_symmetry_group_IT_number 12
_symmetry_cell_setting 'monoclinic'
loop_
_space_group_symop_operation_xyz
x,y,z
-x,y,-z
-x,-y,-z
x,-y,z
1/2+x,1/2+y,z
1/2-x,1/2+y,-z
1/2-x,1/2-y,-z
1/2+x,1/2-y,z
loop_
_atom_site_type_symbol
_atom_site_label
_atom_site_fract_x
_atom_site_fract_y
_atom_site_fract_z
Si Si1 0.074772 0.102683 0.419983
Si Si2 0.421449 0.892020 0.466672
Si Si3 0.723665 0.284473 0.205422
Si Si4 0.197050 0.342226 0.046597
Si Si5 0.842712 0.897346 0.116356
Si Si6 0.252397 0.762511 0.686562
O O1 0.843894 0.121468 0.458173
O O2 0.000000 0.106734 0.500000
O O3 0.245095 0.180401 0.354937
O O4 0.153749 0.000000 0.385866
O O5 0.500000 0.867045 0.500000
O O6 0.554411 0.832193 0.386894
O O7 0.463262 0.000000 0.446009
O O8 0.779349 0.178558 0.175803
O O9 0.712929 0.284327 0.269313
O O10 0.489924 0.308502 0.247811
O O11 0.928468 0.346626 0.125044
O O12 0.258174 0.351578 0.088312
O O13 0.250000 0.250000 0.000000
O O14 0.387767 0.405048 0.966202
O O15 0.751023 0.000000 0.148844
#
# Coordination Sequence:
#
# PCOD9203641 Si02
#       6
#     8   8   8   8   8   8
#     4  10  21  38  60  86 113 152 212 260 290 355
#     4  10  21  38  58  80 112 157 205 248 297 358
#     4  11  23  37  57  91 127 154 198 245 311 362
#     4   9  18  36  60  87 115 152 196 244 288 353
#     4  10  20  39  65  90 116 161 212 247 290 362
#     4  12  22  37  59  87 123 163 192 250 317 368
#
# _framework density 20.763355000000001
#
# number of rings (size 3 to 8) (size 9 to 14) (size 15 to 20)
#    0.000    1.667    1.667    4.000    0.000    1.333 
#    0.000    1.667    0.000    1.000    0.000    0.000 
#    0.000    0.000    0.000    0.000    0.000    0.000 
#
# Total GULP energy -133809.106429 kJ/mol
# GULP energy per Si atom -5575.379435 kJ/mol
# Density = 2.071610 g / cm^3
# Si number density = 20.763355 Si / 1000 Ang^3
#
#
#
# Elastic Constant Matrix: (Units=GPa)
#
#
# Indices 1 2 3 4 5 6 
#
# 1 39.4319 -3.5842 -17.3034 -0.0005 -3.2420 0.0035
# 2 -3.5842 71.1720 16.1562 0.0000 -1.4028 0.0014
# 3 -17.3034 16.1562 52.2675 -0.0014 -2.3668 0.0115
# 4 -0.0005 0.0000 -0.0014 11.0387 0.0005 -7.4399
# 5 -3.2420 -1.4028 -2.3668 0.0005 24.0632 -0.0049
# 6 0.0035 0.0014 0.0115 -7.4399 -0.0049 56.8368
#
#
#
# Elastic Compliance Matrix: (Units=1/GPa)
#
#
# Indices 1 2 3 4 5 6 
#
# 1 0.030316 -0.000757 0.010500 0.000000 0.005073 -0.000003
# 2 -0.000757 0.015134 -0.004915 0.000000 0.000297 0.000001
# 3 0.010500 -0.004915 0.024287 0.000000 0.003517 -0.000005
# 4 0.000000 0.000000 0.000000 0.099356 0.000001 0.013006
# 5 0.005073 0.000297 0.003517 0.000001 0.042604 0.000003
# 6 -0.000003 0.000001 -0.000005 0.013006 0.000003 0.019297
#
#
# Mechanical properties :
#
#
# Convention : Reuss Voigt Hill
#
# Bulk Modulus (GPa) = 12.59559 17.04542 14.82050
# Shear Modulus (GPa) = 20.17739 29.56124 24.86931
#
# Velocity S-wave (km/s) = 3.12072 3.77732 3.46461
# Velocity P-wave (km/s) = 4.36630 5.22028 4.81227
#
# Compressibility (1/GPa) = 0.07939290
#
# Stress axis : x y z
#
# Youngs Moduli (GPa) = 32.98581 66.07663 41.17440
#
# Poissons Ratio (x) = 0.05001 -0.43233
# Poissons Ratio (y) = 0.02496 0.20238
# Poissons Ratio (z) = -0.34635 0.32477
#
# Static dielectric constant tensor:
#      x y z
#    x 1.937190 0.000010 -0.141160 
#    y 0.000010 1.736630 0.000000 
#    z -0.141160 0.000000 1.842980 
# 
# From -- ./inp_files/356301.got.cif
#   From: 2010.05.17/outbox.cif.g08.bks.cpg/sg12_179_cif.got.tgz:356301.got - 2010.06.03 13:09:07.
