data_PCOD9203921
_publ_section_title
;
Structure prediction by ZEFSAII (Michael W. Deem and Ramdas Pophale) SiO2 
 PCOD9203921
Probable space group: C 2/M
;
_chemical_formula_sum "Si O2"
_cell_formula_units_Z 56
_cell_length_a 14.515279
_cell_length_b 18.680423
_cell_length_c 11.123937
_cell_angle_alpha 90.000000
_cell_angle_beta 69.997153
_cell_angle_gamma 90.000000
_cell_volume 2834.318008
_symmetry_space_group_name_H-M "C 2/M"
_symmetry_group_IT_number 12
_symmetry_cell_setting 'monoclinic'
loop_
_space_group_symop_operation_xyz
x,y,z
-x,y,-z
-x,-y,-z
x,-y,z
1/2+x,1/2+y,z
1/2-x,1/2+y,-z
1/2-x,1/2-y,-z
1/2+x,1/2-y,z
loop_
_atom_site_type_symbol
_atom_site_label
_atom_site_fract_x
_atom_site_fract_y
_atom_site_fract_z
Si Si1 0.407588 0.658420 0.131642
Si Si2 0.710079 0.777759 0.230307
Si Si3 0.449938 0.500000 0.155999
Si Si4 0.011726 0.279727 0.733181
Si Si5 0.817200 0.681515 0.499361
Si Si6 0.557743 0.924490 0.850787
Si Si7 0.739179 0.384767 0.304154
Si Si8 0.928423 0.000000 0.647481
O O1 0.306365 0.690403 0.123149
O O2 0.395126 0.576551 0.180448
O O3 0.437568 0.711568 0.226645
O O4 0.500000 0.661203 0.000000
O O5 0.604453 0.772253 0.217606
O O6 0.695121 0.828577 0.354001
O O7 0.730819 0.696817 0.263969
O O8 0.518896 0.500000 0.244898
O O9 0.500000 0.500000 0.000000
O O10 0.072409 0.295049 0.584333
O O11 0.030969 0.351789 0.797895
O O12 0.750000 0.750000 0.500000
O O13 0.778272 0.620770 0.425049
O O14 0.674734 0.920416 0.811621
O O15 0.534441 0.000000 0.797126
O O16 0.500000 0.924763 0.000000
O O17 0.641021 0.430126 0.333954
O O18 0.000000 0.000000 0.500000
#
# Coordination Sequence:
#
# PCOD9203921 Si02
#       8
#     8   8   4   8   8   8   8   4
#     4  11  23  43  61  86 129 171 213 265 321 387
#     4  11  22  37  64  91 120 167 206 256 327 386
#     4  10  26  48  60  86 141 175 204 272 336 381
#     4  11  21  37  64  91 119 154 220 254 309 398
#     4   9  18  36  61  85 125 157 190 260 327 365
#     4  10  20  40  61  83 122 156 194 262 322 363
#     4  10  21  38  61  93 124 155 206 269 316 368
#     4  12  26  40  69 102 123 169 228 269 316 386
#
# _framework density 19.757838
#
# number of rings (size 3 to 8) (size 9 to 14) (size 15 to 20)
#    0.000    1.571    5.000    1.714    2.000    2.857 
#    6.429    0.000    0.000    1.714    0.000    0.000 
#    0.000    0.000    0.000    0.000    0.000    0.000 
#
# Total GULP energy -155987.286628 kJ/mol
# GULP energy per Si atom -5570.974522 kJ/mol
# Density = 1.971287 g / cm^3
# Si number density = 19.757838 Si / 1000 Ang^3
#
#
#
# Elastic Constant Matrix: (Units=GPa)
#
#
# Indices 1 2 3 4 5 6 
#
# 1 91.0344 34.9036 19.2929 0.0000 -24.5947 0.0000
# 2 34.9036 138.6996 22.1255 0.0000 -9.4265 0.0000
# 3 19.2929 22.1255 80.2000 0.0000 -26.0099 0.0000
# 4 0.0000 0.0000 0.0000 -72.2362 0.0000 -14.8119
# 5 -24.5947 -9.4265 -26.0099 0.0000 32.0008 0.0000
# 6 0.0000 0.0000 0.0000 -14.8119 0.0000 32.3308
#
#
#
# Elastic Compliance Matrix: (Units=1/GPa)
#
#
# Indices 1 2 3 4 5 6 
#
# 1 0.015089 -0.003172 0.000955 0.000000 0.011439 0.000000
# 2 -0.003172 0.008221 -0.002051 0.000000 -0.001683 0.000000
# 3 0.000955 -0.002051 0.017446 0.000000 0.014310 0.000000
# 4 0.000000 0.000000 0.000000 -0.012655 0.000000 -0.005798
# 5 0.011439 -0.001683 0.014310 0.000000 0.051176 0.000000
# 6 0.000000 0.000000 0.000000 -0.005798 0.000000 0.028274
#
#
# Mechanical properties :
#
#
# Convention : Reuss Voigt Hill
#
# Bulk Modulus (GPa) = 31.03667 51.39754 41.21710
# Shear Modulus (GPa) = 39.42405 13.99320 26.70863
#
# Velocity S-wave (km/s) = 4.47179 2.66416 3.68067
# Velocity P-wave (km/s) = 6.51193 5.96103 6.24256
#
# Compressibility (1/GPa) = 0.03221995
#
# Stress axis : x y z
#
# Youngs Moduli (GPa) = 66.27308 121.64237 57.32100
#
# Poissons Ratio (x) = 0.38586 -0.05474
# Poissons Ratio (y) = 0.21022 0.11755
# Poissons Ratio (z) = -0.06329 0.24946
#
# Static dielectric constant tensor:
#      x y z
#    x 1.735360 0.000000 -0.020780 
#    y 0.000000 1.705710 0.000000 
#    z -0.020780 0.000000 1.751850 
# 
# From -- ./inp_files/146086.got.cif
#   From: 2010.05.17/outbox.cif.g08.bks.cpg/sg12_74_cif.got.tgz:146086.got - 2010.06.03 13:09:07.
