data_PCOD9203807
_publ_section_title
;
Structure prediction by ZEFSAII (Michael W. Deem and Ramdas Pophale) SiO2 
 PCOD9203807
Probable space group: C 2/M
;
_chemical_formula_sum "Si O2"
_cell_formula_units_Z 48
_cell_length_a 12.013215
_cell_length_b 19.497263
_cell_length_c 16.290736
_cell_angle_alpha 90.000000
_cell_angle_beta 144.286412
_cell_angle_gamma 90.000000
_cell_volume 2227.349841
_symmetry_space_group_name_H-M "C 2/M"
_symmetry_group_IT_number 12
_symmetry_cell_setting 'monoclinic'
loop_
_space_group_symop_operation_xyz
x,y,z
-x,y,-z
-x,-y,-z
x,-y,z
1/2+x,1/2+y,z
1/2-x,1/2+y,-z
1/2-x,1/2-y,-z
1/2+x,1/2-y,z
loop_
_atom_site_type_symbol
_atom_site_label
_atom_site_fract_x
_atom_site_fract_y
_atom_site_fract_z
Si Si1 0.669665 0.795330 0.656384
Si Si2 0.404137 0.694048 0.129496
Si Si3 0.797269 0.673584 0.834060
Si Si4 0.272358 0.418739 0.366018
Si Si5 0.006646 0.420988 0.350104
Si Si6 0.153514 0.929189 0.020975
O O1 0.500000 0.765079 0.500000
O O2 0.718560 0.748482 0.763174
O O3 0.583577 0.867949 0.638167
O O4 0.871167 0.788862 0.728989
O O5 0.341166 0.655412 0.174474
O O6 0.250000 0.750000 0.000000
O O7 0.399371 0.636764 0.058604
O O8 0.803331 0.626666 0.756166
O O9 0.000000 0.678035 0.000000
O O10 0.500000 0.412370 0.500000
O O11 0.224291 0.500000 0.326133
O O12 0.193573 0.398933 0.409849
O O13 0.027836 0.500000 0.393937
O O14 0.854672 0.423188 0.185267
O O15 0.148343 0.000000 0.967987
O O16 0.000000 0.934088 0.000000
#
# Coordination Sequence:
#
# PCOD9203807 Si02
#       6
#     8   8   8   8   8   8
#     4  12  28  44  67 102 140 180 227 287 345 408
#     4  12  25  42  68 100 138 180 228 282 341 403
#     4  12  26  44  69  98 135 183 233 284 336 406
#     4  10  24  47  72 101 139 183 225 273 342 416
#     4  10  22  43  72  99 135 180 224 277 339 407
#     4  10  20  39  68 100 132 169 218 276 338 400
#
# _framework density 21.550274000000002
#
# number of rings (size 3 to 8) (size 9 to 14) (size 15 to 20)
#    0.000    1.000    3.333    2.500    4.667    2.000 
#    0.000    0.000    0.000    0.000    0.000    0.000 
#    0.000    0.000    0.000    0.000    0.000    0.000 
#
# Total GULP energy -133738.538362 kJ/mol
# GULP energy per Si atom -5572.439098 kJ/mol
# Density = 2.150122 g / cm^3
# Si number density = 21.550274 Si / 1000 Ang^3
#
#
#
# Elastic Constant Matrix: (Units=GPa)
#
#
# Indices 1 2 3 4 5 6 
#
# 1 97.7525 17.3080 22.5182 -0.0001 22.9047 -0.0005
# 2 17.3080 82.0672 23.0207 -0.0002 -4.1074 -0.0006
# 3 22.5182 23.0207 100.2943 0.0008 20.1865 -0.0012
# 4 -0.0001 -0.0002 0.0008 45.4562 0.0002 -17.1744
# 5 22.9047 -4.1074 20.1865 0.0002 37.2827 -0.0006
# 6 -0.0005 -0.0006 -0.0012 -17.1744 -0.0006 39.6073
#
#
#
# Elastic Compliance Matrix: (Units=1/GPa)
#
#
# Indices 1 2 3 4 5 6 
#
# 1 0.012712 -0.002897 -0.000621 0.000000 -0.007792 0.000000
# 2 -0.002897 0.014086 -0.003651 0.000000 0.005308 0.000000
# 3 -0.000621 -0.003651 0.012292 0.000000 -0.006676 0.000000
# 4 0.000000 0.000000 0.000000 0.026310 0.000000 0.011408
# 5 -0.007792 0.005308 -0.006676 0.000000 0.035809 0.000000
# 6 0.000000 0.000000 0.000000 0.011408 0.000000 0.030195
#
#
# Mechanical properties :
#
#
# Convention : Reuss Voigt Hill
#
# Bulk Modulus (GPa) = 40.40077 45.08977 42.74527
# Shear Modulus (GPa) = 32.46946 38.95370 35.71158
#
# Velocity S-wave (km/s) = 3.88581 4.25617 4.07520
# Velocity P-wave (km/s) = 6.23864 6.71727 6.48238
#
# Compressibility (1/GPa) = 0.02475200
#
# Stress axis : x y z
#
# Youngs Moduli (GPa) = 78.66772 70.99272 81.35476
#
# Poissons Ratio (x) = 0.20565 0.05050
# Poissons Ratio (y) = 0.22788 0.29704
# Poissons Ratio (z) = 0.04883 0.25921
#
# Static dielectric constant tensor:
#      x y z
#    x 1.899210 0.000000 0.028120 
#    y 0.000000 1.740630 0.000000 
#    z 0.028120 0.000000 1.816640 
# 
# From -- ./inp_files/208017.got.cif
#   From: 2010.05.17/outbox.cif.g08.bks.cpg/sg12_105_cif.got.tgz:208017.got - 2010.06.03 13:09:07.
