data_PCOD9203429
_publ_section_title
;
Structure prediction by ZEFSAII (Michael W. Deem and Ramdas Pophale) SiO2 
 PCOD9203429
Probable space group: C 2/M
;
_chemical_formula_sum "Si O2"
_cell_formula_units_Z 64
_cell_length_a 16.225386
_cell_length_b 7.681248
_cell_length_c 30.586340
_cell_angle_alpha 90.000000
_cell_angle_beta 129.721924
_cell_angle_gamma 90.000000
_cell_volume 2932.028905
_symmetry_space_group_name_H-M "C 2/M"
_symmetry_group_IT_number 12
_symmetry_cell_setting 'monoclinic'
loop_
_space_group_symop_operation_xyz
x,y,z
-x,y,-z
-x,-y,-z
x,-y,z
1/2+x,1/2+y,z
1/2-x,1/2+y,-z
1/2-x,1/2-y,-z
1/2+x,1/2-y,z
loop_
_atom_site_type_symbol
_atom_site_label
_atom_site_fract_x
_atom_site_fract_y
_atom_site_fract_z
Si Si1 0.297411 0.707406 0.063338
Si Si2 0.089896 0.795646 0.362264
Si Si3 0.101901 0.300427 0.763371
Si Si4 0.669232 0.787794 0.571007
Si Si5 0.972562 0.289356 0.560662
Si Si6 0.894192 0.287085 0.938519
Si Si7 0.996276 0.700070 0.182088
Si Si8 0.836969 0.295543 0.823848
O O1 0.311559 0.500000 0.071271
O O2 0.210250 0.764429 0.069611
O O3 0.409655 0.793582 0.113718
O O4 0.250000 0.750000 0.000000
O O5 0.207987 0.728420 0.389078
O O6 0.994765 0.707353 0.303389
O O7 0.066697 0.775790 0.405926
O O8 0.086449 0.000000 0.350248
O O9 0.133086 0.500000 0.782534
O O10 0.059366 0.218512 0.794284
O O11 0.209577 0.216629 0.781665
O O12 0.591338 0.733984 0.584498
O O13 0.608798 0.737055 0.505678
O O14 0.670972 0.000000 0.571969
O O15 0.972736 0.500000 0.562509
O O16 0.895747 0.500000 0.938409
O O17 0.882775 0.223937 0.885087
O O18 0.000000 0.229758 0.000000
O O19 0.018498 0.500000 0.202769
O O20 0.103919 0.780016 0.198528
O O21 0.865005 0.500000 0.833248
#
# Coordination Sequence:
#
# PCOD9203429 Si02
#       8
#     8   8   8   8   8   8   8   8
#     4  11  21  34  56  85 117 151 186 228 281 343
#     4  11  22  36  56  84 116 153 198 240 285 342
#     4  11  24  41  58  82 115 151 192 244 293 338
#     4   8  17  34  58  86 119 157 192 233 289 348
#     4   9  17  35  60  86 118 155 194 237 288 340
#     4   9  17  31  54  82 111 143 180 219 270 337
#     4  10  22  40  62  84 112 146 186 236 291 344
#     4  10  20  39  63  84 110 148 188 230 285 348
#
# _framework density 21.827888999999999
#
# number of rings (size 3 to 8) (size 9 to 14) (size 15 to 20)
#    0.000    2.125    1.250    3.000    0.000    4.000 
#    0.000    5.625    0.000    1.875    0.000    0.000 
#    0.000    0.000    0.000    0.000    0.000    0.000 
#
# Total GULP energy -178730.938057 kJ/mol
# GULP energy per Si atom -5585.341814 kJ/mol
# Density = 2.177821 g / cm^3
# Si number density = 21.827889 Si / 1000 Ang^3
#
#
#
# Elastic Constant Matrix: (Units=GPa)
#
#
# Indices 1 2 3 4 5 6 
#
# 1 149.1686 3.8998 26.7786 0.0000 30.8734 0.0000
# 2 3.8998 45.3714 -7.8034 0.0000 -1.0540 0.0000
# 3 26.7786 -7.8034 56.3530 0.0000 27.5381 0.0000
# 4 0.0000 0.0000 0.0000 8.3699 0.0000 -8.3178
# 5 30.8734 -1.0540 27.5381 0.0000 27.5521 0.0000
# 6 0.0000 0.0000 0.0000 -8.3178 0.0000 6.4491
#
#
#
# Elastic Compliance Matrix: (Units=1/GPa)
#
#
# Indices 1 2 3 4 5 6 
#
# 1 0.008802 -0.000830 0.001051 0.000000 -0.010946 0.000000
# 2 -0.000830 0.022935 0.005253 0.000000 -0.003442 0.000000
# 3 0.001051 0.005253 0.036066 0.000000 -0.037024 0.000000
# 4 0.000000 0.000000 0.000000 -0.424068 0.000000 -0.546947
# 5 -0.010946 -0.003442 -0.037024 0.000000 0.085434 0.000000
# 6 0.000000 0.000000 0.000000 -0.546947 0.000000 -0.550372
#
#
# Mechanical properties :
#
#
# Convention : Reuss Voigt Hill
#
# Bulk Modulus (GPa) = 12.69836 32.96033 22.82935
# Shear Modulus (GPa) = -6.20425 23.67541 8.73558
#
# Velocity S-wave (km/s) = -1.68776 3.29696 2.00268
# Velocity P-wave (km/s) = 1.42552 5.44299 3.97858
#
# Compressibility (1/GPa) = 0.07875031
#
# Stress axis : x y z
#
# Youngs Moduli (GPa) = 113.60715 43.60137 27.72699
#
# Poissons Ratio (x) = 0.03619 -0.02914
# Poissons Ratio (y) = 0.09430 -0.14564
# Poissons Ratio (z) = -0.11941 -0.22902
#
# Static dielectric constant tensor:
#      x y z
#    x 1.832590 0.000000 0.017710 
#    y 0.000000 1.841450 0.000000 
#    z 0.017710 0.000000 1.833220 
# 
# From -- ./inp_files/375611.got.cif
#   From: 2010.05.17/outbox.cif.g08.bks.cpg/sg12_188_cif.got.tgz:375611.got - 2010.06.03 13:09:07.
