data_PCOD9203981
_publ_section_title
;
Structure prediction by ZEFSAII (Michael W. Deem and Ramdas Pophale) SiO2 
 PCOD9203981
Probable space group: C 2/M
;
_chemical_formula_sum "Si O2"
_cell_formula_units_Z 54
_cell_length_a 21.222563
_cell_length_b 20.820803
_cell_length_c 5.168923
_cell_angle_alpha 90.000000
_cell_angle_beta 85.441277
_cell_angle_gamma 90.000000
_cell_volume 2276.770501
_symmetry_space_group_name_H-M "C 2/M"
_symmetry_group_IT_number 12
_symmetry_cell_setting 'monoclinic'
loop_
_space_group_symop_operation_xyz
x,y,z
-x,y,-z
-x,-y,-z
x,-y,z
1/2+x,1/2+y,z
1/2-x,1/2+y,-z
1/2-x,1/2-y,-z
1/2+x,1/2-y,z
loop_
_atom_site_type_symbol
_atom_site_label
_atom_site_fract_x
_atom_site_fract_y
_atom_site_fract_z
Si Si1 0.500000 0.000000 0.000000
Si Si2 0.161966 0.073755 0.683730
Si Si3 0.156198 0.370764 0.530719
Si Si4 0.560835 0.328828 0.602720
Si Si5 0.597447 0.000000 0.442625
Si Si6 0.731796 0.378103 0.145935
Si Si7 0.442034 0.199851 0.152133
Si Si8 0.339742 0.749498 0.784690
O O1 0.559521 0.000000 0.733067
O O2 0.448521 0.000000 0.788631
O O3 0.103107 0.121830 0.750384
O O4 0.191123 0.091024 0.394717
O O5 0.142442 0.000000 0.695762
O O6 0.213317 0.087389 0.888101
O O7 0.142712 0.437899 0.405958
O O8 0.197442 0.382280 0.772814
O O9 0.086685 0.343256 0.616293
O O10 0.186400 0.310538 0.366462
O O11 0.500000 0.362742 0.500000
O O12 0.531699 0.267341 0.755595
O O13 0.610868 0.293136 0.399584
O O14 0.711779 0.303376 0.123709
O O15 0.500000 0.163904 0.000000
O O16 0.382897 0.220688 0.995603
#
# Coordination Sequence:
#
# PCOD9203981 Si02
#       8
#     2   8   8   8   4   8   8   8
#     4  10  28  54  72  90 148 182 232 302 348 418
#     4  11  25  43  71 102 141 190 230 281 349 406
#     4  11  28  42  70 104 136 186 236 284 358 419
#     4  10  20  40  63 100 141 177 229 285 337 412
#     4  11  28  50  72 104 138 188 233 292 356 424
#     4  11  25  47  69 102 147 180 237 290 335 415
#     4  11  22  39  68 100 134 180 228 288 348 413
#     4  10  22  42  67 102 138 181 227 288 348 405
#
# _framework density 23.717807000000001
#
# number of rings (size 3 to 8) (size 9 to 14) (size 15 to 20)
#    0.000    1.333    2.963    0.889    7.259    2.074 
#    0.000    0.000    0.000    3.111    0.000    0.000 
#    0.000    0.000    0.000    0.000    0.000    0.000 
#
# Total GULP energy -150708.375149 kJ/mol
# GULP energy per Si atom -5581.791672 kJ/mol
# Density = 2.366382 g / cm^3
# Si number density = 23.717807 Si / 1000 Ang^3
#
#
#
# Elastic Constant Matrix: (Units=GPa)
#
#
# Indices 1 2 3 4 5 6 
#
# 1 83.1017 27.6917 10.8211 0.0000 20.2728 0.0000
# 2 27.6917 134.1842 23.9653 0.0000 12.0090 0.0000
# 3 10.8211 23.9653 89.1473 0.0000 14.5922 0.0000
# 4 0.0000 0.0000 0.0000 6.4939 0.0000 7.3696
# 5 20.2728 12.0090 14.5922 0.0000 50.2526 0.0000
# 6 0.0000 0.0000 0.0000 7.3696 0.0000 3.3442
#
#
#
# Elastic Compliance Matrix: (Units=1/GPa)
#
#
# Indices 1 2 3 4 5 6 
#
# 1 0.014099 -0.002416 -0.000237 0.000000 -0.005042 0.000000
# 2 -0.002416 0.008327 -0.001868 0.000000 -0.000473 0.000000
# 3 -0.000237 -0.001868 0.012241 0.000000 -0.003013 0.000000
# 4 0.000000 0.000000 0.000000 -0.102600 0.000000 0.226101
# 5 -0.005042 -0.000473 -0.003013 0.000000 0.022921 0.000000
# 6 0.000000 0.000000 0.000000 0.226101 0.000000 -0.199234
#
#
# Mechanical properties :
#
#
# Convention : Reuss Voigt Hill
#
# Bulk Modulus (GPa) = 39.02229 47.93217 43.47723
# Shear Modulus (GPa) = -22.05929 28.28180 3.11126
#
# Velocity S-wave (km/s) = -3.05302 3.45690 1.14657
# Velocity P-wave (km/s) = 2.01508 6.01555 4.48594
#
# Compressibility (1/GPa) = 0.02562638
#
# Stress axis : x y z
#
# Youngs Moduli (GPa) = 70.92513 120.09143 81.69003
#
# Poissons Ratio (x) = 0.29017 0.01933
# Poissons Ratio (y) = 0.17137 0.15258
# Poissons Ratio (z) = 0.01678 0.22431
#
# Static dielectric constant tensor:
#      x y z
#    x 1.954310 0.000000 -0.067860 
#    y 0.000000 1.873810 0.000000 
#    z -0.067860 0.000000 2.014430 
# 
# From -- ./inp_files/25423.got.cif
#   From: 2010.05.17/outbox.cif.g08.bks.cpg/sg12_13_cif.got.tgz:25423.got - 2010.06.03 13:09:07.
