data_PCOD9203262
_publ_section_title
;
Structure prediction by ZEFSAII (Michael W. Deem and Ramdas Pophale) SiO2 
 PCOD9203262
Probable space group: C 2/M
;
_chemical_formula_sum "Si O2"
_cell_formula_units_Z 40
_cell_length_a 24.693665
_cell_length_b 16.146635
_cell_length_c 8.123009
_cell_angle_alpha 90.000000
_cell_angle_beta 145.431974
_cell_angle_gamma 90.000000
_cell_volume 1837.645909
_symmetry_space_group_name_H-M "C 2/M"
_symmetry_group_IT_number 12
_symmetry_cell_setting 'monoclinic'
loop_
_space_group_symop_operation_xyz
x,y,z
-x,y,-z
-x,-y,-z
x,-y,z
1/2+x,1/2+y,z
1/2-x,1/2+y,-z
1/2-x,1/2-y,-z
1/2+x,1/2-y,z
loop_
_atom_site_type_symbol
_atom_site_label
_atom_site_fract_x
_atom_site_fract_y
_atom_site_fract_z
Si Si1 0.905767 0.239559 0.432184
Si Si2 0.745292 0.624531 0.420066
Si Si3 0.282307 0.795670 0.835920
Si Si4 0.074299 0.411924 0.334396
Si Si5 0.024387 0.092837 0.869766
O O1 0.809024 0.200458 0.271628
O O2 0.934385 0.324165 0.596627
O O3 0.980806 0.165626 0.648501
O O4 0.874334 0.274467 0.175656
O O5 0.734938 0.715191 0.316457
O O6 0.782515 0.630996 0.702068
O O7 0.822363 0.585422 0.493006
O O8 0.638708 0.590402 0.147057
O O9 0.060866 0.500000 0.393493
O O10 0.000000 0.409805 0.000000
O O11 0.987171 0.000000 0.738119
O O12 0.000000 0.112417 0.000000
#
# Coordination Sequence:
#
# PCOD9203262 Si02
#       5
#     8   8   8   8   8
#     4  10  20  39  60  89 124 164 200 252 305 365
#     4  10  20  39  62  89 120 163 205 253 306 371
#     4   9  20  36  60  88 120 165 206 240 303 367
#     4  10  22  40  63  87 117 161 210 256 304 362
#     4  11  22  37  61  95 129 162 201 253 313 374
#
# _framework density 21.766981000000001
#
# number of rings (size 3 to 8) (size 9 to 14) (size 15 to 20)
#    0.000    2.000    2.000    1.200    5.600    0.800 
#    0.000   13.000    0.000    2.400    0.000    0.000 
#    0.000    0.000    0.000    0.000    0.000    0.000 
#
# Total GULP energy -111521.640783 kJ/mol
# GULP energy per Si atom -5576.082039 kJ/mol
# Density = 2.171744 g / cm^3
# Si number density = 21.766981 Si / 1000 Ang^3
#
#
#
# Elastic Constant Matrix: (Units=GPa)
#
#
# Indices 1 2 3 4 5 6 
#
# 1 45.9105 15.7711 25.5766 0.0000 6.3788 0.0000
# 2 15.7711 126.1564 61.5148 0.0000 -6.2870 0.0000
# 3 25.5766 61.5148 129.8726 0.0000 -6.0075 0.0000
# 4 0.0000 0.0000 0.0000 50.3278 0.0000 66.9044
# 5 6.3788 -6.2870 -6.0075 0.0000 32.8983 0.0000
# 6 0.0000 0.0000 0.0000 66.9044 0.0000 106.5210
#
#
#
# Elastic Compliance Matrix: (Units=1/GPa)
#
#
# Indices 1 2 3 4 5 6 
#
# 1 0.025697 -0.001184 -0.004781 0.000000 -0.006082 0.000000
# 2 -0.001184 0.010400 -0.004630 0.000000 0.001372 0.000000
# 3 -0.004781 -0.004630 0.010928 0.000000 0.002038 0.000000
# 4 0.000000 0.000000 0.000000 0.120394 0.000000 -0.075618
# 5 -0.006082 0.001372 0.002038 0.000000 0.032210 0.000000
# 6 0.000000 0.000000 0.000000 -0.075618 0.000000 0.056883
#
#
# Mechanical properties :
#
#
# Convention : Reuss Voigt Hill
#
# Bulk Modulus (GPa) = 38.70553 56.40718 47.55636
# Shear Modulus (GPa) = 17.46331 51.22122 34.34226
#
# Velocity S-wave (km/s) = 2.83554 4.85620 3.97637
# Velocity P-wave (km/s) = 5.34235 7.57720 6.55571
#
# Compressibility (1/GPa) = 0.02583610
#
# Stress axis : x y z
#
# Youngs Moduli (GPa) = 38.91534 96.14935 91.50387
#
# Poissons Ratio (x) = 0.11386 0.43748
# Poissons Ratio (y) = 0.04609 0.42362
# Poissons Ratio (z) = 0.18606 0.44513
#
# Static dielectric constant tensor:
#      x y z
#    x 1.882280 0.000000 0.003660 
#    y 0.000000 1.839010 0.000000 
#    z 0.003660 0.000000 1.787200 
# 
# From -- ./inp_files/112526.got.cif
#   From: 2010.05.17/outbox.cif.g08.bks.cpg/sg12_57_cif.got.tgz:112526.got - 2010.06.03 13:09:07.
