data_PCOD9203283
_publ_section_title
;
Structure prediction by ZEFSAII (Michael W. Deem and Ramdas Pophale) SiO2 
 PCOD9203283
Probable space group: C 2/M
;
_chemical_formula_sum "Si O2"
_cell_formula_units_Z 42
_cell_length_a 14.495204
_cell_length_b 7.500895
_cell_length_c 26.782599
_cell_angle_alpha 90.000000
_cell_angle_beta 42.082537
_cell_angle_gamma 90.000000
_cell_volume 1951.618147
_symmetry_space_group_name_H-M "C 2/M"
_symmetry_group_IT_number 12
_symmetry_cell_setting 'monoclinic'
loop_
_space_group_symop_operation_xyz
x,y,z
-x,y,-z
-x,-y,-z
x,-y,z
1/2+x,1/2+y,z
1/2-x,1/2+y,-z
1/2-x,1/2-y,-z
1/2+x,1/2-y,z
loop_
_atom_site_type_symbol
_atom_site_label
_atom_site_fract_x
_atom_site_fract_y
_atom_site_fract_z
Si Si1 0.665301 0.217972 0.877935
Si Si2 0.162238 0.787354 0.584901
Si Si3 0.339232 0.206726 0.608714
Si Si4 0.351600 0.212621 0.004220
Si Si5 0.000000 0.000000 0.500000
Si Si6 0.652017 0.715784 0.287703
O O1 0.698772 0.276066 0.921079
O O2 0.767626 0.278370 0.793556
O O3 0.668891 0.000000 0.875398
O O4 0.507567 0.275689 0.932014
O O5 0.250000 0.750000 0.500000
O O6 0.242428 0.724574 0.602517
O O7 0.006152 0.718743 0.647030
O O8 0.154631 0.000000 0.593050
O O9 0.466241 0.342244 0.554666
O O10 0.278299 0.225137 0.688427
O O11 0.374328 0.000000 0.586374
O O12 0.362522 0.000000 0.004301
O O13 0.250000 0.250000 0.000000
O O14 0.651312 0.500000 0.287127
#
# Coordination Sequence:
#
# PCOD9203283 Si02
#       6
#     8   8   8   8   2   8
#     4   8  17  34  57  82 117 158 198 232 290 366
#     4  10  23  37  56  82 112 147 197 250 301 355
#     4  11  24  40  59  89 118 150 200 258 305 362
#     4   9  17  33  57  87 117 156 196 239 288 351
#     4  12  22  40  64  82 112 160 198 242 320 356
#     4  10  20  39  61  83 115 162 201 246 310 367
#
# _framework density 21.520603000000001
#
# number of rings (size 3 to 8) (size 9 to 14) (size 15 to 20)
#    0.000    2.286    0.952    2.571    4.000    3.810 
#    0.000    5.714    0.000    0.000    0.000    0.000 
#    0.000    0.000    0.000    0.000    0.000    0.000 
#
# Total GULP energy -117007.073868 kJ/mol
# GULP energy per Si atom -5571.765422 kJ/mol
# Density = 2.147162 g / cm^3
# Si number density = 21.520603 Si / 1000 Ang^3
#
#
#
# Elastic Constant Matrix: (Units=GPa)
#
#
# Indices 1 2 3 4 5 6 
#
# 1 174.6140 -1.1364 103.2956 0.0001 27.9280 0.0008
# 2 -1.1364 92.4226 9.3196 0.0006 1.1158 0.0023
# 3 103.2956 9.3196 206.4351 0.0000 36.9495 0.0002
# 4 0.0001 0.0006 0.0000 10.8610 0.0000 5.7300
# 5 27.9280 1.1158 36.9495 0.0000 24.4098 -0.0002
# 6 0.0008 0.0023 0.0002 5.7300 -0.0002 11.6801
#
#
#
# Elastic Compliance Matrix: (Units=1/GPa)
#
#
# Indices 1 2 3 4 5 6 
#
# 1 0.008504 0.000509 -0.003474 0.000000 -0.004495 -0.000001
# 2 0.000509 0.010902 -0.000759 0.000001 0.000068 -0.000002
# 3 -0.003474 -0.000759 0.008091 0.000000 -0.008239 0.000000
# 4 0.000000 0.000001 0.000000 0.124224 -0.000001 -0.060942
# 5 -0.004495 0.000068 -0.008239 -0.000001 0.058578 0.000002
# 6 -0.000001 -0.000002 0.000000 -0.060942 0.000002 0.115513
#
#
# Mechanical properties :
#
#
# Convention : Reuss Voigt Hill
#
# Bulk Modulus (GPa) = 49.87619 77.38102 63.62860
# Shear Modulus (GPa) = 14.70838 33.52302 24.11570
#
# Velocity S-wave (km/s) = 2.61713 3.95107 3.35115
# Velocity P-wave (km/s) = 5.68848 7.53986 6.67863
#
# Compressibility (1/GPa) = 0.02004965
#
# Stress axis : x y z
#
# Youngs Moduli (GPa) = 117.59077 91.72756 123.59073
#
# Poissons Ratio (x) = -0.04670 0.42932
# Poissons Ratio (y) = -0.05987 0.09382
# Poissons Ratio (z) = 0.40848 0.06963
#
# Static dielectric constant tensor:
#      x y z
#    x 1.875620 0.000000 -0.007780 
#    y 0.000000 1.812770 0.000000 
#    z -0.007780 0.000000 1.804310 
# 
# From -- ./inp_files/267040.got.cif
#   From: 2010.05.17/outbox.cif.g08.bks.cpg/sg12_134_cif.got.tgz:267040.got - 2010.06.03 13:09:07.
