data_PCOD9203424
_publ_section_title
;
Structure prediction by ZEFSAII (Michael W. Deem and Ramdas Pophale) SiO2 
 PCOD9203424
Probable space group: C 2/M
;
_chemical_formula_sum "Si O2"
_cell_formula_units_Z 64
_cell_length_a 16.284911
_cell_length_b 7.675316
_cell_length_c 31.482221
_cell_angle_alpha 90.000000
_cell_angle_beta 130.932018
_cell_angle_gamma 90.000000
_cell_volume 2972.858804
_symmetry_space_group_name_H-M "C 2/M"
_symmetry_group_IT_number 12
_symmetry_cell_setting 'monoclinic'
loop_
_space_group_symop_operation_xyz
x,y,z
-x,y,-z
-x,-y,-z
x,-y,z
1/2+x,1/2+y,z
1/2-x,1/2+y,-z
1/2-x,1/2-y,-z
1/2+x,1/2-y,z
loop_
_atom_site_type_symbol
_atom_site_label
_atom_site_fract_x
_atom_site_fract_y
_atom_site_fract_z
Si Si1 0.141416 0.292375 0.437375
Si Si2 0.768475 0.794812 0.674014
Si Si3 0.750261 0.290237 0.067732
Si Si4 0.424577 0.708472 0.060751
Si Si5 0.685620 0.703902 0.736757
Si Si6 0.327750 0.288106 0.866435
Si Si7 0.955312 0.286881 0.439342
Si Si8 0.049053 0.799352 0.319516
O O1 0.135727 0.500000 0.429676
O O2 0.250000 0.250000 0.500000
O O3 0.128928 0.207687 0.387137
O O4 0.039440 0.234632 0.431350
O O5 0.743512 0.781005 0.715123
O O6 0.664395 0.723298 0.613287
O O7 0.882447 0.720185 0.696005
O O8 0.773017 0.000000 0.665139
O O9 0.743745 0.500000 0.066102
O O10 0.865616 0.244876 0.085564
O O11 0.724227 0.229654 0.106433
O O12 0.657116 0.224549 0.003580
O O13 0.429092 0.500000 0.057481
O O14 0.547360 0.772129 0.096603
O O15 0.673581 0.500000 0.722675
O O16 0.757071 0.727892 0.802792
O O17 0.565632 0.780912 0.705165
O O18 0.328094 0.500000 0.866500
O O19 0.953689 0.500000 0.439180
O O20 0.000000 0.229791 0.500000
O O21 0.022360 0.000000 0.299662
#
# Coordination Sequence:
#
# PCOD9203424 Si02
#       8
#     8   8   8   8   8   8   8   8
#     4  11  21  34  56  85 116 148 182 226 278 338
#     4  10  20  39  63  82 107 149 191 226 277 348
#     4   9  18  34  57  86 118 151 189 237 288 336
#     4   9  18  34  57  85 117 152 191 236 285 338
#     4  11  24  40  57  83 117 148 187 246 294 330
#     4  10  21  37  58  81 111 155 200 233 275 344
#     4   9  17  31  54  82 109 139 179 220 263 328
#     4  10  22  40  61  82 110 146 185 232 287 340
#
# _framework density 21.528099000000001
#
# number of rings (size 3 to 8) (size 9 to 14) (size 15 to 20)
#    0.000    2.125    1.250    1.875    0.000    6.500 
#    0.000    3.750    0.000    5.625    0.000    0.000 
#    0.000    0.000    0.000    0.000    0.000    0.000 
#
# Total GULP energy -178726.855092 kJ/mol
# GULP energy per Si atom -5585.214222 kJ/mol
# Density = 2.147910 g / cm^3
# Si number density = 21.528099 Si / 1000 Ang^3
#
#
#
# Elastic Constant Matrix: (Units=GPa)
#
#
# Indices 1 2 3 4 5 6 
#
# 1 167.6049 -1.4440 43.9636 0.0000 -22.8129 0.0000
# 2 -1.4440 41.7805 -13.0192 0.0000 3.1956 0.0000
# 3 43.9636 -13.0192 74.3047 0.0000 -20.2014 0.0000
# 4 0.0000 0.0000 0.0000 15.7869 0.0000 -1.7701
# 5 -22.8129 3.1956 -20.2014 0.0000 22.5302 0.0000
# 6 0.0000 0.0000 0.0000 -1.7701 0.0000 15.9671
#
#
#
# Elastic Compliance Matrix: (Units=1/GPa)
#
#
# Indices 1 2 3 4 5 6 
#
# 1 0.007477 -0.001143 -0.003335 0.000000 0.004743 0.000000
# 2 -0.001143 0.025496 0.005086 0.000000 -0.000214 0.000000
# 3 -0.003335 0.005086 0.020110 0.000000 0.013934 0.000000
# 4 0.000000 0.000000 0.000000 0.064141 0.000000 0.007111
# 5 0.004743 -0.000214 0.013934 0.000000 0.061711 0.000000
# 6 0.000000 0.000000 0.000000 0.007111 0.000000 0.063417
#
#
# Mechanical properties :
#
#
# Convention : Reuss Voigt Hill
#
# Bulk Modulus (GPa) = 18.41676 38.07677 28.24677
# Shear Modulus (GPa) = 19.28734 27.80280 23.54507
#
# Velocity S-wave (km/s) = 2.99643 3.59760 3.31069
# Velocity P-wave (km/s) = 4.53264 5.91459 5.26911
#
# Compressibility (1/GPa) = 0.05429836
#
# Stress axis : x y z
#
# Youngs Moduli (GPa) = 133.74673 39.22149 49.72538
#
# Poissons Ratio (x) = 0.04485 0.16582
# Poissons Ratio (y) = 0.15294 -0.25288
# Poissons Ratio (z) = 0.44601 -0.19947
#
# Static dielectric constant tensor:
#      x y z
#    x 1.804100 0.000000 0.017760 
#    y 0.000000 1.827020 0.000000 
#    z 0.017760 0.000000 1.759800 
# 
# From -- ./inp_files/375603.got.cif
#   From: 2010.05.17/outbox.cif.g08.bks.cpg/sg12_188_cif.got.tgz:375603.got - 2010.06.03 13:09:07.
