data_PCOD9203604
_publ_section_title
;
Structure prediction by ZEFSAII (Michael W. Deem and Ramdas Pophale) SiO2 
 PCOD9203604
Probable space group: C 2/M
;
_chemical_formula_sum "Si O2"
_cell_formula_units_Z 48
_cell_length_a 19.209737
_cell_length_b 26.131283
_cell_length_c 8.060665
_cell_angle_alpha 90.000000
_cell_angle_beta 145.228435
_cell_angle_gamma 90.000000
_cell_volume 2307.602206
_symmetry_space_group_name_H-M "C 2/M"
_symmetry_group_IT_number 12
_symmetry_cell_setting 'monoclinic'
loop_
_space_group_symop_operation_xyz
x,y,z
-x,y,-z
-x,-y,-z
x,-y,z
1/2+x,1/2+y,z
1/2-x,1/2+y,-z
1/2-x,1/2-y,-z
1/2+x,1/2-y,z
loop_
_atom_site_type_symbol
_atom_site_label
_atom_site_fract_x
_atom_site_fract_y
_atom_site_fract_z
Si Si1 0.711899 0.058114 0.269339
Si Si2 0.200938 0.311135 0.568697
Si Si3 0.888598 0.113977 0.878523
Si Si4 0.262036 0.303473 0.292934
Si Si5 0.076666 0.900884 0.486295
Si Si6 0.537047 0.136240 0.758931
O O1 0.790666 0.084701 0.572069
O O2 0.806294 0.062870 0.299475
O O3 0.682665 0.000000 0.251686
O O4 0.596532 0.091276 0.986095
O O5 0.315001 0.346137 0.846244
O O6 0.223697 0.307883 0.413694
O O7 0.201105 0.255323 0.650113
O O8 0.078039 0.340136 0.372541
O O9 0.000000 0.142671 0.000000
O O10 0.975586 0.078551 0.157663
O O11 0.364858 0.345056 0.444987
O O12 0.142944 0.320629 0.958029
O O13 0.000000 0.897329 0.500000
O O14 0.500000 0.120501 0.500000
#
# Coordination Sequence:
#
# PCOD9203604 Si02
#       6
#     8   8   8   8   8   8
#     4  10  23  46  68  92 125 170 226 274 326 387
#     4  11  22  39  67  88 131 173 222 252 316 384
#     4  10  20  39  64  94 124 165 218 272 315 374
#     4  10  23  40  62  95 127 178 217 259 309 390
#     4  10  22  40  65  96 138 165 209 274 331 383
#     4  11  25  42  62  96 134 169 214 272 323 383
#
# _framework density 20.800812000000001
#
# number of rings (size 3 to 8) (size 9 to 14) (size 15 to 20)
#    0.000    1.667    5.000    0.500    7.000    5.000 
#    0.000    1.667    0.000    0.000    0.000    0.000 
#    0.000    0.000    0.000    0.000    0.000    0.000 
#
# Total GULP energy -133667.787600 kJ/mol
# GULP energy per Si atom -5569.491150 kJ/mol
# Density = 2.075347 g / cm^3
# Si number density = 20.800812 Si / 1000 Ang^3
#
#
#
# Elastic Constant Matrix: (Units=GPa)
#
#
# Indices 1 2 3 4 5 6 
#
# 1 53.5160 5.5556 11.7263 0.0000 12.3067 0.0000
# 2 5.5556 126.1222 40.8722 0.0000 13.6735 0.0000
# 3 11.7263 40.8722 109.7251 0.0000 14.2849 0.0000
# 4 0.0000 0.0000 0.0000 10.5586 0.0000 0.0025
# 5 12.3067 13.6735 14.2849 0.0000 23.6881 0.0000
# 6 0.0000 0.0000 0.0000 0.0025 0.0000 3.3852
#
#
#
# Elastic Compliance Matrix: (Units=1/GPa)
#
#
# Indices 1 2 3 4 5 6 
#
# 1 0.021341 0.000582 -0.001096 0.000000 -0.010762 0.000000
# 2 0.000582 0.009301 -0.003026 0.000000 -0.003846 0.000000
# 3 -0.001096 -0.003026 0.010913 0.000000 -0.004265 0.000000
# 4 0.000000 0.000000 0.000000 0.094709 0.000000 -0.000069
# 5 -0.010762 -0.003846 -0.004265 0.000000 0.052598 0.000000
# 6 0.000000 0.000000 0.000000 -0.000069 0.000000 0.295403
#
#
# Mechanical properties :
#
#
# Convention : Reuss Voigt Hill
#
# Bulk Modulus (GPa) = 29.00736 45.07460 37.04098
# Shear Modulus (GPa) = 9.94357 22.94033 16.44195
#
# Velocity S-wave (km/s) = 2.18878 3.32453 2.81454
# Velocity P-wave (km/s) = 4.51257 6.03766 5.32994
#
# Compressibility (1/GPa) = 0.03447401
#
# Stress axis : x y z
#
# Youngs Moduli (GPa) = 46.85887 107.51775 91.63166
#
# Poissons Ratio (x) = -0.06258 0.10047
# Poissons Ratio (y) = -0.02727 0.27727
# Poissons Ratio (z) = 0.05138 0.32535
#
# Static dielectric constant tensor:
#      x y z
#    x 1.835000 0.000000 -0.076240 
#    y 0.000000 1.751720 0.000000 
#    z -0.076240 0.000000 1.806590 
# 
# From -- ./inp_files/91263.got.cif
#   From: 2010.05.17/outbox.cif.g08.bks.cpg/sg12_46_cif.got.tgz:91263.got - 2010.06.03 13:09:07.
