data_PCOD9203863
_publ_section_title
;
Structure prediction by ZEFSAII (Michael W. Deem and Ramdas Pophale) SiO2 
 PCOD9203863
Probable space group: C 2/M
;
_chemical_formula_sum "Si O2"
_cell_formula_units_Z 64
_cell_length_a 15.989023
_cell_length_b 18.262758
_cell_length_c 14.620780
_cell_angle_alpha 90.000000
_cell_angle_beta 47.098089
_cell_angle_gamma 90.000000
_cell_volume 3127.364022
_symmetry_space_group_name_H-M "C 2/M"
_symmetry_group_IT_number 12
_symmetry_cell_setting 'monoclinic'
loop_
_space_group_symop_operation_xyz
x,y,z
-x,y,-z
-x,-y,-z
x,-y,z
1/2+x,1/2+y,z
1/2-x,1/2+y,-z
1/2-x,1/2-y,-z
1/2+x,1/2-y,z
loop_
_atom_site_type_symbol
_atom_site_label
_atom_site_fract_x
_atom_site_fract_y
_atom_site_fract_z
Si Si1 0.210639 0.144795 0.889562
Si Si2 0.167629 0.271685 0.438829
Si Si3 0.037869 0.153037 0.180774
Si Si4 0.811150 0.914530 0.292963
Si Si5 0.310813 0.701297 0.762707
Si Si6 0.632052 0.085499 0.919968
Si Si7 0.408825 0.208791 0.310414
Si Si8 0.920711 0.415541 0.834676
O O1 0.165335 0.109904 0.829474
O O2 0.237893 0.231191 0.859582
O O3 0.332799 0.109542 0.822771
O O4 0.123596 0.131150 0.036686
O O5 0.215210 0.355108 0.393862
O O6 0.131285 0.237966 0.369201
O O7 0.278255 0.222639 0.382594
O O8 0.084448 0.271729 0.586836
O O9 0.106036 0.165090 0.224304
O O10 0.926948 0.101007 0.264012
O O11 0.984314 0.232810 0.199075
O O12 0.779377 0.000000 0.321914
O O13 0.219554 0.638692 0.805476
O O14 0.650037 0.000000 0.883983
O O15 0.500000 0.103120 0.000000
O O16 0.643276 0.095469 0.020920
O O17 0.464495 0.131078 0.253045
O O18 0.948081 0.500000 0.805859
#
# Coordination Sequence:
#
# PCOD9203863 Si02
#       8
#     8   8   8   8   8   8   8   8
#     4  11  21  37  56  87 122 154 195 242 294 364
#     4   9  22  39  63  84 116 159 202 256 288 344
#     4  11  21  35  60  83 118 156 193 244 288 352
#     4  10  23  40  59  88 122 159 197 241 305 367
#     4  11  20  36  59  84 114 159 198 243 294 347
#     4  10  21  35  54  86 122 154 193 242 297 357
#     4  10  20  40  58  88 117 151 209 245 294 349
#     4  11  21  34  58  88 122 156 189 243 307 361
#
# _framework density 20.46452
#
# number of rings (size 3 to 8) (size 9 to 14) (size 15 to 20)
#    0.000    1.625    2.500    2.625    0.000    5.000 
#    0.000    0.000    0.000    5.250    0.000    8.750 
#    0.000    0.000    0.000    0.000    0.000    0.000 
#
# Total GULP energy -178692.354709 kJ/mol
# GULP energy per Si atom -5584.136085 kJ/mol
# Density = 2.041794 g / cm^3
# Si number density = 20.464520 Si / 1000 Ang^3
#
#
#
# Elastic Constant Matrix: (Units=GPa)
#
#
# Indices 1 2 3 4 5 6 
#
# 1 71.5091 27.2897 5.2154 0.0000 8.0196 0.0000
# 2 27.2897 114.1853 28.6099 0.0000 -10.6187 0.0000
# 3 5.2154 28.6099 44.1148 0.0000 -0.1279 0.0000
# 4 0.0000 0.0000 0.0000 13.5487 0.0000 -3.2514
# 5 8.0196 -10.6187 -0.1279 0.0000 19.5902 0.0000
# 6 0.0000 0.0000 0.0000 -3.2514 0.0000 14.4827
#
#
#
# Elastic Compliance Matrix: (Units=1/GPa)
#
#
# Indices 1 2 3 4 5 6 
#
# 1 0.017024 -0.005342 0.001423 0.000000 -0.009855 0.000000
# 2 -0.005342 0.012792 -0.007638 0.000000 0.009071 0.000000
# 3 0.001423 -0.007638 0.027440 0.000000 -0.004544 0.000000
# 4 0.000000 0.000000 0.000000 0.078011 0.000000 0.017514
# 5 -0.009855 0.009071 -0.004544 0.000000 0.059967 0.000000
# 6 0.000000 0.000000 0.000000 0.017514 0.000000 0.072980
#
#
# Mechanical properties :
#
#
# Convention : Reuss Voigt Hill
#
# Bulk Modulus (GPa) = 29.28879 39.11546 34.20212
# Shear Modulus (GPa) = 16.51754 20.77059 18.64407
#
# Velocity S-wave (km/s) = 2.84409 3.18929 3.02162
# Velocity P-wave (km/s) = 5.01280 5.71991 5.37799
#
# Compressibility (1/GPa) = 0.03414276
#
# Stress axis : x y z
#
# Youngs Moduli (GPa) = 58.73961 78.17615 36.44291
#
# Poissons Ratio (x) = 0.41760 -0.05186
# Poissons Ratio (y) = 0.31378 0.27835
# Poissons Ratio (z) = -0.08359 0.59711
#
# Static dielectric constant tensor:
#      x y z
#    x 1.808140 0.000000 0.029980 
#    y 0.000000 1.709050 0.000000 
#    z 0.029980 0.000000 1.733870 
# 
# From -- ./inp_files/225694.got.cif
#   From: 2010.05.17/outbox.cif.g08.bks.cpg/sg12_113_cif.got.tgz:225694.got - 2010.06.03 13:09:07.
