data_PCOD9203049
_publ_section_title
;
Structure prediction by ZEFSAII (Michael W. Deem and Ramdas Pophale) SiO2 
 PCOD9203049
Probable space group: C 2/M
;
_chemical_formula_sum "Si O2"
_cell_formula_units_Z 60
_cell_length_a 18.349586
_cell_length_b 9.303253
_cell_length_c 19.081078
_cell_angle_alpha 90.000000
_cell_angle_beta 50.606560
_cell_angle_gamma 90.000000
_cell_volume 2517.297992
_symmetry_space_group_name_H-M "C 2/M"
_symmetry_group_IT_number 12
_symmetry_cell_setting 'monoclinic'
loop_
_space_group_symop_operation_xyz
x,y,z
-x,y,-z
-x,-y,-z
x,-y,z
1/2+x,1/2+y,z
1/2-x,1/2+y,-z
1/2-x,1/2-y,-z
1/2+x,1/2-y,z
loop_
_atom_site_type_symbol
_atom_site_label
_atom_site_fract_x
_atom_site_fract_y
_atom_site_fract_z
Si Si1 0.215277 0.000000 0.035623
Si Si2 0.971164 0.172909 0.223069
Si Si3 0.405103 0.166244 0.130211
Si Si4 0.661827 0.830213 0.589609
Si Si5 0.688107 0.336718 0.314202
Si Si6 0.678262 0.733375 0.959101
Si Si7 0.379384 0.836851 0.773809
Si Si8 0.098494 0.338387 0.479699
O O1 0.282403 0.877390 0.030905
O O2 0.151473 0.875936 0.035758
O O3 0.962479 0.241971 0.151376
O O4 0.881971 0.240130 0.320496
O O5 0.058110 0.235885 0.215142
O O6 0.968612 0.000000 0.225541
O O7 0.296905 0.165410 0.225218
O O8 0.393279 0.231453 0.059745
O O9 0.436843 0.000000 0.109171
O O10 0.750000 0.750000 0.500000
O O11 0.588390 0.826131 0.569022
O O12 0.678334 0.000000 0.596637
O O13 0.653991 0.500000 0.327680
O O14 0.633168 0.233372 0.294367
O O15 0.668159 0.277793 0.403535
O O16 0.772721 0.659725 0.868911
O O17 0.415771 0.000000 0.751365
O O18 0.135757 0.500000 0.443195
O O19 0.000000 0.323107 0.500000
#
# Coordination Sequence:
#
# PCOD9203049 Si02
#       8
#     4   8   8   8   8   8   8   8
#     4  10  20  38  66 102 128 152 196 240 292 352
#     4  12  26  39  60  87 121 162 205 257 303 357
#     4  10  21  39  60  87 121 156 197 241 295 348
#     4  11  23  40  60  83 116 158 206 253 307 365
#     4  10  21  35  58  86 113 148 196 253 297 350
#     4  10  21  38  68  98 125 159 197 243 289 354
#     4  11  22  39  61  88 123 162 203 243 303 357
#     4  10  21  36  54  77 108 148 194 245 302 354
#
# _framework density 23.835080999999999
#
# number of rings (size 3 to 8) (size 9 to 14) (size 15 to 20)
#    0.000    1.467    1.333    4.000    2.800    5.600 
#    0.000    0.000    0.000    4.800    0.000    0.000 
#    0.000    0.000    0.000    0.000    0.000    0.000 
#
# Total GULP energy -167474.348161 kJ/mol
# GULP energy per Si atom -5582.478272 kJ/mol
# Density = 2.378083 g / cm^3
# Si number density = 23.835081 Si / 1000 Ang^3
#
#
#
# Elastic Constant Matrix: (Units=GPa)
#
#
# Indices 1 2 3 4 5 6 
#
# 1 145.3105 65.4062 27.1324 0.0000 26.8432 0.0000
# 2 65.4062 208.5216 55.2656 0.0000 22.9932 0.0000
# 3 27.1324 55.2656 91.9617 0.0000 15.8014 0.0000
# 4 0.0000 0.0000 0.0000 -175.0904 0.0000 -34.4420
# 5 26.8432 22.9932 15.8014 0.0000 45.7351 0.0000
# 6 0.0000 0.0000 0.0000 -34.4420 0.0000 21.6966
#
#
#
# Elastic Compliance Matrix: (Units=1/GPa)
#
#
# Indices 1 2 3 4 5 6 
#
# 1 0.008659 -0.002133 -0.000621 0.000000 -0.003795 0.000000
# 2 -0.002133 0.006371 -0.003045 0.000000 -0.000899 0.000000
# 3 -0.000621 -0.003045 0.013354 0.000000 -0.002719 0.000000
# 4 0.000000 0.000000 0.000000 -0.004352 0.000000 -0.006909
# 5 -0.003795 -0.000899 -0.002719 0.000000 0.025484 0.000000
# 6 0.000000 0.000000 0.000000 -0.006909 0.000000 0.035123
#
#
# Mechanical properties :
#
#
# Convention : Reuss Voigt Hill
#
# Bulk Modulus (GPa) = 59.57054 82.37803 70.97429
# Shear Modulus (GPa) = 49.10092 -1.66578 23.71757
#
# Velocity S-wave (km/s) = 4.54368 -0.83690 3.15789
# Velocity P-wave (km/s) = 7.25077 5.80542 6.56797
#
# Compressibility (1/GPa) = 0.01678682
#
# Stress axis : x y z
#
# Youngs Moduli (GPa) = 115.48779 156.96523 74.88268
#
# Poissons Ratio (x) = 0.33481 0.04648
# Poissons Ratio (y) = 0.24633 0.22801
# Poissons Ratio (z) = 0.07169 0.47793
#
# Static dielectric constant tensor:
#      x y z
#    x 1.913880 0.000000 -0.034840 
#    y 0.000000 1.813110 0.000000 
#    z -0.034840 0.000000 2.018740 
# 
# From -- ./inp_files/314281.got.cif
#   From: 2010.05.17/outbox.cif.g08.bks.cpg/sg12_158_cif.got.tgz:314281.got - 2010.06.03 13:09:07.
