data_PCOD9203451
_publ_section_title
;
Structure prediction by ZEFSAII (Michael W. Deem and Ramdas Pophale) SiO2 
 PCOD9203451
Probable space group: C 2/M
;
_chemical_formula_sum "Si O2"
_cell_formula_units_Z 40
_cell_length_a 13.265782
_cell_length_b 15.208238
_cell_length_c 18.780923
_cell_angle_alpha 90.000000
_cell_angle_beta 146.455825
_cell_angle_gamma 90.000000
_cell_volume 2093.744345
_symmetry_space_group_name_H-M "C 2/M"
_symmetry_group_IT_number 12
_symmetry_cell_setting 'monoclinic'
loop_
_space_group_symop_operation_xyz
x,y,z
-x,y,-z
-x,-y,-z
x,-y,z
1/2+x,1/2+y,z
1/2-x,1/2+y,-z
1/2-x,1/2-y,-z
1/2+x,1/2-y,z
loop_
_atom_site_type_symbol
_atom_site_label
_atom_site_fract_x
_atom_site_fract_y
_atom_site_fract_z
Si Si1 0.777071 0.648296 0.538871
Si Si2 0.716360 0.500000 0.127175
Si Si3 0.664073 0.173900 0.041544
Si Si4 0.495099 0.500000 0.412992
Si Si5 0.414904 0.158607 0.166541
Si Si6 0.996415 0.500000 0.583341
Si Si7 0.282427 0.000000 0.862746
O O1 0.750000 0.750000 0.500000
O O2 0.599452 0.588005 0.447658
O O3 0.893446 0.587814 0.552015
O O4 0.893176 0.652227 0.680353
O O5 0.792236 0.582668 0.128385
O O6 0.809678 0.500000 0.260538
O O7 0.500000 0.500000 0.000000
O O8 0.806774 0.252174 0.119655
O O9 0.774756 0.088663 0.132346
O O10 0.500000 0.193438 0.000000
O O11 0.575984 0.153217 0.913087
O O12 0.500000 0.500000 0.500000
O O13 0.294126 0.500000 0.261388
O O14 0.000000 0.500000 0.500000
O O15 0.500000 0.000000 0.000000
#
# Coordination Sequence:
#
# PCOD9203451 Si02
#       7
#     8   4   8   4   8   4   4
#     4  10  22  42  63  86 127 162 203 251 314 363
#     4  10  20  39  63  87 118 159 204 242 309 352
#     4  10  21  37  60  89 123 155 207 249 303 359
#     4  11  25  39  63  94 122 160 209 251 306 378
#     4  10  21  39  60  88 123 161 198 256 298 364
#     4   9  21  43  61  89 121 158 206 254 296 369
#     4  10  22  37  60  86 120 152 199 244 301 360
#
# _framework density 19.104528999999999
#
# number of rings (size 3 to 8) (size 9 to 14) (size 15 to 20)
#    0.000    2.000    0.000    3.000    5.600    0.800 
#   21.600    0.000    0.000    0.000    0.000    0.000 
#    0.000    0.000    0.000    0.000    0.000    0.000 
#
# Total GULP energy -111583.916038 kJ/mol
# GULP energy per Si atom -5579.195802 kJ/mol
# Density = 1.906105 g / cm^3
# Si number density = 19.104529 Si / 1000 Ang^3
#
#
#
# Elastic Constant Matrix: (Units=GPa)
#
#
# Indices 1 2 3 4 5 6 
#
# 1 77.6989 21.5507 60.9382 0.0010 -24.7059 0.0005
# 2 21.5507 135.6448 49.6371 0.0016 -10.3622 0.0008
# 3 60.9382 49.6371 149.2644 0.0031 -17.4957 0.0017
# 4 0.0010 0.0016 0.0031 26.7747 0.0013 -4.9140
# 5 -24.7059 -10.3622 -17.4957 0.0013 38.8271 0.0006
# 6 0.0005 0.0008 0.0017 -4.9140 0.0006 16.6094
#
#
#
# Elastic Compliance Matrix: (Units=1/GPa)
#
#
# Indices 1 2 3 4 5 6 
#
# 1 0.022509 0.000168 -0.007983 -0.000001 0.010770 0.000000
# 2 0.000168 0.008435 -0.002742 0.000000 0.001122 0.000000
# 3 -0.007983 -0.002742 0.010757 -0.000001 -0.000964 -0.000001
# 4 -0.000001 0.000000 -0.000001 0.039493 -0.000002 0.011684
# 5 0.010770 0.001122 -0.000964 -0.000002 0.032474 -0.000002
# 6 0.000000 0.000000 -0.000001 0.011684 -0.000002 0.063664
#
#
# Mechanical properties :
#
#
# Convention : Reuss Voigt Hill
#
# Bulk Modulus (GPa) = 48.57356 69.65111 59.11234
# Shear Modulus (GPa) = 24.35365 31.80772 28.08068
#
# Velocity S-wave (km/s) = 3.57425 4.08478 3.83801
# Velocity P-wave (km/s) = 6.52028 7.66709 7.11682
#
# Compressibility (1/GPa) = 0.02058733
#
# Stress axis : x y z
#
# Youngs Moduli (GPa) = 44.42625 118.55918 92.95928
#
# Poissons Ratio (x) = -0.01990 0.74209
# Poissons Ratio (y) = -0.00746 0.25488
# Poissons Ratio (z) = 0.35465 0.32507
#
# Static dielectric constant tensor:
#      x y z
#    x 1.626450 0.000000 -0.011950 
#    y 0.000000 1.667230 0.000000 
#    z -0.011950 0.000000 1.648040 
# 
# From -- ./inp_files/59172.got.cif
#   From: 2010.05.17/outbox.cif.g08.bks.cpg/sg12_30_cif.got.tgz:59172.got - 2010.06.03 13:09:07.
