data_PCOD9203805
_publ_section_title
;
Structure prediction by ZEFSAII (Michael W. Deem and Ramdas Pophale) SiO2 
 PCOD9203805
Probable space group: C 2/M
;
_chemical_formula_sum "Si O2"
_cell_formula_units_Z 44
_cell_length_a 11.549718
_cell_length_b 15.188661
_cell_length_c 9.080901
_cell_angle_alpha 90.000000
_cell_angle_beta 77.180349
_cell_angle_gamma 90.000000
_cell_volume 1553.306216
_symmetry_space_group_name_H-M "C 2/M"
_symmetry_group_IT_number 12
_symmetry_cell_setting 'monoclinic'
loop_
_space_group_symop_operation_xyz
x,y,z
-x,y,-z
-x,-y,-z
x,-y,z
1/2+x,1/2+y,z
1/2-x,1/2+y,-z
1/2-x,1/2-y,-z
1/2+x,1/2-y,z
loop_
_atom_site_type_symbol
_atom_site_label
_atom_site_fract_x
_atom_site_fract_y
_atom_site_fract_z
Si Si1 0.828913 0.898986 0.782514
Si Si2 0.078254 0.356344 0.282787
Si Si3 0.824877 0.355598 0.445035
Si Si4 0.500000 0.846368 0.000000
Si Si5 0.409204 0.603887 0.359183
Si Si6 0.323183 0.312499 0.102779
O O1 0.720800 0.896139 0.696262
O O2 0.952028 0.874810 0.663631
O O3 0.846388 0.000000 0.817056
O O4 0.815541 0.852362 0.943046
O O5 0.127934 0.403353 0.416305
O O6 0.192480 0.297221 0.210256
O O7 0.952357 0.314608 0.363931
O O8 0.047236 0.397228 0.131082
O O9 0.692070 0.332115 0.541955
O O10 0.600262 0.775574 0.924515
O O11 0.388312 0.500000 0.406230
O O12 0.386052 0.617986 0.192059
#
# Coordination Sequence:
#
# PCOD9203805 Si02
#       6
#     8   8   8   4   8   8
#     4  11  21  38  67 101 131 166 209 262 322 385
#     4  10  24  43  64  92 128 169 219 270 311 378
#     4  10  22  42  61  88 131 170 202 261 321 373
#     4  12  22  44  69  92 121 176 220 268 322 356
#     4  10  20  39  67  99 131 168 210 260 318 385
#     4  11  22  41  68  96 129 164 217 267 320 376
#
# _framework density 28.326675000000002
#
# number of rings (size 3 to 8) (size 9 to 14) (size 15 to 20)
#    0.000    1.455    1.818    3.273    0.000    2.909 
#    0.000   36.364    0.000    0.000    0.000    0.000 
#    0.000    0.000    0.000    0.000    0.000    0.000 
#
# Total GULP energy -122594.148751 kJ/mol
# GULP energy per Si atom -5572.461307 kJ/mol
# Density = 2.826220 g / cm^3
# Si number density = 28.326675 Si / 1000 Ang^3
#
#
#
# Elastic Constant Matrix: (Units=GPa)
#
#
# Indices 1 2 3 4 5 6 
#
# 1 270.2143 64.3232 70.6501 0.0000 -27.6185 0.0000
# 2 64.3232 77.5454 59.3366 0.0000 -14.8393 0.0000
# 3 70.6501 59.3366 183.3940 0.0000 30.8306 0.0000
# 4 0.0000 0.0000 0.0000 -3.0396 0.0000 42.8976
# 5 -27.6185 -14.8393 30.8306 0.0000 100.4479 0.0000
# 6 0.0000 0.0000 0.0000 42.8976 0.0000 -72.0715
#
#
#
# Elastic Compliance Matrix: (Units=1/GPa)
#
#
# Indices 1 2 3 4 5 6 
#
# 1 0.004810 -0.002890 -0.001127 0.000000 0.001241 0.000000
# 2 -0.002890 0.021011 -0.006403 0.000000 0.004275 0.000000
# 3 -0.001127 -0.006403 0.008614 0.000000 -0.003900 0.000000
# 4 0.000000 0.000000 0.000000 0.044457 0.000000 0.026461
# 5 0.001241 0.004275 -0.003900 0.000000 0.012125 0.000000
# 6 0.000000 0.000000 0.000000 0.026461 0.000000 0.001875
#
#
# Mechanical properties :
#
#
# Convention : Reuss Voigt Hill
#
# Bulk Modulus (GPa) = 73.55733 102.19708 87.87720
# Shear Modulus (GPa) = 42.27816 27.52360 34.90088
#
# Velocity S-wave (km/s) = 3.86751 3.12051 3.51392
# Velocity P-wave (km/s) = 6.77992 7.00998 6.89591
#
# Compressibility (1/GPa) = 0.01359484
#
# Stress axis : x y z
#
# Youngs Moduli (GPa) = 207.88878 47.59452 116.09013
#
# Poissons Ratio (x) = 0.13757 0.13078
# Poissons Ratio (y) = 0.60090 0.74333
# Poissons Ratio (z) = 0.23420 0.30475
#
# Static dielectric constant tensor:
#      x y z
#    x 2.200090 0.000000 -0.036940 
#    y 0.000000 2.147600 0.000000 
#    z -0.036940 0.000000 2.255320 
# 
# From -- ./inp_files/49268.got.cif
#   From: 2010.05.17/outbox.cif.g08.bks.cpg/sg12_25_cif.got.tgz:49268.got - 2010.06.03 13:09:07.
