data_PCOD9203083
_publ_section_title
;
Structure prediction by ZEFSAII (Michael W. Deem and Ramdas Pophale) SiO2 
 PCOD9203083
Probable space group: C 2/M
;
_chemical_formula_sum "Si O2"
_cell_formula_units_Z 52
_cell_length_a 9.456576
_cell_length_b 15.075646
_cell_length_c 33.532594
_cell_angle_alpha 90.000000
_cell_angle_beta 144.749759
_cell_angle_gamma 90.000000
_cell_volume 2759.082358
_symmetry_space_group_name_H-M "C 2/M"
_symmetry_group_IT_number 12
_symmetry_cell_setting 'monoclinic'
loop_
_space_group_symop_operation_xyz
x,y,z
-x,y,-z
-x,-y,-z
x,-y,z
1/2+x,1/2+y,z
1/2-x,1/2+y,-z
1/2-x,1/2-y,-z
1/2+x,1/2-y,z
loop_
_atom_site_type_symbol
_atom_site_label
_atom_site_fract_x
_atom_site_fract_y
_atom_site_fract_z
Si Si1 0.028545 0.224382 0.095514
Si Si2 0.802895 0.900991 0.802678
Si Si3 0.950672 0.500000 0.441533
Si Si4 0.744502 0.657204 0.340660
Si Si5 0.881218 0.343402 0.647261
Si Si6 0.000000 0.746212 0.000000
Si Si7 0.187592 0.895998 0.820543
Si Si8 0.987728 0.000000 0.450713
O O1 0.205444 0.166834 0.163280
O O2 0.062714 0.207280 0.056483
O O3 0.091329 0.326200 0.122213
O O4 0.751761 0.198826 0.044645
O O5 0.571126 0.887699 0.721427
O O6 0.030805 0.886465 0.825253
O O7 0.817553 0.000000 0.821872
O O8 0.231290 0.500000 0.494322
O O9 0.000000 0.500000 0.500000
O O10 0.814795 0.583815 0.389893
O O11 0.694805 0.748833 0.352206
O O12 0.501484 0.630300 0.258774
O O13 0.968964 0.663647 0.360189
O O14 0.655856 0.411105 0.594254
O O15 0.255295 0.000000 0.831664
O O16 0.000000 0.000000 0.500000
#
# Coordination Sequence:
#
# PCOD9203083 Si02
#       8
#     8   8   4   8   8   4   8   4
#     4  11  20  42  62  96 122 173 200 261 311 376
#     4  10  20  38  66  96 121 163 217 261 305 370
#     4  12  28  46  64  92 138 171 206 262 324 385
#     4  11  23  42  66  97 126 164 215 268 312 377
#     4  11  23  40  68  96 126 164 216 266 315 376
#     4  10  24  38  62  88 142 162 200 246 328 384
#     4  10  20  38  68  94 122 163 214 261 312 362
#     4  12  24  46  64  90 134 175 198 254 336 381
#
# _framework density 18.846845999999999
#
# number of rings (size 3 to 8) (size 9 to 14) (size 15 to 20)
#    0.000    1.231    6.154    0.000    2.154    1.231 
#    0.000    5.385    0.000    0.000    0.000    0.000 
#    0.000    0.000    0.000    0.000    0.000    0.000 
#
# Total GULP energy -144861.082807 kJ/mol
# GULP energy per Si atom -5571.580108 kJ/mol
# Density = 1.880395 g / cm^3
# Si number density = 18.846846 Si / 1000 Ang^3
#
#
#
# Elastic Constant Matrix: (Units=GPa)
#
#
# Indices 1 2 3 4 5 6 
#
# 1 61.6469 12.8436 24.0210 0.0001 -19.5798 0.0000
# 2 12.8436 112.1420 32.7115 0.0001 -14.7918 0.0000
# 3 24.0210 32.7115 81.3293 -0.0001 -20.7767 0.0000
# 4 0.0001 0.0001 -0.0001 61.4930 0.0001 -16.8772
# 5 -19.5798 -14.7918 -20.7767 0.0001 42.6617 0.0000
# 6 0.0000 0.0000 0.0000 -16.8772 0.0000 27.2559
#
#
#
# Elastic Compliance Matrix: (Units=1/GPa)
#
#
# Indices 1 2 3 4 5 6 
#
# 1 0.020118 -0.000178 -0.004029 0.000000 0.007210 0.000000
# 2 -0.000178 0.010219 -0.003624 0.000000 0.001696 0.000000
# 3 -0.004029 -0.003624 0.016160 0.000000 0.004765 0.000000
# 4 0.000000 0.000000 0.000000 0.019592 0.000000 0.012131
# 5 0.007210 0.001696 0.004765 0.000000 0.029658 0.000000
# 6 0.000000 0.000000 0.000000 0.012131 0.000000 0.044201
#
#
# Mechanical properties :
#
#
# Convention : Reuss Voigt Hill
#
# Bulk Modulus (GPa) = 32.42993 43.80784 38.11888
# Shear Modulus (GPa) = 30.14091 38.65161 34.39626
#
# Velocity S-wave (km/s) = 4.00341 4.53352 4.27668
# Velocity P-wave (km/s) = 6.21403 7.12027 6.68253
#
# Compressibility (1/GPa) = 0.03083571
#
# Stress axis : x y z
#
# Youngs Moduli (GPa) = 49.70640 97.86131 61.87962
#
# Poissons Ratio (x) = 0.01742 0.24929
# Poissons Ratio (y) = 0.00885 0.22426
# Poissons Ratio (z) = 0.20025 0.35466
#
# Static dielectric constant tensor:
#      x y z
#    x 1.638650 0.000000 0.000750 
#    y 0.000000 1.646180 0.000000 
#    z 0.000750 0.000000 1.667650 
# 
# From -- ./inp_files/372530.got.cif
#   From: 2010.05.17/outbox.cif.g08.bks.cpg/sg12_187_cif.got.tgz:372530.got - 2010.06.03 13:09:07.
