data_PCOD9203492
_publ_section_title
;
Structure prediction by ZEFSAII (Michael W. Deem and Ramdas Pophale) SiO2 
 PCOD9203492
Probable space group: C 2/M
;
_chemical_formula_sum "Si O2"
_cell_formula_units_Z 64
_cell_length_a 14.425232
_cell_length_b 18.840949
_cell_length_c 23.950694
_cell_angle_alpha 90.000000
_cell_angle_beta 149.207890
_cell_angle_gamma 90.000000
_cell_volume 3332.342728
_symmetry_space_group_name_H-M "C 2/M"
_symmetry_group_IT_number 12
_symmetry_cell_setting 'monoclinic'
loop_
_space_group_symop_operation_xyz
x,y,z
-x,y,-z
-x,-y,-z
x,-y,z
1/2+x,1/2+y,z
1/2-x,1/2+y,-z
1/2-x,1/2-y,-z
1/2+x,1/2-y,z
loop_
_atom_site_type_symbol
_atom_site_label
_atom_site_fract_x
_atom_site_fract_y
_atom_site_fract_z
Si Si1 0.363540 0.305094 0.786398
Si Si2 0.371408 0.755337 0.988614
Si Si3 0.070924 0.920838 0.273825
Si Si4 0.301921 0.418889 0.416695
Si Si5 0.845447 0.579950 0.966778
Si Si6 0.324052 0.367420 0.550932
Si Si7 0.503949 0.769131 0.357493
Si Si8 0.467470 0.198200 0.753435
O O1 0.376835 0.369265 0.749860
O O2 0.187944 0.305503 0.733943
O O3 0.351822 0.237331 0.740257
O O4 0.533575 0.290883 0.914260
O O5 0.361098 0.839740 0.000968
O O6 0.176396 0.719273 0.875159
O O7 0.500000 0.753591 0.000000
O O8 0.143247 0.903065 0.372778
O O9 0.852766 0.917846 0.163392
O O10 0.128459 0.000000 0.288757
O O11 0.500000 0.389954 0.500000
O O12 0.294952 0.500000 0.394493
O O13 0.296749 0.414066 0.481648
O O14 0.125103 0.378372 0.301596
O O15 0.855385 0.500000 0.000590
O O16 0.000000 0.578482 0.000000
O O17 0.487141 0.312856 0.621306
O O18 0.149529 0.316234 0.465201
O O19 0.559405 0.768643 0.321545
#
# Coordination Sequence:
#
# PCOD9203492 Si02
#       8
#     8   8   8   8   8   8   8   8
#     4  12  23  38  63  90 126 166 206 263 314 374
#     4  11  21  38  66  91 123 165 214 260 310 376
#     4  11  23  40  60  90 128 163 207 262 319 373
#     4  10  22  41  63  92 127 164 207 258 319 382
#     4   9  19  36  58  88 125 158 197 254 315 370
#     4  10  20  39  63  91 120 162 207 263 312 372
#     4  10  21  37  61  93 121 155 211 257 309 374
#     4  11  21  40  60  91 120 161 209 257 311 369
#
# _framework density 19.205707
#
# number of rings (size 3 to 8) (size 9 to 14) (size 15 to 20)
#    0.000    1.500    3.750    1.500    1.750    0.500 
#    0.000    5.000    0.000    0.750    0.000    0.000 
#    0.000    0.000    0.000    0.000    0.000    0.000 
#
# Total GULP energy -178162.128584 kJ/mol
# GULP energy per Si atom -5567.566518 kJ/mol
# Density = 1.916199 g / cm^3
# Si number density = 19.205707 Si / 1000 Ang^3
#
#
#
# Elastic Constant Matrix: (Units=GPa)
#
#
# Indices 1 2 3 4 5 6 
#
# 1 43.3377 15.2367 14.0951 -0.0003 -10.1949 -0.0001
# 2 15.2367 92.9781 45.9290 0.0004 -3.9475 0.0001
# 3 14.0951 45.9290 70.5131 0.0012 -2.1159 0.0005
# 4 -0.0003 0.0004 0.0012 23.2976 -0.0001 4.1615
# 5 -10.1949 -3.9475 -2.1159 -0.0001 28.9119 0.0000
# 6 -0.0001 0.0001 0.0005 4.1615 0.0000 18.3173
#
#
#
# Elastic Compliance Matrix: (Units=1/GPa)
#
#
# Indices 1 2 3 4 5 6 
#
# 1 0.027187 -0.002244 -0.003703 0.000001 0.009009 0.000000
# 2 -0.002244 0.016100 -0.010018 0.000000 0.000674 0.000000
# 3 -0.003703 -0.010018 0.021414 -0.000001 -0.001106 0.000000
# 4 0.000001 0.000000 -0.000001 0.044738 0.000000 -0.010164
# 5 0.009009 0.000674 -0.001106 0.000000 0.037776 0.000000
# 6 0.000000 0.000000 0.000000 -0.010164 0.000000 0.056902
#
#
# Mechanical properties :
#
#
# Convention : Reuss Voigt Hill
#
# Bulk Modulus (GPa) = 30.51374 39.70563 35.10968
# Shear Modulus (GPa) = 20.24523 22.87656 21.56090
#
# Velocity S-wave (km/s) = 3.25025 3.45502 3.35420
# Velocity P-wave (km/s) = 5.47794 6.05269 5.77247
#
# Compressibility (1/GPa) = 0.03277212
#
# Stress axis : x y z
#
# Youngs Moduli (GPa) = 36.78218 62.11054 46.69795
#
# Poissons Ratio (x) = 0.13936 0.17291
# Poissons Ratio (y) = 0.08253 0.46783
# Poissons Ratio (z) = 0.13620 0.62224
#
# Static dielectric constant tensor:
#      x y z
#    x 1.737590 0.000000 -0.047340 
#    y 0.000000 1.727140 0.000000 
#    z -0.047340 0.000000 1.726200 
# 
# From -- ./inp_files/340861.got.cif
#   From: 2010.05.17/outbox.cif.g08.bks.cpg/sg12_171_cif.got.tgz:340861.got - 2010.06.03 13:09:07.
