data_PCOD9203651
_publ_section_title
;
Structure prediction by ZEFSAII (Michael W. Deem and Ramdas Pophale) SiO2 
 PCOD9203651
Probable space group: C 2/M
;
_chemical_formula_sum "Si O2"
_cell_formula_units_Z 48
_cell_length_a 12.994616
_cell_length_b 14.027629
_cell_length_c 29.436054
_cell_angle_alpha 90.000000
_cell_angle_beta 151.994736
_cell_angle_gamma 90.000000
_cell_volume 2519.484187
_symmetry_space_group_name_H-M "C 2/M"
_symmetry_group_IT_number 12
_symmetry_cell_setting 'monoclinic'
loop_
_space_group_symop_operation_xyz
x,y,z
-x,y,-z
-x,-y,-z
x,-y,z
1/2+x,1/2+y,z
1/2-x,1/2+y,-z
1/2-x,1/2-y,-z
1/2+x,1/2-y,z
loop_
_atom_site_type_symbol
_atom_site_label
_atom_site_fract_x
_atom_site_fract_y
_atom_site_fract_z
Si Si1 0.193377 0.388590 0.762657
Si Si2 0.314250 0.889665 0.388732
Si Si3 0.759323 0.389665 0.111268
Si Si4 0.038472 0.263557 0.886803
Si Si5 0.491261 0.763557 0.613197
Si Si6 0.142749 0.888590 0.737343
O O1 0.189466 0.500000 0.750756
O O2 0.191857 0.377052 0.816454
O O3 0.415255 0.336605 0.832293
O O4 0.003475 0.331885 0.662296
O O5 0.500000 0.877405 0.500000
O O6 0.365446 0.816034 0.368967
O O7 0.073959 0.877052 0.316454
O O8 0.332712 0.000000 0.379986
O O9 0.812768 0.500000 0.120014
O O10 0.889580 0.316034 0.131033
O O11 0.500000 0.377405 0.000000
O O12 0.854290 0.331885 0.837704
O O13 0.250000 0.250000 0.000000
O O14 0.250000 0.750000 0.500000
O O15 0.586081 0.663395 0.667706
O O16 0.186444 0.000000 0.749244
#
# Coordination Sequence:
#
# PCOD9203651 Si02
#       6
#     8   8   8   8   8   8
#     4  10  23  40  62  94 127 167 216 262 321 390
#     4  10  20  39  65  90 126 170 211 260 325 387
#     4  10  20  39  65  90 126 170 211 260 325 387
#     4  11  22  38  64  95 127 166 217 270 321 381
#     4  11  22  38  64  95 127 166 217 270 321 381
#     4  10  23  40  62  94 127 167 216 262 321 390
#
# _framework density 19.051518999999999
#
# number of rings (size 3 to 8) (size 9 to 14) (size 15 to 20)
#    0.000    1.667    3.333    1.000    0.000    6.667 
#    0.000    0.000    0.000    3.000    0.000    0.000 
#    0.000    0.000    0.000    0.000    0.000    0.000 
#
# Total GULP energy -134008.284876 kJ/mol
# GULP energy per Si atom -5583.678536 kJ/mol
# Density = 1.900816 g / cm^3
# Si number density = 19.051519 Si / 1000 Ang^3
#
#
#
# Elastic Constant Matrix: (Units=GPa)
#
#
# Indices 1 2 3 4 5 6 
#
# 1 78.5253 40.2156 35.1568 0.0000 0.3481 0.0001
# 2 40.2156 122.8044 53.3089 -0.0004 0.3078 -0.0001
# 3 35.1568 53.3089 153.4084 -0.0010 1.4136 -0.0002
# 4 0.0000 -0.0004 -0.0010 26.2402 0.0000 -0.3232
# 5 0.3481 0.3078 1.4136 0.0000 29.1120 0.0000
# 6 0.0001 -0.0001 -0.0002 -0.3232 0.0000 39.9674
#
#
#
# Elastic Compliance Matrix: (Units=1/GPa)
#
#
# Indices 1 2 3 4 5 6 
#
# 1 0.015885 -0.004265 -0.002158 0.000000 -0.000040 0.000000
# 2 -0.004265 0.010735 -0.002754 0.000000 0.000071 0.000000
# 3 -0.002158 -0.002754 0.007973 0.000000 -0.000332 0.000000
# 4 0.000000 0.000000 0.000000 0.038113 0.000000 0.000308
# 5 -0.000040 0.000071 -0.000332 0.000000 0.034366 0.000000
# 6 0.000000 0.000000 0.000000 0.000308 0.000000 0.025023
#
#
# Mechanical properties :
#
#
# Convention : Reuss Voigt Hill
#
# Bulk Modulus (GPa) = 61.57680 68.01117 64.79398
# Shear Modulus (GPa) = 32.07964 34.13440 33.10702
#
# Velocity S-wave (km/s) = 4.10791 4.23743 4.17317
# Velocity P-wave (km/s) = 7.40886 7.72768 7.56995
#
# Compressibility (1/GPa) = 0.01623988
#
# Stress axis : x y z
#
# Youngs Moduli (GPa) = 62.95068 93.15392 125.42341
#
# Poissons Ratio (x) = 0.39733 0.27066
# Poissons Ratio (y) = 0.26850 0.34536
# Poissons Ratio (z) = 0.13584 0.25650
#
# Static dielectric constant tensor:
#      x y z
#    x 1.668020 0.000000 0.000220 
#    y 0.000000 1.661430 0.000000 
#    z 0.000220 0.000000 1.677540 
# 
# From -- ./inp_files/358501.got.cif
#   From: 2010.05.17/outbox.cif.g08.bks.cpg/sg12_180_cif.got.tgz:358501.got - 2010.06.03 13:09:07.
