data_PCOD9203797
_publ_section_title
;
Structure prediction by ZEFSAII (Michael W. Deem and Ramdas Pophale) SiO2 
 PCOD9203797
Probable space group: C 2/M
;
_chemical_formula_sum "Si O2"
_cell_formula_units_Z 56
_cell_length_a 8.738362
_cell_length_b 15.248873
_cell_length_c 20.474141
_cell_angle_alpha 90.000000
_cell_angle_beta 80.327288
_cell_angle_gamma 90.000000
_cell_volume 2689.397887
_symmetry_space_group_name_H-M "C 2/M"
_symmetry_group_IT_number 12
_symmetry_cell_setting 'monoclinic'
loop_
_space_group_symop_operation_xyz
x,y,z
-x,y,-z
-x,-y,-z
x,-y,z
1/2+x,1/2+y,z
1/2-x,1/2+y,-z
1/2-x,1/2-y,-z
1/2+x,1/2-y,z
loop_
_atom_site_type_symbol
_atom_site_label
_atom_site_fract_x
_atom_site_fract_y
_atom_site_fract_z
Si Si1 0.211623 0.782728 0.594834
Si Si2 0.290619 0.903554 0.700392
Si Si3 0.301107 0.146813 0.192166
Si Si4 0.000000 0.253967 0.500000
Si Si5 0.335093 0.899577 0.338815
Si Si6 0.813484 0.846568 0.013924
Si Si7 0.326329 0.836683 0.835973
Si Si8 0.741744 0.500000 0.087677
O O1 0.203321 0.831941 0.663678
O O2 0.075035 0.799278 0.553870
O O3 0.365729 0.808868 0.544494
O O4 0.217131 0.678764 0.610091
O O5 0.476449 0.892928 0.677507
O O6 0.266953 0.892963 0.779052
O O7 0.244804 0.000000 0.681566
O O8 0.275231 0.120435 0.269631
O O9 0.488068 0.155466 0.171011
O O10 0.219839 0.237895 0.179748
O O11 0.244652 0.075393 0.145131
O O12 0.295986 0.000000 0.359556
O O13 0.752801 0.864530 0.091195
O O14 0.750000 0.750000 0.000000
O O15 0.758446 0.922048 0.968825
O O16 0.000000 0.844900 0.000000
#
# Coordination Sequence:
#
# PCOD9203797 Si02
#       8
#     8   8   8   4   8   8   8   4
#     4  11  20  43  65  98 131 177 209 275 320 396
#     4  10  22  40  67  98 129 170 223 272 322 395
#     4  11  23  42  68  98 129 174 226 282 330 402
#     4  10  24  38  68  96 136 174 216 250 342 396
#     4  10  20  39  67  97 131 172 223 269 328 386
#     4  12  27  47  67  95 137 180 224 282 342 405
#     4  11  24  42  68  95 131 172 226 276 338 385
#     4  12  27  43  68  98 140 174 226 275 341 409
#
# _framework density 20.822506000000001
#
# number of rings (size 3 to 8) (size 9 to 14) (size 15 to 20)
#    0.000    1.143    5.000    1.071    2.000    0.571 
#    0.000    5.000    0.000    0.000    0.000    0.000 
#    0.000    0.000    0.000    0.000    0.000    0.000 
#
# Total GULP energy -155931.951313 kJ/mol
# GULP energy per Si atom -5568.998261 kJ/mol
# Density = 2.077511 g / cm^3
# Si number density = 20.822506 Si / 1000 Ang^3
#
#
#
# Elastic Constant Matrix: (Units=GPa)
#
#
# Indices 1 2 3 4 5 6 
#
# 1 26.4513 3.8544 17.9514 0.0000 -2.5781 0.0000
# 2 3.8544 127.7792 37.4012 0.0000 14.4047 0.0000
# 3 17.9514 37.4012 122.4278 0.0000 16.7344 0.0000
# 4 0.0000 0.0000 0.0000 7.5210 0.0000 -1.8919
# 5 -2.5781 14.4047 16.7344 0.0000 30.5356 0.0000
# 6 0.0000 0.0000 0.0000 -1.8919 0.0000 5.6164
#
#
#
# Elastic Compliance Matrix: (Units=1/GPa)
#
#
# Indices 1 2 3 4 5 6 
#
# 1 0.043625 -0.000010 -0.007456 0.000000 0.007774 0.000000
# 2 -0.000010 0.008826 -0.002298 0.000000 -0.002905 0.000000
# 3 -0.007456 -0.002298 0.010703 0.000000 -0.005411 0.000000
# 4 0.000000 0.000000 0.000000 0.145271 0.000000 0.048936
# 5 0.007774 -0.002905 -0.005411 0.000000 0.037741 0.000000
# 6 0.000000 0.000000 0.000000 0.048936 0.000000 0.194534
#
#
# Mechanical properties :
#
#
# Convention : Reuss Voigt Hill
#
# Bulk Modulus (GPa) = 22.92202 43.89692 33.40947
# Shear Modulus (GPa) = 10.53140 23.23135 16.88138
#
# Velocity S-wave (km/s) = 2.25137 3.34381 2.85042
# Velocity P-wave (km/s) = 4.21787 6.00294 5.18776
#
# Compressibility (1/GPa) = 0.04362618
#
# Stress axis : x y z
#
# Youngs Moduli (GPa) = 22.92279 113.29653 93.43179
#
# Poissons Ratio (x) = 0.00112 0.69665
# Poissons Ratio (y) = 0.00023 0.21469
# Poissons Ratio (z) = 0.17092 0.26034
#
# Static dielectric constant tensor:
#      x y z
#    x 1.765260 0.000000 0.001120 
#    y 0.000000 1.722250 0.000000 
#    z 0.001120 0.000000 1.730900 
# 
# From -- ./inp_files/300185.got.cif
#   From: 2010.05.17/outbox.cif.g08.bks.cpg/sg12_151_cif.got.tgz:300185.got - 2010.06.03 13:09:07.
