data_PCOD9203567
_publ_section_title
;
Structure prediction by ZEFSAII (Michael W. Deem and Ramdas Pophale) SiO2 
 PCOD9203567
Probable space group: C 2/M
;
_chemical_formula_sum "Si O2"
_cell_formula_units_Z 64
_cell_length_a 25.796716
_cell_length_b 19.426738
_cell_length_c 11.610896
_cell_angle_alpha 90.000000
_cell_angle_beta 145.984874
_cell_angle_gamma 90.000000
_cell_volume 3255.079678
_symmetry_space_group_name_H-M "C 2/M"
_symmetry_group_IT_number 12
_symmetry_cell_setting 'monoclinic'
loop_
_space_group_symop_operation_xyz
x,y,z
-x,y,-z
-x,-y,-z
x,-y,z
1/2+x,1/2+y,z
1/2-x,1/2+y,-z
1/2-x,1/2-y,-z
1/2+x,1/2-y,z
loop_
_atom_site_type_symbol
_atom_site_label
_atom_site_fract_x
_atom_site_fract_y
_atom_site_fract_z
Si Si1 0.644587 0.228564 0.281884
Si Si2 0.137793 0.782862 0.014124
Si Si3 0.995954 0.579108 0.736933
Si Si4 0.427049 0.298929 0.630365
Si Si5 0.160103 0.652511 0.906882
Si Si6 0.331628 0.163073 0.350411
Si Si7 0.792077 0.078447 0.320273
Si Si8 0.121777 0.422919 0.187883
O O1 0.750000 0.250000 0.500000
O O2 0.628483 0.242713 0.117900
O O3 0.583733 0.273612 0.257125
O O4 0.630017 0.147423 0.273650
O O5 0.223296 0.835065 0.184396
O O6 0.169285 0.729188 0.974473
O O7 0.034603 0.808251 0.797289
O O8 0.005475 0.500000 0.719923
O O9 0.893282 0.606004 0.526855
O O10 0.064059 0.624127 0.782690
O O11 0.035848 0.583599 0.940313
O O12 0.378015 0.236372 0.470729
O O13 0.370118 0.367967 0.501918
O O14 0.160542 0.652031 0.771355
O O15 0.241251 0.606645 0.112408
O O16 0.712024 0.078533 0.270473
O O17 0.824084 0.000000 0.364781
O O18 0.119747 0.500000 0.237398
#
# Coordination Sequence:
#
# PCOD9203567 Si02
#       8
#     8   8   8   8   8   8   8   8
#     4  12  19  39  65  90 125 159 207 261 314 364
#     4  12  24  39  59  93 123 160 208 259 304 365
#     4  10  21  38  63  96 128 164 204 249 316 381
#     4  12  24  39  64  93 124 166 210 259 306 369
#     4  11  20  38  64  95 122 157 205 259 309 367
#     4  12  23  38  61  92 130 161 203 256 313 364
#     4  10  20  39  64  90 122 163 209 252 301 367
#     4   9  17  35  63  92 123 158 204 257 309 373
#
# _framework density 19.661577000000001
#
# number of rings (size 3 to 8) (size 9 to 14) (size 15 to 20)
#    0.000    1.000    7.500    2.250    0.000    1.500 
#    0.000    1.250    0.000    6.000    0.000    0.000 
#    0.000    0.000    0.000    0.000    0.000    0.000 
#
# Total GULP energy -178913.475145 kJ/mol
# GULP energy per Si atom -5591.046098 kJ/mol
# Density = 1.961683 g / cm^3
# Si number density = 19.661577 Si / 1000 Ang^3
#
#
#
# Elastic Constant Matrix: (Units=GPa)
#
#
# Indices 1 2 3 4 5 6 
#
# 1 52.5905 -1.5708 19.8325 0.0000 -7.7236 0.0000
# 2 -1.5708 79.2377 32.6180 0.0000 7.8392 0.0000
# 3 19.8325 32.6180 97.8535 0.0000 20.1958 0.0000
# 4 0.0000 0.0000 0.0000 30.0257 0.0000 6.7772
# 5 -7.7236 7.8392 20.1958 0.0000 42.2946 0.0000
# 6 0.0000 0.0000 0.0000 6.7772 0.0000 16.9147
#
#
#
# Elastic Compliance Matrix: (Units=1/GPa)
#
#
# Indices 1 2 3 4 5 6 
#
# 1 0.022722 0.002606 -0.006912 0.000000 0.006967 0.000000
# 2 0.002606 0.014933 -0.005583 0.000000 0.000374 0.000000
# 3 -0.006912 -0.005583 0.015007 0.000000 -0.007393 0.000000
# 4 0.000000 0.000000 0.000000 0.036616 0.000000 -0.014671
# 5 0.006967 0.000374 -0.007393 0.000000 0.028377 0.000000
# 6 0.000000 0.000000 0.000000 -0.014671 0.000000 0.064998
#
#
# Mechanical properties :
#
#
# Convention : Reuss Voigt Hill
#
# Bulk Modulus (GPa) = 30.40863 36.82680 33.61771
# Shear Modulus (GPa) = 23.43085 29.76713 26.59899
#
# Velocity S-wave (km/s) = 3.45586 3.89520 3.68209
# Velocity P-wave (km/s) = 5.60567 6.24509 5.93400
#
# Compressibility (1/GPa) = 0.03288540
#
# Stress axis : x y z
#
# Youngs Moduli (GPa) = 44.00936 66.96465 66.63440
#
# Poissons Ratio (x) = -0.17454 0.46058
# Poissons Ratio (y) = -0.11471 0.37204
# Poissons Ratio (z) = 0.30419 0.37388
#
# Static dielectric constant tensor:
#      x y z
#    x 1.719120 0.000000 0.007640 
#    y 0.000000 1.669110 0.000000 
#    z 0.007640 0.000000 1.698310 
# 
# From -- ./inp_files/184726.got.cif
#   From: 2010.05.17/outbox.cif.g08.bks.cpg/sg12_93_cif.got.tgz:184726.got - 2010.06.03 13:09:07.
