data_PCOD9203465
_publ_section_title
;
Structure prediction by ZEFSAII (Michael W. Deem and Ramdas Pophale) SiO2 
 PCOD9203465
Probable space group: C 2/M
;
_chemical_formula_sum "Si O2"
_cell_formula_units_Z 58
_cell_length_a 19.073440
_cell_length_b 10.223667
_cell_length_c 17.768163
_cell_angle_alpha 90.000000
_cell_angle_beta 47.770522
_cell_angle_gamma 90.000000
_cell_volume 2565.542501
_symmetry_space_group_name_H-M "C 2/M"
_symmetry_group_IT_number 12
_symmetry_cell_setting 'monoclinic'
loop_
_space_group_symop_operation_xyz
x,y,z
-x,y,-z
-x,-y,-z
x,-y,z
1/2+x,1/2+y,z
1/2-x,1/2+y,-z
1/2-x,1/2-y,-z
1/2+x,1/2-y,z
loop_
_atom_site_type_symbol
_atom_site_label
_atom_site_fract_x
_atom_site_fract_y
_atom_site_fract_z
Si Si1 0.670734 0.843339 0.669603
Si Si2 0.500000 0.500000 0.500000
Si Si3 0.864150 0.640117 0.879271
Si Si4 0.346154 0.145634 0.145182
Si Si5 0.979678 0.288542 0.343592
Si Si6 0.338361 0.856630 0.572006
Si Si7 0.127293 0.188335 0.328773
Si Si8 0.145765 0.847187 0.988772
O O1 0.630053 0.834650 0.783997
O O2 0.602608 0.777556 0.657929
O O3 0.765734 0.757760 0.601460
O O4 0.682647 0.000000 0.645038
O O5 0.583033 0.610223 0.429923
O O6 0.863821 0.500000 0.921220
O O7 0.760078 0.656125 0.918642
O O8 0.939922 0.634005 0.758715
O O9 0.888628 0.761340 0.915397
O O10 0.230328 0.145350 0.228040
O O11 0.377735 0.262730 0.068405
O O12 0.378111 0.000000 0.099352
O O13 0.929325 0.348094 0.452820
O O14 0.044426 0.169828 0.327466
O O15 0.361151 0.831541 0.643502
O O16 0.295004 0.000000 0.593660
O O17 0.117217 0.000000 0.007523
#
# Coordination Sequence:
#
# PCOD9203465 Si02
#       8
#     8   2   8   8   8   8   8   8
#     4  10  24  42  63  88 127 171 214 251 304 373
#     4  12  20  44  54 100 132 164 206 270 308 376
#     4  10  21  37  61  92 123 155 198 256 316 373
#     4  10  20  39  63  88 117 166 210 247 299 376
#     4  12  22  41  62  95 122 163 210 265 306 364
#     4  11  24  40  60  91 128 169 211 256 309 368
#     4  11  23  37  65  91 125 165 211 257 313 364
#     4  10  21  39  62  91 123 156 197 257 318 371
#
# _framework density 22.607303999999999
#
# number of rings (size 3 to 8) (size 9 to 14) (size 15 to 20)
#    0.000    1.379    3.448    2.069    0.966    4.966 
#    2.483    0.690    0.000    3.310    0.000    0.000 
#    0.000    0.000    0.000    0.000    0.000    0.000 
#
# Total GULP energy -161473.272597 kJ/mol
# GULP energy per Si atom -5568.043883 kJ/mol
# Density = 2.255585 g / cm^3
# Si number density = 22.607304 Si / 1000 Ang^3
#
#
#
# Elastic Constant Matrix: (Units=GPa)
#
#
# Indices 1 2 3 4 5 6 
#
# 1 113.0451 35.2859 8.1465 0.0000 4.5759 0.0000
# 2 35.2859 121.1157 30.2235 0.0000 14.8144 0.0000
# 3 8.1465 30.2235 67.3127 0.0000 7.6171 0.0000
# 4 0.0000 0.0000 0.0000 -53.6023 0.0000 0.4654
# 5 4.5759 14.8144 7.6171 0.0000 27.0677 0.0000
# 6 0.0000 0.0000 0.0000 0.4654 0.0000 -0.8829
#
#
#
# Elastic Compliance Matrix: (Units=1/GPa)
#
#
# Indices 1 2 3 4 5 6 
#
# 1 0.009732 -0.002850 0.000115 0.000000 -0.000118 0.000000
# 2 -0.002850 0.010582 -0.003931 0.000000 -0.004204 0.000000
# 3 0.000115 -0.003931 0.016904 0.000000 -0.002625 0.000000
# 4 0.000000 0.000000 0.000000 -0.018742 0.000000 -0.009879
# 5 -0.000118 -0.004204 -0.002625 0.000000 0.040004 0.000000
# 6 0.000000 0.000000 0.000000 -0.009879 0.000000 -1.137825
#
#
# Mechanical properties :
#
#
# Convention : Reuss Voigt Hill
#
# Bulk Modulus (GPa) = 41.86321 49.86501 45.86411
# Shear Modulus (GPa) = -4.72567 9.70433 2.48933
#
# Velocity S-wave (km/s) = -1.44737 2.07410 1.05048
# Velocity P-wave (km/s) = 3.97047 5.27644 4.66933
#
# Compressibility (1/GPa) = 0.02388732
#
# Stress axis : x y z
#
# Youngs Moduli (GPa) = 102.75397 94.50163 59.15740
#
# Poissons Ratio (x) = 0.26929 -0.00680
# Poissons Ratio (y) = 0.29281 0.23253
# Poissons Ratio (z) = -0.01182 0.37146
#
# Static dielectric constant tensor:
#      x y z
#    x 1.930980 0.000000 0.040810 
#    y 0.000000 1.921490 0.000000 
#    z 0.040810 0.000000 1.835700 
# 
# From -- ./inp_files/324525.got.cif
#   From: 2010.05.17/outbox.cif.g08.bks.cpg/sg12_163_cif.got.tgz:324525.got - 2010.06.03 13:09:07.
