data_PCOD9203889
_publ_section_title
;
Structure prediction by ZEFSAII (Michael W. Deem and Ramdas Pophale) SiO2 
 PCOD9203889
Probable space group: C 2/M
;
_chemical_formula_sum "Si O2"
_cell_formula_units_Z 56
_cell_length_a 9.434096
_cell_length_b 26.095842
_cell_length_c 18.143997
_cell_angle_alpha 90.000000
_cell_angle_beta 36.467301
_cell_angle_gamma 90.000000
_cell_volume 2654.954072
_symmetry_space_group_name_H-M "C 2/M"
_symmetry_group_IT_number 12
_symmetry_cell_setting 'monoclinic'
loop_
_space_group_symop_operation_xyz
x,y,z
-x,y,-z
-x,-y,-z
x,-y,z
1/2+x,1/2+y,z
1/2-x,1/2+y,-z
1/2-x,1/2-y,-z
1/2+x,1/2-y,z
loop_
_atom_site_type_symbol
_atom_site_label
_atom_site_fract_x
_atom_site_fract_y
_atom_site_fract_z
Si Si1 0.881839 0.083258 0.624422
Si Si2 0.899380 0.699612 0.960126
Si Si3 0.007544 0.701927 0.361636
Si Si4 0.360401 0.906702 0.483954
Si Si5 0.890489 0.442530 0.770383
Si Si6 0.271726 0.298946 0.672490
Si Si7 0.954813 0.847706 0.099283
O O1 0.607454 0.065704 0.738207
O O2 0.871411 0.144467 0.620951
O O3 0.000000 0.062021 0.500000
O O4 0.084486 0.075239 0.601127
O O5 0.712630 0.652748 0.029088
O O6 0.750000 0.750000 0.000000
O O7 0.000000 0.701818 0.000000
O O8 0.108419 0.696907 0.813185
O O9 0.886333 0.654502 0.455289
O O10 0.883864 0.711675 0.334855
O O11 0.038639 0.754113 0.393454
O O12 0.273642 0.682970 0.227569
O O13 0.500000 0.917795 0.500000
O O14 0.486284 0.932869 0.360878
O O15 0.800472 0.500000 0.813953
O O16 0.684617 0.400157 0.860257
O O17 0.000000 0.823079 0.000000
#
# Coordination Sequence:
#
# PCOD9203889 Si02
#       7
#     8   8   8   8   8   8   8
#     4  10  20  40  60  83 122 156 203 256 298 363
#     4  12  23  35  58  89 123 170 206 242 298 352
#     4  11  23  35  55  86 123 168 203 239 295 361
#     4  10  23  40  58  90 125 155 198 255 313 364
#     4  10  22  42  68  90 112 156 209 258 314 366
#     4  12  22  36  55  86 123 166 207 242 287 365
#     4  11  20  40  60  86 128 155 201 261 298 361
#
# _framework density 21.092642999999999
#
# number of rings (size 3 to 8) (size 9 to 14) (size 15 to 20)
#    0.000    1.143    7.143    1.286    2.000    5.429 
#    0.000    0.000    0.000    0.429    0.000    0.000 
#    0.000    0.000    0.000    0.000    0.000    0.000 
#
# Total GULP energy -156413.731680 kJ/mol
# GULP energy per Si atom -5586.204703 kJ/mol
# Density = 2.104464 g / cm^3
# Si number density = 21.092643 Si / 1000 Ang^3
#
#
#
# Elastic Constant Matrix: (Units=GPa)
#
#
# Indices 1 2 3 4 5 6 
#
# 1 184.6777 14.5989 31.6581 0.0000 -12.4378 0.0000
# 2 14.5989 78.2413 9.1491 0.0000 -15.1617 0.0000
# 3 31.6581 9.1491 88.2182 -0.0001 -5.7725 0.0000
# 4 0.0000 0.0000 -0.0001 0.3270 0.0000 0.1429
# 5 -12.4378 -15.1617 -5.7725 0.0000 26.0978 0.0000
# 6 0.0000 0.0000 0.0000 0.1429 0.0000 12.0624
#
#
#
# Elastic Compliance Matrix: (Units=1/GPa)
#
#
# Indices 1 2 3 4 5 6 
#
# 1 0.005927 -0.000468 -0.001940 0.000000 0.002124 0.000000
# 2 -0.000468 0.014520 -0.000812 -0.000001 0.008033 0.000000
# 3 -0.001940 -0.000812 0.012201 0.000002 0.001302 0.000000
# 4 0.000000 -0.000001 0.000002 3.074484 -0.000004 -0.036429
# 5 0.002124 0.008033 0.001302 -0.000004 0.044284 0.000000
# 6 0.000000 0.000000 0.000000 -0.036429 0.000000 0.083334
#
#
# Mechanical properties :
#
#
# Convention : Reuss Voigt Hill
#
# Bulk Modulus (GPa) = 38.15472 51.32769 44.74120
# Shear Modulus (GPa) = 1.53850 27.41286 14.47568
#
# Velocity S-wave (km/s) = 0.85498 3.60896 2.62256
# Velocity P-wave (km/s) = 4.37070 6.46169 5.51618
#
# Compressibility (1/GPa) = 0.02620908
#
# Stress axis : x y z
#
# Youngs Moduli (GPa) = 168.70923 68.87141 81.96008
#
# Poissons Ratio (x) = 0.03220 0.15897
# Poissons Ratio (y) = 0.07888 0.06659
# Poissons Ratio (z) = 0.32723 0.05595
#
# Static dielectric constant tensor:
#      x y z
#    x 1.774210 0.000000 -0.040070 
#    y 0.000000 1.782530 0.000000 
#    z -0.040070 0.000000 1.797800 
# 
# From -- ./inp_files/199433.got.cif
#   From: 2010.05.17/outbox.cif.g08.bks.cpg/sg12_100_cif.got.tgz:199433.got - 2010.06.03 13:09:07.
