data_PCOD9203655
_publ_section_title
;
Structure prediction by ZEFSAII (Michael W. Deem and Ramdas Pophale) SiO2 
 PCOD9203655
Probable space group: C 2/M
;
_chemical_formula_sum "Si O2"
_cell_formula_units_Z 40
_cell_length_a 19.288968
_cell_length_b 15.600525
_cell_length_c 12.682838
_cell_angle_alpha 90.000000
_cell_angle_beta 152.569762
_cell_angle_gamma 90.000000
_cell_volume 1758.137953
_symmetry_space_group_name_H-M "C 2/M"
_symmetry_group_IT_number 12
_symmetry_cell_setting 'monoclinic'
loop_
_space_group_symop_operation_xyz
x,y,z
-x,y,-z
-x,-y,-z
x,-y,z
1/2+x,1/2+y,z
1/2-x,1/2+y,-z
1/2-x,1/2-y,-z
1/2+x,1/2-y,z
loop_
_atom_site_type_symbol
_atom_site_label
_atom_site_fract_x
_atom_site_fract_y
_atom_site_fract_z
Si Si1 0.806258 0.150208 0.488709
Si Si2 0.625110 0.600456 0.996379
Si Si3 0.287261 0.845426 0.417800
Si Si4 0.616740 0.103553 0.821329
Si Si5 0.334552 0.598786 0.294426
O O1 0.719777 0.114932 0.474262
O O2 0.752374 0.245646 0.388223
O O3 0.796679 0.100914 0.366062
O O4 0.980125 0.151409 0.760886
O O5 0.591136 0.500000 0.932917
O O6 0.669894 0.615471 0.177493
O O7 0.770709 0.622318 0.122591
O O8 0.453366 0.855703 0.595434
O O9 0.593543 0.000000 0.792254
O O10 0.704306 0.134854 0.044425
O O11 0.500000 0.638905 0.500000
O O12 0.347839 0.500000 0.275911
#
# Coordination Sequence:
#
# PCOD9203655 Si02
#       5
#     8   8   8   8   8
#     4  11  25  42  62  90 130 169 207 256 312 377
#     4  11  23  44  70  93 124 169 216 258 311 383
#     4  11  26  41  60  95 131 162 206 263 317 367
#     4  10  22  41  66  94 124 159 207 266 315 366
#     4  10  20  39  65  91 121 161 209 255 305 374
#
# _framework density 22.751341
#
# number of rings (size 3 to 8) (size 9 to 14) (size 15 to 20)
#    0.000    1.400    2.000    2.400    2.800    8.800 
#    0.000    2.000    0.000    0.000    0.000    0.000 
#    0.000    0.000    0.000    0.000    0.000    0.000 
#
# Total GULP energy -111851.381911 kJ/mol
# GULP energy per Si atom -5592.569096 kJ/mol
# Density = 2.269956 g / cm^3
# Si number density = 22.751341 Si / 1000 Ang^3
#
#
#
# Elastic Constant Matrix: (Units=GPa)
#
#
# Indices 1 2 3 4 5 6 
#
# 1 93.1295 12.5938 11.8481 0.0000 -11.2053 0.0000
# 2 12.5938 19.1580 -2.3190 0.0000 -3.8693 0.0000
# 3 11.8481 -2.3190 71.6663 0.0000 -15.4613 0.0000
# 4 0.0000 0.0000 0.0000 38.9779 0.0000 -8.2387
# 5 -11.2053 -3.8693 -15.4613 0.0000 40.4132 0.0000
# 6 0.0000 0.0000 0.0000 -8.2387 0.0000 33.3879
#
#
#
# Elastic Compliance Matrix: (Units=1/GPa)
#
#
# Indices 1 2 3 4 5 6 
#
# 1 0.012277 -0.007907 -0.001869 0.000000 0.001932 0.000000
# 2 -0.007907 0.058948 0.004315 0.000000 0.005103 0.000000
# 3 -0.001869 0.004315 0.015673 0.000000 0.005891 0.000000
# 4 0.000000 0.000000 0.000000 0.027067 0.000000 0.006679
# 5 0.001932 0.005103 0.005891 0.000000 0.028023 0.000000
# 6 0.000000 0.000000 0.000000 0.006679 0.000000 0.031599
#
#
# Mechanical properties :
#
#
# Convention : Reuss Voigt Hill
#
# Bulk Modulus (GPa) = 13.16161 25.35551 19.25856
# Shear Modulus (GPa) = 23.82848 33.34451 28.58650
#
# Velocity S-wave (km/s) = 3.23978 3.83248 3.54852
# Velocity P-wave (km/s) = 4.44887 5.54551 5.02718
#
# Compressibility (1/GPa) = 0.07597853
#
# Stress axis : x y z
#
# Youngs Moduli (GPa) = 81.45217 16.96414 63.80345
#
# Poissons Ratio (x) = 0.13413 0.11923
# Poissons Ratio (y) = 0.64400 -0.27534
# Poissons Ratio (z) = 0.15221 -0.07321
#
# Static dielectric constant tensor:
#      x y z
#    x 1.860860 0.000000 0.001030 
#    y 0.000000 1.836550 0.000000 
#    z 0.001030 0.000000 1.812750 
# 
# From -- ./inp_files/46945.got.cif
#   From: 2010.05.17/outbox.cif.g08.bks.cpg/sg12_24_cif.got.tgz:46945.got - 2010.06.03 13:09:07.
