data_PCOD9203833
_publ_section_title
;
Structure prediction by ZEFSAII (Michael W. Deem and Ramdas Pophale) SiO2 
 PCOD9203833
Probable space group: C 2/M
;
_chemical_formula_sum "Si O2"
_cell_formula_units_Z 64
_cell_length_a 9.510137
_cell_length_b 30.163388
_cell_length_c 19.270501
_cell_angle_alpha 90.000000
_cell_angle_beta 147.130535
_cell_angle_gamma 90.000000
_cell_volume 3000.138156
_symmetry_space_group_name_H-M "C 2/M"
_symmetry_group_IT_number 12
_symmetry_cell_setting 'monoclinic'
loop_
_space_group_symop_operation_xyz
x,y,z
-x,y,-z
-x,-y,-z
x,-y,z
1/2+x,1/2+y,z
1/2-x,1/2+y,-z
1/2-x,1/2-y,-z
1/2+x,1/2-y,z
loop_
_atom_site_type_symbol
_atom_site_label
_atom_site_fract_x
_atom_site_fract_y
_atom_site_fract_z
Si Si1 0.698343 0.449711 0.389901
Si Si2 0.993173 0.879617 0.194737
Si Si3 0.317735 0.580552 0.865471
Si Si4 0.124566 0.309467 0.117963
Si Si5 0.204759 0.672771 0.886866
Si Si6 0.950303 0.739207 0.676594
Si Si7 0.407425 0.808728 0.393897
Si Si8 0.238506 0.553256 0.430532
O O1 0.583458 0.500000 0.341882
O O2 0.570924 0.417997 0.280815
O O3 0.709260 0.428729 0.470794
O O4 0.000000 0.454761 0.500000
O O5 0.994545 0.903551 0.120087
O O6 0.210383 0.841387 0.274235
O O7 0.770021 0.851361 0.142077
O O8 0.208542 0.622748 0.861833
O O9 0.050182 0.561773 0.720288
O O10 0.500000 0.556854 0.000000
O O11 0.319126 0.275401 0.236008
O O12 0.905884 0.323165 0.081753
O O13 0.000000 0.285636 0.000000
O O14 0.033365 0.702310 0.765600
O O15 0.500000 0.687519 0.000000
O O16 0.906589 0.712669 0.586545
O O17 0.737890 0.768629 0.627234
O O18 0.500000 0.835787 0.500000
O O19 0.500000 0.568208 0.500000
O O20 0.251000 0.500000 0.441151
#
# Coordination Sequence:
#
# PCOD9203833 Si02
#       8
#     8   8   8   8   8   8   8   8
#     4  10  20  39  69  96 124 164 215 265 313 387
#     4  11  23  40  64  93 126 168 215 267 329 385
#     4  11  23  40  64  95 134 173 215 269 329 390
#     4  11  24  39  61  89 119 165 216 267 318 383
#     4  11  23  38  60  86 122 160 213 265 316 382
#     4  11  22  39  60  83 117 162 211 259 322 375
#     4  11  23  39  58  85 123 164 209 266 321 383
#     4  10  23  43  68 100 134 170 216 267 324 394
#
# _framework density 21.332352
#
# number of rings (size 3 to 8) (size 9 to 14) (size 15 to 20)
#    0.000    1.250    3.750    2.625    3.500    1.250 
#    0.000    0.625    0.000    0.375    0.000    0.000 
#    0.000    0.000    0.000    0.000    0.000    0.000 
#
# Total GULP energy -178301.124457 kJ/mol
# GULP energy per Si atom -5571.910139 kJ/mol
# Density = 2.128380 g / cm^3
# Si number density = 21.332352 Si / 1000 Ang^3
#
#
#
# Elastic Constant Matrix: (Units=GPa)
#
#
# Indices 1 2 3 4 5 6 
#
# 1 134.8308 9.8832 26.0495 0.0000 -31.2978 0.0002
# 2 9.8832 58.9828 18.8527 0.0000 -6.2285 0.0001
# 3 26.0495 18.8527 71.6783 0.0001 -22.3646 0.0008
# 4 0.0000 0.0000 0.0001 13.9409 0.0000 -14.7858
# 5 -31.2978 -6.2285 -22.3646 0.0000 38.7930 0.0003
# 6 0.0002 0.0001 0.0008 -14.7858 0.0003 2.3575
#
#
#
# Elastic Compliance Matrix: (Units=1/GPa)
#
#
# Indices 1 2 3 4 5 6 
#
# 1 0.009230 -0.000475 -0.001134 0.000000 0.006717 0.000000
# 2 -0.000475 0.018536 -0.004748 0.000000 -0.000144 0.000000
# 3 -0.001134 -0.004748 0.018398 0.000001 0.008930 0.000001
# 4 0.000000 0.000000 0.000001 -0.012692 0.000001 -0.079599
# 5 0.006717 -0.000144 0.008930 0.000001 0.036322 0.000001
# 6 0.000000 0.000000 0.000001 -0.079599 0.000001 -0.075051
#
#
# Mechanical properties :
#
#
# Convention : Reuss Voigt Hill
#
# Bulk Modulus (GPa) = 29.89427 41.67361 35.78394
# Shear Modulus (GPa) = 268.73228 25.06538 146.89883
#
# Velocity S-wave (km/s) = 11.23599 3.43154 8.30732
# Velocity P-wave (km/s) = 13.50459 5.93956 10.43198
#
# Compressibility (1/GPa) = 0.03345123
#
# Stress axis : x y z
#
# Youngs Moduli (GPa) = 108.34666 53.94921 54.35319
#
# Poissons Ratio (x) = 0.02562 0.06162
# Poissons Ratio (y) = 0.05145 0.25805
# Poissons Ratio (z) = 0.12283 0.25613
#
# Static dielectric constant tensor:
#      x y z
#    x 2.008640 0.000000 0.002010 
#    y 0.000000 1.767630 0.000000 
#    z 0.002010 0.000000 1.952210 
# 
# From -- ./inp_files/260381.got.cif
#   From: 2010.05.17/outbox.cif.g08.bks.cpg/sg12_131_cif.got.tgz:260381.got - 2010.06.03 13:09:07.
