data_PCOD9203780
_publ_section_title
;
Structure prediction by ZEFSAII (Michael W. Deem and Ramdas Pophale) SiO2 
 PCOD9203780
Probable space group: C 2/M
;
_chemical_formula_sum "Si O2"
_cell_formula_units_Z 40
_cell_length_a 23.510406
_cell_length_b 8.824212
_cell_length_c 17.514643
_cell_angle_alpha 90.000000
_cell_angle_beta 151.223049
_cell_angle_gamma 90.000000
_cell_volume 1749.220033
_symmetry_space_group_name_H-M "C 2/M"
_symmetry_group_IT_number 12
_symmetry_cell_setting 'monoclinic'
loop_
_space_group_symop_operation_xyz
x,y,z
-x,y,-z
-x,-y,-z
x,-y,z
1/2+x,1/2+y,z
1/2-x,1/2+y,-z
1/2-x,1/2-y,-z
1/2+x,1/2-y,z
loop_
_atom_site_type_symbol
_atom_site_label
_atom_site_fract_x
_atom_site_fract_y
_atom_site_fract_z
Si Si1 0.058314 0.828617 0.652448
Si Si2 0.062021 0.829258 0.262310
Si Si3 0.126803 0.254274 0.169234
Si Si4 0.145345 0.676929 0.500455
Si Si5 0.302321 0.670700 0.916478
O O1 0.194302 0.780668 0.805210
O O2 0.000000 0.823422 0.500000
O O3 0.980876 0.715905 0.611928
O O4 0.049800 0.000000 0.671930
O O5 0.093671 0.826833 0.209888
O O6 0.132415 0.709732 0.395620
O O7 0.083293 0.000000 0.315175
O O8 0.922475 0.794248 0.102773
O O9 0.260612 0.296485 0.352247
O O10 0.158945 0.175491 0.127061
O O11 0.000000 0.334397 0.000000
O O12 0.175564 0.500000 0.550856
O O13 0.264683 0.500000 0.890301
#
# Coordination Sequence:
#
# PCOD9203780 Si02
#       5
#     8   8   8   8   8
#     4  11  24  41  63  91 125 160 199 256 315 363
#     4  10  22  40  63  92 129 165 199 249 307 362
#     4  10  21  39  65  94 123 161 208 253 301 361
#     4  12  24  39  64  93 124 163 206 253 302 364
#     4  10  20  39  67  94 121 161 210 252 296 360
#
# _framework density 22.867335000000001
#
# number of rings (size 3 to 8) (size 9 to 14) (size 15 to 20)
#    0.000    1.400    2.000    3.600    0.000    6.800 
#    0.000    2.000    0.000    8.400    0.000    0.000 
#    0.000    0.000    0.000    0.000    0.000    0.000 
#
# Total GULP energy -111406.908405 kJ/mol
# GULP energy per Si atom -5570.345420 kJ/mol
# Density = 2.281529 g / cm^3
# Si number density = 22.867335 Si / 1000 Ang^3
#
#
#
# Elastic Constant Matrix: (Units=GPa)
#
#
# Indices 1 2 3 4 5 6 
#
# 1 90.1074 26.8284 25.5397 0.0000 15.3075 0.0000
# 2 26.8284 67.2305 36.0730 0.0000 6.0615 0.0000
# 3 25.5397 36.0730 81.5711 0.0000 -0.6754 0.0000
# 4 0.0000 0.0000 0.0000 9.9596 0.0000 -9.0998
# 5 15.3075 6.0615 -0.6754 0.0000 43.9229 0.0000
# 6 0.0000 0.0000 0.0000 -9.0998 0.0000 -22.6625
#
#
#
# Elastic Compliance Matrix: (Units=1/GPa)
#
#
# Indices 1 2 3 4 5 6 
#
# 1 0.013676 -0.003608 -0.002722 0.000000 -0.004310 0.000000
# 2 -0.003608 0.020810 -0.008088 0.000000 -0.001739 0.000000
# 3 -0.002722 -0.008088 0.016707 0.000000 0.002322 0.000000
# 4 0.000000 0.000000 0.000000 0.073456 0.000000 -0.029495
# 5 -0.004310 -0.001739 0.002322 0.000000 0.024545 0.000000
# 6 0.000000 0.000000 0.000000 -0.029495 0.000000 -0.032282
#
#
# Mechanical properties :
#
#
# Convention : Reuss Voigt Hill
#
# Bulk Modulus (GPa) = 44.72689 46.19901 45.46295
# Shear Modulus (GPa) = 32.63700 16.27521 24.45610
#
# Velocity S-wave (km/s) = 3.78197 2.67071 3.27383
# Velocity P-wave (km/s) = 6.21875 5.45501 5.84936
#
# Compressibility (1/GPa) = 0.02235792
#
# Stress axis : x y z
#
# Youngs Moduli (GPa) = 73.12148 48.05316 59.85439
#
# Poissons Ratio (x) = 0.17339 0.16291
# Poissons Ratio (y) = 0.26385 0.48407
# Poissons Ratio (z) = 0.19903 0.38863
#
# Static dielectric constant tensor:
#      x y z
#    x 1.870540 0.000000 0.017890 
#    y 0.000000 1.785120 0.000000 
#    z 0.017890 0.000000 1.882440 
# 
# From -- ./inp_files/162383.got.cif
#   From: 2010.05.17/outbox.cif.g08.bks.cpg/sg12_82_cif.got.tgz:162383.got - 2010.06.03 13:09:07.
