data_PCOD9203991
_publ_section_title
;
Structure prediction by ZEFSAII (Michael W. Deem and Ramdas Pophale) SiO2 
 PCOD9203991
Probable space group: C 2/M
;
_chemical_formula_sum "Si O2"
_cell_formula_units_Z 64
_cell_length_a 29.718879
_cell_length_b 9.127163
_cell_length_c 12.608157
_cell_angle_alpha 90.000000
_cell_angle_beta 92.910489
_cell_angle_gamma 90.000000
_cell_volume 3415.539176
_symmetry_space_group_name_H-M "C 2/M"
_symmetry_group_IT_number 12
_symmetry_cell_setting 'monoclinic'
loop_
_space_group_symop_operation_xyz
x,y,z
-x,y,-z
-x,-y,-z
x,-y,z
1/2+x,1/2+y,z
1/2-x,1/2+y,-z
1/2-x,1/2-y,-z
1/2+x,1/2-y,z
loop_
_atom_site_type_symbol
_atom_site_label
_atom_site_fract_x
_atom_site_fract_y
_atom_site_fract_z
Si Si1 0.276392 0.323304 0.599513
Si Si2 0.618257 0.324553 0.369837
Si Si3 0.539950 0.170655 0.766920
Si Si4 0.447887 0.175349 0.471304
Si Si5 0.317919 0.325463 0.020009
Si Si6 0.747416 0.176202 0.830746
Si Si7 0.438366 0.828744 0.811159
Si Si8 0.076159 0.173376 0.976782
O O1 0.272819 0.500000 0.591413
O O2 0.250000 0.250000 0.500000
O O3 0.329503 0.286358 0.605536
O O4 0.256040 0.278036 0.711167
O O5 0.614503 0.500000 0.365012
O O6 0.586675 0.259758 0.458230
O O7 0.599576 0.257400 0.258158
O O8 0.560137 0.203858 0.654175
O O9 0.485762 0.184155 0.755124
O O10 0.557621 0.271599 0.862669
O O11 0.549506 0.000000 0.793690
O O12 0.500000 0.214959 0.500000
O O13 0.443738 0.000000 0.489806
O O14 0.312461 0.500000 0.033293
O O15 0.295782 0.245176 0.117457
O O16 0.370427 0.295277 0.013595
O O17 0.289594 0.283035 0.911780
O O18 0.743830 0.000000 0.831711
O O19 0.427097 0.000000 0.817699
O O20 0.445120 0.760170 0.927707
O O21 0.068897 0.000000 0.988764
#
# Coordination Sequence:
#
# PCOD9203991 Si02
#       8
#     8   8   8   8   8   8   8   8
#     4  10  23  41  59  84 120 156 192 241 294 348
#     4  11  23  39  62  91 120 152 195 247 302 352
#     4  10  22  39  58  81 114 154 194 240 288 341
#     4  10  20  40  63  84 115 155 200 245 290 345
#     4   9  19  36  57  82 113 146 181 231 288 341
#     4   9  18  36  60  81 107 145 190 233 280 335
#     4  11  22  39  61  84 114 154 198 240 288 348
#     4  11  23  37  55  84 121 154 188 236 295 350
#
# _framework density 18.73789
#
# number of rings (size 3 to 8) (size 9 to 14) (size 15 to 20)
#    0.000    1.875    1.250    2.250    0.000    8.750 
#    0.000    7.500    0.000    0.000    0.000    0.000 
#    0.000    0.000    0.000    0.000    0.000    0.000 
#
# Total GULP energy -178771.811862 kJ/mol
# GULP energy per Si atom -5586.619121 kJ/mol
# Density = 1.869524 g / cm^3
# Si number density = 18.737890 Si / 1000 Ang^3
#
#
#
# Elastic Constant Matrix: (Units=GPa)
#
#
# Indices 1 2 3 4 5 6 
#
# 1 20.9481 20.4301 23.3666 0.0000 -3.3455 0.0000
# 2 20.4301 38.0572 36.8965 0.0000 -1.0731 0.0000
# 3 23.3666 36.8965 116.6756 0.0000 -7.4814 0.0000
# 4 0.0000 0.0000 0.0000 36.3943 0.0000 1.9615
# 5 -3.3455 -1.0731 -7.4814 0.0000 25.5357 0.0000
# 6 0.0000 0.0000 0.0000 1.9615 0.0000 30.3912
#
#
#
# Elastic Compliance Matrix: (Units=1/GPa)
#
#
# Indices 1 2 3 4 5 6 
#
# 1 0.104419 -0.052109 -0.003767 0.000000 0.010387 0.000000
# 2 -0.052109 0.063995 -0.010259 0.000000 -0.007143 0.000000
# 3 -0.003767 -0.010259 0.012750 0.000000 0.002811 0.000000
# 4 0.000000 0.000000 0.000000 0.027573 0.000000 -0.001780
# 5 0.010387 -0.007143 0.002811 0.000000 0.041045 0.000000
# 6 0.000000 0.000000 0.000000 -0.001780 0.000000 0.033019
#
#
# Mechanical properties :
#
#
# Convention : Reuss Voigt Hill
#
# Bulk Modulus (GPa) = 20.45345 37.45192 28.95268
# Shear Modulus (GPa) = 11.59102 24.79676 18.19389
#
# Velocity S-wave (km/s) = 2.48984 3.64173 3.11942
# Velocity P-wave (km/s) = 4.38235 6.14114 5.33473
#
# Compressibility (1/GPa) = 0.04889150
#
# Stress axis : x y z
#
# Youngs Moduli (GPa) = 9.57683 15.62633 78.43264
#
# Poissons Ratio (x) = 0.81427 0.29549
# Poissons Ratio (y) = 0.49904 0.80466
# Poissons Ratio (z) = 0.03608 0.16031
#
# Static dielectric constant tensor:
#      x y z
#    x 1.637020 0.000000 0.001100 
#    y 0.000000 1.624720 0.000000 
#    z 0.001100 0.000000 1.637070 
# 
# From -- ./inp_files/187432.got.cif
#   From: 2010.05.17/outbox.cif.g08.bks.cpg/sg12_94_cif.got.tgz:187432.got - 2010.06.03 13:09:07.
