data_PCOD9203883
_publ_section_title
;
Structure prediction by ZEFSAII (Michael W. Deem and Ramdas Pophale) SiO2 
 PCOD9203883
Probable space group: C 2/M
;
_chemical_formula_sum "Si O2"
_cell_formula_units_Z 64
_cell_length_a 25.305763
_cell_length_b 20.258194
_cell_length_c 8.692683
_cell_angle_alpha 90.000000
_cell_angle_beta 49.613127
_cell_angle_gamma 90.000000
_cell_volume 3394.301540
_symmetry_space_group_name_H-M "C 2/M"
_symmetry_group_IT_number 12
_symmetry_cell_setting 'monoclinic'
loop_
_space_group_symop_operation_xyz
x,y,z
-x,y,-z
-x,-y,-z
x,-y,z
1/2+x,1/2+y,z
1/2-x,1/2+y,-z
1/2-x,1/2-y,-z
1/2+x,1/2-y,z
loop_
_atom_site_type_symbol
_atom_site_label
_atom_site_fract_x
_atom_site_fract_y
_atom_site_fract_z
Si Si1 0.602871 0.132149 0.211585
Si Si2 0.880158 0.785596 0.899006
Si Si3 0.164910 0.425245 0.598871
Si Si4 0.477315 0.715327 0.215557
Si Si5 0.162573 0.184653 0.358865
Si Si6 0.251659 0.795487 0.650797
Si Si7 0.776117 0.426352 0.175723
Si Si8 0.961784 0.368717 0.326694
O O1 0.620231 0.206378 0.124624
O O2 0.576674 0.134420 0.435548
O O3 0.539023 0.107788 0.225057
O O4 0.671376 0.089528 0.061189
O O5 0.858485 0.817354 0.779177
O O6 0.958335 0.803296 0.797260
O O7 0.825121 0.802189 0.135400
O O8 0.183778 0.500000 0.514612
O O9 0.212125 0.365841 0.443914
O O10 0.177722 0.421160 0.757090
O O11 0.086146 0.410611 0.696123
O O12 0.405741 0.683863 0.406840
O O13 0.467242 0.794494 0.251177
O O14 0.500000 0.699936 0.000000
O O15 0.202572 0.253242 0.315896
O O16 0.215577 0.126744 0.297407
O O17 0.250000 0.750000 0.500000
O O18 0.748068 0.500000 0.217747
#
# Coordination Sequence:
#
# PCOD9203883 Si02
#       8
#     8   8   8   8   8   8   8   8
#     4  10  20  40  59  90 126 164 209 250 303 362
#     4  11  22  36  61  94 124 158 203 265 312 365
#     4  11  24  40  57  89 131 167 203 251 304 365
#     4  11  23  37  63  96 126 156 203 259 318 377
#     4  12  22  40  64  90 125 160 210 262 321 360
#     4  12  21  37  62  91 119 165 212 254 304 366
#     4  11  26  42  61  87 124 168 212 260 311 368
#     4  10  22  36  61  89 128 168 204 247 296 371
#
# _framework density 18.855132000000001
#
# number of rings (size 3 to 8) (size 9 to 14) (size 15 to 20)
#    0.000    1.000    5.000    1.500    5.250    1.000 
#    0.000    2.500    0.000    2.625    0.000    0.000 
#    0.000    0.000    0.000    0.000    0.000    0.000 
#
# Total GULP energy -178860.364587 kJ/mol
# GULP energy per Si atom -5589.386393 kJ/mol
# Density = 1.881222 g / cm^3
# Si number density = 18.855132 Si / 1000 Ang^3
#
#
#
# Elastic Constant Matrix: (Units=GPa)
#
#
# Indices 1 2 3 4 5 6 
#
# 1 94.2098 36.0666 20.1714 0.0000 -6.5669 0.0000
# 2 36.0666 77.9243 33.3272 0.0000 -6.9237 0.0000
# 3 20.1714 33.3272 99.2556 0.0000 -18.2446 0.0000
# 4 0.0000 0.0000 0.0000 15.7415 0.0000 1.5376
# 5 -6.5669 -6.9237 -18.2446 0.0000 30.3136 0.0000
# 6 0.0000 0.0000 0.0000 1.5376 0.0000 2.0576
#
#
#
# Elastic Compliance Matrix: (Units=1/GPa)
#
#
# Indices 1 2 3 4 5 6 
#
# 1 0.012984 -0.005685 -0.000508 0.000000 0.001209 0.000000
# 2 -0.005685 0.017479 -0.004729 0.000000 -0.000086 0.000000
# 3 -0.000508 -0.004729 0.012984 0.000000 0.006624 0.000000
# 4 0.000000 0.000000 0.000000 0.068528 0.000000 -0.051210
# 5 0.001209 -0.000086 0.006624 0.000000 0.037218 0.000000
# 6 0.000000 0.000000 0.000000 -0.051210 0.000000 0.524271
#
#
# Mechanical properties :
#
#
# Convention : Reuss Voigt Hill
#
# Bulk Modulus (GPa) = 46.29012 50.05777 48.17394
# Shear Modulus (GPa) = 7.11734 21.74417 14.43076
#
# Velocity S-wave (km/s) = 1.94498 3.39960 2.76950
# Velocity P-wave (km/s) = 5.44496 6.48197 5.98597
#
# Compressibility (1/GPa) = 0.02160288
#
# Stress axis : x y z
#
# Youngs Moduli (GPa) = 77.01811 57.21035 77.01892
#
# Poissons Ratio (x) = 0.32524 0.03910
# Poissons Ratio (y) = 0.43785 0.36426
# Poissons Ratio (z) = 0.03910 0.27058
#
# Static dielectric constant tensor:
#      x y z
#    x 1.680680 0.000000 0.008690 
#    y 0.000000 1.626750 0.000000 
#    z 0.008690 0.000000 1.666780 
# 
# From -- ./inp_files/99055.got.cif
#   From: 2010.05.17/outbox.cif.g08.bks.cpg/sg12_50_cif.got.tgz:99055.got - 2010.06.03 13:09:07.
