data_PCOD9203548
_publ_section_title
;
Structure prediction by ZEFSAII (Michael W. Deem and Ramdas Pophale) SiO2 
 PCOD9203548
Probable space group: C 2/M
;
_chemical_formula_sum "Si O2"
_cell_formula_units_Z 56
_cell_length_a 18.774394
_cell_length_b 35.915576
_cell_length_c 6.995188
_cell_angle_alpha 90.000000
_cell_angle_beta 32.673461
_cell_angle_gamma 90.000000
_cell_volume 2546.370809
_symmetry_space_group_name_H-M "C 2/M"
_symmetry_group_IT_number 12
_symmetry_cell_setting 'monoclinic'
loop_
_space_group_symop_operation_xyz
x,y,z
-x,y,-z
-x,-y,-z
x,-y,z
1/2+x,1/2+y,z
1/2-x,1/2+y,-z
1/2-x,1/2-y,-z
1/2+x,1/2-y,z
loop_
_atom_site_type_symbol
_atom_site_label
_atom_site_fract_x
_atom_site_fract_y
_atom_site_fract_z
Si Si1 0.846408 0.041509 0.793544
Si Si2 0.536087 0.659778 0.693603
Si Si3 0.954749 0.289987 0.827757
Si Si4 0.286145 0.612938 0.177690
Si Si5 0.002094 0.373971 0.208557
Si Si6 0.180341 0.763403 0.350034
Si Si7 0.763480 0.095906 0.682172
O O1 0.819130 0.057761 0.643308
O O2 0.000000 0.039512 0.500000
O O3 0.790237 0.000000 0.943310
O O4 0.796464 0.073946 0.045007
O O5 0.594494 0.699489 0.502828
O O6 0.649298 0.628656 0.422672
O O7 0.500000 0.664007 0.000000
O O8 0.406455 0.642151 0.887967
O O9 0.000000 0.290804 0.500000
O O10 0.941709 0.332409 0.921713
O O11 0.075263 0.267593 0.650524
O O12 0.809855 0.272365 0.181924
O O13 0.151374 0.630261 0.401397
O O14 0.281027 0.602361 0.415315
O O15 0.000000 0.390234 0.000000
O O16 0.108863 0.398409 0.078634
O O17 0.250000 0.750000 0.000000
#
# Coordination Sequence:
#
# PCOD9203548 Si02
#       7
#     8   8   8   8   8   8   8
#     4  11  24  41  66 102 132 166 213 256 315 391
#     4  10  20  39  64  88 120 168 217 267 321 375
#     4  10  22  38  55  83 119 163 210 265 327 375
#     4  10  23  40  66 100 127 166 217 266 319 378
#     4  10  22  40  63  90 123 166 216 263 321 382
#     4  10  22  39  55  83 123 162 213 266 327 382
#     4  10  21  43  65  93 133 167 209 266 320 376
#
# _framework density 21.992083999999998
#
# number of rings (size 3 to 8) (size 9 to 14) (size 15 to 20)
#    0.000    1.857    2.857    0.000    4.000    1.143 
#    5.143    4.286    0.000    2.571    0.000    0.000 
#    0.000    0.000    0.000    0.000    0.000    0.000 
#
# Total GULP energy -156344.228775 kJ/mol
# GULP energy per Si atom -5583.722456 kJ/mol
# Density = 2.194203 g / cm^3
# Si number density = 21.992084 Si / 1000 Ang^3
#
#
#
# Elastic Constant Matrix: (Units=GPa)
#
#
# Indices 1 2 3 4 5 6 
#
# 1 92.3367 11.5707 37.3164 0.0000 -14.8410 0.0000
# 2 11.5707 96.8788 26.8824 0.0000 -12.5472 0.0000
# 3 37.3164 26.8824 102.2056 0.0000 -29.8114 0.0000
# 4 0.0000 0.0000 0.0000 23.9489 0.0000 -4.2622
# 5 -14.8410 -12.5472 -29.8114 0.0000 44.9020 0.0000
# 6 0.0000 0.0000 0.0000 -4.2622 0.0000 23.7381
#
#
#
# Elastic Compliance Matrix: (Units=1/GPa)
#
#
# Indices 1 2 3 4 5 6 
#
# 1 0.012778 -0.000178 -0.004218 0.000000 0.001373 0.000000
# 2 -0.000178 0.011214 -0.002465 0.000000 0.001438 0.000000
# 3 -0.004218 -0.002465 0.014094 0.000000 0.007275 0.000000
# 4 0.000000 0.000000 0.000000 0.043134 0.000000 0.007745
# 5 0.001373 0.001438 0.007275 0.000000 0.027956 0.000000
# 6 0.000000 0.000000 0.000000 0.007745 0.000000 0.043517
#
#
# Mechanical properties :
#
#
# Convention : Reuss Voigt Hill
#
# Bulk Modulus (GPa) = 41.04405 49.21776 45.13090
# Shear Modulus (GPa) = 28.64743 32.89458 30.77100
#
# Velocity S-wave (km/s) = 3.61310 3.87168 3.74463
# Velocity P-wave (km/s) = 6.00913 6.51267 6.26596
#
# Compressibility (1/GPa) = 0.02436407
#
# Stress axis : x y z
#
# Youngs Moduli (GPa) = 78.26242 89.17672 70.94989
#
# Poissons Ratio (x) = 0.01586 0.29926
# Poissons Ratio (y) = 0.01392 0.17490
# Poissons Ratio (z) = 0.33010 0.21983
#
# Static dielectric constant tensor:
#      x y z
#    x 1.884720 0.000000 0.024240 
#    y 0.000000 1.748960 0.000000 
#    z 0.024240 0.000000 1.857820 
# 
# From -- ./inp_files/91552.got.cif
#   From: 2010.05.17/outbox.cif.g08.bks.cpg/sg12_46_cif.got.tgz:91552.got - 2010.06.03 13:09:07.
