data_PCOD9203305
_publ_section_title
;
Structure prediction by ZEFSAII (Michael W. Deem and Ramdas Pophale) SiO2 
 PCOD9203305
Probable space group: C 2/M
;
_chemical_formula_sum "Si O2"
_cell_formula_units_Z 64
_cell_length_a 31.049076
_cell_length_b 8.630601
_cell_length_c 14.772995
_cell_angle_alpha 90.000000
_cell_angle_beta 53.081294
_cell_angle_gamma 90.000000
_cell_volume 3164.976870
_symmetry_space_group_name_H-M "C 2/M"
_symmetry_group_IT_number 12
_symmetry_cell_setting 'monoclinic'
loop_
_space_group_symop_operation_xyz
x,y,z
-x,y,-z
-x,-y,-z
x,-y,z
1/2+x,1/2+y,z
1/2-x,1/2+y,-z
1/2-x,1/2-y,-z
1/2+x,1/2-y,z
loop_
_atom_site_type_symbol
_atom_site_label
_atom_site_fract_x
_atom_site_fract_y
_atom_site_fract_z
Si Si1 0.056527 0.182194 0.875868
Si Si2 0.256324 0.685584 0.593206
Si Si3 0.833880 0.687247 0.640715
Si Si4 0.457966 0.186966 0.477447
Si Si5 0.299438 0.185092 0.879571
Si Si6 0.497192 0.313016 0.237535
Si Si7 0.841881 0.316737 0.152651
Si Si8 0.878435 0.815078 0.921395
O O1 0.042330 0.236946 0.793077
O O2 0.102619 0.278068 0.866228
O O3 0.072653 0.000000 0.855130
O O4 0.000000 0.190633 0.000000
O O5 0.257027 0.500000 0.587449
O O6 0.250000 0.750000 0.500000
O O7 0.308467 0.744466 0.581780
O O8 0.206286 0.734164 0.720513
O O9 0.831072 0.500000 0.639490
O O10 0.896289 0.732759 0.573086
O O11 0.802414 0.738524 0.771436
O O12 0.500000 0.241935 0.500000
O O13 0.477065 0.249457 0.357379
O O14 0.459427 0.000000 0.474459
O O15 0.352982 0.236664 0.865423
O O16 0.296127 0.000000 0.883177
O O17 0.250000 0.250000 0.000000
O O18 0.496667 0.500000 0.237718
O O19 0.559391 0.266684 0.142792
O O20 0.836799 0.500000 0.143055
O O21 0.844696 0.232372 0.052597
O O22 0.876528 0.000000 0.913456
#
# Coordination Sequence:
#
# PCOD9203305 Si02
#       8
#     8   8   8   8   8   8   8   8
#     4  10  20  39  61  87 125 164 200 246 308 374
#     4  11  26  45  65  90 122 161 210 261 311 368
#     4  10  23  43  65  91 126 165 208 255 310 371
#     4  10  22  41  64  90 124 165 206 254 309 365
#     4  11  23  40  64  93 124 160 202 251 308 368
#     4  10  22  38  59  89 122 159 203 247 303 367
#     4  11  24  40  61  91 123 158 208 261 309 368
#     4  11  22  39  62  90 125 163 200 248 305 368
#
# _framework density 20.221316999999999
#
# number of rings (size 3 to 8) (size 9 to 14) (size 15 to 20)
#    0.000    1.500    1.250    3.000    1.750    8.500 
#    0.000    0.000    0.000    0.000    0.000    0.000 
#    0.000    0.000    0.000    0.000    0.000    0.000 
#
# Total GULP energy -178920.107296 kJ/mol
# GULP energy per Si atom -5591.253353 kJ/mol
# Density = 2.017529 g / cm^3
# Si number density = 20.221317 Si / 1000 Ang^3
#
#
#
# Elastic Constant Matrix: (Units=GPa)
#
#
# Indices 1 2 3 4 5 6 
#
# 1 113.8172 13.1659 34.8121 0.0000 20.3834 0.0000
# 2 13.1659 20.0014 17.0647 0.0000 2.6185 0.0000
# 3 34.8121 17.0647 106.4430 0.0000 19.2138 0.0000
# 4 0.0000 0.0000 0.0000 29.1055 0.0000 2.3591
# 5 20.3834 2.6185 19.2138 0.0000 41.7731 0.0000
# 6 0.0000 0.0000 0.0000 2.3591 0.0000 34.2730
#
#
#
# Elastic Compliance Matrix: (Units=1/GPa)
#
#
# Indices 1 2 3 4 5 6 
#
# 1 0.010666 -0.004792 -0.002001 0.000000 -0.003984 0.000000
# 2 -0.004792 0.060090 -0.008515 0.000000 0.002488 0.000000
# 3 -0.002001 -0.008515 0.012150 0.000000 -0.004079 0.000000
# 4 0.000000 0.000000 0.000000 0.034551 0.000000 -0.002378
# 5 -0.003984 0.002488 -0.004079 0.000000 0.027603 0.000000
# 6 0.000000 0.000000 0.000000 -0.002378 0.000000 0.029341
#
#
# Mechanical properties :
#
#
# Convention : Reuss Voigt Hill
#
# Bulk Modulus (GPa) = 19.12427 41.14968 30.13697
# Shear Modulus (GPa) = 22.47720 32.71158 27.59439
#
# Velocity S-wave (km/s) = 3.33762 4.02640 3.69808
# Velocity P-wave (km/s) = 4.93264 6.48149 5.75937
#
# Compressibility (1/GPa) = 0.05228959
#
# Stress axis : x y z
#
# Youngs Moduli (GPa) = 93.75784 16.64165 82.30120
#
# Poissons Ratio (x) = 0.07975 0.16468
# Poissons Ratio (y) = 0.44930 0.70083
# Poissons Ratio (z) = 0.18760 0.14171
#
# Static dielectric constant tensor:
#      x y z
#    x 1.725070 0.000000 -0.007590 
#    y 0.000000 1.686020 0.000000 
#    z -0.007590 0.000000 1.710180 
# 
# From -- ./inp_files/249655.got.cif
#   From: 2010.05.17/outbox.cif.g08.bks.cpg/sg12_125_cif.got.tgz:249655.got - 2010.06.03 13:09:07.
