data_PCOD9203856
_publ_section_title
;
Structure prediction by ZEFSAII (Michael W. Deem and Ramdas Pophale) SiO2 
 PCOD9203856
Probable space group: C 2/M
;
_chemical_formula_sum "Si O2"
_cell_formula_units_Z 56
_cell_length_a 14.705395
_cell_length_b 21.671280
_cell_length_c 9.761897
_cell_angle_alpha 90.000000
_cell_angle_beta 114.649256
_cell_angle_gamma 90.000000
_cell_volume 2827.489656
_symmetry_space_group_name_H-M "C 2/M"
_symmetry_group_IT_number 12
_symmetry_cell_setting 'monoclinic'
loop_
_space_group_symop_operation_xyz
x,y,z
-x,y,-z
-x,-y,-z
x,-y,z
1/2+x,1/2+y,z
1/2-x,1/2+y,-z
1/2-x,1/2-y,-z
1/2+x,1/2-y,z
loop_
_atom_site_type_symbol
_atom_site_label
_atom_site_fract_x
_atom_site_fract_y
_atom_site_fract_z
Si Si1 0.949454 0.000000 0.819115
Si Si2 0.192038 0.222744 0.151837
Si Si3 0.080950 0.427118 0.431441
Si Si4 0.803634 0.888149 0.637343
Si Si5 0.101641 0.235728 0.818913
Si Si6 0.883578 0.129143 0.394124
Si Si7 0.405490 0.500000 0.335046
Si Si8 0.559788 0.826440 0.181265
O O1 0.881367 0.940750 0.735927
O O2 0.043845 0.000000 0.778812
O O3 0.000000 0.000000 0.000000
O O4 0.188217 0.169480 0.258432
O O5 0.301924 0.222722 0.154353
O O6 0.158837 0.288827 0.195246
O O7 0.115954 0.209804 0.980341
O O8 0.068644 0.500000 0.392832
O O9 0.192033 0.415365 0.560609
O O10 0.072081 0.385064 0.288597
O O11 0.000000 0.410748 0.500000
O O12 0.829853 0.861711 0.503909
O O13 0.112266 0.182355 0.714890
O O14 0.003278 0.277121 0.766980
O O15 0.845226 0.062821 0.317631
O O16 0.000000 0.120923 0.500000
O O17 0.500000 0.500000 0.500000
O O18 0.500000 0.839364 0.000000
#
# Coordination Sequence:
#
# PCOD9203856 Si02
#       8
#     4   8   8   8   8   8   4   8
#     4  12  26  40  65  94 131 172 206 254 322 388
#     4  10  23  39  60  90 124 159 205 257 312 380
#     4  11  25  43  65  89 124 169 219 275 315 363
#     4  12  23  41  64  93 130 166 212 259 317 380
#     4  10  22  40  59  88 126 159 202 262 312 367
#     4  11  21  35  61  88 125 160 198 247 310 375
#     4  10  20  40  56  88 129 161 194 245 299 380
#     4  10  22  41  65  91 125 165 212 264 318 374
#
# _framework density 19.805554999999998
#
# number of rings (size 3 to 8) (size 9 to 14) (size 15 to 20)
#    0.000    1.286    3.571    2.571    2.000    6.000 
#    0.000    0.000    0.000    0.000    0.000    0.000 
#    0.000    0.000    0.000    0.000    0.000    0.000 
#
# Total GULP energy -156220.731713 kJ/mol
# GULP energy per Si atom -5579.311847 kJ/mol
# Density = 1.976048 g / cm^3
# Si number density = 19.805555 Si / 1000 Ang^3
#
#
#
# Elastic Constant Matrix: (Units=GPa)
#
#
# Indices 1 2 3 4 5 6 
#
# 1 85.9727 8.9027 29.7803 0.0000 -19.5095 0.0000
# 2 8.9027 86.3687 66.0941 0.0000 -17.8556 0.0000
# 3 29.7803 66.0941 116.0106 0.0000 -31.4668 0.0000
# 4 0.0000 0.0000 0.0000 -73.0326 0.0000 -34.8112
# 5 -19.5095 -17.8556 -31.4668 0.0000 34.5019 0.0000
# 6 0.0000 0.0000 0.0000 -34.8112 0.0000 26.2079
#
#
#
# Elastic Compliance Matrix: (Units=1/GPa)
#
#
# Indices 1 2 3 4 5 6 
#
# 1 0.013895 0.002291 -0.003215 0.000000 0.006111 0.000000
# 2 0.002291 0.020906 -0.012241 0.000000 0.000951 0.000000
# 3 -0.003215 -0.012241 0.018878 0.000000 0.009064 0.000000
# 4 0.000000 0.000000 0.000000 -0.008384 0.000000 -0.011137
# 5 0.006111 0.000951 0.009064 0.000000 0.041198 0.000000
# 6 0.000000 0.000000 0.000000 -0.011137 0.000000 0.023364
#
#
# Mechanical properties :
#
#
# Convention : Reuss Voigt Hill
#
# Bulk Modulus (GPa) = 36.56383 55.32291 45.94337
# Shear Modulus (GPa) = 34.41114 9.77377 22.09245
#
# Velocity S-wave (km/s) = 4.17279 2.22386 3.34348
# Velocity P-wave (km/s) = 6.45893 5.88114 6.17679
#
# Compressibility (1/GPa) = 0.02734943
#
# Stress axis : x y z
#
# Youngs Moduli (GPa) = 71.97065 47.83285 52.97271
#
# Poissons Ratio (x) = -0.10959 0.17028
# Poissons Ratio (y) = -0.16489 0.64844
# Poissons Ratio (z) = 0.23135 0.58552
#
# Static dielectric constant tensor:
#      x y z
#    x 11.567840 0.000000 -35.122290 
#    y 0.000000 1.750510 0.000000 
#    z -35.122290 0.000000 126.889620 
# 
# From -- ./inp_files/66012.got.cif
#   From: 2010.05.17/outbox.cif.g08.bks.cpg/sg12_34_cif.got.tgz:66012.got - 2010.06.03 13:09:07.
