data_PCOD9203258
_publ_section_title
;
Structure prediction by ZEFSAII (Michael W. Deem and Ramdas Pophale) SiO2 
 PCOD9203258
Probable space group: C 2/M
;
_chemical_formula_sum "Si O2"
_cell_formula_units_Z 56
_cell_length_a 18.122243
_cell_length_b 15.615669
_cell_length_c 21.080330
_cell_angle_alpha 90.000000
_cell_angle_beta 151.674557
_cell_angle_gamma 90.000000
_cell_volume 2830.525575
_symmetry_space_group_name_H-M "C 2/M"
_symmetry_group_IT_number 12
_symmetry_cell_setting 'monoclinic'
loop_
_space_group_symop_operation_xyz
x,y,z
-x,y,-z
-x,-y,-z
x,-y,z
1/2+x,1/2+y,z
1/2-x,1/2+y,-z
1/2-x,1/2-y,-z
1/2+x,1/2-y,z
loop_
_atom_site_type_symbol
_atom_site_label
_atom_site_fract_x
_atom_site_fract_y
_atom_site_fract_z
Si Si1 0.470333 0.095903 0.154773
Si Si2 0.461760 0.162401 0.655193
Si Si3 0.497745 0.260896 0.895420
Si Si4 0.604211 0.407295 0.880690
Si Si5 0.955804 0.098667 0.393244
Si Si6 0.375828 0.361258 0.601137
Si Si7 0.742152 0.239493 0.800319
O O1 0.490677 0.114952 0.244610
O O2 0.544869 0.171574 0.170532
O O3 0.524867 0.000000 0.180692
O O4 0.285579 0.102159 0.002369
O O5 0.416115 0.260564 0.637447
O O6 0.299605 0.122959 0.508856
O O7 0.605182 0.174178 0.716070
O O8 0.548217 0.329849 0.881810
O O9 0.351542 0.290994 0.826096
O O10 0.643688 0.248410 0.053251
O O11 0.585321 0.500000 0.898607
O O12 0.503000 0.406003 0.740640
O O13 0.834645 0.170093 0.277591
O O14 0.000000 0.114041 0.500000
O O15 0.100615 0.111575 0.454216
O O16 0.902421 0.000000 0.347198
#
# Coordination Sequence:
#
# PCOD9203258 Si02
#       7
#     8   8   8   8   8   8   8
#     4  11  22  36  64  95 125 162 207 260 312 375
#     4  10  20  39  60  89 118 163 211 256 300 362
#     4  11  22  40  62  93 124 165 208 260 322 372
#     4  11  22  39  65  93 121 164 213 263 317 372
#     4  10  22  38  57  88 131 170 205 251 316 391
#     4  10  21  36  64  89 119 166 210 256 306 369
#     4  10  23  39  63  86 124 170 207 257 315 374
#
# _framework density 19.784310999999999
#
# number of rings (size 3 to 8) (size 9 to 14) (size 15 to 20)
#    0.000    1.571    2.857    2.571    2.000    4.571 
#    0.000    3.571    0.000    0.857    0.000    0.000 
#    0.000    0.000    0.000    0.000    0.000    0.000 
#
# Total GULP energy -156352.616349 kJ/mol
# GULP energy per Si atom -5584.022012 kJ/mol
# Density = 1.973928 g / cm^3
# Si number density = 19.784311 Si / 1000 Ang^3
#
#
#
# Elastic Constant Matrix: (Units=GPa)
#
#
# Indices 1 2 3 4 5 6 
#
# 1 85.9738 23.3180 25.5588 0.0003 -2.2074 0.0002
# 2 23.3180 54.2392 0.9242 0.0011 -10.4133 0.0006
# 3 25.5588 0.9242 86.0274 0.0034 3.8419 0.0021
# 4 0.0003 0.0011 0.0034 4.1700 0.0011 -8.6602
# 5 -2.2074 -10.4133 3.8419 0.0011 27.6154 0.0006
# 6 0.0002 0.0006 0.0021 -8.6602 0.0006 4.4296
#
#
#
# Elastic Compliance Matrix: (Units=1/GPa)
#
#
# Indices 1 2 3 4 5 6 
#
# 1 0.014590 -0.006321 -0.004239 -0.000003 -0.000627 -0.000003
# 2 -0.006321 0.022640 0.001284 0.000006 0.007853 0.000007
# 3 -0.004239 0.001284 0.012944 0.000007 -0.001655 0.000008
# 4 -0.000003 0.000006 0.000007 -0.078361 0.000007 -0.153202
# 5 -0.000627 0.007853 -0.001655 0.000007 0.039353 0.000009
# 6 -0.000003 0.000007 0.000008 -0.153202 0.000009 -0.073769
#
#
# Mechanical properties :
#
#
# Convention : Reuss Voigt Hill
#
# Bulk Modulus (GPa) = 31.62283 36.20471 33.91377
# Shear Modulus (GPa) = -149.20086 19.00562 -65.09762
#
# Velocity S-wave (km/s) = -8.69353 3.10278 -5.74239
# Velocity P-wave (km/s) = 9.20605 5.58353 5.17570
#
# Compressibility (1/GPa) = 0.03162272
#
# Stress axis : x y z
#
# Youngs Moduli (GPa) = 68.54149 44.16962 77.25788
#
# Poissons Ratio (x) = 0.27917 0.32747
# Poissons Ratio (y) = 0.43322 -0.09919
# Poissons Ratio (z) = 0.29053 -0.05671
#
# Static dielectric constant tensor:
#      x y z
#    x 1.691000 0.000000 0.021830 
#    y 0.000000 1.702050 0.000000 
#    z 0.021830 0.000000 1.711640 
# 
# From -- ./inp_files/316775.got.cif
#   From: 2010.05.17/outbox.cif.g08.bks.cpg/sg12_159_cif.got.tgz:316775.got - 2010.06.03 13:09:07.
