data_PCOD9203521
_publ_section_title
;
Structure prediction by ZEFSAII (Michael W. Deem and Ramdas Pophale) SiO2 
 PCOD9203521
Probable space group: C 2/M
;
_chemical_formula_sum "Si O2"
_cell_formula_units_Z 50
_cell_length_a 19.066741
_cell_length_b 15.731444
_cell_length_c 9.932640
_cell_angle_alpha 90.000000
_cell_angle_beta 66.156024
_cell_angle_gamma 90.000000
_cell_volume 2724.987607
_symmetry_space_group_name_H-M "C 2/M"
_symmetry_group_IT_number 12
_symmetry_cell_setting 'monoclinic'
loop_
_space_group_symop_operation_xyz
x,y,z
-x,y,-z
-x,-y,-z
x,-y,z
1/2+x,1/2+y,z
1/2-x,1/2+y,-z
1/2-x,1/2-y,-z
1/2+x,1/2-y,z
loop_
_atom_site_type_symbol
_atom_site_label
_atom_site_fract_x
_atom_site_fract_y
_atom_site_fract_z
Si Si1 0.244478 0.902830 0.523416
Si Si2 0.107702 0.400002 0.125814
Si Si3 0.527610 0.226675 0.837327
Si Si4 0.692077 0.159880 0.798724
Si Si5 0.000000 0.000000 0.500000
Si Si6 0.082871 0.838549 0.568474
Si Si7 0.327971 0.209929 0.677911
O O1 0.271779 0.897103 0.347249
O O2 0.160738 0.861000 0.588445
O O3 0.299128 0.847550 0.575959
O O4 0.242690 0.000000 0.569663
O O5 0.097173 0.500000 0.159731
O O6 0.141328 0.349496 0.227356
O O7 0.028043 0.353231 0.148293
O O8 0.165240 0.386698 0.954948
O O9 0.614499 0.197580 0.794557
O O10 0.526286 0.291427 0.715020
O O11 0.500000 0.266130 0.000000
O O12 0.755271 0.232516 0.778986
O O13 0.050136 0.075079 0.535664
O O14 0.108146 0.773765 0.430919
#
# Coordination Sequence:
#
# PCOD9203521 Si02
#       7
#     8   8   8   8   2   8   8
#     4  11  20  36  66  93 117 151 209 250 299 353
#     4  11  24  38  57  94 129 155 199 252 310 363
#     4  10  21  40  64  86 122 167 201 243 311 374
#     4  10  20  39  64  85 118 166 202 248 297 371
#     4  12  24  36  66  84 134 148 208 262 290 350
#     4  11  21  41  59  91 116 165 203 251 298 358
#     4  11  21  40  65  87 123 161 201 251 311 362
#
# _framework density 18.348707999999998
#
# number of rings (size 3 to 8) (size 9 to 14) (size 15 to 20)
#    0.000    1.280    4.000    3.360    0.000    3.520 
#    0.000    1.200    0.000    0.000    0.000    0.000 
#    0.000    0.000    0.000    0.000    0.000    0.000 
#
# Total GULP energy -139325.694033 kJ/mol
# GULP energy per Si atom -5573.027761 kJ/mol
# Density = 1.830695 g / cm^3
# Si number density = 18.348708 Si / 1000 Ang^3
#
#
#
# Elastic Constant Matrix: (Units=GPa)
#
#
# Indices 1 2 3 4 5 6 
#
# 1 72.7961 47.1794 53.2515 0.0000 6.5647 0.0000
# 2 47.1794 151.4055 73.8794 0.0000 2.1957 0.0000
# 3 53.2515 73.8794 86.0573 0.0000 4.5005 0.0000
# 4 0.0000 0.0000 0.0000 205.1645 0.0000 327.6672
# 5 6.5647 2.1957 4.5005 0.0000 30.9827 0.0000
# 6 0.0000 0.0000 0.0000 327.6672 0.0000 569.9486
#
#
#
# Elastic Compliance Matrix: (Units=1/GPa)
#
#
# Indices 1 2 3 4 5 6 
#
# 1 0.025414 -0.000482 -0.015147 0.000000 -0.003150 0.000000
# 2 -0.000482 0.011387 -0.009512 0.000000 0.000677 0.000000
# 3 -0.015147 -0.009512 0.029178 0.000000 -0.000355 0.000000
# 4 0.000000 0.000000 0.000000 0.059572 0.000000 -0.034248
# 5 -0.003150 0.000677 -0.000355 0.000000 0.032947 0.000000
# 6 0.000000 0.000000 0.000000 -0.034248 0.000000 0.021444
#
#
# Mechanical properties :
#
#
# Convention : Reuss Voigt Hill
#
# Bulk Modulus (GPa) = 63.71449 73.20885 68.46167
# Shear Modulus (GPa) = 21.23520 170.28237 95.75878
#
# Velocity S-wave (km/s) = 3.40562 9.64391 7.23198
# Velocity P-wave (km/s) = 7.08971 12.80593 10.35026
#
# Compressibility (1/GPa) = 0.01569502
#
# Stress axis : x y z
#
# Youngs Moduli (GPa) = 39.34813 87.81950 34.27236
#
# Poissons Ratio (x) = 0.04237 0.51913
# Poissons Ratio (y) = 0.01898 0.32602
# Poissons Ratio (z) = 0.59601 0.83538
#
# Static dielectric constant tensor:
#      x y z
#    x 1.629440 0.000000 -0.011670 
#    y 0.000000 1.600920 0.000000 
#    z -0.011670 0.000000 1.640830 
# 
# From -- ./inp_files/85791.got.cif
#   From: 2010.05.17/outbox.cif.g08.bks.cpg/sg12_43_cif.got.tgz:85791.got - 2010.06.03 13:09:07.
