data_PCOD9203827
_publ_section_title
;
Structure prediction by ZEFSAII (Michael W. Deem and Ramdas Pophale) SiO2 
 PCOD9203827
Probable space group: C 2/M
;
_chemical_formula_sum "Si O2"
_cell_formula_units_Z 36
_cell_length_a 19.036978
_cell_length_b 14.080683
_cell_length_c 6.723398
_cell_angle_alpha 90.000000
_cell_angle_beta 61.578838
_cell_angle_gamma 90.000000
_cell_volume 1585.013565
_symmetry_space_group_name_H-M "C 2/M"
_symmetry_group_IT_number 12
_symmetry_cell_setting 'monoclinic'
loop_
_space_group_symop_operation_xyz
x,y,z
-x,y,-z
-x,-y,-z
x,-y,z
1/2+x,1/2+y,z
1/2-x,1/2+y,-z
1/2-x,1/2-y,-z
1/2+x,1/2-y,z
loop_
_atom_site_type_symbol
_atom_site_label
_atom_site_fract_x
_atom_site_fract_y
_atom_site_fract_z
Si Si1 0.940498 0.000000 0.272493
Si Si2 0.738546 0.000000 0.918528
Si Si3 0.000000 0.157479 0.500000
Si Si4 0.445269 0.789765 0.905943
Si Si5 0.761824 0.000000 0.333936
Si Si6 0.284737 0.160404 0.343109
Si Si7 0.955085 0.500000 0.767469
O O1 0.957024 0.910166 0.396336
O O2 0.849879 0.000000 0.313196
O O3 0.000000 0.000000 0.000000
O O4 0.776962 0.000000 0.080606
O O5 0.642182 0.000000 0.088512
O O6 0.758430 0.093619 0.763342
O O7 0.054795 0.228062 0.293890
O O8 0.477470 0.896897 0.825259
O O9 0.500000 0.742235 0.000000
O O10 0.360759 0.803014 0.122496
O O11 0.708369 0.087285 0.482981
O O12 0.250000 0.250000 0.500000
O O13 0.000000 0.500000 0.500000
#
# Coordination Sequence:
#
# PCOD9203827 Si02
#       7
#     4   4   4   8   4   8   4
#     4  11  28  52  73 100 144 193 244 301 354 415
#     4   9  23  46  68 104 143 190 234 284 364 421
#     4  11  26  47  76 104 142 183 248 297 356 422
#     4  11  24  43  73 109 143 185 240 288 361 430
#     4  11  26  49  72 103 148 189 242 290 359 436
#     4  10  25  46  67 106 145 183 234 299 353 418
#     4  10  20  39  69 107 144 185 218 292 349 424
#
# _framework density 22.712737000000001
#
# number of rings (size 3 to 8) (size 9 to 14) (size 15 to 20)
#    0.000    1.556    1.111    1.667    9.333    4.444 
#    0.000    0.000    0.000    0.000    0.000    0.000 
#    0.000    0.000    0.000    0.000    0.000    0.000 
#
# Total GULP energy -100446.225000 kJ/mol
# GULP energy per Si atom -5580.345833 kJ/mol
# Density = 2.266104 g / cm^3
# Si number density = 22.712737 Si / 1000 Ang^3
#
#
#
# Elastic Constant Matrix: (Units=GPa)
#
#
# Indices 1 2 3 4 5 6 
#
# 1 62.2009 24.9483 62.7601 0.0000 8.2555 0.0000
# 2 24.9483 181.5560 107.1503 0.0000 1.4144 0.0000
# 3 62.7601 107.1503 237.2253 0.0000 -4.6207 0.0000
# 4 0.0000 0.0000 0.0000 50.6318 0.0000 -2.6784
# 5 8.2555 1.4144 -4.6207 0.0000 43.7514 0.0000
# 6 0.0000 0.0000 0.0000 -2.6784 0.0000 -1.4245
#
#
#
# Elastic Compliance Matrix: (Units=1/GPa)
#
#
# Indices 1 2 3 4 5 6 
#
# 1 0.023036 0.000721 -0.006519 0.000000 -0.005059 0.000000
# 2 0.000721 0.007548 -0.003615 0.000000 -0.000762 0.000000
# 3 -0.006519 -0.003615 0.007615 0.000000 0.002151 0.000000
# 4 0.000000 0.000000 0.000000 0.017964 0.000000 -0.033775
# 5 -0.005059 -0.000762 0.002151 0.000000 0.024063 0.000000
# 6 0.000000 0.000000 0.000000 -0.033775 0.000000 -0.638488
#
#
# Mechanical properties :
#
#
# Convention : Reuss Voigt Hill
#
# Bulk Modulus (GPa) = 51.61525 96.74439 74.17982
# Shear Modulus (GPa) = -9.38124 37.66662 14.14269
#
# Velocity S-wave (km/s) = -2.03454 4.07675 2.49806
# Velocity P-wave (km/s) = 4.15397 8.05277 6.40713
#
# Compressibility (1/GPa) = 0.01937412
#
# Stress axis : x y z
#
# Youngs Moduli (GPa) = 43.40947 132.48005 131.32422
#
# Poissons Ratio (x) = -0.09553 0.85607
# Poissons Ratio (y) = -0.03130 0.47474
# Poissons Ratio (z) = 0.28297 0.47892
#
# Static dielectric constant tensor:
#      x y z
#    x 1.878270 0.000000 0.017550 
#    y 0.000000 1.848290 0.000000 
#    z 0.017550 0.000000 1.787320 
# 
# From -- ./inp_files/24036.got.cif
#   From: 2010.05.17/outbox.cif.g08.bks.cpg/sg12_13_cif.got.tgz:24036.got - 2010.06.03 13:09:07.
