data_PCOD9203577
_publ_section_title
;
Structure prediction by ZEFSAII (Michael W. Deem and Ramdas Pophale) SiO2 
 PCOD9203577
Probable space group: C 2/M
;
_chemical_formula_sum "Si O2"
_cell_formula_units_Z 64
_cell_length_a 26.814580
_cell_length_b 14.496677
_cell_length_c 12.695348
_cell_angle_alpha 90.000000
_cell_angle_beta 37.175148
_cell_angle_gamma 90.000000
_cell_volume 2981.970152
_symmetry_space_group_name_H-M "C 2/M"
_symmetry_group_IT_number 12
_symmetry_cell_setting 'monoclinic'
loop_
_space_group_symop_operation_xyz
x,y,z
-x,y,-z
-x,-y,-z
x,-y,z
1/2+x,1/2+y,z
1/2-x,1/2+y,-z
1/2-x,1/2-y,-z
1/2+x,1/2-y,z
loop_
_atom_site_type_symbol
_atom_site_label
_atom_site_fract_x
_atom_site_fract_y
_atom_site_fract_z
Si Si1 0.188888 0.391753 0.048581
Si Si2 0.602439 0.209983 0.998972
Si Si3 0.469149 0.603073 0.935809
Si Si4 0.646531 0.634374 0.551311
Si Si5 0.679630 0.097939 0.684350
Si Si6 0.587221 0.160149 0.644762
Si Si7 0.865399 0.102729 0.665011
Si Si8 0.913934 0.686901 0.593228
O O1 0.164180 0.500000 0.080421
O O2 0.150217 0.330834 0.018960
O O3 0.157317 0.348576 0.210317
O O4 0.287614 0.388970 0.872822
O O5 0.590070 0.320476 0.014525
O O6 0.508606 0.172349 0.163385
O O7 0.646669 0.176352 0.818079
O O8 0.433713 0.500000 0.003451
O O9 0.555140 0.597986 0.727893
O O10 0.500000 0.633827 0.000000
O O11 0.722226 0.606793 0.497165
O O12 0.634571 0.742993 0.577571
O O13 0.669826 0.603872 0.394716
O O14 0.631800 0.098788 0.655439
O O15 0.663548 0.000000 0.766411
O O16 0.592338 0.142772 0.511841
O O17 0.913643 0.200244 0.587779
O O18 0.904030 0.000000 0.615771
O O19 0.000000 0.658722 0.500000
#
# Coordination Sequence:
#
# PCOD9203577 Si02
#       8
#     8   8   8   8   8   8   8   8
#     4  11  23  41  65  89 122 169 212 248 307 371
#     4  11  21  39  60  91 125 161 209 255 303 364
#     4  10  21  38  61  88 126 169 203 243 309 383
#     4  10  20  39  64  91 123 161 204 253 315 370
#     4  12  23  37  63  96 127 162 208 258 304 361
#     4  10  23  39  58  88 127 165 205 252 310 368
#     4  10  21  40  68  96 120 156 207 261 312 366
#     4  11  23  43  63  91 124 164 209 254 316 368
#
# _framework density 21.462320999999999
#
# number of rings (size 3 to 8) (size 9 to 14) (size 15 to 20)
#    0.000    1.375    2.500    4.125    0.000    2.500 
#    0.000    0.625    0.000    0.750    0.000    0.000 
#    0.000    0.000    0.000    0.000    0.000    0.000 
#
# Total GULP energy -178663.215131 kJ/mol
# GULP energy per Si atom -5583.225473 kJ/mol
# Density = 2.141347 g / cm^3
# Si number density = 21.462321 Si / 1000 Ang^3
#
#
#
# Elastic Constant Matrix: (Units=GPa)
#
#
# Indices 1 2 3 4 5 6 
#
# 1 67.9780 12.7201 6.3137 0.0000 6.6441 0.0000
# 2 12.7201 78.9701 11.0185 0.0000 6.9926 0.0000
# 3 6.3137 11.0185 58.5763 0.0000 8.2076 0.0000
# 4 0.0000 0.0000 0.0000 -5.0434 0.0000 4.2782
# 5 6.6441 6.9926 8.2076 0.0000 23.4534 0.0000
# 6 0.0000 0.0000 0.0000 4.2782 0.0000 31.2453
#
#
#
# Elastic Compliance Matrix: (Units=1/GPa)
#
#
# Indices 1 2 3 4 5 6 
#
# 1 0.015515 -0.002079 -0.000791 0.000000 -0.003499 0.000000
# 2 -0.002079 0.013512 -0.001930 0.000000 -0.002764 0.000000
# 3 -0.000791 -0.001930 0.018306 0.000000 -0.005607 0.000000
# 4 0.000000 0.000000 0.000000 -0.177645 0.000000 0.024323
# 5 -0.003499 -0.002764 -0.005607 0.000000 0.046415 0.000000
# 6 0.000000 0.000000 0.000000 0.024323 0.000000 0.028674
#
#
# Mechanical properties :
#
#
# Convention : Reuss Voigt Hill
#
# Bulk Modulus (GPa) = 26.50252 29.51431 28.00841
# Shear Modulus (GPa) = -151.31028 21.62919 -64.84055
#
# Velocity S-wave (km/s) = -8.40556 3.17799 -5.50245
# Velocity P-wave (km/s) = 9.04596 5.21993 5.22407
#
# Compressibility (1/GPa) = 0.03773227
#
# Stress axis : x y z
#
# Youngs Moduli (GPa) = 64.45343 74.00849 54.62786
#
# Poissons Ratio (x) = 0.15386 0.04321
# Poissons Ratio (y) = 0.13399 0.10545
# Poissons Ratio (z) = 0.05098 0.14286
#
# Static dielectric constant tensor:
#      x y z
#    x 1.749560 0.000000 0.003250 
#    y 0.000000 1.804830 0.000000 
#    z 0.003250 0.000000 1.794020 
# 
# From -- ./inp_files/183749.got.cif
#   From: 2010.05.17/outbox.cif.g08.bks.cpg/sg12_92_cif.got.tgz:183749.got - 2010.06.03 13:09:07.
