data_PCOD9203680
_publ_section_title
;
Structure prediction by ZEFSAII (Michael W. Deem and Ramdas Pophale) SiO2 
 PCOD9203680
Probable space group: C 2/M
;
_chemical_formula_sum "Si O2"
_cell_formula_units_Z 64
_cell_length_a 33.241915
_cell_length_b 8.272362
_cell_length_c 16.819285
_cell_angle_alpha 90.000000
_cell_angle_beta 42.350857
_cell_angle_gamma 90.000000
_cell_volume 3115.799508
_symmetry_space_group_name_H-M "C 2/M"
_symmetry_group_IT_number 12
_symmetry_cell_setting 'monoclinic'
loop_
_space_group_symop_operation_xyz
x,y,z
-x,y,-z
-x,-y,-z
x,-y,z
1/2+x,1/2+y,z
1/2-x,1/2+y,-z
1/2-x,1/2-y,-z
1/2+x,1/2-y,z
loop_
_atom_site_type_symbol
_atom_site_label
_atom_site_fract_x
_atom_site_fract_y
_atom_site_fract_z
Si Si1 0.250309 0.306190 0.409152
Si Si2 0.023774 0.307823 0.711302
Si Si3 0.594371 0.691182 0.202170
Si Si4 0.344941 0.191016 0.740358
Si Si5 0.521639 0.806573 0.053537
Si Si6 0.642877 0.688748 0.454782
Si Si7 0.787568 0.803945 0.062845
Si Si8 0.843919 0.805393 0.146530
O O1 0.248073 0.500000 0.409714
O O2 0.250000 0.250000 0.500000
O O3 0.194505 0.241556 0.440303
O O4 0.310586 0.253812 0.275360
O O5 0.035187 0.500000 0.696819
O O6 0.079448 0.223809 0.588225
O O7 0.963125 0.275628 0.750975
O O8 0.012584 0.247034 0.817910
O O9 0.588801 0.500000 0.194806
O O10 0.605193 0.723406 0.279241
O O11 0.655591 0.751715 0.070827
O O12 0.352247 0.218464 0.635918
O O13 0.278674 0.254954 0.860887
O O14 0.347718 0.000000 0.752632
O O15 0.513571 0.000000 0.064401
O O16 0.500000 0.740955 0.000000
O O17 0.591412 0.769125 0.959697
O O18 0.649165 0.500000 0.428209
O O19 0.802048 0.763229 0.133079
O O20 0.785771 0.000000 0.059519
O O21 0.850483 0.000000 0.137175
#
# Coordination Sequence:
#
# PCOD9203680 Si02
#       8
#     8   8   8   8   8   8   8   8
#     4  11  24  43  66  95 130 168 211 258 310 369
#     4  11  24  43  64  89 124 167 209 256 315 374
#     4  11  22  39  63  94 127 161 206 258 308 368
#     4  11  22  41  65  92 127 166 206 252 311 374
#     4  10  23  41  62  93 127 162 205 257 311 366
#     4  12  26  44  65  92 124 164 212 261 313 368
#     4   9  18  36  62  91 127 163 199 250 309 367
#     4  10  20  39  65  93 124 164 206 251 307 365
#
# _framework density 20.540474
#
# number of rings (size 3 to 8) (size 9 to 14) (size 15 to 20)
#    0.000    1.375    2.500    3.000    1.750    2.250 
#    0.000    4.375    0.000    0.000    0.000    0.000 
#    0.000    0.000    0.000    0.000    0.000    0.000 
#
# Total GULP energy -178896.316999 kJ/mol
# GULP energy per Si atom -5590.509906 kJ/mol
# Density = 2.049372 g / cm^3
# Si number density = 20.540474 Si / 1000 Ang^3
#
#
#
# Elastic Constant Matrix: (Units=GPa)
#
#
# Indices 1 2 3 4 5 6 
#
# 1 55.5475 -13.4272 6.7312 0.0000 11.5033 0.0002
# 2 -13.4272 26.2377 -11.4412 -0.0034 -1.9099 -0.0009
# 3 6.7312 -11.4412 85.6613 -0.0011 -1.1989 -0.0003
# 4 0.0000 -0.0034 -0.0011 19.4498 0.0003 -9.6011
# 5 11.5033 -1.9099 -1.1989 0.0003 31.7661 0.0002
# 6 0.0002 -0.0009 -0.0003 -9.6011 0.0002 22.3494
#
#
#
# Elastic Compliance Matrix: (Units=1/GPa)
#
#
# Indices 1 2 3 4 5 6 
#
# 1 0.022152 0.010611 -0.000427 0.000003 -0.007400 0.000001
# 2 0.010611 0.045776 0.005268 0.000012 -0.000892 0.000007
# 3 -0.000427 0.005268 0.012424 0.000002 0.000940 0.000001
# 4 0.000003 0.000012 0.000002 0.065252 -0.000001 0.028032
# 5 -0.007400 -0.000892 0.000940 -0.000001 0.034142 -0.000001
# 6 0.000001 0.000007 0.000001 0.028032 -0.000001 0.056786
#
#
# Mechanical properties :
#
#
# Convention : Reuss Voigt Hill
#
# Bulk Modulus (GPa) = 8.98829 14.57468 11.78149
# Shear Modulus (GPa) = 20.60054 27.08529 23.84291
#
# Velocity S-wave (km/s) = 3.17033 3.63523 3.41071
# Velocity P-wave (km/s) = 4.21743 4.97302 4.61073
#
# Compressibility (1/GPa) = 0.11125581
#
# Stress axis : x y z
#
# Youngs Moduli (GPa) = 45.14299 21.84567 80.48839
#
# Poissons Ratio (x) = -0.23181 0.03437
# Poissons Ratio (y) = -0.47903 -0.42398
# Poissons Ratio (z) = 0.01927 -0.11507
#
# Static dielectric constant tensor:
#      x y z
#    x 1.687820 0.000000 -0.031500 
#    y 0.000000 1.706270 0.000000 
#    z -0.031500 0.000000 1.614040 
# 
# From -- ./inp_files/249831.got.cif
#   From: 2010.05.17/outbox.cif.g08.bks.cpg/sg12_125_cif.got.tgz:249831.got - 2010.06.03 13:09:07.
