data_PCOD9203251
_publ_section_title
;
Structure prediction by ZEFSAII (Michael W. Deem and Ramdas Pophale) SiO2 
 PCOD9203251
Probable space group: C 2/M
;
_chemical_formula_sum "Si O2"
_cell_formula_units_Z 58
_cell_length_a 20.351281
_cell_length_b 12.505167
_cell_length_c 21.803763
_cell_angle_alpha 90.000000
_cell_angle_beta 34.340213
_cell_angle_gamma 90.000000
_cell_volume 3130.207968
_symmetry_space_group_name_H-M "C 2/M"
_symmetry_group_IT_number 12
_symmetry_cell_setting 'monoclinic'
loop_
_space_group_symop_operation_xyz
x,y,z
-x,y,-z
-x,-y,-z
x,-y,z
1/2+x,1/2+y,z
1/2-x,1/2+y,-z
1/2-x,1/2-y,-z
1/2+x,1/2-y,z
loop_
_atom_site_type_symbol
_atom_site_label
_atom_site_fract_x
_atom_site_fract_y
_atom_site_fract_z
Si Si1 0.924860 0.372964 0.618891
Si Si2 0.014387 0.287647 0.844177
Si Si3 0.000000 0.000000 0.000000
Si Si4 0.695636 0.877399 0.920416
Si Si5 0.665283 0.697223 0.839836
Si Si6 0.089621 0.259406 0.586210
Si Si7 0.555043 0.625407 0.206518
Si Si8 0.705155 0.122642 0.606287
O O1 0.926667 0.500000 0.628493
O O2 0.792167 0.334804 0.716946
O O3 0.000000 0.351799 0.500000
O O4 0.988066 0.312222 0.625542
O O5 0.085223 0.238271 0.846084
O O6 0.104498 0.352706 0.732656
O O7 0.961588 0.193775 0.842280
O O8 0.910339 0.358443 0.951098
O O9 0.898848 0.905419 0.082226
O O10 0.681004 0.791227 0.877680
O O11 0.817079 0.860724 0.862702
O O12 0.693921 0.000000 0.898802
O O13 0.185562 0.201614 0.470310
O O14 0.153233 0.347253 0.579526
O O15 0.036587 0.172190 0.673786
O O16 0.535424 0.500000 0.210297
O O17 0.740932 0.000000 0.581681
#
# Coordination Sequence:
#
# PCOD9203251 Si02
#       8
#     8   8   2   8   8   8   8   8
#     4  11  23  39  62  90 122 159 205 260 316 372
#     4  11  23  38  60  92 125 159 211 258 309 375
#     4  12  24  44  64  96 124 176 208 258 318 374
#     4  11  23  42  64  90 127 171 209 259 317 380
#     4  12  24  42  65  91 128 165 212 260 312 377
#     4  10  20  39  60  86 120 158 207 252 310 377
#     4  10  22  38  63  90 123 163 208 262 316 373
#     4  10  21  37  60  86 120 159 200 254 309 371
#
# _framework density 18.529119999999999
#
# number of rings (size 3 to 8) (size 9 to 14) (size 15 to 20)
#    0.000    1.241    3.448    2.483    0.966    1.655 
#    0.000    2.069    0.000    2.069    0.000    0.000 
#    0.000    0.000    0.000    0.000    0.000    0.000 
#
# Total GULP energy -161758.831836 kJ/mol
# GULP energy per Si atom -5577.890753 kJ/mol
# Density = 1.848695 g / cm^3
# Si number density = 18.529120 Si / 1000 Ang^3
#
#
#
# Elastic Constant Matrix: (Units=GPa)
#
#
# Indices 1 2 3 4 5 6 
#
# 1 58.8046 1.7408 -5.6224 0.0000 -9.8249 0.0000
# 2 1.7408 -11.5633 -12.8977 0.0000 -6.1482 0.0000
# 3 -5.6224 -12.8977 95.5579 0.0000 -16.1292 0.0000
# 4 0.0000 0.0000 0.0000 22.9288 0.0000 -3.5935
# 5 -9.8249 -6.1482 -16.1292 0.0000 22.6502 0.0000
# 6 0.0000 0.0000 0.0000 -3.5935 0.0000 13.3615
#
#
#
# Elastic Compliance Matrix: (Units=1/GPa)
#
#
# Indices 1 2 3 4 5 6 
#
# 1 0.018731 -0.003928 0.002004 0.000000 0.008486 0.000000
# 2 -0.003928 -0.058764 -0.012665 0.000000 -0.026673 0.000000
# 3 0.002004 -0.012665 0.009593 0.000000 0.004263 0.000000
# 4 0.000000 0.000000 0.000000 0.045532 0.000000 0.012246
# 5 0.008486 -0.026673 0.004263 0.000000 0.043626 0.000000
# 6 0.000000 0.000000 0.000000 0.012246 0.000000 0.078135
#
#
# Mechanical properties :
#
#
# Convention : Reuss Voigt Hill
#
# Bulk Modulus (GPa) = -16.77404 12.13784 -2.31810
# Shear Modulus (GPa) = 34.20944 22.42667 28.31805
#
# Velocity S-wave (km/s) = 4.30147 3.48278 3.91359
# Velocity P-wave (km/s) = 3.94939 4.76843 4.37810
#
# Compressibility (1/GPa) = -0.05961594
#
# Stress axis : x y z
#
# Youngs Moduli (GPa) = 53.38683 -17.01731 104.24356
#
# Poissons Ratio (x) = -0.06684 -0.20894
# Poissons Ratio (y) = 0.20969 1.32022
# Poissons Ratio (z) = -0.10700 -0.21552
#
# Static dielectric constant tensor:
#      x y z
#    x 1.607950 0.000000 0.004110 
#    y 0.000000 1.608820 0.000000 
#    z 0.004110 0.000000 1.638050 
# 
# From -- ./inp_files/315930.got.cif
#   From: 2010.05.17/outbox.cif.g08.bks.cpg/sg12_158_cif.got.tgz:315930.got - 2010.06.03 13:09:07.
