data_PCOD9203413
_publ_section_title
;
Structure prediction by ZEFSAII (Michael W. Deem and Ramdas Pophale) SiO2 
 PCOD9203413
Probable space group: C 2/M
;
_chemical_formula_sum "Si O2"
_cell_formula_units_Z 64
_cell_length_a 17.749002
_cell_length_b 18.249570
_cell_length_c 19.929299
_cell_angle_alpha 90.000000
_cell_angle_beta 149.053865
_cell_angle_gamma 90.000000
_cell_volume 3319.538432
_symmetry_space_group_name_H-M "C 2/M"
_symmetry_group_IT_number 12
_symmetry_cell_setting 'monoclinic'
loop_
_space_group_symop_operation_xyz
x,y,z
-x,y,-z
-x,-y,-z
x,-y,z
1/2+x,1/2+y,z
1/2-x,1/2+y,-z
1/2-x,1/2-y,-z
1/2+x,1/2-y,z
loop_
_atom_site_type_symbol
_atom_site_label
_atom_site_fract_x
_atom_site_fract_y
_atom_site_fract_z
Si Si1 0.880540 0.916273 0.714696
Si Si2 0.579099 0.088053 0.256607
Si Si3 0.543744 0.667346 0.958742
Si Si4 0.387317 0.815656 0.465725
Si Si5 0.321155 0.797389 0.773476
Si Si6 0.161021 0.705062 0.876463
Si Si7 0.883071 0.081211 0.559609
Si Si8 0.919533 0.210996 0.304295
O O1 0.729025 0.872823 0.598363
O O2 0.923812 0.916407 0.669493
O O3 0.982318 0.879026 0.848796
O O4 0.860224 0.000000 0.719401
O O5 0.638766 0.127485 0.234022
O O6 0.444966 0.140780 0.177718
O O7 0.712257 0.094827 0.412189
O O8 0.546697 0.000000 0.224933
O O9 0.464497 0.746554 0.890681
O O10 0.500000 0.640230 0.000000
O O11 0.717423 0.672667 0.081564
O O12 0.500000 0.850993 0.500000
O O13 0.293513 0.750261 0.359057
O O14 0.493647 0.780275 0.600677
O O15 0.237163 0.801998 0.780375
O O16 0.081905 0.769622 0.774941
O O17 0.250000 0.750000 0.000000
O O18 0.982774 0.141759 0.602359
O O19 0.915087 0.000000 0.558341
#
# Coordination Sequence:
#
# PCOD9203413 Si02
#       8
#     8   8   8   8   8   8   8   8
#     4  10  22  39  59  85 123 164 202 259 323 373
#     4  11  24  41  64  96 132 168 206 258 320 377
#     4  11  22  42  64  87 119 159 218 266 305 365
#     4   9  19  34  58  89 113 149 203 253 305 370
#     4  10  20  39  62  92 123 156 207 263 306 364
#     4  12  24  38  64  91 120 167 212 261 308 370
#     4  10  22  39  60  93 131 162 200 255 318 382
#     4  11  21  36  65  92 121 166 210 255 313 373
#
# _framework density 19.279789999999998
#
# number of rings (size 3 to 8) (size 9 to 14) (size 15 to 20)
#    0.000    1.500    3.750    1.500    1.750    2.500 
#    0.000    1.875    0.000    1.125    0.000    0.000 
#    0.000    0.000    0.000    0.000    0.000    0.000 
#
# Total GULP energy -178339.664722 kJ/mol
# GULP energy per Si atom -5573.114523 kJ/mol
# Density = 1.923591 g / cm^3
# Si number density = 19.279790 Si / 1000 Ang^3
#
#
#
# Elastic Constant Matrix: (Units=GPa)
#
#
# Indices 1 2 3 4 5 6 
#
# 1 39.2332 33.1814 7.1585 -0.0003 6.5125 0.0002
# 2 33.1814 115.9520 29.4475 -0.0009 13.4093 0.0001
# 3 7.1585 29.4475 59.7969 0.0007 -1.5597 0.0009
# 4 -0.0003 -0.0009 0.0007 -4.6460 0.0002 -46.6577
# 5 6.5125 13.4093 -1.5597 0.0002 38.5740 0.0006
# 6 0.0002 0.0001 0.0009 -46.6577 0.0006 -55.5167
#
#
#
# Elastic Compliance Matrix: (Units=1/GPa)
#
#
# Indices 1 2 3 4 5 6 
#
# 1 0.033866 -0.009569 0.000596 0.000000 -0.002367 0.000000
# 2 -0.009569 0.013095 -0.005386 0.000000 -0.003154 0.000000
# 3 0.000596 -0.005386 0.019371 0.000000 0.002555 0.000000
# 4 0.000000 0.000000 0.000000 0.028930 0.000000 -0.024313
# 5 -0.002367 -0.003154 0.002555 0.000000 0.027524 0.000000
# 6 0.000000 0.000000 0.000000 -0.024313 0.000000 0.002421
#
#
# Mechanical properties :
#
#
# Convention : Reuss Voigt Hill
#
# Bulk Modulus (GPa) = 26.58493 39.39521 32.99007
# Shear Modulus (GPa) = 30.03718 5.36191 17.69954
#
# Velocity S-wave (km/s) = 3.95138 1.66947 3.03320
# Velocity P-wave (km/s) = 5.88531 4.91874 5.42360
#
# Compressibility (1/GPa) = 0.03761530
#
# Stress axis : x y z
#
# Youngs Moduli (GPa) = 29.52846 76.36472 51.62441
#
# Poissons Ratio (x) = 0.73073 -0.03079
# Poissons Ratio (y) = 0.28255 0.27802
# Poissons Ratio (z) = -0.01761 0.41126
#
# Static dielectric constant tensor:
#      x y z
#    x 1.735440 0.000000 -0.067770 
#    y 0.000000 1.660700 0.000000 
#    z -0.067770 0.000000 1.791980 
# 
# From -- ./inp_files/317377.got.cif
#   From: 2010.05.17/outbox.cif.g08.bks.cpg/sg12_159_cif.got.tgz:317377.got - 2010.06.03 13:09:07.
