data_PCOD9203654
_publ_section_title
;
Structure prediction by ZEFSAII (Michael W. Deem and Ramdas Pophale) SiO2 
 PCOD9203654
Probable space group: C 2/M
;
_chemical_formula_sum "Si O2"
_cell_formula_units_Z 40
_cell_length_a 23.960344
_cell_length_b 9.425854
_cell_length_c 9.550276
_cell_angle_alpha 90.000000
_cell_angle_beta 104.329807
_cell_angle_gamma 90.000000
_cell_volume 2089.791006
_symmetry_space_group_name_H-M "C 2/M"
_symmetry_group_IT_number 12
_symmetry_cell_setting 'monoclinic'
loop_
_space_group_symop_operation_xyz
x,y,z
-x,y,-z
-x,-y,-z
x,-y,z
1/2+x,1/2+y,z
1/2-x,1/2+y,-z
1/2-x,1/2-y,-z
1/2+x,1/2-y,z
loop_
_atom_site_type_symbol
_atom_site_label
_atom_site_fract_x
_atom_site_fract_y
_atom_site_fract_z
Si Si1 0.517448 0.835762 0.672317
Si Si2 0.175661 0.832936 0.103715
Si Si3 0.863978 0.168174 0.226280
Si Si4 0.048071 0.162557 0.149988
Si Si5 0.260510 0.669560 0.360924
O O1 0.500000 0.824469 0.500000
O O2 0.576783 0.752639 0.734020
O O3 0.467828 0.767780 0.736257
O O4 0.525361 0.000000 0.713846
O O5 0.110982 0.817911 0.124080
O O6 0.217166 0.734340 0.219302
O O7 0.192060 0.000000 0.127376
O O8 0.171566 0.796448 0.936899
O O9 0.824299 0.193863 0.336886
O O10 0.876739 0.000000 0.225272
O O11 0.043857 0.000000 0.198199
O O12 0.000000 0.180903 0.000000
O O13 0.252685 0.500000 0.371613
O O14 0.250000 0.750000 0.500000
#
# Coordination Sequence:
#
# PCOD9203654 Si02
#       5
#     8   8   8   8   8
#     4  11  25  40  58  91 129 161 198 251 305 353
#     4  10  21  40  66  92 120 156 203 252 299 357
#     4  10  22  43  66  88 117 161 209 246 297 367
#     4  10  20  39  65  91 121 160 202 245 296 361
#     4  11  25  42  63  91 123 160 202 250 304 358
#
# _framework density 19.140668999999999
#
# number of rings (size 3 to 8) (size 9 to 14) (size 15 to 20)
#    0.000    1.600    2.000    1.800    2.800    5.200 
#    0.000    0.000    0.000    0.000    0.000    0.000 
#    0.000    0.000    0.000    0.000    0.000    0.000 
#
# Total GULP energy -111787.426958 kJ/mol
# GULP energy per Si atom -5589.371348 kJ/mol
# Density = 1.909710 g / cm^3
# Si number density = 19.140669 Si / 1000 Ang^3
#
#
#
# Elastic Constant Matrix: (Units=GPa)
#
#
# Indices 1 2 3 4 5 6 
#
# 1 45.7926 26.8985 22.5369 0.0000 -12.8348 0.0000
# 2 26.8985 65.3576 53.1801 0.0000 -17.2420 0.0000
# 3 22.5369 53.1801 77.9255 0.0000 -25.2591 0.0000
# 4 0.0000 0.0000 0.0000 35.4772 0.0000 2.9242
# 5 -12.8348 -17.2420 -25.2591 0.0000 31.8721 0.0000
# 6 0.0000 0.0000 0.0000 2.9242 0.0000 8.3115
#
#
#
# Elastic Compliance Matrix: (Units=1/GPa)
#
#
# Indices 1 2 3 4 5 6 
#
# 1 0.029922 -0.011857 0.001702 0.000000 0.006984 0.000000
# 2 -0.011857 0.039104 -0.024153 0.000000 -0.002762 0.000000
# 3 0.001702 -0.024153 0.033387 0.000000 0.014079 0.000000
# 4 0.000000 0.000000 0.000000 0.029029 0.000000 -0.010213
# 5 0.006984 -0.002762 0.014079 0.000000 0.043852 0.000000
# 6 0.000000 0.000000 0.000000 -0.010213 0.000000 0.123908
#
#
# Mechanical properties :
#
#
# Convention : Reuss Voigt Hill
#
# Bulk Modulus (GPa) = 29.58759 43.81185 36.69972
# Shear Modulus (GPa) = 13.18970 20.89617 17.04294
#
# Velocity S-wave (km/s) = 2.62791 3.30770 2.98720
# Velocity P-wave (km/s) = 4.96985 6.12592 5.57792
#
# Compressibility (1/GPa) = 0.03379795
#
# Stress axis : x y z
#
# Youngs Moduli (GPa) = 33.41985 25.57275 29.95164
#
# Poissons Ratio (x) = 0.30322 -0.05097
# Poissons Ratio (y) = 0.39626 0.72341
# Poissons Ratio (z) = -0.05687 0.61765
#
# Static dielectric constant tensor:
#      x y z
#    x 1.643770 0.000000 -0.011620 
#    y 0.000000 1.642010 0.000000 
#    z -0.011620 0.000000 1.664580 
# 
# From -- ./inp_files/92789.got.cif
#   From: 2010.05.17/outbox.cif.g08.bks.cpg/sg12_47_cif.got.tgz:92789.got - 2010.06.03 13:09:07.
