data_PCOD9203411
_publ_section_title
;
Structure prediction by ZEFSAII (Michael W. Deem and Ramdas Pophale) SiO2 
 PCOD9203411
Probable space group: C 2/M
;
_chemical_formula_sum "Si O2"
_cell_formula_units_Z 50
_cell_length_a 18.389977
_cell_length_b 7.982283
_cell_length_c 19.321337
_cell_angle_alpha 90.000000
_cell_angle_beta 58.419875
_cell_angle_gamma 90.000000
_cell_volume 2416.231312
_symmetry_space_group_name_H-M "C 2/M"
_symmetry_group_IT_number 12
_symmetry_cell_setting 'monoclinic'
loop_
_space_group_symop_operation_xyz
x,y,z
-x,y,-z
-x,-y,-z
x,-y,z
1/2+x,1/2+y,z
1/2-x,1/2+y,-z
1/2-x,1/2-y,-z
1/2+x,1/2-y,z
loop_
_atom_site_type_symbol
_atom_site_label
_atom_site_fract_x
_atom_site_fract_y
_atom_site_fract_z
Si Si1 0.160932 0.201726 0.580621
Si Si2 0.090782 0.798890 0.764786
Si Si3 0.243315 0.691390 0.081535
Si Si4 0.483466 0.812427 0.602505
Si Si5 0.408446 0.802424 0.077024
Si Si6 0.500000 0.500000 0.500000
Si Si7 0.077976 0.809934 0.229381
O O1 0.250000 0.250000 0.500000
O O2 0.148654 0.249098 0.668359
O O3 0.081931 0.281230 0.577605
O O4 0.151280 0.000000 0.580847
O O5 0.103117 0.724458 0.834758
O O6 0.994154 0.756693 0.789408
O O7 0.098842 0.000000 0.767659
O O8 0.213900 0.500000 0.098868
O O9 0.333000 0.709922 0.074881
O O10 0.171488 0.801937 0.153159
O O11 0.250000 0.750000 0.000000
O O12 0.459281 0.652698 0.568211
O O13 0.429803 0.800433 0.699200
O O14 0.472111 0.000000 0.580498
O O15 0.400906 0.000000 0.066150
O O16 0.500000 0.747091 0.000000
O O17 0.053904 0.000000 0.260797
#
# Coordination Sequence:
#
# PCOD9203411 Si02
#       7
#     8   8   8   8   8   2   8
#     4  10  20  39  62  91 126 164 215 268 317 379
#     4   9  20  38  63  90 121 161 203 253 315 371
#     4  12  25  41  63  92 124 165 210 255 315 381
#     4  11  22  40  65  92 125 172 215 263 324 384
#     4  11  24  41  61  90 125 159 204 259 310 371
#     4  12  22  44  60  94 132 164 218 266 320 390
#     4  10  20  41  66  91 126 164 208 262 314 378
#
# _framework density 20.693382
#
# number of rings (size 3 to 8) (size 9 to 14) (size 15 to 20)
#    0.000    1.440    1.600    5.040    0.000    7.680 
#    2.880    0.000    0.000    0.000    0.000    0.000 
#    0.000    0.000    0.000    0.000    0.000    0.000 
#
# Total GULP energy -139325.487069 kJ/mol
# GULP energy per Si atom -5573.019483 kJ/mol
# Density = 2.064628 g / cm^3
# Si number density = 20.693382 Si / 1000 Ang^3
#
#
#
# Elastic Constant Matrix: (Units=GPa)
#
#
# Indices 1 2 3 4 5 6 
#
# 1 39.3803 2.4046 41.8544 0.0001 -6.4321 0.0005
# 2 2.4046 114.0907 14.2084 0.0002 8.7868 0.0007
# 3 41.8544 14.2084 110.7670 0.0000 -10.9406 0.0000
# 4 0.0001 0.0002 0.0000 25.8527 0.0000 -10.5894
# 5 -6.4321 8.7868 -10.9406 0.0000 39.5340 0.0000
# 6 0.0005 0.0007 0.0000 -10.5894 0.0000 -2.9959
#
#
#
# Elastic Compliance Matrix: (Units=1/GPa)
#
#
# Indices 1 2 3 4 5 6 
#
# 1 0.042777 0.000919 -0.016053 0.000001 0.002313 0.000003
# 2 0.000919 0.009147 -0.001755 0.000000 -0.002369 0.000001
# 3 -0.016053 -0.001755 0.015524 0.000000 0.002074 -0.000001
# 4 0.000001 0.000000 0.000000 0.015802 0.000000 -0.055855
# 5 0.002313 -0.002369 0.002074 0.000000 0.026771 0.000000
# 6 0.000003 0.000001 -0.000001 -0.055855 0.000000 -0.136362
#
#
# Mechanical properties :
#
#
# Convention : Reuss Voigt Hill
#
# Bulk Modulus (GPa) = 29.69972 42.35255 36.02613
# Shear Modulus (GPa) = 267.97457 26.19620 147.08539
#
# Velocity S-wave (km/s) = 11.39205 3.56184 8.43995
# Velocity P-wave (km/s) = 13.69021 6.11774 10.60303
#
# Compressibility (1/GPa) = 0.03367036
#
# Stress axis : x y z
#
# Youngs Moduli (GPa) = 23.37727 109.33095 64.41761
#
# Poissons Ratio (x) = -0.10053 1.03410
# Poissons Ratio (y) = -0.02149 0.11303
# Poissons Ratio (z) = 0.37528 0.19184
#
# Static dielectric constant tensor:
#      x y z
#    x 1.699980 0.000000 0.028940 
#    y 0.000000 1.767670 0.000000 
#    z 0.028940 0.000000 1.718350 
# 
# From -- ./inp_files/274947.got.cif
#   From: 2010.05.17/outbox.cif.g08.bks.cpg/sg12_138_cif.got.tgz:274947.got - 2010.06.03 13:09:07.
