data_PCOD9203537
_publ_section_title
;
Structure prediction by ZEFSAII (Michael W. Deem and Ramdas Pophale) SiO2 
 PCOD9203537
Probable space group: C 2/M
;
_chemical_formula_sum "Si O2"
_cell_formula_units_Z 56
_cell_length_a 12.295302
_cell_length_b 27.950757
_cell_length_c 15.358427
_cell_angle_alpha 90.000000
_cell_angle_beta 31.439717
_cell_angle_gamma 90.000000
_cell_volume 2753.075232
_symmetry_space_group_name_H-M "C 2/M"
_symmetry_group_IT_number 12
_symmetry_cell_setting 'monoclinic'
loop_
_space_group_symop_operation_xyz
x,y,z
-x,y,-z
-x,-y,-z
x,-y,z
1/2+x,1/2+y,z
1/2-x,1/2+y,-z
1/2-x,1/2-y,-z
1/2+x,1/2-y,z
loop_
_atom_site_type_symbol
_atom_site_label
_atom_site_fract_x
_atom_site_fract_y
_atom_site_fract_z
Si Si1 0.953458 0.914689 0.814454
Si Si2 0.484943 0.777266 0.106776
Si Si3 0.600469 0.580568 0.521534
Si Si4 0.558657 0.311728 0.373441
Si Si5 0.320265 0.056289 0.686353
Si Si6 0.590571 0.057364 0.181406
Si Si7 0.044770 0.802554 0.193625
O O1 0.006965 0.858187 0.778946
O O2 0.000583 0.933707 0.683973
O O3 0.106068 0.938682 0.780526
O O4 0.721316 0.921781 0.011008
O O5 0.307829 0.817202 0.214183
O O6 0.434604 0.733874 0.204951
O O7 0.500000 0.755688 0.000000
O O8 0.704087 0.798269 0.988965
O O9 0.500000 0.561163 0.500000
O O10 0.556881 0.637634 0.548552
O O11 0.845435 0.569582 0.351312
O O12 0.500000 0.283956 0.500000
O O13 0.508924 0.286789 0.317477
O O14 0.500000 0.076972 0.500000
O O15 0.320736 0.075042 0.785078
O O16 0.368022 0.000000 0.664010
O O17 0.613577 0.000000 0.160088
#
# Coordination Sequence:
#
# PCOD9203537 Si02
#       7
#     8   8   8   8   8   8   8
#     4  11  22  38  64  94 121 161 207 252 305 374
#     4   9  18  36  57  82 117 154 194 240 297 358
#     4  10  23  41  60  88 123 166 206 256 302 356
#     4   9  19  35  59  83 113 155 200 240 296 357
#     4  10  20  39  64  87 120 158 193 246 314 371
#     4  11  24  40  64  94 122 160 206 254 311 371
#     4   9  20  35  57  86 115 153 196 245 297 351
#
# _framework density 20.340889000000001
#
# number of rings (size 3 to 8) (size 9 to 14) (size 15 to 20)
#    0.000    2.143    1.429    0.857    4.000    4.286 
#    0.000    1.429    0.000    0.000    0.000    0.000 
#    0.000    0.000    0.000    0.000    0.000    0.000 
#
# Total GULP energy -155939.441352 kJ/mol
# GULP energy per Si atom -5569.265763 kJ/mol
# Density = 2.029459 g / cm^3
# Si number density = 20.340889 Si / 1000 Ang^3
#
#
#
# Elastic Constant Matrix: (Units=GPa)
#
#
# Indices 1 2 3 4 5 6 
#
# 1 111.4412 7.7099 53.8283 0.0004 22.0710 -0.0004
# 2 7.7099 35.4447 8.3258 -0.0002 7.4707 0.0001
# 3 53.8283 8.3258 118.4358 0.0005 29.9481 -0.0002
# 4 0.0004 -0.0002 0.0005 32.9140 -0.0006 -6.4309
# 5 22.0710 7.4707 29.9481 -0.0006 30.3216 0.0004
# 6 -0.0004 0.0001 -0.0002 -6.4309 0.0004 17.3459
#
#
#
# Elastic Compliance Matrix: (Units=1/GPa)
#
#
# Indices 1 2 3 4 5 6 
#
# 1 0.011945 -0.000686 -0.004298 0.000000 -0.004280 0.000000
# 2 -0.000686 0.029807 -0.000070 0.000000 -0.006775 0.000000
# 3 -0.004298 -0.000070 0.012804 0.000000 -0.009500 0.000000
# 4 0.000000 0.000000 0.000000 0.032755 0.000001 0.012144
# 5 -0.004280 -0.006775 -0.009500 0.000001 0.047148 -0.000001
# 6 0.000000 0.000000 0.000000 0.012144 -0.000001 0.062153
#
#
# Mechanical properties :
#
#
# Convention : Reuss Voigt Hill
#
# Bulk Modulus (GPa) = 22.49940 45.00551 33.75245
# Shear Modulus (GPa) = 22.56967 29.14681 25.85824
#
# Velocity S-wave (km/s) = 3.33464 3.78950 3.56932
# Velocity P-wave (km/s) = 5.09034 6.42812 5.79794
#
# Compressibility (1/GPa) = 0.04444564
#
# Stress axis : x y z
#
# Youngs Moduli (GPa) = 83.71959 33.54948 78.09961
#
# Poissons Ratio (x) = 0.02303 0.33569
# Poissons Ratio (y) = 0.05747 0.00549
# Poissons Ratio (z) = 0.35985 0.00236
#
# Static dielectric constant tensor:
#      x y z
#    x 1.741250 0.000000 0.031540 
#    y 0.000000 1.711250 0.000000 
#    z 0.031540 0.000000 1.822490 
# 
# From -- ./inp_files/209978.got.cif
#   From: 2010.05.17/outbox.cif.g08.bks.cpg/sg12_105_cif.got.tgz:209978.got - 2010.06.03 13:09:07.
