data_PCOD9203517
_publ_section_title
;
Structure prediction by ZEFSAII (Michael W. Deem and Ramdas Pophale) SiO2 
 PCOD9203517
Probable space group: C 2/M
;
_chemical_formula_sum "Si O2"
_cell_formula_units_Z 36
_cell_length_a 5.697716
_cell_length_b 33.498358
_cell_length_c 8.951552
_cell_angle_alpha 90.000000
_cell_angle_beta 117.528508
_cell_angle_gamma 90.000000
_cell_volume 1515.092068
_symmetry_space_group_name_H-M "C 2/M"
_symmetry_group_IT_number 12
_symmetry_cell_setting 'monoclinic'
loop_
_space_group_symop_operation_xyz
x,y,z
-x,y,-z
-x,-y,-z
x,-y,z
1/2+x,1/2+y,z
1/2-x,1/2+y,-z
1/2-x,1/2-y,-z
1/2+x,1/2-y,z
loop_
_atom_site_type_symbol
_atom_site_label
_atom_site_fract_x
_atom_site_fract_y
_atom_site_fract_z
Si Si1 0.397973 0.734890 0.194359
Si Si2 0.517031 0.646242 0.686195
Si Si3 0.822425 0.430504 0.758976
Si Si4 0.564421 0.500000 0.346350
Si Si5 0.000000 0.399727 0.500000
Si Si6 0.799407 0.500000 0.135052
O O1 0.698305 0.751616 0.268500
O O2 0.425687 0.687390 0.215249
O O3 0.250000 0.750000 0.000000
O O4 0.500000 0.652382 0.500000
O O5 0.744408 0.613599 0.788130
O O6 0.231057 0.627249 0.640802
O O7 0.583294 0.458937 0.738582
O O8 0.857415 0.424255 0.589734
O O9 0.069419 0.458351 0.873091
O O10 0.500000 0.500000 0.500000
O O11 0.820788 0.500000 0.321236
O O12 0.500000 0.500000 0.000000
#
# Coordination Sequence:
#
# PCOD9203517 Si02
#       6
#     8   8   8   4   4   4
#     4  10  24  46  69  97 139 183 230 286 355 435
#     4  10  22  39  68 100 134 175 228 289 351 419
#     4  10  21  37  63  94 133 176 223 279 342 407
#     4  11  20  37  64  96 125 175 226 280 335 399
#     4  10  20  39  64 102 134 170 226 288 348 409
#     4  11  24  41  62  93 141 184 231 284 345 417
#
# _framework density 23.760929999999998
#
# number of rings (size 3 to 8) (size 9 to 14) (size 15 to 20)
#    0.000    1.778    0.000    4.667    6.222    4.444 
#    0.000    8.889    0.000    0.000    0.000    0.000 
#    0.000    0.000    0.000    0.000    0.000    0.000 
#
# Total GULP energy -100422.820131 kJ/mol
# GULP energy per Si atom -5579.045563 kJ/mol
# Density = 2.370685 g / cm^3
# Si number density = 23.760930 Si / 1000 Ang^3
#
#
#
# Elastic Constant Matrix: (Units=GPa)
#
#
# Indices 1 2 3 4 5 6 
#
# 1 151.7821 73.7324 24.0110 0.0000 0.5748 0.0000
# 2 73.7324 231.9002 50.1290 0.0000 22.8941 0.0000
# 3 24.0110 50.1290 76.9132 0.0000 2.7620 0.0000
# 4 0.0000 0.0000 0.0000 65.2239 0.0000 10.3420
# 5 0.5748 22.8941 2.7620 0.0000 41.5543 0.0000
# 6 0.0000 0.0000 0.0000 10.3420 0.0000 41.1363
#
#
#
# Elastic Compliance Matrix: (Units=1/GPa)
#
#
# Indices 1 2 3 4 5 6 
#
# 1 0.007918 -0.002446 -0.000924 0.000000 0.001299 0.000000
# 2 -0.002446 0.006061 -0.003075 0.000000 -0.003101 0.000000
# 3 -0.000924 -0.003075 0.015270 0.000000 0.000692 0.000000
# 4 0.000000 0.000000 0.000000 0.015968 0.000000 -0.004015
# 5 0.001299 -0.003101 0.000692 0.000000 0.025709 0.000000
# 6 0.000000 0.000000 0.000000 -0.004015 0.000000 0.025319
#
#
# Mechanical properties :
#
#
# Convention : Reuss Voigt Hill
#
# Bulk Modulus (GPa) = 61.13466 84.03781 72.58624
# Shear Modulus (GPa) = 43.63448 50.43111 47.03280
#
# Velocity S-wave (km/s) = 4.28997 4.61199 4.45389
# Velocity P-wave (km/s) = 7.09390 7.98783 7.55410
#
# Compressibility (1/GPa) = 0.01635733
#
# Stress axis : x y z
#
# Youngs Moduli (GPa) = 126.29634 164.99501 65.48924
#
# Poissons Ratio (x) = 0.40357 0.06053
# Poissons Ratio (y) = 0.30892 0.20139
# Poissons Ratio (z) = 0.11674 0.50740
#
# Static dielectric constant tensor:
#      x y z
#    x 1.938140 0.000000 0.009290 
#    y 0.000000 1.849890 0.000000 
#    z 0.009290 0.000000 2.084800 
# 
# From -- ./inp_files/115392.got.cif
#   From: 2010.05.17/outbox.cif.g08.bks.cpg/sg12_58_cif.got.tgz:115392.got - 2010.06.03 13:09:07.
