data_PCOD9203457
_publ_section_title
;
Structure prediction by ZEFSAII (Michael W. Deem and Ramdas Pophale) SiO2 
 PCOD9203457
Probable space group: C 2/M
;
_chemical_formula_sum "Si O2"
_cell_formula_units_Z 56
_cell_length_a 20.492688
_cell_length_b 8.726724
_cell_length_c 19.289103
_cell_angle_alpha 90.000000
_cell_angle_beta 59.782741
_cell_angle_gamma 90.000000
_cell_volume 2980.834652
_symmetry_space_group_name_H-M "C 2/M"
_symmetry_group_IT_number 12
_symmetry_cell_setting 'monoclinic'
loop_
_space_group_symop_operation_xyz
x,y,z
-x,y,-z
-x,-y,-z
x,-y,z
1/2+x,1/2+y,z
1/2-x,1/2+y,-z
1/2-x,1/2-y,-z
1/2+x,1/2-y,z
loop_
_atom_site_type_symbol
_atom_site_label
_atom_site_fract_x
_atom_site_fract_y
_atom_site_fract_z
Si Si1 0.117326 0.683711 0.242128
Si Si2 0.685481 0.683056 0.484111
Si Si3 0.830173 0.815784 0.933558
Si Si4 0.478546 0.684641 0.934837
Si Si5 0.392732 0.816012 0.231602
Si Si6 0.221453 0.185223 0.306900
Si Si7 0.557111 0.815932 0.641423
O O1 0.119584 0.500000 0.233712
O O2 0.145474 0.757095 0.155292
O O3 0.170009 0.737834 0.276639
O O4 0.030576 0.727911 0.304970
O O5 0.691195 0.500000 0.483818
O O6 0.750000 0.750000 0.500000
O O7 0.698333 0.729736 0.397505
O O8 0.604686 0.737490 0.555629
O O9 0.896313 0.766978 0.951559
O O10 0.826555 0.000000 0.934592
O O11 0.750000 0.750000 0.000000
O O12 0.478937 0.500000 0.935634
O O13 0.541539 0.740796 0.847797
O O14 0.500000 0.740536 0.000000
O O15 0.309414 0.772752 0.250928
O O16 0.403266 0.776213 0.306699
O O17 0.399889 0.000000 0.222981
O O18 0.215345 0.000000 0.304764
O O19 0.561272 0.000000 0.630582
#
# Coordination Sequence:
#
# PCOD9203457 Si02
#       7
#     8   8   8   8   8   8   8
#     4  11  24  42  64  89 122 163 204 252 304 361
#     4  11  22  38  62  91 124 161 203 253 307 361
#     4  11  24  42  64  90 125 164 202 248 303 364
#     4  10  23  41  61  91 124 154 197 251 298 352
#     4  10  20  39  63  87 120 160 201 248 298 356
#     4  10  23  41  60  89 125 160 201 251 304 362
#     4  10  21  40  63  88 122 160 204 251 301 362
#
# _framework density 18.786684999999999
#
# number of rings (size 3 to 8) (size 9 to 14) (size 15 to 20)
#    0.000    1.571    2.857    1.286    2.000    4.857 
#    0.000    2.857    0.000    0.000    0.000    0.000 
#    0.000    0.000    0.000    0.000    0.000    0.000 
#
# Total GULP energy -156472.514315 kJ/mol
# GULP energy per Si atom -5588.304083 kJ/mol
# Density = 1.874393 g / cm^3
# Si number density = 18.786685 Si / 1000 Ang^3
#
#
#
# Elastic Constant Matrix: (Units=GPa)
#
#
# Indices 1 2 3 4 5 6 
#
# 1 168.4877 43.4744 77.0397 0.0000 -5.3611 0.0000
# 2 43.4744 29.1161 35.0165 0.0000 -2.8051 0.0001
# 3 77.0397 35.0165 123.7939 0.0000 -12.4560 0.0000
# 4 0.0000 0.0000 0.0000 35.9621 0.0000 -4.0109
# 5 -5.3611 -2.8051 -12.4560 0.0000 36.9541 0.0000
# 6 0.0000 0.0001 0.0000 -4.0109 0.0000 29.5377
#
#
#
# Elastic Compliance Matrix: (Units=1/GPa)
#
#
# Indices 1 2 3 4 5 6 
#
# 1 0.010416 -0.011739 -0.003208 0.000000 -0.000461 0.000000
# 2 -0.011739 0.065322 -0.011225 0.000000 -0.000528 0.000000
# 3 -0.003208 -0.011225 0.013577 0.000000 0.003259 0.000000
# 4 0.000000 0.000000 0.000000 0.028235 0.000000 0.003834
# 5 -0.000461 -0.000528 0.003259 0.000000 0.028052 0.000000
# 6 0.000000 0.000000 0.000000 0.003834 0.000000 0.034376
#
#
# Mechanical properties :
#
#
# Convention : Reuss Voigt Hill
#
# Bulk Modulus (GPa) = 27.04775 70.27322 48.66049
# Shear Modulus (GPa) = 20.43767 31.54858 25.99313
#
# Velocity S-wave (km/s) = 3.30188 4.10238 3.72370
# Velocity P-wave (km/s) = 5.38192 7.74122 6.66677
#
# Compressibility (1/GPa) = 0.03697165
#
# Stress axis : x y z
#
# Youngs Moduli (GPa) = 96.00172 15.30879 73.65176
#
# Poissons Ratio (x) = 0.17971 0.23629
# Poissons Ratio (y) = 1.12699 0.82671
# Poissons Ratio (z) = 0.30800 0.17183
#
# Static dielectric constant tensor:
#      x y z
#    x 1.640180 0.000000 0.002210 
#    y 0.000000 1.634960 0.000000 
#    z 0.002210 0.000000 1.623420 
# 
# From -- ./inp_files/280957.got.cif
#   From: 2010.05.17/outbox.cif.g08.bks.cpg/sg12_141_cif.got.tgz:280957.got - 2010.06.03 13:09:07.
