data_PCOD9203353
_publ_section_title
;
Structure prediction by ZEFSAII (Michael W. Deem and Ramdas Pophale) SiO2 
 PCOD9203353
Probable space group: C 2/M
;
_chemical_formula_sum "Si O2"
_cell_formula_units_Z 56
_cell_length_a 18.684299
_cell_length_b 18.975657
_cell_length_c 8.077380
_cell_angle_alpha 90.000000
_cell_angle_beta 119.067369
_cell_angle_gamma 90.000000
_cell_volume 2503.110108
_symmetry_space_group_name_H-M "C 2/M"
_symmetry_group_IT_number 12
_symmetry_cell_setting 'monoclinic'
loop_
_space_group_symop_operation_xyz
x,y,z
-x,y,-z
-x,-y,-z
x,-y,z
1/2+x,1/2+y,z
1/2-x,1/2+y,-z
1/2-x,1/2-y,-z
1/2+x,1/2-y,z
loop_
_atom_site_type_symbol
_atom_site_label
_atom_site_fract_x
_atom_site_fract_y
_atom_site_fract_z
Si Si1 0.848473 0.922708 0.369504
Si Si2 0.249047 0.918263 0.088600
Si Si3 0.550782 0.866771 0.414025
Si Si4 0.888562 0.663528 0.058042
Si Si5 0.135221 0.775745 0.514587
Si Si6 0.187065 0.215652 0.195441
Si Si7 0.825056 0.577894 0.682670
O O1 0.895394 0.850470 0.452442
O O2 0.772513 0.917790 0.415278
O O3 0.887585 0.000000 0.432938
O O4 0.805371 0.920276 0.141291
O O5 0.332747 0.879511 0.125687
O O6 0.206096 0.864616 0.166845
O O7 0.259620 0.000000 0.152579
O O8 0.500000 0.904409 0.500000
O O9 0.482693 0.851578 0.198446
O O10 0.581110 0.790298 0.505924
O O11 0.630247 0.906791 0.438065
O O12 0.862390 0.744911 0.007034
O O13 0.862198 0.632453 0.852142
O O14 0.142464 0.778937 0.322775
O O15 0.226533 0.757119 0.684069
O O16 0.847319 0.500000 0.766501
#
# Coordination Sequence:
#
# PCOD9203353 Si02
#       7
#     8   8   8   8   8   8   8
#     4   9  19  37  64  90 117 153 197 247 298 348
#     4  10  21  37  61  94 119 150 198 243 295 351
#     4  12  26  37  54  87 124 158 199 242 288 348
#     4  11  21  39  60  84 122 164 199 230 291 356
#     4  11  21  39  58  88 118 154 202 247 294 344
#     4  11  21  36  64  85 115 157 201 250 288 339
#     4  10  20  39  62  85 118 162 200 234 287 357
#
# _framework density 22.372167000000001
#
# number of rings (size 3 to 8) (size 9 to 14) (size 15 to 20)
#    0.000    1.429    4.286    3.857    2.000    2.571 
#    0.000    3.571    0.000    1.286    0.000    2.000 
#    0.000    0.000    0.000    0.000    0.000    0.000 
#
# Total GULP energy -156496.589180 kJ/mol
# GULP energy per Si atom -5589.163899 kJ/mol
# Density = 2.232125 g / cm^3
# Si number density = 22.372167 Si / 1000 Ang^3
#
#
#
# Elastic Constant Matrix: (Units=GPa)
#
#
# Indices 1 2 3 4 5 6 
#
# 1 49.1635 -0.8160 1.8004 0.0000 -19.2344 0.0000
# 2 -0.8160 140.9118 13.1006 0.0000 -3.4848 0.0000
# 3 1.8004 13.1006 34.2609 0.0000 -7.4089 0.0000
# 4 0.0000 0.0000 0.0000 28.1085 0.0000 -7.5915
# 5 -19.2344 -3.4848 -7.4089 0.0000 25.8124 0.0000
# 6 0.0000 0.0000 0.0000 -7.5915 0.0000 12.4740
#
#
#
# Elastic Compliance Matrix: (Units=1/GPa)
#
#
# Indices 1 2 3 4 5 6 
#
# 1 0.029095 0.000431 0.003206 0.000000 0.022659 0.000000
# 2 0.000431 0.007366 -0.002724 0.000000 0.000534 0.000000
# 3 0.003206 -0.002724 0.032516 0.000000 0.011355 0.000000
# 4 0.000000 0.000000 0.000000 0.042574 0.000000 0.025910
# 5 0.022659 0.000534 0.011355 0.000000 0.058957 0.000000
# 6 0.000000 0.000000 0.000000 0.025910 0.000000 0.095935
#
#
# Mechanical properties :
#
#
# Convention : Reuss Voigt Hill
#
# Bulk Modulus (GPa) = 14.12359 28.05625 21.08992
# Shear Modulus (GPa) = 17.34802 27.29571 22.32187
#
# Velocity S-wave (km/s) = 2.78767 3.49675 3.16215
# Velocity P-wave (km/s) = 4.08512 5.37316 4.77279
#
# Compressibility (1/GPa) = 0.07080353
#
# Stress axis : x y z
#
# Youngs Moduli (GPa) = 34.37019 135.76721 30.75389
#
# Poissons Ratio (x) = -0.05848 -0.09861
# Poissons Ratio (y) = -0.01481 0.08376
# Poissons Ratio (z) = -0.11020 0.36979
#
# Static dielectric constant tensor:
#      x y z
#    x 1.832010 0.000000 -0.031640 
#    y 0.000000 1.853300 0.000000 
#    z -0.031640 0.000000 1.880780 
# 
# From -- ./inp_files/97847.got.cif
#   From: 2010.05.17/outbox.cif.g08.bks.cpg/sg12_49_cif.got.tgz:97847.got - 2010.06.03 13:09:07.
