data_PCOD9203027
_publ_section_title
;
Structure prediction by ZEFSAII (Michael W. Deem and Ramdas Pophale) SiO2 
 PCOD9203027
Probable space group: C 2/M
;
_chemical_formula_sum "Si O2"
_cell_formula_units_Z 40
_cell_length_a 19.071676
_cell_length_b 19.842173
_cell_length_c 15.632602
_cell_angle_alpha 90.000000
_cell_angle_beta 161.895436
_cell_angle_gamma 90.000000
_cell_volume 1838.330092
_symmetry_space_group_name_H-M "C 2/M"
_symmetry_group_IT_number 12
_symmetry_cell_setting 'monoclinic'
loop_
_space_group_symop_operation_xyz
x,y,z
-x,y,-z
-x,-y,-z
x,-y,z
1/2+x,1/2+y,z
1/2-x,1/2+y,-z
1/2-x,1/2-y,-z
1/2+x,1/2-y,z
loop_
_atom_site_type_symbol
_atom_site_label
_atom_site_fract_x
_atom_site_fract_y
_atom_site_fract_z
Si Si1 0.865976 0.820823 0.729499
Si Si2 0.897086 0.422750 0.475086
Si Si3 0.389627 0.573799 0.105039
Si Si4 0.838339 0.923693 0.231422
Si Si5 0.400294 0.785886 0.097635
O O1 0.777650 0.862935 0.709057
O O2 0.634698 0.796705 0.418124
O O3 0.977918 0.876101 0.799107
O O4 0.044459 0.760364 0.922143
O O5 0.812107 0.500000 0.388092
O O6 0.000000 0.417468 0.500000
O O7 0.119537 0.414172 0.792442
O O8 0.417009 0.500000 0.099168
O O9 0.475313 0.575359 0.301022
O O10 0.000000 0.916852 0.500000
O O11 0.731111 0.000000 0.111429
O O12 0.691462 0.856407 0.046822
O O13 0.250000 0.750000 0.000000
#
# Coordination Sequence:
#
# PCOD9203027 Si02
#       5
#     8   8   8   8   8
#     4  11  21  37  67  90 129 178 222 269 339 411
#     4  10  21  38  62  95 136 175 221 278 333 401
#     4  10  20  38  65  95 130 172 219 275 332 397
#     4  10  21  41  69  95 130 176 222 278 335 393
#     4  11  22  41  66  93 131 172 222 281 335 406
#
# _framework density 21.758877999999999
#
# number of rings (size 3 to 8) (size 9 to 14) (size 15 to 20)
#    0.000    1.600    4.000    0.600    0.000    1.600 
#    0.000   10.000    4.400    3.600    0.000    0.000 
#    0.000    0.800    0.000    0.000    0.000    0.000 
#
# Total GULP energy -111391.247354 kJ/mol
# GULP energy per Si atom -5569.562368 kJ/mol
# Density = 2.170935 g / cm^3
# Si number density = 21.758878 Si / 1000 Ang^3
#
#
#
# Elastic Constant Matrix: (Units=GPa)
#
#
# Indices 1 2 3 4 5 6 
#
# 1 85.9502 72.3147 25.4065 0.0001 -2.2980 0.0000
# 2 72.3147 178.7840 53.5578 0.0002 31.6665 0.0001
# 3 25.4065 53.5578 64.3764 0.0018 1.7686 0.0007
# 4 0.0001 0.0002 0.0018 8.1464 0.0006 3.7102
# 5 -2.2980 31.6665 1.7686 0.0006 34.0346 0.0002
# 6 0.0000 0.0001 0.0007 3.7102 0.0002 41.2880
#
#
#
# Elastic Compliance Matrix: (Units=1/GPa)
#
#
# Indices 1 2 3 4 5 6 
#
# 1 0.020547 -0.010300 0.000159 -0.000001 0.010963 0.000000
# 2 -0.010300 0.014475 -0.007599 0.000002 -0.013768 0.000000
# 3 0.000159 -0.007599 0.021629 -0.000005 0.005957 0.000000
# 4 -0.000001 0.000002 -0.000005 0.127991 -0.000004 -0.011502
# 5 0.010963 -0.013768 0.005957 -0.000004 0.042623 0.000000
# 6 0.000000 0.000000 0.000000 -0.011502 0.000000 0.025254
#
#
# Mechanical properties :
#
#
# Convention : Reuss Voigt Hill
#
# Bulk Modulus (GPa) = 47.23516 70.18538 58.71027
# Shear Modulus (GPa) = 16.94602 28.54924 22.74763
#
# Velocity S-wave (km/s) = 2.79374 3.62618 3.23684
# Velocity P-wave (km/s) = 5.67118 7.06104 6.40393
#
# Compressibility (1/GPa) = 0.02117067
#
# Stress axis : x y z
#
# Youngs Moduli (GPa) = 48.66935 69.08684 46.23422
#
# Poissons Ratio (x) = 0.71161 -0.00736
# Poissons Ratio (y) = 0.50130 0.35132
# Poissons Ratio (z) = -0.00774 0.52498
#
# Static dielectric constant tensor:
#      x y z
#    x 1.855520 0.000000 -0.049160 
#    y 0.000000 1.920280 0.000000 
#    z -0.049160 0.000000 1.846430 
# 
# From -- ./inp_files/15907.got.cif
#   From: 2010.05.17/outbox.cif.g08.bks.cpg/sg12_8_cif.got.tgz:15907.got - 2010.06.03 13:09:07.
