data_PCOD9203873
_publ_section_title
;
Structure prediction by ZEFSAII (Michael W. Deem and Ramdas Pophale) SiO2 
 PCOD9203873
Probable space group: C 2/M
;
_chemical_formula_sum "Si O2"
_cell_formula_units_Z 40
_cell_length_a 17.356011
_cell_length_b 18.596967
_cell_length_c 12.631239
_cell_angle_alpha 90.000000
_cell_angle_beta 25.184734
_cell_angle_gamma 90.000000
_cell_volume 1734.908339
_symmetry_space_group_name_H-M "C 2/M"
_symmetry_group_IT_number 12
_symmetry_cell_setting 'monoclinic'
loop_
_space_group_symop_operation_xyz
x,y,z
-x,y,-z
-x,-y,-z
x,-y,z
1/2+x,1/2+y,z
1/2-x,1/2+y,-z
1/2-x,1/2-y,-z
1/2+x,1/2-y,z
loop_
_atom_site_type_symbol
_atom_site_label
_atom_site_fract_x
_atom_site_fract_y
_atom_site_fract_z
Si Si1 0.154914 0.418706 0.922276
Si Si2 0.780916 0.346009 0.363071
Si Si3 0.977766 0.254790 0.402443
Si Si4 0.976691 0.084047 0.149204
Si Si5 0.243499 0.866815 0.985062
O O1 0.085197 0.500000 0.999881
O O2 0.253715 0.411574 0.910616
O O3 0.991157 0.360900 0.123864
O O4 0.266544 0.397726 0.678776
O O5 0.717201 0.267903 0.401369
O O6 0.672130 0.372579 0.599729
O O7 0.058621 0.333407 0.281899
O O8 0.000000 0.240991 0.500000
O O9 0.108733 0.199512 0.177539
O O10 0.925720 0.000000 0.211135
O O11 0.000000 0.108787 0.000000
O O12 0.161904 0.093860 0.985303
#
# Coordination Sequence:
#
# PCOD9203873 Si02
#       5
#     8   8   8   8   8
#     4  11  21  37  63  98 128 153 201 261 314 368
#     4  10  21  38  62  91 124 162 197 255 316 359
#     4  10  20  40  59  83 122 160 208 251 297 366
#     4  10  21  39  61  89 125 163 204 249 308 376
#     4  10  22  37  61  90 119 162 205 252 301 362
#
# _framework density 23.055973000000002
#
# number of rings (size 3 to 8) (size 9 to 14) (size 15 to 20)
#    0.000    1.800    2.000    3.000    0.000    2.400 
#    0.000    7.000    0.000    4.800    0.000    0.000 
#    0.000    0.000    0.000    0.000    0.000    0.000 
#
# Total GULP energy -111729.487435 kJ/mol
# GULP energy per Si atom -5586.474372 kJ/mol
# Density = 2.300350 g / cm^3
# Si number density = 23.055973 Si / 1000 Ang^3
#
#
#
# Elastic Constant Matrix: (Units=GPa)
#
#
# Indices 1 2 3 4 5 6 
#
# 1 158.1733 16.2479 45.5303 -0.0059 38.7532 0.0050
# 2 16.2479 35.1397 21.3070 -0.0005 3.0055 0.0020
# 3 45.5303 21.3070 84.5561 -0.0104 22.5040 0.0091
# 4 -0.0059 -0.0005 -0.0104 12.2629 0.0080 -3.4948
# 5 38.7532 3.0055 22.5040 0.0080 43.1629 -0.0061
# 6 0.0050 0.0020 0.0091 -3.4948 -0.0061 10.7838
#
#
#
# Elastic Compliance Matrix: (Units=1/GPa)
#
#
# Indices 1 2 3 4 5 6 
#
# 1 0.008845 -0.001999 -0.002534 0.000005 -0.006481 -0.000004
# 2 -0.001999 0.034259 -0.008591 -0.000009 0.003888 0.000001
# 3 -0.002534 -0.008591 0.016942 0.000014 -0.005960 -0.000010
# 4 0.000005 -0.000009 0.000014 0.089845 -0.000024 0.029117
# 5 -0.006481 0.003888 -0.005960 -0.000024 0.031823 0.000018
# 6 -0.000004 0.000001 -0.000010 0.029117 0.000018 0.102169
#
#
# Mechanical properties :
#
#
# Convention : Reuss Voigt Hill
#
# Bulk Modulus (GPa) = 29.58831 49.33773 39.46302
# Shear Modulus (GPa) = 15.55711 26.22750 20.89231
#
# Velocity S-wave (km/s) = 2.60042 3.37643 3.01351
# Velocity P-wave (km/s) = 4.67732 6.05359 5.40940
#
# Compressibility (1/GPa) = 0.03379714
#
# Stress axis : x y z
#
# Youngs Moduli (GPa) = 113.06129 29.18949 59.02483
#
# Poissons Ratio (x) = 0.05834 0.14957
# Poissons Ratio (y) = 0.22599 0.50711
# Poissons Ratio (z) = 0.28651 0.25078
#
# Static dielectric constant tensor:
#      x y z
#    x 1.895500 0.000000 -0.048990 
#    y 0.000000 1.835540 0.000000 
#    z -0.048990 0.000000 1.908700 
# 
# From -- ./inp_files/50411.got.cif
#   From: 2010.05.17/outbox.cif.g08.bks.cpg/sg12_26_cif.got.tgz:50411.got - 2010.06.03 13:09:07.
