data_PCOD9203642
_publ_section_title
;
Structure prediction by ZEFSAII (Michael W. Deem and Ramdas Pophale) SiO2 
 PCOD9203642
Probable space group: C 2/M
;
_chemical_formula_sum "Si O2"
_cell_formula_units_Z 56
_cell_length_a 16.503277
_cell_length_b 8.651593
_cell_length_c 23.216478
_cell_angle_alpha 90.000000
_cell_angle_beta 58.419542
_cell_angle_gamma 90.000000
_cell_volume 2823.930997
_symmetry_space_group_name_H-M "C 2/M"
_symmetry_group_IT_number 12
_symmetry_cell_setting 'monoclinic'
loop_
_space_group_symop_operation_xyz
x,y,z
-x,y,-z
-x,-y,-z
x,-y,z
1/2+x,1/2+y,z
1/2-x,1/2+y,-z
1/2-x,1/2-y,-z
1/2+x,1/2-y,z
loop_
_atom_site_type_symbol
_atom_site_label
_atom_site_fract_x
_atom_site_fract_y
_atom_site_fract_z
Si Si1 0.379202 0.682779 0.204606
Si Si2 0.230316 0.316034 0.070396
Si Si3 0.453713 0.815540 0.789691
Si Si4 0.979992 0.684242 0.649070
Si Si5 0.795643 0.688379 0.655664
Si Si6 0.807051 0.185535 0.424406
Si Si7 0.907848 0.683921 0.070950
O O1 0.377288 0.500000 0.193541
O O2 0.453199 0.721619 0.227421
O O3 0.275870 0.732084 0.265973
O O4 0.414329 0.770898 0.135080
O O5 0.226319 0.500000 0.067633
O O6 0.132298 0.265240 0.136992
O O7 0.316129 0.265776 0.079114
O O8 0.250000 0.250000 0.000000
O O9 0.434022 0.793531 0.729539
O O10 0.470069 0.000000 0.792171
O O11 0.993842 0.500000 0.635813
O O12 0.902782 0.739487 0.630750
O O13 0.083666 0.760050 0.611845
O O14 0.797403 0.500000 0.654087
O O15 0.747061 0.738861 0.613975
O O16 0.750000 0.250000 0.500000
O O17 0.805203 0.000000 0.425068
O O18 0.897976 0.500000 0.068636
O O19 0.000000 0.732073 0.000000
#
# Coordination Sequence:
#
# PCOD9203642 Si02
#       7
#     8   8   8   8   8   8   8
#     4  11  21  37  62  89 118 156 204 252 305 367
#     4  11  23  39  58  83 116 157 203 254 310 372
#     4  10  21  37  59  87 121 155 197 251 309 367
#     4  10  20  39  65  90 119 162 207 248 304 368
#     4   9  20  39  63  90 124 163 203 249 305 372
#     4  11  23  42  64  92 128 163 204 254 308 368
#     4  11  24  40  56  80 116 156 201 254 312 369
#
# _framework density 19.830513
#
# number of rings (size 3 to 8) (size 9 to 14) (size 15 to 20)
#    0.000    1.571    1.429    3.429    0.000    8.571 
#    0.000    7.143    0.000    0.000    0.000    0.000 
#    0.000    0.000    0.000    0.000    0.000    0.000 
#
# Total GULP energy -156426.292637 kJ/mol
# GULP energy per Si atom -5586.653308 kJ/mol
# Density = 1.978538 g / cm^3
# Si number density = 19.830513 Si / 1000 Ang^3
#
#
#
# Elastic Constant Matrix: (Units=GPa)
#
#
# Indices 1 2 3 4 5 6 
#
# 1 136.6290 20.7807 46.5976 0.0000 -9.8362 0.0000
# 2 20.7807 21.6498 24.2017 0.0000 -6.2151 0.0000
# 3 46.5976 24.2017 114.1777 0.0000 -6.4314 0.0000
# 4 0.0000 0.0000 0.0000 23.9573 0.0000 -0.0209
# 5 -9.8362 -6.2151 -6.4314 0.0000 25.8329 0.0000
# 6 0.0000 0.0000 0.0000 -0.0209 0.0000 32.1348
#
#
#
# Elastic Compliance Matrix: (Units=1/GPa)
#
#
# Indices 1 2 3 4 5 6 
#
# 1 0.009112 -0.005568 -0.002453 0.000000 0.001519 0.000000
# 2 -0.005568 0.067523 -0.011404 0.000000 0.011286 0.000000
# 3 -0.002453 -0.011404 0.012140 0.000000 -0.000655 0.000000
# 4 0.000000 0.000000 0.000000 0.041741 0.000000 0.000027
# 5 0.001519 0.011286 -0.000655 0.000000 0.041841 0.000000
# 6 0.000000 0.000000 0.000000 0.000027 0.000000 0.031119
#
#
# Mechanical properties :
#
#
# Convention : Reuss Voigt Hill
#
# Bulk Modulus (GPa) = 20.03051 50.62405 35.32728
# Shear Modulus (GPa) = 19.30749 28.44344 23.87546
#
# Velocity S-wave (km/s) = 3.12368 3.79136 3.47360
# Velocity P-wave (km/s) = 4.80964 6.68952 5.82590
#
# Compressibility (1/GPa) = 0.04992384
#
# Stress axis : x y z
#
# Youngs Moduli (GPa) = 109.74668 14.80984 82.37395
#
# Poissons Ratio (x) = 0.08246 0.20206
# Poissons Ratio (y) = 0.61106 0.93942
# Poissons Ratio (z) = 0.26920 0.16890
#
# Static dielectric constant tensor:
#      x y z
#    x 1.736030 0.000000 0.054280 
#    y 0.000000 1.670270 0.000000 
#    z 0.054280 0.000000 1.768230 
# 
# From -- ./inp_files/338546.got.cif
#   From: 2010.05.17/outbox.cif.g08.bks.cpg/sg12_170_cif.got.tgz:338546.got - 2010.06.03 13:09:07.
