data_PCOD9203008
_publ_section_title
;
Structure prediction by ZEFSAII (Michael W. Deem and Ramdas Pophale) SiO2 
 PCOD9203008
Probable space group: C 2/M
;
_chemical_formula_sum "Si O2"
_cell_formula_units_Z 52
_cell_length_a 18.413525
_cell_length_b 14.166448
_cell_length_c 19.966109
_cell_angle_alpha 90.000000
_cell_angle_beta 148.978481
_cell_angle_gamma 90.000000
_cell_volume 2684.120621
_symmetry_space_group_name_H-M "C 2/M"
_symmetry_group_IT_number 12
_symmetry_cell_setting 'monoclinic'
loop_
_space_group_symop_operation_xyz
x,y,z
-x,y,-z
-x,-y,-z
x,-y,z
1/2+x,1/2+y,z
1/2-x,1/2+y,-z
1/2-x,1/2-y,-z
1/2+x,1/2-y,z
loop_
_atom_site_type_symbol
_atom_site_label
_atom_site_fract_x
_atom_site_fract_y
_atom_site_fract_z
Si Si1 0.294033 0.760637 0.686120
Si Si2 0.052030 0.107433 0.266747
Si Si3 0.284962 0.720598 0.103671
Si Si4 0.695277 0.103515 0.428306
Si Si5 0.510374 0.893770 0.928910
Si Si6 0.095991 0.393203 0.720768
Si Si7 0.500000 0.823100 0.500000
O O1 0.392124 0.668741 0.751648
O O2 0.282590 0.812981 0.605900
O O3 0.380048 0.832606 0.799804
O O4 0.139356 0.735134 0.589655
O O5 0.185211 0.104501 0.421309
O O6 0.927237 0.159811 0.207550
O O7 0.012401 0.000000 0.217745
O O8 0.309145 0.809345 0.172857
O O9 0.250000 0.750000 0.000000
O O10 0.155439 0.657215 0.024929
O O11 0.545612 0.112002 0.346461
O O12 0.701599 0.000000 0.399801
O O13 0.508640 0.000000 0.899363
O O14 0.500000 0.899012 0.000000
O O15 0.154424 0.500000 0.773832
O O16 0.048948 0.377794 0.606201
#
# Coordination Sequence:
#
# PCOD9203008 Si02
#       7
#     8   8   8   8   8   8   4
#     4  12  22  42  64  94 127 169 217 260 328 380
#     4  11  22  37  62  94 127 160 205 264 318 375
#     4  12  23  42  67  95 127 168 224 272 314 377
#     4  10  20  38  65  92 124 161 210 270 323 376
#     4  11  25  45  65  89 129 173 214 264 322 383
#     4  11  23  40  65  98 132 174 216 262 326 392
#     4  12  25  38  67  96 140 176 209 264 325 404
#
# _framework density 19.373197999999999
#
# number of rings (size 3 to 8) (size 9 to 14) (size 15 to 20)
#    0.000    0.769    4.615    3.462    0.000    3.077 
#    0.000    3.077    0.000    1.846    0.000    0.000 
#    0.000    0.000    0.000    0.000    0.000    0.000 
#
# Total GULP energy -145237.747331 kJ/mol
# GULP energy per Si atom -5586.067205 kJ/mol
# Density = 1.932910 g / cm^3
# Si number density = 19.373198 Si / 1000 Ang^3
#
#
#
# Elastic Constant Matrix: (Units=GPa)
#
#
# Indices 1 2 3 4 5 6 
#
# 1 83.3168 53.4604 15.3993 0.0001 11.9978 0.0000
# 2 53.4604 168.3727 45.4146 0.0001 -1.3326 -0.0001
# 3 15.3993 45.4146 60.8649 0.0003 -3.6837 0.0000
# 4 0.0001 0.0001 0.0003 30.2576 -0.0001 3.5011
# 5 11.9978 -1.3326 -3.6837 -0.0001 34.2139 -0.0002
# 6 0.0000 -0.0001 0.0000 3.5011 -0.0002 25.8934
#
#
#
# Elastic Compliance Matrix: (Units=1/GPa)
#
#
# Indices 1 2 3 4 5 6 
#
# 1 0.016199 -0.004993 -0.000734 0.000000 -0.005954 0.000000
# 2 -0.004993 0.008978 -0.005343 0.000000 0.001525 0.000000
# 3 -0.000734 -0.005343 0.020740 0.000000 0.002282 0.000000
# 4 0.000000 0.000000 0.000000 0.033575 0.000000 -0.004540
# 5 -0.005954 0.001525 0.002282 0.000000 0.031621 0.000000
# 6 0.000000 0.000000 0.000000 -0.004540 0.000000 0.039234
#
#
# Mechanical properties :
#
#
# Convention : Reuss Voigt Hill
#
# Bulk Modulus (GPa) = 42.05536 60.12255 51.08895
# Shear Modulus (GPa) = 27.71447 31.29167 29.50307
#
# Velocity S-wave (km/s) = 3.78637 4.02332 3.90664
# Velocity P-wave (km/s) = 6.39301 7.25838 6.83940
#
# Compressibility (1/GPa) = 0.02377818
#
# Stress axis : x y z
#
# Youngs Moduli (GPa) = 61.73284 111.38689 48.21499
#
# Poissons Ratio (x) = 0.55611 0.03537
# Poissons Ratio (y) = 0.30821 0.25763
# Poissons Ratio (z) = 0.04528 0.59517
#
# Static dielectric constant tensor:
#      x y z
#    x 1.624210 0.000000 -0.014860 
#    y 0.000000 1.773510 0.000000 
#    z -0.014860 0.000000 1.651730 
# 
# From -- ./inp_files/316545.got.cif
#   From: 2010.05.17/outbox.cif.g08.bks.cpg/sg12_159_cif.got.tgz:316545.got - 2010.06.03 13:09:07.
