data_PCOD9203055
_publ_section_title
;
Structure prediction by ZEFSAII (Michael W. Deem and Ramdas Pophale) SiO2 
 PCOD9203055
Probable space group: C 2/M
;
_chemical_formula_sum "Si O2"
_cell_formula_units_Z 30
_cell_length_a 10.942591
_cell_length_b 12.894421
_cell_length_c 13.491343
_cell_angle_alpha 90.000000
_cell_angle_beta 138.611852
_cell_angle_gamma 90.000000
_cell_volume 1258.582215
_symmetry_space_group_name_H-M "C 2/M"
_symmetry_group_IT_number 12
_symmetry_cell_setting 'monoclinic'
loop_
_space_group_symop_operation_xyz
x,y,z
-x,y,-z
-x,-y,-z
x,-y,z
1/2+x,1/2+y,z
1/2-x,1/2+y,-z
1/2-x,1/2-y,-z
1/2+x,1/2-y,z
loop_
_atom_site_type_symbol
_atom_site_label
_atom_site_fract_x
_atom_site_fract_y
_atom_site_fract_z
Si Si1 0.741150 0.611014 0.380510
Si Si2 0.665161 0.338989 0.799502
Si Si3 0.500000 0.282289 0.500000
Si Si4 0.221717 0.111313 0.134993
Si Si5 0.500000 0.000000 0.000000
O O1 0.799726 0.500000 0.460495
O O2 0.524515 0.623915 0.266519
O O3 0.864053 0.709531 0.482592
O O4 0.772368 0.607182 0.281714
O O5 0.621862 0.342778 0.654187
O O6 0.699595 0.220041 0.853947
O O7 0.841547 0.409466 0.924925
O O8 0.277905 0.000000 0.123046
O O9 0.000000 0.116812 0.000000
#
# Coordination Sequence:
#
# PCOD9203055 Si02
#       5
#     8   8   4   8   2
#     4  10  20  38  66  90 125 166 206 254 315 365
#     4  11  22  41  64  92 129 166 203 254 320 370
#     4  10  23  41  62  92 124 162 220 258 288 374
#     4   9  19  37  59  90 123 160 209 258 295 366
#     4  12  24  42  62  94 134 162 198 260 322 378
#
# _framework density 23.836345999999999
#
# number of rings (size 3 to 8) (size 9 to 14) (size 15 to 20)
#    0.000    1.867    2.667    1.200    0.000    2.667 
#    0.000    0.000    0.000    0.000    0.000    0.000 
#    0.000    0.000    0.000    0.000    0.000    0.000 
#
# Total GULP energy -83543.212456 kJ/mol
# GULP energy per Si atom -5569.547497 kJ/mol
# Density = 2.378209 g / cm^3
# Si number density = 23.836346 Si / 1000 Ang^3
#
#
#
# Elastic Constant Matrix: (Units=GPa)
#
#
# Indices 1 2 3 4 5 6 
#
# 1 74.2079 44.2596 31.5631 0.0000 27.2593 0.0000
# 2 44.2596 151.7753 24.6358 0.0000 18.6787 0.0000
# 3 31.5631 24.6358 73.1162 0.0001 30.1012 0.0000
# 4 0.0000 0.0000 0.0001 -51.4386 0.0000 -25.6896
# 5 27.2593 18.6787 30.1012 0.0000 48.2051 0.0000
# 6 0.0000 0.0000 0.0000 -25.6896 0.0000 1.2213
#
#
#
# Elastic Compliance Matrix: (Units=1/GPa)
#
#
# Indices 1 2 3 4 5 6 
#
# 1 0.020643 -0.004411 -0.004473 0.000000 -0.007171 0.000000
# 2 -0.004411 0.008013 -0.000733 0.000000 -0.000153 0.000000
# 3 -0.004473 -0.000733 0.019782 0.000000 -0.009539 0.000000
# 4 0.000000 0.000000 0.000000 -0.001690 0.000000 -0.035543
# 5 -0.007171 -0.000153 -0.009539 0.000000 0.030816 0.000000
# 6 0.000000 0.000000 0.000000 -0.035543 0.000000 0.071168
#
#
# Mechanical properties :
#
#
# Convention : Reuss Voigt Hill
#
# Bulk Modulus (GPa) = 34.24119 55.55738 44.89928
# Shear Modulus (GPa) = 28.13729 12.84030 20.48879
#
# Velocity S-wave (km/s) = 3.43947 2.32348 2.93501
# Velocity P-wave (km/s) = 5.49269 5.52779 5.51027
#
# Compressibility (1/GPa) = 0.02920460
#
# Stress axis : x y z
#
# Youngs Moduli (GPa) = 48.44172 124.80022 50.55159
#
# Poissons Ratio (x) = 0.55053 0.22610
# Poissons Ratio (y) = 0.21369 0.03704
# Poissons Ratio (z) = 0.21667 0.09143
#
# Static dielectric constant tensor:
#      x y z
#    x 1.896970 0.000000 -0.059990 
#    y 0.000000 12.409630 0.000000 
#    z -0.059990 0.000000 1.917760 
# 
# From -- ./inp_files/127534.got.cif
#   From: 2010.05.17/outbox.cif.g08.bks.cpg/sg12_64_cif.got.tgz:127534.got - 2010.06.03 13:09:07.
