data_PCOD9203288
_publ_section_title
;
Structure prediction by ZEFSAII (Michael W. Deem and Ramdas Pophale) SiO2 
 PCOD9203288
Probable space group: C 2/M
;
_chemical_formula_sum "Si O2"
_cell_formula_units_Z 56
_cell_length_a 29.555238
_cell_length_b 12.738876
_cell_length_c 14.193623
_cell_angle_alpha 90.000000
_cell_angle_beta 28.715370
_cell_angle_gamma 90.000000
_cell_volume 2567.526719
_symmetry_space_group_name_H-M "C 2/M"
_symmetry_group_IT_number 12
_symmetry_cell_setting 'monoclinic'
loop_
_space_group_symop_operation_xyz
x,y,z
-x,y,-z
-x,-y,-z
x,-y,z
1/2+x,1/2+y,z
1/2-x,1/2+y,-z
1/2-x,1/2-y,-z
1/2+x,1/2-y,z
loop_
_atom_site_type_symbol
_atom_site_label
_atom_site_fract_x
_atom_site_fract_y
_atom_site_fract_z
Si Si1 0.282910 0.122554 0.045346
Si Si2 0.393501 0.759388 0.680112
Si Si3 0.891205 0.620935 0.495034
Si Si4 0.023172 0.116353 0.069858
Si Si5 0.147944 0.615264 0.724423
Si Si6 0.415797 0.168820 0.968285
Si Si7 0.838668 0.788516 0.455043
O O1 0.179067 0.170440 0.222000
O O2 0.284660 0.000000 0.017260
O O3 0.350394 0.189665 0.853062
O O4 0.326449 0.135471 0.069908
O O5 0.500000 0.720839 0.500000
O O6 0.397161 0.848875 0.593303
O O7 0.863234 0.500000 0.533485
O O8 0.826275 0.709308 0.564418
O O9 0.992936 0.640213 0.260198
O O10 0.924974 0.131433 0.305106
O O11 0.086032 0.208961 0.997685
O O12 0.062745 0.000000 0.010484
O O13 0.000000 0.127229 0.000000
O O14 0.153189 0.500000 0.671224
O O15 0.128770 0.706648 0.685789
O O16 0.248154 0.649225 0.586083
O O17 0.079733 0.613919 0.938455
#
# Coordination Sequence:
#
# PCOD9203288 Si02
#       7
#     8   8   8   8   8   8   8
#     4  11  24  44  71  98 134 176 215 272 337 390
#     4  11  24  44  70 101 132 167 221 277 326 404
#     4  11  22  38  63  90 125 167 212 267 321 384
#     4  10  20  39  61  84 122 168 208 259 319 373
#     4  11  21  36  56  83 122 160 205 262 316 375
#     4  11  22  38  61  95 123 164 217 261 317 391
#     4  10  22  37  56  87 118 162 212 257 316 388
#
# _framework density 21.810873000000001
#
# number of rings (size 3 to 8) (size 9 to 14) (size 15 to 20)
#    0.000    1.286    2.857    3.429    0.000    0.857 
#    0.000   10.714    0.000    0.000    0.000    0.000 
#    0.000    0.000    0.000    0.000    0.000    0.000 
#
# Total GULP energy -156503.373010 kJ/mol
# GULP energy per Si atom -5589.406179 kJ/mol
# Density = 2.176123 g / cm^3
# Si number density = 21.810873 Si / 1000 Ang^3
#
#
#
# Elastic Constant Matrix: (Units=GPa)
#
#
# Indices 1 2 3 4 5 6 
#
# 1 62.3550 -4.8192 6.1621 0.0000 0.4278 0.0000
# 2 -4.8192 105.5951 -0.4999 0.0000 -14.5454 0.0000
# 3 6.1621 -0.4999 63.4855 0.0000 -13.9425 0.0000
# 4 0.0000 0.0000 0.0000 15.2927 0.0000 3.5300
# 5 0.4278 -14.5454 -13.9425 0.0000 39.8970 0.0000
# 6 0.0000 0.0000 0.0000 3.5300 0.0000 17.6998
#
#
#
# Elastic Compliance Matrix: (Units=1/GPa)
#
#
# Indices 1 2 3 4 5 6 
#
# 1 0.016259 0.000662 -0.001688 0.000000 -0.000523 0.000000
# 2 0.000662 0.010051 0.000886 0.000000 0.003967 0.000000
# 3 -0.001688 0.000886 0.017327 0.000000 0.006396 0.000000
# 4 0.000000 0.000000 0.000000 0.068546 0.000000 -0.013671
# 5 -0.000523 0.003967 0.006396 0.000000 0.028752 0.000000
# 6 0.000000 0.000000 0.000000 -0.013671 0.000000 0.059224
#
#
# Mechanical properties :
#
#
# Convention : Reuss Voigt Hill
#
# Bulk Modulus (GPa) = 23.06396 25.90239 24.48317
# Shear Modulus (GPa) = 23.26764 29.95076 26.60920
#
# Velocity S-wave (km/s) = 3.26972 3.70970 3.49663
# Velocity P-wave (km/s) = 4.98520 5.50007 5.24895
#
# Compressibility (1/GPa) = 0.04335769
#
# Stress axis : x y z
#
# Youngs Moduli (GPa) = 61.50540 99.49285 57.71278
#
# Poissons Ratio (x) = -0.06587 0.09740
# Poissons Ratio (y) = -0.04072 -0.05114
# Poissons Ratio (z) = 0.10380 -0.08816
#
# Static dielectric constant tensor:
#      x y z
#    x 1.794100 0.000000 0.000390 
#    y 0.000000 1.750050 0.000000 
#    z 0.000390 0.000000 1.839140 
# 
# From -- ./inp_files/251010.got.cif
#   From: 2010.05.17/outbox.cif.g08.bks.cpg/sg12_126_cif.got.tgz:251010.got - 2010.06.03 13:09:07.
