data_PCOD9203592
_publ_section_title
;
Structure prediction by ZEFSAII (Michael W. Deem and Ramdas Pophale) SiO2 
 PCOD9203592
Probable space group: C 2/M
;
_chemical_formula_sum "Si O2"
_cell_formula_units_Z 58
_cell_length_a 19.148972
_cell_length_b 7.826361
_cell_length_c 19.247252
_cell_angle_alpha 90.000000
_cell_angle_beta 69.919693
_cell_angle_gamma 90.000000
_cell_volume 2709.179941
_symmetry_space_group_name_H-M "C 2/M"
_symmetry_group_IT_number 12
_symmetry_cell_setting 'monoclinic'
loop_
_space_group_symop_operation_xyz
x,y,z
-x,y,-z
-x,-y,-z
x,-y,z
1/2+x,1/2+y,z
1/2-x,1/2+y,-z
1/2-x,1/2-y,-z
1/2+x,1/2-y,z
loop_
_atom_site_type_symbol
_atom_site_label
_atom_site_fract_x
_atom_site_fract_y
_atom_site_fract_z
Si Si1 0.978762 0.709286 0.429608
Si Si2 0.382441 0.207781 0.711180
Si Si3 0.820209 0.297232 0.428510
Si Si4 0.221435 0.204433 0.713323
Si Si5 0.500000 0.500000 0.000000
Si Si6 0.176264 0.800364 0.125293
Si Si7 0.664309 0.301929 0.877587
Si Si8 0.423869 0.814301 0.965336
O O1 0.977414 0.500000 0.430578
O O2 0.897935 0.771256 0.432580
O O3 0.000000 0.763675 0.500000
O O4 0.044481 0.760626 0.355173
O O5 0.306251 0.263443 0.698208
O O6 0.377893 0.279710 0.790186
O O7 0.381704 0.000000 0.715046
O O8 0.826093 0.500000 0.428470
O O9 0.750000 0.250000 0.500000
O O10 0.806527 0.247455 0.353369
O O11 0.170564 0.259359 0.796028
O O12 0.223220 0.000000 0.719164
O O13 0.477006 0.651892 0.951372
O O14 0.251400 0.705351 0.122736
O O15 0.138484 0.719807 0.071259
O O16 0.192661 0.000000 0.107637
O O17 0.635997 0.500000 0.893527
O O18 0.617283 0.191545 0.946355
O O19 0.458173 0.000000 0.941474
#
# Coordination Sequence:
#
# PCOD9203592 Si02
#       8
#     8   8   8   8   2   8   8   8
#     4   9  18  35  58  82 109 148 198 248 296 360
#     4   9  18  36  60  86 114 153 201 248 303 363
#     4  11  22  36  57  84 114 149 195 245 299 368
#     4   9  19  36  60  86 119 155 190 245 305 359
#     4  12  26  48  60  90 132 168 220 254 318 386
#     4  11  21  37  61  93 127 158 206 263 314 368
#     4  10  20  39  64  93 124 157 208 263 312 370
#     4  12  24  43  66  91 125 171 215 261 318 378
#
# _framework density 21.408691999999999
#
# number of rings (size 3 to 8) (size 9 to 14) (size 15 to 20)
#    0.000    1.793    1.379    4.345    0.000    4.966 
#    2.483    1.379    0.000    2.897    0.000    0.000 
#    0.000    0.000    0.000    0.000    0.000    0.000 
#
# Total GULP energy -161819.872058 kJ/mol
# GULP energy per Si atom -5579.995588 kJ/mol
# Density = 2.135996 g / cm^3
# Si number density = 21.408692 Si / 1000 Ang^3
#
#
#
# Elastic Constant Matrix: (Units=GPa)
#
#
# Indices 1 2 3 4 5 6 
#
# 1 92.5930 15.0952 66.9953 -0.0001 16.4915 -0.0001
# 2 15.0952 90.2896 21.1809 -0.0002 1.4935 -0.0005
# 3 66.9953 21.1809 132.1286 0.0000 17.1847 -0.0001
# 4 -0.0001 -0.0002 0.0000 30.8503 0.0000 2.2842
# 5 16.4915 1.4935 17.1847 0.0000 34.2227 -0.0001
# 6 -0.0001 -0.0005 -0.0001 2.2842 -0.0001 22.2358
#
#
#
# Elastic Compliance Matrix: (Units=1/GPa)
#
#
# Indices 1 2 3 4 5 6 
#
# 1 0.017705 -0.000950 -0.008260 0.000000 -0.004343 0.000000
# 2 -0.000950 0.011566 -0.001462 0.000000 0.000687 0.000000
# 3 -0.008260 -0.001462 0.012266 0.000000 -0.002115 0.000000
# 4 0.000000 0.000000 0.000000 0.032663 0.000000 -0.003355
# 5 -0.004343 0.000687 -0.002115 0.000000 0.032345 0.000000
# 6 0.000000 0.000000 0.000000 -0.003355 0.000000 0.045317
#
#
# Mechanical properties :
#
#
# Convention : Reuss Voigt Hill
#
# Bulk Modulus (GPa) = 49.52286 57.95044 53.73665
# Shear Modulus (GPa) = 27.78754 31.57776 29.68265
#
# Velocity S-wave (km/s) = 3.60662 3.84474 3.72758
# Velocity P-wave (km/s) = 6.36600 6.84374 6.60919
#
# Compressibility (1/GPa) = 0.02019269
#
# Stress axis : x y z
#
# Youngs Moduli (GPa) = 56.48172 86.46132 81.52643
#
# Poissons Ratio (x) = 0.08218 0.67341
# Poissons Ratio (y) = 0.05368 0.11915
# Poissons Ratio (z) = 0.46654 0.12636
#
# Static dielectric constant tensor:
#      x y z
#    x 2.131310 0.000000 -0.286300 
#    y 0.000000 1.785580 0.000000 
#    z -0.286300 0.000000 1.932240 
# 
# From -- ./inp_files/281098.got.cif
#   From: 2010.05.17/outbox.cif.g08.bks.cpg/sg12_141_cif.got.tgz:281098.got - 2010.06.03 13:09:07.
