data_PCOD9203723
_publ_section_title
;
Structure prediction by ZEFSAII (Michael W. Deem and Ramdas Pophale) SiO2 
 PCOD9203723
Probable space group: C 2/M
;
_chemical_formula_sum "Si O2"
_cell_formula_units_Z 56
_cell_length_a 14.797489
_cell_length_b 14.924914
_cell_length_c 11.977447
_cell_angle_alpha 90.000000
_cell_angle_beta 91.394534
_cell_angle_gamma 90.000000
_cell_volume 2644.450675
_symmetry_space_group_name_H-M "C 2/M"
_symmetry_group_IT_number 12
_symmetry_cell_setting 'monoclinic'
loop_
_space_group_symop_operation_xyz
x,y,z
-x,y,-z
-x,-y,-z
x,-y,z
1/2+x,1/2+y,z
1/2-x,1/2+y,-z
1/2-x,1/2-y,-z
1/2+x,1/2-y,z
loop_
_atom_site_type_symbol
_atom_site_label
_atom_site_fract_x
_atom_site_fract_y
_atom_site_fract_z
Si Si1 0.930346 0.396573 0.586657
Si Si2 0.612095 0.104762 0.168090
Si Si3 0.265197 0.645819 0.509442
Si Si4 0.068942 0.895373 0.647077
Si Si5 0.403291 0.712207 0.946274
Si Si6 0.179942 0.101946 0.871738
Si Si7 0.619466 0.393613 0.283834
O O1 0.958719 0.500000 0.600805
O O2 0.927803 0.363149 0.714043
O O3 0.828544 0.395918 0.535798
O O4 0.000000 0.353848 0.500000
O O5 0.592390 0.181372 0.076867
O O6 0.721061 0.104441 0.179864
O O7 0.586068 0.000000 0.144104
O O8 0.250000 0.750000 0.500000
O O9 0.351195 0.629276 0.433351
O O10 0.293588 0.618222 0.634973
O O11 0.107478 0.882302 0.772629
O O12 0.967221 0.859067 0.646556
O O13 0.056722 0.000000 0.625149
O O14 0.380605 0.662411 0.829718
O O15 0.500000 0.683448 0.000000
O O16 0.331815 0.676286 0.034397
O O17 0.166926 0.000000 0.915813
O O18 0.608868 0.500000 0.259021
#
# Coordination Sequence:
#
# PCOD9203723 Si02
#       7
#     8   8   8   8   8   8   8
#     4  10  21  41  66  90 121 166 215 261 312 377
#     4  10  22  42  66  92 126 174 225 264 319 394
#     4  12  24  38  61  94 133 169 207 262 327 397
#     4  10  20  39  66  93 124 168 215 264 330 398
#     4  12  24  40  63  94 133 171 215 272 327 386
#     4  10  20  39  68  93 122 169 218 266 324 389
#     4  11  24  40  64  98 133 167 215 274 334 392
#
# _framework density 21.176421999999999
#
# number of rings (size 3 to 8) (size 9 to 14) (size 15 to 20)
#    0.000    1.286    2.857    3.429    0.000    4.286 
#    0.000    0.000    0.000    3.429    0.000    0.000 
#    0.000    0.000    0.000    0.000    0.000    0.000 
#
# Total GULP energy -156285.512615 kJ/mol
# GULP energy per Si atom -5581.625451 kJ/mol
# Density = 2.112822 g / cm^3
# Si number density = 21.176422 Si / 1000 Ang^3
#
#
#
# Elastic Constant Matrix: (Units=GPa)
#
#
# Indices 1 2 3 4 5 6 
#
# 1 44.3588 2.2907 23.4573 0.0000 -9.3023 0.0000
# 2 2.2907 92.5399 47.8075 0.0000 -4.8356 0.0000
# 3 23.4573 47.8075 81.5309 0.0000 -18.3859 0.0000
# 4 0.0000 0.0000 0.0000 31.5297 0.0000 -16.0454
# 5 -9.3023 -4.8356 -18.3859 0.0000 31.5156 0.0000
# 6 0.0000 0.0000 0.0000 -16.0454 0.0000 114.0191
#
#
#
# Elastic Compliance Matrix: (Units=1/GPa)
#
#
# Indices 1 2 3 4 5 6 
#
# 1 0.028371 0.004754 -0.010245 0.000000 0.003127 0.000000
# 2 0.004754 0.016616 -0.011767 0.000000 -0.002912 0.000000
# 3 -0.010245 -0.011767 0.024209 0.000000 0.009294 0.000000
# 4 0.000000 0.000000 0.000000 0.034163 0.000000 0.004808
# 5 0.003127 -0.002912 0.009294 0.000000 0.037628 0.000000
# 6 0.000000 0.000000 0.000000 0.004808 0.000000 0.009447
#
#
# Mechanical properties :
#
#
# Convention : Reuss Voigt Hill
#
# Bulk Modulus (GPa) = 28.83645 40.61561 34.72603
# Shear Modulus (GPa) = 25.44396 45.07117 35.25756
#
# Velocity S-wave (km/s) = 3.47006 4.61843 4.08480
# Velocity P-wave (km/s) = 5.44994 6.90370 6.21944
#
# Compressibility (1/GPa) = 0.03467834
#
# Stress axis : x y z
#
# Youngs Moduli (GPa) = 35.24678 60.18476 41.30727
#
# Poissons Ratio (x) = -0.28611 0.42320
# Poissons Ratio (y) = -0.16756 0.48608
# Poissons Ratio (z) = 0.36111 0.70822
#
# Static dielectric constant tensor:
#      x y z
#    x 2.172120 0.000000 -0.176750 
#    y 0.000000 1.787580 0.000000 
#    z -0.176750 0.000000 1.825000 
# 
# From -- ./inp_files/143701.got.cif
#   From: 2010.05.17/outbox.cif.g08.bks.cpg/sg12_72_cif.got.tgz:143701.got - 2010.06.03 13:09:07.
