data_PCOD9203328
_publ_section_title
;
Structure prediction by ZEFSAII (Michael W. Deem and Ramdas Pophale) SiO2 
 PCOD9203328
Probable space group: C 2/M
;
_chemical_formula_sum "Si O2"
_cell_formula_units_Z 64
_cell_length_a 24.139732
_cell_length_b 8.784637
_cell_length_c 30.594977
_cell_angle_alpha 90.000000
_cell_angle_beta 151.890705
_cell_angle_gamma 90.000000
_cell_volume 3056.822225
_symmetry_space_group_name_H-M "C 2/M"
_symmetry_group_IT_number 12
_symmetry_cell_setting 'monoclinic'
loop_
_space_group_symop_operation_xyz
x,y,z
-x,y,-z
-x,-y,-z
x,-y,z
1/2+x,1/2+y,z
1/2-x,1/2+y,-z
1/2-x,1/2-y,-z
1/2+x,1/2-y,z
loop_
_atom_site_type_symbol
_atom_site_label
_atom_site_fract_x
_atom_site_fract_y
_atom_site_fract_z
Si Si1 0.447344 0.325257 0.534854
Si Si2 0.790239 0.816056 0.121254
Si Si3 0.111902 0.826804 0.171172
Si Si4 0.980853 0.682863 0.752228
Si Si5 0.359244 0.823371 0.896331
Si Si6 0.679507 0.325192 0.647221
Si Si7 0.590063 0.819199 0.920157
Si Si8 0.250210 0.820463 0.451883
O O1 0.443660 0.500000 0.548458
O O2 0.581138 0.288546 0.615155
O O3 0.381075 0.322096 0.442042
O O4 0.374922 0.219781 0.516584
O O5 0.916324 0.736675 0.208950
O O6 0.713288 0.783190 0.110804
O O7 0.803978 0.000000 0.128262
O O8 0.713997 0.762102 0.025865
O O9 0.166143 0.782887 0.162355
O O10 0.213707 0.789807 0.276361
O O11 0.004028 0.717700 0.107634
O O12 0.072487 0.000000 0.145145
O O13 0.971200 0.500000 0.746821
O O14 0.030936 0.738927 0.834269
O O15 0.855809 0.749115 0.650624
O O16 0.332149 0.000000 0.867144
O O17 0.500000 0.812008 0.000000
O O18 0.720686 0.500000 0.683048
O O19 0.602544 0.000000 0.923902
O O20 0.250000 0.750000 0.500000
O O21 0.233099 0.000000 0.442369
#
# Coordination Sequence:
#
# PCOD9203328 Si02
#       8
#     8   8   8   8   8   8   8   8
#     4   9  19  39  65  91 118 152 196 246 299 356
#     4  10  21  39  64  90 120 162 209 252 297 356
#     4  12  24  34  54  89 125 158 199 251 300 345
#     4  11  24  41  64  93 124 158 200 253 306 360
#     4  10  20  39  62  80 110 158 202 238 287 354
#     4   9  19  37  62  89 120 158 197 238 294 365
#     4  10  21  40  63  87 122 167 208 245 297 365
#     4  12  26  44  66  89 120 160 203 252 306 365
#
# _framework density 20.936775000000001
#
# number of rings (size 3 to 8) (size 9 to 14) (size 15 to 20)
#    0.000    1.625    1.250    4.500    0.000    7.250 
#    0.000    2.500    0.000    0.000    0.000    0.000 
#    0.000    0.000    0.000    0.000    0.000    0.000 
#
# Total GULP energy -178761.931619 kJ/mol
# GULP energy per Si atom -5586.310363 kJ/mol
# Density = 2.088912 g / cm^3
# Si number density = 20.936775 Si / 1000 Ang^3
#
#
#
# Elastic Constant Matrix: (Units=GPa)
#
#
# Indices 1 2 3 4 5 6 
#
# 1 79.0555 11.1085 -9.1865 -0.0001 2.5754 0.0000
# 2 11.1085 22.9472 4.9951 -0.0003 2.5275 0.0001
# 3 -9.1865 4.9951 36.9699 -0.0006 3.6956 -0.0001
# 4 -0.0001 -0.0003 -0.0006 25.7002 -0.0002 3.1160
# 5 2.5754 2.5275 3.6956 -0.0002 22.7387 -0.0001
# 6 0.0000 0.0001 -0.0001 3.1160 -0.0001 22.4084
#
#
#
# Elastic Compliance Matrix: (Units=1/GPa)
#
#
# Indices 1 2 3 4 5 6 
#
# 1 0.014353 -0.007819 0.004776 0.000000 -0.001533 0.000000
# 2 -0.007819 0.049532 -0.008308 0.000000 -0.003270 0.000000
# 3 0.004776 -0.008308 0.029804 0.000001 -0.004461 0.000000
# 4 0.000000 0.000000 0.000001 0.039577 0.000000 -0.005503
# 5 -0.001533 -0.003270 -0.004461 0.000000 0.045240 0.000000
# 6 0.000000 0.000000 0.000000 -0.005503 0.000000 0.045391
#
#
# Mechanical properties :
#
#
# Convention : Reuss Voigt Hill
#
# Bulk Modulus (GPa) = 14.08710 16.97854 15.53282
# Shear Modulus (GPa) = 18.50050 22.97316 20.73683
#
# Velocity S-wave (km/s) = 2.97583 3.31609 3.15056
# Velocity P-wave (km/s) = 4.30702 4.77378 4.54639
#
# Compressibility (1/GPa) = 0.07098695
#
# Stress axis : x y z
#
# Youngs Moduli (GPa) = 69.67212 20.18895 33.55214
#
# Poissons Ratio (x) = 0.15786 -0.16025
# Poissons Ratio (y) = 0.54476 0.27876
# Poissons Ratio (z) = -0.33276 0.16774
#
# Static dielectric constant tensor:
#      x y z
#    x 1.773570 0.000000 -0.020040 
#    y 0.000000 1.717140 0.000000 
#    z -0.020040 0.000000 1.773850 
# 
# From -- ./inp_files/382538.got.cif
#   From: 2010.05.17/outbox.cif.g08.bks.cpg/sg12_192_cif.got.tgz:382538.got - 2010.06.03 13:09:07.
