data_PCOD9203888
_publ_section_title
;
Structure prediction by ZEFSAII (Michael W. Deem and Ramdas Pophale) SiO2 
 PCOD9203888
Probable space group: C 2/M
;
_chemical_formula_sum "Si O2"
_cell_formula_units_Z 52
_cell_length_a 8.924057
_cell_length_b 16.670510
_cell_length_c 19.454668
_cell_angle_alpha 90.000000
_cell_angle_beta 75.572700
_cell_angle_gamma 90.000000
_cell_volume 2802.972114
_symmetry_space_group_name_H-M "C 2/M"
_symmetry_group_IT_number 12
_symmetry_cell_setting 'monoclinic'
loop_
_space_group_symop_operation_xyz
x,y,z
-x,y,-z
-x,-y,-z
x,-y,z
1/2+x,1/2+y,z
1/2-x,1/2+y,-z
1/2-x,1/2-y,-z
1/2+x,1/2-y,z
loop_
_atom_site_type_symbol
_atom_site_label
_atom_site_fract_x
_atom_site_fract_y
_atom_site_fract_z
Si Si1 0.938558 0.218714 0.764726
Si Si2 0.172742 0.911557 0.799540
Si Si3 0.221764 0.683203 0.093245
Si Si4 0.616685 0.000000 0.423939
Si Si5 0.000000 0.709461 0.000000
Si Si6 0.469401 0.876554 0.679712
Si Si7 0.702275 0.585278 0.302584
Si Si8 0.025395 0.000000 0.578748
O O1 0.076133 0.160052 0.774496
O O2 0.869528 0.265602 0.837921
O O3 0.975538 0.282326 0.699746
O O4 0.814254 0.158496 0.746514
O O5 0.200170 0.890502 0.875797
O O6 0.342243 0.910154 0.746903
O O7 0.104269 0.000000 0.796542
O O8 0.096116 0.663876 0.048573
O O9 0.364695 0.735828 0.048636
O O10 0.500000 0.000000 0.500000
O O11 0.584649 0.918269 0.384416
O O12 0.794721 0.000000 0.425503
O O13 0.640865 0.907242 0.673635
O O14 0.705569 0.500000 0.263727
O O15 0.560564 0.574302 0.372574
O O16 0.000000 0.000000 0.500000
#
# Coordination Sequence:
#
# PCOD9203888 Si02
#       8
#     8   8   8   4   4   8   8   4
#     4  11  22  37  62  95 121 160 207 262 306 357
#     4  11  21  37  61  93 123 160 206 256 316 354
#     4  10  21  37  62  85 116 163 209 252 309 384
#     4  12  22  40  66  92 128 171 204 251 320 364
#     4  10  20  40  60  82 120 162 208 246 322 382
#     4  11  21  38  60  92 123 159 206 255 296 369
#     4  10  21  37  59  90 124 159 203 253 305 356
#     4  10  22  40  62  88 126 169 200 241 306 374
#
# _framework density 18.551738
#
# number of rings (size 3 to 8) (size 9 to 14) (size 15 to 20)
#    0.462    0.923    3.077    4.154    2.154    0.000 
#    0.000    1.538    0.000    4.615    0.000    0.000 
#    0.000    0.000    0.000    0.000    0.000    0.000 
#
# Total GULP energy -144780.940835 kJ/mol
# GULP energy per Si atom -5568.497724 kJ/mol
# Density = 1.850951 g / cm^3
# Si number density = 18.551738 Si / 1000 Ang^3
#
#
#
# Elastic Constant Matrix: (Units=GPa)
#
#
# Indices 1 2 3 4 5 6 
#
# 1 138.2170 27.6823 30.9776 0.0000 15.3056 0.0000
# 2 27.6823 114.6934 26.1866 0.0000 11.9080 0.0000
# 3 30.9776 26.1866 78.3860 0.0000 9.1718 0.0000
# 4 0.0000 0.0000 0.0000 23.3062 0.0000 6.1969
# 5 15.3056 11.9080 9.1718 0.0000 38.5507 0.0000
# 6 0.0000 0.0000 0.0000 6.1969 0.0000 16.9630
#
#
#
# Elastic Compliance Matrix: (Units=1/GPa)
#
#
# Indices 1 2 3 4 5 6 
#
# 1 0.008313 -0.001167 -0.002625 0.000000 -0.002316 0.000000
# 2 -0.001167 0.009792 -0.002582 0.000000 -0.001947 0.000000
# 3 -0.002625 -0.002582 0.014856 0.000000 -0.001695 0.000000
# 4 0.000000 0.000000 0.000000 0.047523 0.000000 -0.017361
# 5 -0.002316 -0.001947 -0.001695 0.000000 0.027864 0.000000
# 6 0.000000 0.000000 0.000000 -0.017361 0.000000 0.065294
#
#
# Mechanical properties :
#
#
# Convention : Reuss Voigt Hill
#
# Bulk Modulus (GPa) = 49.47164 55.66549 52.56856
# Shear Modulus (GPa) = 25.88955 32.19396 29.04175
#
# Velocity S-wave (km/s) = 3.73973 4.17029 3.96086
# Velocity P-wave (km/s) = 6.73589 7.29788 7.02251
#
# Compressibility (1/GPa) = 0.02021360
#
# Stress axis : x y z
#
# Youngs Moduli (GPa) = 120.28815 102.12116 67.31465
#
# Poissons Ratio (x) = 0.11916 0.17668
# Poissons Ratio (y) = 0.14036 0.17383
# Poissons Ratio (z) = 0.31571 0.26372
#
# Static dielectric constant tensor:
#      x y z
#    x 1.658580 0.000000 0.028650 
#    y 0.000000 1.755990 0.000000 
#    z 0.028650 0.000000 1.658830 
# 
# From -- ./inp_files/256594.got.cif
#   From: 2010.05.17/outbox.cif.g08.bks.cpg/sg12_129_cif.got.tgz:256594.got - 2010.06.03 13:09:07.
