data_PCOD9203834
_publ_section_title
;
Structure prediction by ZEFSAII (Michael W. Deem and Ramdas Pophale) SiO2 
 PCOD9203834
Probable space group: C 2/M
;
_chemical_formula_sum "Si O2"
_cell_formula_units_Z 56
_cell_length_a 19.023483
_cell_length_b 14.022841
_cell_length_c 11.976273
_cell_angle_alpha 90.000000
_cell_angle_beta 115.486261
_cell_angle_gamma 90.000000
_cell_volume 2883.936124
_symmetry_space_group_name_H-M "C 2/M"
_symmetry_group_IT_number 12
_symmetry_cell_setting 'monoclinic'
loop_
_space_group_symop_operation_xyz
x,y,z
-x,y,-z
-x,-y,-z
x,-y,z
1/2+x,1/2+y,z
1/2-x,1/2+y,-z
1/2-x,1/2-y,-z
1/2+x,1/2-y,z
loop_
_atom_site_type_symbol
_atom_site_label
_atom_site_fract_x
_atom_site_fract_y
_atom_site_fract_z
Si Si1 0.602978 0.889430 0.682879
Si Si2 0.989055 0.799668 0.364662
Si Si3 0.413861 0.760605 0.955215
Si Si4 0.301724 0.888512 0.480940
Si Si5 0.379377 0.612975 0.112825
Si Si6 0.142770 0.782428 0.330419
Si Si7 0.698376 0.887400 0.973154
O O1 0.535235 0.812269 0.652521
O O2 0.645334 0.873789 0.593413
O O3 0.664805 0.873722 0.825247
O O4 0.576574 0.000000 0.670189
O O5 0.919585 0.854287 0.254684
O O6 0.000000 0.828966 0.500000
O O7 0.067565 0.814741 0.348943
O O8 0.379844 0.731395 0.813096
O O9 0.500000 0.802860 0.000000
O O10 0.420762 0.669257 0.040970
O O11 0.356371 0.831818 0.979271
O O12 0.214272 0.855131 0.392347
O O13 0.330953 0.818380 0.597843
O O14 0.304608 0.000000 0.512170
O O15 0.385167 0.500000 0.102905
O O16 0.288408 0.641147 0.045783
O O17 0.694455 0.000000 0.993737
#
# Coordination Sequence:
#
# PCOD9203834 Si02
#       7
#     8   8   8   8   8   8   8
#     4  10  20  39  69  97 120 161 215 263 311 365
#     4  12  24  42  65  91 129 166 208 262 311 374
#     4  12  23  40  65  95 131 166 206 262 320 368
#     4  10  23  42  66  93 125 166 213 263 310 368
#     4  11  25  43  65  94 125 170 216 255 308 372
#     4  11  24  40  62  97 127 166 209 254 321 375
#     4  10  22  40  66  95 125 164 211 260 315 377
#
# _framework density 19.417904
#
# number of rings (size 3 to 8) (size 9 to 14) (size 15 to 20)
#    0.000    1.143    4.286    1.286    2.000    4.571 
#    0.000    1.429    0.000    0.000    0.000    0.000 
#    0.000    0.000    0.000    0.000    0.000    0.000 
#
# Total GULP energy -156576.656525 kJ/mol
# GULP energy per Si atom -5592.023447 kJ/mol
# Density = 1.937371 g / cm^3
# Si number density = 19.417904 Si / 1000 Ang^3
#
#
#
# Elastic Constant Matrix: (Units=GPa)
#
#
# Indices 1 2 3 4 5 6 
#
# 1 65.4522 12.4014 9.4683 0.0000 -1.4240 0.0000
# 2 12.4014 28.2521 3.9051 0.0000 -9.8655 0.0000
# 3 9.4683 3.9051 129.7937 0.0000 -13.2517 0.0000
# 4 0.0000 0.0000 0.0000 13.6374 0.0000 2.2375
# 5 -1.4240 -9.8655 -13.2517 0.0000 30.2052 0.0000
# 6 0.0000 0.0000 0.0000 2.2375 0.0000 22.3226
#
#
#
# Elastic Compliance Matrix: (Units=1/GPa)
#
#
# Indices 1 2 3 4 5 6 
#
# 1 0.016940 -0.008099 -0.001236 0.000000 -0.002389 0.000000
# 2 -0.008099 0.043827 0.000727 0.000000 0.014252 0.000000
# 3 -0.001236 0.000727 0.008156 0.000000 0.003758 0.000000
# 4 0.000000 0.000000 0.000000 0.074554 0.000000 -0.007473
# 5 -0.002389 0.014252 0.003758 0.000000 0.039298 0.000000
# 6 0.000000 0.000000 0.000000 -0.007473 0.000000 0.045547
#
#
# Mechanical properties :
#
#
# Convention : Reuss Voigt Hill
#
# Bulk Modulus (GPa) = 19.33956 30.56085 24.95020
# Shear Modulus (GPa) = 19.02781 26.41456 22.72119
#
# Velocity S-wave (km/s) = 3.13375 3.69225 3.42441
# Velocity P-wave (km/s) = 4.80366 5.82663 5.33970
#
# Compressibility (1/GPa) = 0.05170750
#
# Stress axis : x y z
#
# Youngs Moduli (GPa) = 59.03289 22.81702 122.60199
#
# Poissons Ratio (x) = 0.18480 0.15153
# Poissons Ratio (y) = 0.47812 -0.08917
# Poissons Ratio (z) = 0.07296 -0.01660
#
# Static dielectric constant tensor:
#      x y z
#    x 1.656620 0.000000 0.028270 
#    y 0.000000 1.672850 0.000000 
#    z 0.028270 0.000000 1.672360 
# 
# From -- ./inp_files/156715.got.cif
#   From: 2010.05.17/outbox.cif.g08.bks.cpg/sg12_79_cif.got.tgz:156715.got - 2010.06.03 13:09:07.
