data_PCOD9203759
_publ_section_title
;
Structure prediction by ZEFSAII (Michael W. Deem and Ramdas Pophale) SiO2 
 PCOD9203759
Probable space group: C 2/M
;
_chemical_formula_sum "Si O2"
_cell_formula_units_Z 42
_cell_length_a 8.835526
_cell_length_b 16.701202
_cell_length_c 16.488666
_cell_angle_alpha 90.000000
_cell_angle_beta 62.643594
_cell_angle_gamma 90.000000
_cell_volume 2161.023295
_symmetry_space_group_name_H-M "C 2/M"
_symmetry_group_IT_number 12
_symmetry_cell_setting 'monoclinic'
loop_
_space_group_symop_operation_xyz
x,y,z
-x,y,-z
-x,-y,-z
x,-y,z
1/2+x,1/2+y,z
1/2-x,1/2+y,-z
1/2-x,1/2-y,-z
1/2+x,1/2-y,z
loop_
_atom_site_type_symbol
_atom_site_label
_atom_site_fract_x
_atom_site_fract_y
_atom_site_fract_z
Si Si1 0.157793 0.500000 0.024642
Si Si2 0.954451 0.000000 0.827012
Si Si3 0.104292 0.635763 0.169601
Si Si4 0.500000 0.000000 0.500000
Si Si5 0.003128 0.862323 0.696456
Si Si6 0.364038 0.000000 0.715980
Si Si7 0.704165 0.256153 0.764617
Si Si8 0.880831 0.000000 0.451096
O O1 0.145558 0.577426 0.085551
O O2 0.337166 0.500000 0.933993
O O3 0.000000 0.500000 0.000000
O O4 0.915011 0.078995 0.783952
O O5 0.159844 0.000000 0.786879
O O6 0.061370 0.577873 0.256781
O O7 0.255713 0.692185 0.165215
O O8 0.949871 0.694569 0.186986
O O9 0.387585 0.000000 0.613838
O O10 0.677618 0.000000 0.510344
O O11 0.870517 0.795141 0.702224
O O12 0.154569 0.817113 0.705599
O O13 0.068481 0.920501 0.611181
O O14 0.000000 0.000000 0.500000
#
# Coordination Sequence:
#
# PCOD9203759 Si02
#       8
#     4   4   8   2   8   4   8   4
#     4  11  24  41  64  97 129 174 224 273 315 398
#     4  11  20  42  65  89 132 166 222 264 325 387
#     4  10  22  40  65  94 126 176 216 262 340 381
#     4  12  22  42  72 102 134 156 238 282 326 390
#     4  10  21  42  63  94 128 173 215 269 338 388
#     4  11  22  41  70  94 123 178 215 278 326 397
#     4  10  20  39  67  89 133 172 210 270 330 405
#     4  11  25  42  69 102 126 174 231 276 333 402
#
# _framework density 19.435236
#
# number of rings (size 3 to 8) (size 9 to 14) (size 15 to 20)
#    0.000    1.524    3.810    1.143    2.667    3.048 
#    0.000   11.429    8.381    0.000    0.000    0.000 
#    0.000    0.000    0.000    0.000    0.000    0.000 
#
# Total GULP energy -117007.842340 kJ/mol
# GULP energy per Si atom -5571.802016 kJ/mol
# Density = 1.939100 g / cm^3
# Si number density = 19.435236 Si / 1000 Ang^3
#
#
#
# Elastic Constant Matrix: (Units=GPa)
#
#
# Indices 1 2 3 4 5 6 
#
# 1 159.9655 73.5408 60.2317 0.0000 9.4513 0.0000
# 2 73.5408 135.7805 42.4281 0.0000 9.3455 0.0000
# 3 60.2317 42.4281 84.4088 0.0000 3.1060 0.0000
# 4 0.0000 0.0000 0.0000 2.8267 0.0000 4.6840
# 5 9.4513 9.3455 3.1060 0.0000 16.5896 0.0000
# 6 0.0000 0.0000 0.0000 4.6840 0.0000 28.1079
#
#
#
# Elastic Compliance Matrix: (Units=1/GPa)
#
#
# Indices 1 2 3 4 5 6 
#
# 1 0.010053 -0.003616 -0.005256 0.000000 -0.002706 0.000000
# 2 -0.003616 0.010328 -0.002490 0.000000 -0.003292 0.000000
# 3 -0.005256 -0.002490 0.016803 0.000000 0.001251 0.000000
# 4 0.000000 0.000000 0.000000 0.488721 0.000000 -0.081442
# 5 -0.002706 -0.003292 0.001251 0.000000 0.063441 0.000000
# 6 0.000000 0.000000 0.000000 -0.081442 0.000000 0.049149
#
#
# Mechanical properties :
#
#
# Convention : Reuss Voigt Hill
#
# Bulk Modulus (GPa) = 69.15768 81.39512 75.27640
# Shear Modulus (GPa) = 7.50707 23.10177 15.30442
#
# Velocity S-wave (km/s) = 1.96748 3.45143 2.80921
# Velocity P-wave (km/s) = 6.38923 7.60620 7.02412
#
# Compressibility (1/GPa) = 0.01445971
#
# Stress axis : x y z
#
# Youngs Moduli (GPa) = 99.47555 96.82477 59.51223
#
# Poissons Ratio (x) = 0.35012 0.31281
# Poissons Ratio (y) = 0.35971 0.14818
# Poissons Ratio (z) = 0.52286 0.24109
#
# Static dielectric constant tensor:
#      x y z
#    x 1.719340 0.000000 0.011030 
#    y 0.000000 1.691240 0.000000 
#    z 0.011030 0.000000 1.651870 
# 
# From -- ./inp_files/255736.got.cif
#   From: 2010.05.17/outbox.cif.g08.bks.cpg/sg12_128_cif.got.tgz:255736.got - 2010.06.03 13:09:07.
