data_PCOD9203335
_publ_section_title
;
Structure prediction by ZEFSAII (Michael W. Deem and Ramdas Pophale) SiO2 
 PCOD9203335
Probable space group: C 2/M
;
_chemical_formula_sum "Si O2"
_cell_formula_units_Z 56
_cell_length_a 19.373555
_cell_length_b 18.863474
_cell_length_c 7.599261
_cell_angle_alpha 90.000000
_cell_angle_beta 113.085584
_cell_angle_gamma 90.000000
_cell_volume 2554.774107
_symmetry_space_group_name_H-M "C 2/M"
_symmetry_group_IT_number 12
_symmetry_cell_setting 'monoclinic'
loop_
_space_group_symop_operation_xyz
x,y,z
-x,y,-z
-x,-y,-z
x,-y,z
1/2+x,1/2+y,z
1/2-x,1/2+y,-z
1/2-x,1/2-y,-z
1/2+x,1/2-y,z
loop_
_atom_site_type_symbol
_atom_site_label
_atom_site_fract_x
_atom_site_fract_y
_atom_site_fract_z
Si Si1 0.645342 0.825326 0.437912
Si Si2 0.000061 0.418309 0.211652
Si Si3 0.779411 0.920415 0.989763
Si Si4 0.279378 0.579566 0.568806
Si Si5 0.585464 0.675901 0.373318
Si Si6 0.645264 0.174562 0.852551
Si Si7 0.085419 0.824016 0.797707
O O1 0.573612 0.876410 0.346902
O O2 0.717762 0.865293 0.434916
O O3 0.623833 0.748351 0.342925
O O4 0.659501 0.814538 0.659459
O O5 0.000166 0.500000 0.272036
O O6 0.926441 0.376567 0.200028
O O7 0.000000 0.418045 0.000000
O O8 0.861616 0.889454 0.104294
O O9 0.769684 0.000000 0.049703
O O10 0.768077 0.923908 0.767976
O O11 0.717694 0.865375 0.000390
O O12 0.269507 0.500000 0.489274
O O13 0.361636 0.610393 0.618631
O O14 0.500034 0.670346 0.223853
O O15 0.582011 0.681109 0.582071
O O16 0.623670 0.251496 0.904594
#
# Coordination Sequence:
#
# PCOD9203335 Si02
#       7
#     8   8   8   8   8   8   8
#     4  10  20  39  62  83 113 152 195 237 282 343
#     4  11  23  35  53  87 124 153 186 231 285 342
#     4  10  22  38  58  86 116 151 195 238 286 342
#     4  10  22  38  58  86 116 151 195 238 286 342
#     4  10  21  38  60  86 114 148 194 240 287 343
#     4  10  20  39  62  83 113 152 195 237 282 343
#     4  10  21  38  60  86 114 148 194 240 287 343
#
# _framework density 21.919746
#
# number of rings (size 3 to 8) (size 9 to 14) (size 15 to 20)
#    0.000    1.857    1.429    2.143    0.000    6.286 
#    0.000    2.857    0.000    0.000    0.000    0.000 
#    0.000    0.000    0.000    0.000    0.000    0.000 
#
# Total GULP energy -156530.020389 kJ/mol
# GULP energy per Si atom -5590.357871 kJ/mol
# Density = 2.186986 g / cm^3
# Si number density = 21.919746 Si / 1000 Ang^3
#
#
#
# Elastic Constant Matrix: (Units=GPa)
#
#
# Indices 1 2 3 4 5 6 
#
# 1 98.7413 26.2009 17.9629 0.0000 37.5848 0.0000
# 2 26.2009 19.5977 -0.9784 0.0000 15.5000 0.0000
# 3 17.9629 -0.9784 39.3531 0.0000 -3.1267 0.0000
# 4 0.0000 0.0000 0.0000 19.7703 0.0000 -0.2624
# 5 37.5848 15.5000 -3.1267 0.0000 30.6416 0.0000
# 6 0.0000 0.0000 0.0000 -0.2624 0.0000 19.4581
#
#
#
# Elastic Compliance Matrix: (Units=1/GPa)
#
#
# Indices 1 2 3 4 5 6 
#
# 1 0.027419 -0.015992 -0.015065 0.000000 -0.027080 0.000000
# 2 -0.015992 0.094450 0.007471 0.000000 -0.027400 0.000000
# 3 -0.015065 0.007471 0.033916 0.000000 0.018160 0.000000
# 4 0.000000 0.000000 0.000000 0.050590 0.000000 0.000682
# 5 -0.027080 -0.027400 0.018160 0.000000 0.081564 0.000000
# 6 0.000000 0.000000 0.000000 0.000682 0.000000 0.051402
#
#
# Mechanical properties :
#
#
# Convention : Reuss Voigt Hill
#
# Bulk Modulus (GPa) = 9.20695 27.11810 18.16253
# Shear Modulus (GPa) = 11.82822 21.60777 16.71799
#
# Velocity S-wave (km/s) = 2.32548 3.14310 2.76468
# Velocity P-wave (km/s) = 3.37933 5.05673 4.30060
#
# Compressibility (1/GPa) = 0.10861358
#
# Stress axis : x y z
#
# Youngs Moduli (GPa) = 36.47083 10.58758 29.48464
#
# Poissons Ratio (x) = 0.16932 0.44418
# Poissons Ratio (y) = 0.58324 -0.22028
# Poissons Ratio (z) = 0.54942 -0.07910
#
# Static dielectric constant tensor:
#      x y z
#    x 1.774280 0.000000 -0.024260 
#    y 0.000000 1.782700 0.000000 
#    z -0.024260 0.000000 1.816920 
# 
# From -- ./inp_files/76008.got.cif
#   From: 2010.05.17/outbox.cif.g08.bks.cpg/sg12_39_cif.got.tgz:76008.got - 2010.06.03 13:09:07.
