data_PCOD9203490
_publ_section_title
;
Structure prediction by ZEFSAII (Michael W. Deem and Ramdas Pophale) SiO2 
 PCOD9203490
Probable space group: C 2/M
;
_chemical_formula_sum "Si O2"
_cell_formula_units_Z 44
_cell_length_a 9.066642
_cell_length_b 10.540923
_cell_length_c 26.004866
_cell_angle_alpha 90.000000
_cell_angle_beta 52.392830
_cell_angle_gamma 90.000000
_cell_volume 1968.891795
_symmetry_space_group_name_H-M "C 2/M"
_symmetry_group_IT_number 12
_symmetry_cell_setting 'monoclinic'
loop_
_space_group_symop_operation_xyz
x,y,z
-x,y,-z
-x,-y,-z
x,-y,z
1/2+x,1/2+y,z
1/2-x,1/2+y,-z
1/2-x,1/2-y,-z
1/2+x,1/2-y,z
loop_
_atom_site_type_symbol
_atom_site_label
_atom_site_fract_x
_atom_site_fract_y
_atom_site_fract_z
Si Si1 0.147069 0.000000 0.895860
Si Si2 0.454596 0.355766 0.565168
Si Si3 0.243032 0.212985 0.140216
Si Si4 0.764315 0.500000 0.047105
Si Si5 0.938889 0.252799 0.349389
Si Si6 0.651573 0.643366 0.736073
Si Si7 0.510096 0.000000 0.103102
O O1 0.189297 0.143160 0.866856
O O2 0.925528 0.000000 0.946047
O O3 0.296413 0.000000 0.909640
O O4 0.500000 0.295875 0.500000
O O5 0.521449 0.500000 0.549794
O O6 0.230808 0.351350 0.619117
O O7 0.547329 0.291823 0.594729
O O8 0.251682 0.131196 0.084183
O O9 0.030147 0.209464 0.202882
O O10 0.382302 0.121264 0.142358
O O11 0.927949 0.500000 0.969944
O O12 0.879059 0.150581 0.319247
O O13 0.147078 0.300766 0.293363
O O14 0.645301 0.500000 0.756069
#
# Coordination Sequence:
#
# PCOD9203490 Si02
#       7
#     4   8   8   4   8   8   4
#     4  12  27  40  68 100 124 158 217 258 328 376
#     4  10  20  39  63  90 127 167 208 253 308 369
#     4  11  25  44  66  94 128 173 210 260 325 382
#     4  11  25  47  69  93 129 167 213 265 320 384
#     4  10  23  38  60  98 123 164 208 264 310 362
#     4  11  23  41  65  87 131 166 212 259 314 381
#     4  11  25  47  69  93 129 167 213 265 320 384
#
# _framework density 22.347598000000001
#
# number of rings (size 3 to 8) (size 9 to 14) (size 15 to 20)
#    0.000    1.273    1.818    4.091    5.091    4.364 
#    6.545    0.000    0.000    8.727    0.000    0.000 
#    0.000    0.000    0.000    0.000    0.000    0.000 
#
# Total GULP energy -122625.001217 kJ/mol
# GULP energy per Si atom -5573.863692 kJ/mol
# Density = 2.229673 g / cm^3
# Si number density = 22.347598 Si / 1000 Ang^3
#
#
#
# Elastic Constant Matrix: (Units=GPa)
#
#
# Indices 1 2 3 4 5 6 
#
# 1 109.3468 14.9607 9.5284 0.0000 2.7410 0.0000
# 2 14.9607 129.7621 13.2304 0.0000 -0.7729 0.0000
# 3 9.5284 13.2304 58.6721 0.0000 -21.4577 0.0000
# 4 0.0000 0.0000 0.0000 14.8768 0.0000 -1.6217
# 5 2.7410 -0.7729 -21.4577 0.0000 27.5203 0.0000
# 6 0.0000 0.0000 0.0000 -1.6217 0.0000 18.8844
#
#
#
# Elastic Compliance Matrix: (Units=1/GPa)
#
#
# Indices 1 2 3 4 5 6 
#
# 1 0.009544 -0.000873 -0.002392 0.000000 -0.002840 0.000000
# 2 -0.000873 0.008020 -0.002172 0.000000 -0.001381 0.000000
# 3 -0.002392 -0.002172 0.025162 0.000000 0.019796 0.000000
# 4 0.000000 0.000000 0.000000 0.067854 0.000000 0.005827
# 5 -0.002840 -0.001381 0.019796 0.000000 0.052016 0.000000
# 6 0.000000 0.000000 0.000000 0.005827 0.000000 0.053454
#
#
# Mechanical properties :
#
#
# Convention : Reuss Voigt Hill
#
# Bulk Modulus (GPa) = 31.39457 41.46890 36.43174
# Shear Modulus (GPa) = 21.04891 29.59374 25.32133
#
# Velocity S-wave (km/s) = 3.07235 3.64297 3.36976
# Velocity P-wave (km/s) = 5.16377 6.02425 5.61053
#
# Compressibility (1/GPa) = 0.03185264
#
# Stress axis : x y z
#
# Youngs Moduli (GPa) = 104.77436 124.68325 39.74259
#
# Poissons Ratio (x) = 0.10891 0.09505
# Poissons Ratio (y) = 0.09152 0.08631
# Poissons Ratio (z) = 0.25059 0.27079
#
# Static dielectric constant tensor:
#      x y z
#    x 1.892620 0.000000 0.057530 
#    y 0.000000 1.817000 0.000000 
#    z 0.057530 0.000000 1.865390 
# 
# From -- ./inp_files/355683.got.cif
#   From: 2010.05.17/outbox.cif.g08.bks.cpg/sg12_178_cif.got.tgz:355683.got - 2010.06.03 13:09:07.
