data_PCOD9203757
_publ_section_title
;
Structure prediction by ZEFSAII (Michael W. Deem and Ramdas Pophale) SiO2 
 PCOD9203757
Probable space group: C 2/M
;
_chemical_formula_sum "Si O2"
_cell_formula_units_Z 50
_cell_length_a 20.895091
_cell_length_b 7.713824
_cell_length_c 16.977210
_cell_angle_alpha 90.000000
_cell_angle_beta 123.215992
_cell_angle_gamma 90.000000
_cell_volume 2289.307425
_symmetry_space_group_name_H-M "C 2/M"
_symmetry_group_IT_number 12
_symmetry_cell_setting 'monoclinic'
loop_
_space_group_symop_operation_xyz
x,y,z
-x,y,-z
-x,-y,-z
x,-y,z
1/2+x,1/2+y,z
1/2-x,1/2+y,-z
1/2-x,1/2-y,-z
1/2+x,1/2-y,z
loop_
_atom_site_type_symbol
_atom_site_label
_atom_site_fract_x
_atom_site_fract_y
_atom_site_fract_z
Si Si1 0.732603 0.206531 0.898335
Si Si2 0.405263 0.700873 0.602446
Si Si3 0.679992 0.712226 0.300368
Si Si4 0.424830 0.789892 0.285924
Si Si5 0.500000 0.500000 0.000000
Si Si6 0.117894 0.306307 0.093115
Si Si7 0.853118 0.298130 0.398014
O O1 0.647505 0.261792 0.815736
O O2 0.797949 0.286732 0.887812
O O3 0.735760 0.000000 0.888501
O O4 0.750000 0.250000 0.000000
O O5 0.385550 0.500000 0.578241
O O6 0.352371 0.769679 0.637094
O O7 0.493793 0.717812 0.685134
O O8 0.392197 0.786466 0.509131
O O9 0.677528 0.500000 0.297037
O O10 0.628460 0.777310 0.193857
O O11 0.767095 0.772894 0.346455
O O12 0.403839 0.728753 0.360537
O O13 0.432012 0.000000 0.289391
O O14 0.435888 0.653540 0.973593
O O15 0.090160 0.500000 0.057260
O O16 0.842542 0.500000 0.370909
#
# Coordination Sequence:
#
# PCOD9203757 Si02
#       7
#     8   8   8   8   2   8   8
#     4  11  23  45  71 100 139 178 230 289 341 412
#     4  11  24  37  59  98 138 174 221 284 344 392
#     4  10  21  43  66  91 138 183 220 278 348 402
#     4  10  22  41  66  89 129 182 222 275 342 402
#     4  12  26  48  72  98 152 170 228 290 340 410
#     4  12  25  45  75 105 133 186 231 277 352 416
#     4  10  20  39  67  89 125 182 229 271 339 411
#
# _framework density 21.840667
#
# number of rings (size 3 to 8) (size 9 to 14) (size 15 to 20)
#    0.000    1.280    3.200    2.160    0.000    7.040 
#    0.000    1.600    0.000    0.000    0.000    0.000 
#    0.000    0.000    0.000    0.000    0.000    0.000 
#
# Total GULP energy -139538.471535 kJ/mol
# GULP energy per Si atom -5581.538861 kJ/mol
# Density = 2.179096 g / cm^3
# Si number density = 21.840667 Si / 1000 Ang^3
#
#
#
# Elastic Constant Matrix: (Units=GPa)
#
#
# Indices 1 2 3 4 5 6 
#
# 1 33.7947 -7.8233 14.9748 0.0000 20.3988 0.0000
# 2 -7.8233 90.3927 5.0888 0.0000 12.8841 0.0000
# 3 14.9748 5.0888 40.2670 0.0000 -17.4270 0.0000
# 4 0.0000 0.0000 0.0000 -20.5295 0.0000 3.1903
# 5 20.3988 12.8841 -17.4270 0.0000 32.2612 0.0000
# 6 0.0000 0.0000 0.0000 3.1903 0.0000 24.4993
#
#
#
# Elastic Compliance Matrix: (Units=1/GPa)
#
#
# Indices 1 2 3 4 5 6 
#
# 1 -0.105543 -0.034229 0.102287 0.000000 0.135659 0.000000
# 2 -0.034229 0.001315 0.028325 0.000000 0.036418 0.000000
# 3 0.102287 0.028325 -0.064827 0.000000 -0.111007 0.000000
# 4 0.000000 0.000000 0.000000 -0.047744 0.000000 0.006217
# 5 0.135659 0.036418 -0.111007 0.000000 -0.129289 0.000000
# 6 0.000000 0.000000 0.000000 0.006217 0.000000 0.040008
#
#
# Mechanical properties :
#
#
# Convention : Reuss Voigt Hill
#
# Bulk Modulus (GPa) = 42.17528 20.99280 31.58404
# Shear Modulus (GPa) = -10.18452 17.39381 3.60464
#
# Velocity S-wave (km/s) = -2.16176 2.82511 1.28608
# Velocity P-wave (km/s) = 3.62235 4.50270 4.08630
#
# Compressibility (1/GPa) = 0.02371057
#
# Stress axis : x y z
#
# Youngs Moduli (GPa) = -9.47484 760.48954 -15.42574
#
# Poissons Ratio (x) = 26.03077 1.57785
# Poissons Ratio (y) = -0.32431 0.43693
# Poissons Ratio (z) = 0.96915 -21.54050
#
# Static dielectric constant tensor:
#      x y z
#    x 1.770670 0.000000 -0.001350 
#    y 0.000000 1.817800 0.000000 
#    z -0.001350 0.000000 1.780860 
# 
# From -- ./inp_files/275785.got.cif
#   From: 2010.05.17/outbox.cif.g08.bks.cpg/sg12_138_cif.got.tgz:275785.got - 2010.06.03 13:09:07.
