data_PCOD9203946
_publ_section_title
;
Structure prediction by ZEFSAII (Michael W. Deem and Ramdas Pophale) SiO2 
 PCOD9203946
Probable space group: C 2/M
;
_chemical_formula_sum "Si O2"
_cell_formula_units_Z 56
_cell_length_a 26.259212
_cell_length_b 19.220214
_cell_length_c 18.220429
_cell_angle_alpha 90.000000
_cell_angle_beta 163.664880
_cell_angle_gamma 90.000000
_cell_volume 2586.418062
_symmetry_space_group_name_H-M "C 2/M"
_symmetry_group_IT_number 12
_symmetry_cell_setting 'monoclinic'
loop_
_space_group_symop_operation_xyz
x,y,z
-x,y,-z
-x,-y,-z
x,-y,z
1/2+x,1/2+y,z
1/2-x,1/2+y,-z
1/2-x,1/2-y,-z
1/2+x,1/2-y,z
loop_
_atom_site_type_symbol
_atom_site_label
_atom_site_fract_x
_atom_site_fract_y
_atom_site_fract_z
Si Si1 0.963190 0.188623 0.863531
Si Si2 0.845893 0.671718 0.070016
Si Si3 0.238135 0.919808 0.613150
Si Si4 0.631231 0.420163 0.993365
Si Si5 0.873435 0.307614 0.261445
Si Si6 0.070614 0.335734 0.247694
Si Si7 0.001273 0.082785 0.414022
O O1 0.006928 0.262201 0.886506
O O2 0.756063 0.175899 0.550757
O O3 0.078632 0.125474 0.990752
O O4 0.000000 0.194184 0.000000
O O5 0.963266 0.679576 0.306335
O O6 0.935631 0.636414 0.123431
O O7 0.782825 0.750148 0.964929
O O8 0.668321 0.628252 0.846377
O O9 0.375823 0.878338 0.751293
O O10 0.046289 0.917473 0.304331
O O11 0.179927 0.895547 0.614562
O O12 0.296210 0.000000 0.697497
O O13 0.671126 0.500000 0.064729
O O14 0.793237 0.379840 0.178789
O O15 0.000000 0.278745 0.500000
O O16 0.000000 0.091893 0.500000
O O17 0.977336 0.000000 0.366183
#
# Coordination Sequence:
#
# PCOD9203946 Si02
#       7
#     8   8   8   8   8   8   8
#     4  10  22  39  61  88 123 160 205 255 311 370
#     4  11  23  39  62  94 127 160 208 263 309 370
#     4   9  19  39  62  87 125 165 200 251 314 376
#     4  10  20  40  62  84 119 165 208 250 311 372
#     4  11  24  39  62  91 125 164 209 259 316 367
#     4  10  22  37  62  94 122 162 207 253 311 375
#     4  10  21  39  64  90 122 167 212 253 312 379
#
# _framework density 21.651565999999999
#
# number of rings (size 3 to 8) (size 9 to 14) (size 15 to 20)
#    0.000    1.857    2.857    0.429    2.000    2.286 
#    0.000    0.000    0.000    3.000    0.000    0.000 
#    0.000    0.000    0.000    0.000    0.000    0.000 
#
# Total GULP energy -156335.358922 kJ/mol
# GULP energy per Si atom -5583.405676 kJ/mol
# Density = 2.160229 g / cm^3
# Si number density = 21.651566 Si / 1000 Ang^3
#
#
#
# Elastic Constant Matrix: (Units=GPa)
#
#
# Indices 1 2 3 4 5 6 
#
# 1 193.5834 37.5911 46.2331 0.0000 6.3799 0.0000
# 2 37.5911 78.9745 19.6904 0.0000 9.1239 0.0000
# 3 46.2331 19.6904 34.2117 0.0000 2.7539 0.0000
# 4 0.0000 0.0000 0.0000 4.4016 0.0000 7.2580
# 5 6.3799 9.1239 2.7539 0.0000 39.8155 0.0000
# 6 0.0000 0.0000 0.0000 7.2580 0.0000 30.4354
#
#
#
# Elastic Compliance Matrix: (Units=1/GPa)
#
#
# Indices 1 2 3 4 5 6 
#
# 1 0.007736 -0.001224 -0.009727 0.000000 -0.000286 0.000000
# 2 -0.001224 0.015298 -0.006923 0.000000 -0.002831 0.000000
# 3 -0.009727 -0.006923 0.046363 0.000000 -0.000062 0.000000
# 4 0.000000 0.000000 0.000000 0.374419 0.000000 -0.089288
# 5 -0.000286 -0.002831 -0.000062 0.000000 0.025815 0.000000
# 6 0.000000 0.000000 0.000000 -0.089288 0.000000 0.054149
#
#
# Mechanical properties :
#
#
# Convention : Reuss Voigt Hill
#
# Bulk Modulus (GPa) = 29.71711 57.08874 43.40292
# Shear Modulus (GPa) = 8.76050 28.48085 18.62068
#
# Velocity S-wave (km/s) = 2.01368 3.63080 2.93578
# Velocity P-wave (km/s) = 4.37739 6.63334 5.61973
#
# Compressibility (1/GPa) = 0.03365065
#
# Stress axis : x y z
#
# Youngs Moduli (GPa) = 129.26884 65.36817 21.56879
#
# Poissons Ratio (x) = 0.08001 0.20979
# Poissons Ratio (y) = 0.15823 0.14931
# Poissons Ratio (z) = 1.25733 0.45252
#
# Static dielectric constant tensor:
#      x y z
#    x 1.845330 0.000000 -0.010840 
#    y 0.000000 1.740620 0.000000 
#    z -0.010840 0.000000 1.816170 
# 
# From -- ./inp_files/290862.got.cif
#   From: 2010.05.17/outbox.cif.g08.bks.cpg/sg12_146_cif.got.tgz:290862.got - 2010.06.03 13:09:07.
