data_PCOD9203635
_publ_section_title
;
Structure prediction by ZEFSAII (Michael W. Deem and Ramdas Pophale) SiO2 
 PCOD9203635
Probable space group: C 2/M
;
_chemical_formula_sum "Si O2"
_cell_formula_units_Z 44
_cell_length_a 22.964360
_cell_length_b 19.282815
_cell_length_c 10.788980
_cell_angle_alpha 90.000000
_cell_angle_beta 23.612471
_cell_angle_gamma 90.000000
_cell_volume 1913.640068
_symmetry_space_group_name_H-M "C 2/M"
_symmetry_group_IT_number 12
_symmetry_cell_setting 'monoclinic'
loop_
_space_group_symop_operation_xyz
x,y,z
-x,y,-z
-x,-y,-z
x,-y,z
1/2+x,1/2+y,z
1/2-x,1/2+y,-z
1/2-x,1/2-y,-z
1/2+x,1/2-y,z
loop_
_atom_site_type_symbol
_atom_site_label
_atom_site_fract_x
_atom_site_fract_y
_atom_site_fract_z
Si Si1 0.189833 0.704872 0.228304
Si Si2 0.429094 0.222711 0.906650
Si Si3 0.626870 0.419585 0.158891
Si Si4 0.485083 0.922911 0.880809
Si Si5 0.000000 0.189974 0.000000
Si Si6 0.322857 0.420887 0.214625
O O1 0.029344 0.717880 0.589366
O O2 0.250000 0.750000 0.000000
O O3 0.291552 0.730221 0.143904
O O4 0.231596 0.627690 0.105519
O O5 0.396549 0.143364 0.007375
O O6 0.512777 0.260041 0.856628
O O7 0.500000 0.396039 0.500000
O O8 0.655974 0.500000 0.127613
O O9 0.587220 0.414098 0.089542
O O10 0.652869 0.914211 0.511127
O O11 0.432668 0.000000 0.946792
O O12 0.500000 0.921274 0.000000
O O13 0.129980 0.136614 0.778910
O O14 0.341286 0.500000 0.225573
#
# Coordination Sequence:
#
# PCOD9203635 Si02
#       6
#     8   8   8   8   4   8
#     4  12  26  44  65  92 126 165 214 263 314 371
#     4  12  24  40  66  93 127 166 205 262 313 377
#     4  10  20  39  65  89 119 164 213 259 309 361
#     4  10  21  38  60  89 127 166 203 245 307 378
#     4  12  23  36  61  98 130 156 210 254 321 378
#     4  10  21  39  62  91 128 167 206 256 312 374
#
# _framework density 22.992830999999999
#
# number of rings (size 3 to 8) (size 9 to 14) (size 15 to 20)
#    0.000    1.091    4.545    1.909    2.545    1.455 
#    0.000    0.909    0.000    3.273    0.000    0.000 
#    0.000    0.000    0.000    0.000    0.000    0.000 
#
# Total GULP energy -122913.874570 kJ/mol
# GULP energy per Si atom -5586.994299 kJ/mol
# Density = 2.294050 g / cm^3
# Si number density = 22.992831 Si / 1000 Ang^3
#
#
#
# Elastic Constant Matrix: (Units=GPa)
#
#
# Indices 1 2 3 4 5 6 
#
# 1 41.0529 4.9178 4.2622 0.0000 16.8533 -0.0001
# 2 4.9178 136.4060 8.0980 0.0002 1.5055 -0.0002
# 3 4.2622 8.0980 86.0519 -0.0001 22.7525 0.0002
# 4 0.0000 0.0002 -0.0001 24.1416 0.0002 3.3005
# 5 16.8533 1.5055 22.7525 0.0002 34.2465 0.0000
# 6 -0.0001 -0.0002 0.0002 3.3005 0.0000 31.5856
#
#
#
# Elastic Compliance Matrix: (Units=1/GPa)
#
#
# Indices 1 2 3 4 5 6 
#
# 1 0.031342 -0.001126 0.003177 0.000000 -0.017485 0.000000
# 2 -0.001126 0.007413 -0.000852 0.000000 0.000794 0.000000
# 3 0.003177 -0.000852 0.014493 0.000000 -0.011155 0.000000
# 4 0.000000 0.000000 0.000000 0.042023 -0.000001 -0.004391
# 5 -0.017485 0.000794 -0.011155 -0.000001 0.045181 0.000000
# 6 0.000000 0.000000 0.000000 -0.004391 0.000000 0.032119
#
#
# Mechanical properties :
#
#
# Convention : Reuss Voigt Hill
#
# Bulk Modulus (GPa) = 17.97045 33.11852 25.54449
# Shear Modulus (GPa) = 26.49415 34.41027 30.45221
#
# Velocity S-wave (km/s) = 3.39821 3.87274 3.64321
# Velocity P-wave (km/s) = 4.81972 5.86793 5.36947
#
# Compressibility (1/GPa) = 0.05564689
#
# Stress axis : x y z
#
# Youngs Moduli (GPa) = 31.90615 134.89005 68.99861
#
# Poissons Ratio (x) = 0.15183 -0.21918
# Poissons Ratio (y) = 0.03591 0.05877
# Poissons Ratio (z) = -0.10135 0.11490
#
# Static dielectric constant tensor:
#      x y z
#    x 1.909040 0.000000 0.022340 
#    y 0.000000 1.883370 0.000000 
#    z 0.022340 0.000000 1.874030 
# 
# From -- ./inp_files/184651.got.cif
#   From: 2010.05.17/outbox.cif.g08.bks.cpg/sg12_93_cif.got.tgz:184651.got - 2010.06.03 13:09:07.
