data_PCOD9203719
_publ_section_title
;
Structure prediction by ZEFSAII (Michael W. Deem and Ramdas Pophale) SiO2 
 PCOD9203719
Probable space group: C 2/M
;
_chemical_formula_sum "Si O2"
_cell_formula_units_Z 56
_cell_length_a 25.992358
_cell_length_b 16.753693
_cell_length_c 8.300021
_cell_angle_alpha 90.000000
_cell_angle_beta 38.999566
_cell_angle_gamma 90.000000
_cell_volume 2274.590211
_symmetry_space_group_name_H-M "C 2/M"
_symmetry_group_IT_number 12
_symmetry_cell_setting 'monoclinic'
loop_
_space_group_symop_operation_xyz
x,y,z
-x,y,-z
-x,-y,-z
x,-y,z
1/2+x,1/2+y,z
1/2-x,1/2+y,-z
1/2-x,1/2-y,-z
1/2+x,1/2-y,z
loop_
_atom_site_type_symbol
_atom_site_label
_atom_site_fract_x
_atom_site_fract_y
_atom_site_fract_z
Si Si1 0.337746 0.167045 0.915040
Si Si2 0.966888 0.500000 0.260505
Si Si3 0.197717 0.088871 0.396577
Si Si4 0.079588 0.671467 0.625499
Si Si5 0.267659 0.838067 0.535622
Si Si6 0.118079 0.162719 0.113781
Si Si7 0.457963 0.348965 0.344833
Si Si8 0.401500 0.000000 0.728500
O O1 0.360945 0.176637 0.673914
O O2 0.380841 0.240347 0.897122
O O3 0.370591 0.080145 0.883031
O O4 0.241883 0.158004 0.183133
O O5 0.979993 0.596451 0.258109
O O6 0.884517 0.500000 0.576924
O O7 0.000000 0.500000 0.000000
O O8 0.240461 0.100635 0.464106
O O9 0.101217 0.104758 0.631532
O O10 0.210981 0.000000 0.298604
O O11 0.139161 0.657389 0.632282
O O12 0.039220 0.757947 0.724064
O O13 0.250000 0.750000 0.500000
O O14 0.208075 0.856329 0.831645
O O15 0.088451 0.144220 0.367298
O O16 0.050196 0.126884 0.159821
O O17 0.500000 0.000000 0.500000
#
# Coordination Sequence:
#
# PCOD9203719 Si02
#       8
#     8   4   8   8   8   8   8   4
#     4  10  20  39  66  92 121 167 210 263 309 379
#     4  10  24  38  56  92 133 166 199 246 318 379
#     4  12  25  43  64  94 127 168 217 262 321 379
#     4  10  22  40  62  90 129 166 209 255 309 381
#     4  12  23  40  59  93 124 162 203 257 324 377
#     4  10  22  40  67  94 122 158 218 266 315 375
#     4  10  22  43  67  94 121 169 219 264 313 371
#     4  10  22  34  56  94 131 162 199 250 318 375
#
# _framework density 24.619820000000001
#
# number of rings (size 3 to 8) (size 9 to 14) (size 15 to 20)
#    0.000    1.429    3.571    0.857    7.000    5.143 
#    0.000    3.571    0.000    0.000    0.000    0.000 
#    0.000    0.000    0.000    0.000    0.000    0.000 
#
# Total GULP energy -156073.576030 kJ/mol
# GULP energy per Si atom -5574.056287 kJ/mol
# Density = 2.456378 g / cm^3
# Si number density = 24.619820 Si / 1000 Ang^3
#
#
#
# Elastic Constant Matrix: (Units=GPa)
#
#
# Indices 1 2 3 4 5 6 
#
# 1 117.0267 -2.8203 9.7469 0.0000 -17.4216 0.0000
# 2 -2.8203 39.4293 -11.2947 0.0000 5.1028 0.0000
# 3 9.7469 -11.2947 74.7853 0.0000 14.2707 0.0000
# 4 0.0000 0.0000 0.0000 20.5222 0.0000 6.2840
# 5 -17.4216 5.1028 14.2707 0.0000 36.6915 0.0000
# 6 0.0000 0.0000 0.0000 6.2840 0.0000 10.2171
#
#
#
# Elastic Compliance Matrix: (Units=1/GPa)
#
#
# Indices 1 2 3 4 5 6 
#
# 1 0.009560 -0.000733 -0.002422 0.000000 0.005583 0.000000
# 2 -0.000733 0.027701 0.005488 0.000000 -0.006335 0.000000
# 3 -0.002422 0.005488 0.016074 0.000000 -0.008165 0.000000
# 4 0.000000 0.000000 0.000000 0.060034 0.000000 -0.036924
# 5 0.005583 -0.006335 -0.008165 0.000000 0.033962 0.000000
# 6 0.000000 0.000000 0.000000 -0.036924 0.000000 0.120585
#
#
# Mechanical properties :
#
#
# Convention : Reuss Voigt Hill
#
# Bulk Modulus (GPa) = 17.24063 24.72280 20.98172
# Shear Modulus (GPa) = 17.69384 29.19345 23.44364
#
# Velocity S-wave (km/s) = 2.68373 3.44724 3.08916
# Velocity P-wave (km/s) = 4.07691 5.09001 4.61137
#
# Compressibility (1/GPa) = 0.05800251
#
# Stress axis : x y z
#
# Youngs Moduli (GPa) = 104.59914 36.09941 62.21148
#
# Poissons Ratio (x) = 0.02644 0.15068
# Poissons Ratio (y) = 0.07662 -0.34141
# Poissons Ratio (z) = 0.25335 -0.19811
#
# Static dielectric constant tensor:
#      x y z
#    x 1.943890 0.000000 -0.007080 
#    y 0.000000 1.941910 0.000000 
#    z -0.007080 0.000000 2.001340 
# 
# From -- ./inp_files/105997.got.cif
#   From: 2010.05.17/outbox.cif.g08.bks.cpg/sg12_53_cif.got.tgz:105997.got - 2010.06.03 13:09:07.
