data_PCOD9203849
_publ_section_title
;
Structure prediction by ZEFSAII (Michael W. Deem and Ramdas Pophale) SiO2 
 PCOD9203849
Probable space group: C 2/M
;
_chemical_formula_sum "Si O2"
_cell_formula_units_Z 46
_cell_length_a 12.332913
_cell_length_b 14.173703
_cell_length_c 16.661728
_cell_angle_alpha 90.000000
_cell_angle_beta 67.800661
_cell_angle_gamma 90.000000
_cell_volume 2696.630037
_symmetry_space_group_name_H-M "C 2/M"
_symmetry_group_IT_number 12
_symmetry_cell_setting 'monoclinic'
loop_
_space_group_symop_operation_xyz
x,y,z
-x,y,-z
-x,-y,-z
x,-y,z
1/2+x,1/2+y,z
1/2-x,1/2+y,-z
1/2-x,1/2-y,-z
1/2+x,1/2-y,z
loop_
_atom_site_type_symbol
_atom_site_label
_atom_site_fract_x
_atom_site_fract_y
_atom_site_fract_z
Si Si1 0.087849 0.890739 0.094897
Si Si2 0.628885 0.753566 0.226984
Si Si3 0.500000 0.500000 0.500000
Si Si4 0.822561 0.890872 0.104584
Si Si5 0.666352 0.329565 0.391942
Si Si6 0.567839 0.891141 0.654236
Si Si7 0.000000 0.328020 0.500000
O O1 0.109597 0.819845 0.160765
O O2 0.952635 0.884396 0.105046
O O3 0.109965 0.000000 0.111462
O O4 0.164094 0.869687 0.993976
O O5 0.735944 0.821134 0.173331
O O6 0.654428 0.697385 0.301754
O O7 0.516886 0.820821 0.273391
O O8 0.585413 0.417487 0.437745
O O9 0.784348 0.000000 0.123514
O O10 0.799633 0.353720 0.376264
O O11 0.612141 0.239497 0.453559
O O12 0.524929 0.885182 0.573810
O O13 0.561610 0.000000 0.683132
#
# Coordination Sequence:
#
# PCOD9203849 Si02
#       7
#     8   8   2   8   8   8   4
#     4   9  19  34  56  78 109 147 186 216 261 318
#     4  11  21  33  55  84 112 135 184 226 271 321
#     4  10  20  40  54  74 102 148 178 214 274 324
#     4   9  18  36  55  78 111 149 176 220 270 319
#     4  10  21  36  57  76 107 141 180 224 275 320
#     4  11  21  36  55  79 108 142 175 226 279 325
#     4   9  21  37  57  76 102 136 186 222 272 326
#
# _framework density 17.058327999999999
#
# number of rings (size 3 to 8) (size 9 to 14) (size 15 to 20)
#    0.000    2.087    0.870    3.913    1.217    0.000 
#    0.000    0.000    0.000    0.000    0.000   10.957 
#    0.000    0.000    0.000    0.000    0.000    0.000 
#
# Total GULP energy -128050.162695 kJ/mol
# GULP energy per Si atom -5567.398378 kJ/mol
# Density = 1.701950 g / cm^3
# Si number density = 17.058328 Si / 1000 Ang^3
#
#
#
# Elastic Constant Matrix: (Units=GPa)
#
#
# Indices 1 2 3 4 5 6 
#
# 1 68.6141 42.1636 29.3495 0.0000 -20.5487 0.0000
# 2 42.1636 83.1503 35.0840 0.0000 -15.0344 0.0000
# 3 29.3495 35.0840 61.7889 0.0000 -20.5865 0.0000
# 4 0.0000 0.0000 0.0000 27.9443 0.0000 1.6250
# 5 -20.5487 -15.0344 -20.5865 0.0000 25.9141 0.0000
# 6 0.0000 0.0000 0.0000 1.6250 0.0000 6.6171
#
#
#
# Elastic Compliance Matrix: (Units=1/GPa)
#
#
# Indices 1 2 3 4 5 6 
#
# 1 0.025196 -0.009496 -0.002387 0.000000 0.012574 0.000000
# 2 -0.009496 0.019542 -0.007231 0.000000 -0.001936 0.000000
# 3 -0.002387 -0.007231 0.026377 0.000000 0.014866 0.000000
# 4 0.000000 0.000000 0.000000 0.036304 0.000000 -0.008915
# 5 0.012574 -0.001936 0.014866 0.000000 0.059246 0.000000
# 6 0.000000 0.000000 0.000000 -0.008915 0.000000 0.153314
#
#
# Mechanical properties :
#
#
# Convention : Reuss Voigt Hill
#
# Bulk Modulus (GPa) = 30.40627 47.41640 38.91134
# Shear Modulus (GPa) = 13.54394 19.22552 16.38473
#
# Velocity S-wave (km/s) = 2.82082 3.36079 3.10258
# Velocity P-wave (km/s) = 5.33600 6.55110 5.97452
#
# Compressibility (1/GPa) = 0.03288795
#
# Stress axis : x y z
#
# Youngs Moduli (GPa) = 39.68859 51.17099 37.91227
#
# Poissons Ratio (x) = 0.48590 0.09050
# Poissons Ratio (y) = 0.37687 0.27414
# Poissons Ratio (z) = 0.09474 0.37001
#
# Static dielectric constant tensor:
#      x y z
#    x 1.552130 0.000000 -0.000740 
#    y 0.000000 1.555330 0.000000 
#    z -0.000740 0.000000 1.565960 
# 
# From -- ./inp_files/204322.got.cif
#   From: 2010.05.17/outbox.cif.g08.bks.cpg/sg12_103_cif.got.tgz:204322.got - 2010.06.03 13:09:07.
