data_PCOD9203737
_publ_section_title
;
Structure prediction by ZEFSAII (Michael W. Deem and Ramdas Pophale) SiO2 
 PCOD9203737
Probable space group: C 2/M
;
_chemical_formula_sum "Si O2"
_cell_formula_units_Z 48
_cell_length_a 28.540904
_cell_length_b 11.407038
_cell_length_c 14.631888
_cell_angle_alpha 90.000000
_cell_angle_beta 31.951419
_cell_angle_gamma 90.000000
_cell_volume 2520.930248
_symmetry_space_group_name_H-M "C 2/M"
_symmetry_group_IT_number 12
_symmetry_cell_setting 'monoclinic'
loop_
_space_group_symop_operation_xyz
x,y,z
-x,y,-z
-x,-y,-z
x,-y,z
1/2+x,1/2+y,z
1/2-x,1/2+y,-z
1/2-x,1/2-y,-z
1/2+x,1/2-y,z
loop_
_atom_site_type_symbol
_atom_site_label
_atom_site_fract_x
_atom_site_fract_y
_atom_site_fract_z
Si Si1 0.025035 0.360593 0.062611
Si Si2 0.208197 0.223582 0.797322
Si Si3 0.550280 0.500000 0.778470
Si Si4 0.216431 0.139205 0.992197
Si Si5 0.133495 0.000000 0.839052
Si Si6 0.490638 0.366238 0.621611
Si Si7 0.100100 0.233566 0.593581
O O1 0.037732 0.500000 0.039248
O O2 0.944208 0.329192 0.265349
O O3 0.117711 0.300518 0.941368
O O4 0.000000 0.320528 0.000000
O O5 0.227440 0.178511 0.868365
O O6 0.189258 0.113764 0.764066
O O7 0.298456 0.272215 0.605427
O O8 0.588447 0.500000 0.816380
O O9 0.581338 0.614920 0.678040
O O10 0.444358 0.500000 0.957089
O O11 0.248011 0.000000 0.953920
O O12 0.250000 0.250000 0.000000
O O13 0.111719 0.133767 0.183078
O O14 0.500000 0.339483 0.500000
O O15 0.525191 0.500000 0.579013
O O16 0.542438 0.274162 0.597142
#
# Coordination Sequence:
#
# PCOD9203737 Si02
#       7
#     8   8   4   8   4   8   8
#     4  11  26  45  64  95 140 179 218 277 343 400
#     4  12  25  43  69  96 135 177 224 276 337 401
#     4  11  22  40  69  97 127 175 233 284 325 393
#     4  11  23  43  69 100 136 175 223 283 345 407
#     4  11  22  42  68  95 128 177 229 278 338 392
#     4  10  20  39  66  95 128 167 216 275 329 393
#     4  12  24  42  67  98 133 175 226 276 330 404
#
# _framework density 19.040589000000001
#
# number of rings (size 3 to 8) (size 9 to 14) (size 15 to 20)
#    0.000    0.833    5.000    2.000    2.333    3.333 
#    0.000    0.000    0.000    2.000    0.000    0.000 
#    0.000    0.000    0.000    0.000    0.000    0.000 
#
# Total GULP energy -133815.700202 kJ/mol
# GULP energy per Si atom -5575.654175 kJ/mol
# Density = 1.899725 g / cm^3
# Si number density = 19.040589 Si / 1000 Ang^3
#
#
#
# Elastic Constant Matrix: (Units=GPa)
#
#
# Indices 1 2 3 4 5 6 
#
# 1 82.3704 14.1777 2.9380 0.0000 6.9841 0.0000
# 2 14.1777 58.8306 -14.8604 0.0000 -7.1523 0.0000
# 3 2.9380 -14.8604 74.9085 0.0000 4.9095 0.0000
# 4 0.0000 0.0000 0.0000 -52.4202 0.0000 90.3873
# 5 6.9841 -7.1523 4.9095 0.0000 29.0153 0.0000
# 6 0.0000 0.0000 0.0000 90.3873 0.0000 -71.6150
#
#
#
# Elastic Compliance Matrix: (Units=1/GPa)
#
#
# Indices 1 2 3 4 5 6 
#
# 1 0.013189 -0.003922 -0.001035 0.000000 -0.003966 0.000000
# 2 -0.003922 0.019497 0.003686 0.000000 0.005127 0.000000
# 3 -0.001035 0.003686 0.014203 0.000000 -0.001245 0.000000
# 4 0.000000 0.000000 0.000000 0.016218 0.000000 0.020469
# 5 -0.003966 0.005127 -0.001245 0.000000 0.036894 0.000000
# 6 0.000000 0.000000 0.000000 0.020469 0.000000 0.011871
#
#
# Mechanical properties :
#
#
# Convention : Reuss Voigt Hill
#
# Bulk Modulus (GPa) = 22.55014 24.51333 23.53174
# Shear Modulus (GPa) = 38.70063 -4.74703 16.97680
#
# Velocity S-wave (km/s) = 4.51325 -1.58067 2.98923
# Velocity P-wave (km/s) = 6.24725 3.09368 4.92945
#
# Compressibility (1/GPa) = 0.04434562
#
# Stress axis : x y z
#
# Youngs Moduli (GPa) = 75.82329 51.28888 70.40746
#
# Poissons Ratio (x) = 0.20116 0.07290
# Poissons Ratio (y) = 0.29738 -0.25950
# Poissons Ratio (z) = 0.07851 -0.18904
#
# Static dielectric constant tensor:
#      x y z
#    x 1.664410 0.000000 0.036850 
#    y 0.000000 1.679380 0.000000 
#    z 0.036850 0.000000 1.611270 
# 
# From -- ./inp_files/245885.got.cif
#   From: 2010.05.17/outbox.cif.g08.bks.cpg/sg12_123_cif.got.tgz:245885.got - 2010.06.03 13:09:07.
