data_PCOD9203984
_publ_section_title
;
Structure prediction by ZEFSAII (Michael W. Deem and Ramdas Pophale) SiO2 
 PCOD9203984
Probable space group: C 2/M
;
_chemical_formula_sum "Si O2"
_cell_formula_units_Z 64
_cell_length_a 19.572014
_cell_length_b 8.929795
_cell_length_c 29.580307
_cell_angle_alpha 90.000000
_cell_angle_beta 35.096875
_cell_angle_gamma 90.000000
_cell_volume 2972.472121
_symmetry_space_group_name_H-M "C 2/M"
_symmetry_group_IT_number 12
_symmetry_cell_setting 'monoclinic'
loop_
_space_group_symop_operation_xyz
x,y,z
-x,y,-z
-x,-y,-z
x,-y,z
1/2+x,1/2+y,z
1/2-x,1/2+y,-z
1/2-x,1/2-y,-z
1/2+x,1/2-y,z
loop_
_atom_site_type_symbol
_atom_site_label
_atom_site_fract_x
_atom_site_fract_y
_atom_site_fract_z
Si Si1 0.030492 0.323375 0.146928
Si Si2 0.403040 0.323825 0.800408
Si Si3 0.955119 0.824404 0.951267
Si Si4 0.108151 0.180647 0.622601
Si Si5 0.187652 0.175611 0.877609
Si Si6 0.340354 0.820497 0.544044
Si Si7 0.730119 0.322054 0.703348
Si Si8 0.457583 0.679687 0.617524
O O1 0.020064 0.500000 0.154780
O O2 0.082856 0.272018 0.070669
O O3 0.899703 0.249240 0.221713
O O4 0.106969 0.264829 0.147630
O O5 0.398108 0.500000 0.811846
O O6 0.528872 0.287002 0.709520
O O7 0.302854 0.276642 0.819002
O O8 0.090067 0.784804 0.892964
O O9 0.953387 0.000000 0.939976
O O10 0.878047 0.807606 0.038270
O O11 0.240998 0.232805 0.561353
O O12 0.033118 0.233278 0.620251
O O13 0.115267 0.000000 0.614922
O O14 0.218094 0.000000 0.855768
O O15 0.283435 0.796591 0.624127
O O16 0.461394 0.734942 0.468083
O O17 0.360251 0.000000 0.528598
O O18 0.720414 0.500000 0.715602
O O19 0.827989 0.252051 0.683757
O O20 0.447720 0.500000 0.623697
#
# Coordination Sequence:
#
# PCOD9203984 Si02
#       8
#     8   8   8   8   8   8   8   8
#     4  12  25  40  61  90 122 156 203 255 299 352
#     4  11  22  40  63  87 121 165 203 244 301 357
#     4   9  20  41  66  91 126 163 196 239 297 355
#     4   9  20  39  59  83 118 157 196 241 295 355
#     4   9  20  40  65  95 125 157 199 246 290 347
#     4  10  20  40  63  81 111 157 204 242 291 361
#     4  11  23  41  62  84 116 160 202 243 299 362
#     4  11  23  37  58  90 122 150 193 251 303 353
#
# _framework density 21.530899000000002
#
# number of rings (size 3 to 8) (size 9 to 14) (size 15 to 20)
#    0.000    1.750    1.250    3.750    1.750    4.000 
#    0.000    3.750    0.000    0.000    0.000    0.000 
#    0.000    0.000    0.000    0.000    0.000    0.000 
#
# Total GULP energy -178937.573714 kJ/mol
# GULP energy per Si atom -5591.799179 kJ/mol
# Density = 2.148189 g / cm^3
# Si number density = 21.530899 Si / 1000 Ang^3
#
#
#
# Elastic Constant Matrix: (Units=GPa)
#
#
# Indices 1 2 3 4 5 6 
#
# 1 81.6636 18.8867 -4.4246 0.0003 2.1107 -0.0006
# 2 18.8867 51.7276 10.3602 0.0001 4.8093 -0.0009
# 3 -4.4246 10.3602 18.5364 0.0000 -6.7268 0.0000
# 4 0.0003 0.0001 0.0000 25.3620 -0.0001 -4.1045
# 5 2.1107 4.8093 -6.7268 -0.0001 36.5933 0.0002
# 6 -0.0006 -0.0009 0.0000 -4.1045 0.0002 24.8553
#
#
#
# Elastic Compliance Matrix: (Units=1/GPa)
#
#
# Indices 1 2 3 4 5 6 
#
# 1 0.014224 -0.006897 0.007802 0.000000 0.001520 0.000000
# 2 -0.006897 0.026182 -0.018627 0.000000 -0.006467 0.000001
# 3 0.007802 -0.018627 0.071731 0.000000 0.015184 -0.000001
# 4 0.000000 0.000000 0.000000 0.040512 0.000000 0.006690
# 5 0.001520 -0.006467 0.015184 0.000000 0.030881 0.000000
# 6 0.000000 0.000001 -0.000001 0.006690 0.000000 0.041338
#
#
# Mechanical properties :
#
#
# Convention : Reuss Voigt Hill
#
# Bulk Modulus (GPa) = 13.03900 22.39691 17.71795
# Shear Modulus (GPa) = 17.49002 25.83580 21.66291
#
# Velocity S-wave (km/s) = 2.85322 3.46777 3.17540
# Velocity P-wave (km/s) = 4.11383 5.14381 4.65738
#
# Compressibility (1/GPa) = 0.07669301
#
# Stress axis : x y z
#
# Youngs Moduli (GPa) = 70.30384 38.19368 13.94088
#
# Poissons Ratio (x) = 0.26344 -0.10877
# Poissons Ratio (y) = 0.48491 0.25968
# Poissons Ratio (z) = -0.54851 0.71143
#
# Static dielectric constant tensor:
#      x y z
#    x 1.808230 0.000000 0.013500 
#    y 0.000000 1.709670 0.000000 
#    z 0.013500 0.000000 1.804040 
# 
# From -- ./inp_files/377976.got.cif
#   From: 2010.05.17/outbox.cif.g08.bks.cpg/sg12_189_cif.got.tgz:377976.got - 2010.06.03 13:09:07.
