data_PCOD9203034
_publ_section_title
;
Structure prediction by ZEFSAII (Michael W. Deem and Ramdas Pophale) SiO2 
 PCOD9203034
Probable space group: C 2/M
;
_chemical_formula_sum "Si O2"
_cell_formula_units_Z 64
_cell_length_a 11.369382
_cell_length_b 16.081392
_cell_length_c 20.529659
_cell_angle_alpha 90.000000
_cell_angle_beta 129.760539
_cell_angle_gamma 90.000000
_cell_volume 2885.444905
_symmetry_space_group_name_H-M "C 2/M"
_symmetry_group_IT_number 12
_symmetry_cell_setting 'monoclinic'
loop_
_space_group_symop_operation_xyz
x,y,z
-x,y,-z
-x,-y,-z
x,-y,z
1/2+x,1/2+y,z
1/2-x,1/2+y,-z
1/2-x,1/2-y,-z
1/2+x,1/2-y,z
loop_
_atom_site_type_symbol
_atom_site_label
_atom_site_fract_x
_atom_site_fract_y
_atom_site_fract_z
Si Si1 0.326705 0.138670 0.153124
Si Si2 0.861553 0.360798 0.359720
Si Si3 0.817525 0.404336 0.589057
Si Si4 0.822991 0.898127 0.591354
Si Si5 0.884817 0.211525 0.270669
Si Si6 0.894250 0.089064 0.820463
Si Si7 0.661962 0.904235 0.255702
Si Si8 0.103796 0.796043 0.978839
O O1 0.364238 0.229362 0.199826
O O2 0.253886 0.088025 0.185632
O O3 0.481700 0.102390 0.181551
O O4 0.192716 0.136082 0.053003
O O5 0.831696 0.371296 0.425377
O O6 0.873431 0.271405 0.329722
O O7 0.695830 0.396655 0.277837
O O8 0.012494 0.402388 0.382407
O O9 0.775917 0.500000 0.583283
O O10 0.703618 0.371581 0.493625
O O11 0.815393 0.369577 0.661836
O O12 0.964024 0.843854 0.668230
O O13 0.841199 0.000000 0.600516
O O14 0.745050 0.148938 0.230559
O O15 0.998321 0.163223 0.885731
O O16 0.974786 0.000000 0.849419
O O17 0.712463 0.000000 0.271042
O O18 0.250000 0.750000 0.000000
O O19 0.000000 0.753870 0.000000
#
# Coordination Sequence:
#
# PCOD9203034 Si02
#       8
#     8   8   8   8   8   8   8   8
#     4  10  22  39  63  92 124 161 206 260 311 372
#     4  11  22  39  63  91 124 159 207 261 319 372
#     4  10  21  40  63  89 120 163 214 264 316 370
#     4  11  24  41  61  87 124 168 212 259 315 380
#     4  11  24  39  60  91 126 164 206 259 316 378
#     4  10  20  38  65  96 123 157 210 264 309 369
#     4  11  22  40  64  88 122 167 212 260 314 376
#     4  10  24  40  65  95 129 166 205 256 319 383
#
# _framework density 22.180287
#
# number of rings (size 3 to 8) (size 9 to 14) (size 15 to 20)
#    0.000    1.500    2.500    3.000    7.000    4.750 
#    2.250    1.875    0.000    0.375    0.000    0.000 
#    0.000    0.000    0.000    0.000    0.000    0.000 
#
# Total GULP energy -178285.175700 kJ/mol
# GULP energy per Si atom -5571.411741 kJ/mol
# Density = 2.212980 g / cm^3
# Si number density = 22.180287 Si / 1000 Ang^3
#
#
#
# Elastic Constant Matrix: (Units=GPa)
#
#
# Indices 1 2 3 4 5 6 
#
# 1 63.8262 29.8510 -2.1276 0.0000 10.2870 0.0000
# 2 29.8510 74.9253 0.5658 0.0000 5.7048 0.0000
# 3 -2.1276 0.5658 56.7344 0.0000 10.8846 0.0000
# 4 0.0000 0.0000 0.0000 13.0039 0.0000 6.9644
# 5 10.2870 5.7048 10.8846 0.0000 27.7871 0.0000
# 6 0.0000 0.0000 0.0000 6.9644 0.0000 15.6775
#
#
#
# Elastic Compliance Matrix: (Units=1/GPa)
#
#
# Indices 1 2 3 4 5 6 
#
# 1 0.020407 -0.007627 0.002152 0.000000 -0.006832 0.000000
# 2 -0.007627 0.016418 -0.000373 0.000000 -0.000401 0.000000
# 3 0.002152 -0.000373 0.019299 0.000000 -0.008280 0.000000
# 4 0.000000 0.000000 0.000000 0.100907 0.000000 -0.044826
# 5 -0.006832 -0.000401 -0.008280 0.000000 0.041843 0.000000
# 6 0.000000 0.000000 0.000000 -0.044826 0.000000 0.083699
#
#
# Mechanical properties :
#
#
# Convention : Reuss Voigt Hill
#
# Bulk Modulus (GPa) = 22.50711 28.00714 25.25713
# Shear Modulus (GPa) = 16.17714 22.44014 19.30864
#
# Velocity S-wave (km/s) = 2.70357 3.18420 2.95368
# Velocity P-wave (km/s) = 4.46264 5.11598 4.80044
#
# Compressibility (1/GPa) = 0.04443040
#
# Stress axis : x y z
#
# Youngs Moduli (GPa) = 49.00211 60.90697 51.81637
#
# Poissons Ratio (x) = 0.46451 -0.11151
# Poissons Ratio (y) = 0.37372 0.01931
# Poissons Ratio (z) = -0.10546 0.02270
#
# Static dielectric constant tensor:
#      x y z
#    x 2.151210 0.000000 -0.419940 
#    y 0.000000 1.847070 0.000000 
#    z -0.419940 0.000000 2.359520 
# 
# From -- ./inp_files/306215.got.cif
#   From: 2010.05.17/outbox.cif.g08.bks.cpg/sg12_154_cif.got.tgz:306215.got - 2010.06.03 13:09:07.
