data_PCOD9203798
_publ_section_title
;
Structure prediction by ZEFSAII (Michael W. Deem and Ramdas Pophale) SiO2 
 PCOD9203798
Probable space group: C 2/M
;
_chemical_formula_sum "Si O2"
_cell_formula_units_Z 38
_cell_length_a 10.966584
_cell_length_b 22.431744
_cell_length_c 11.996590
_cell_angle_alpha 90.000000
_cell_angle_beta 141.037415
_cell_angle_gamma 90.000000
_cell_volume 1855.724827
_symmetry_space_group_name_H-M "C 2/M"
_symmetry_group_IT_number 12
_symmetry_cell_setting 'monoclinic'
loop_
_space_group_symop_operation_xyz
x,y,z
-x,y,-z
-x,-y,-z
x,-y,z
1/2+x,1/2+y,z
1/2-x,1/2+y,-z
1/2-x,1/2-y,-z
1/2+x,1/2-y,z
loop_
_atom_site_type_symbol
_atom_site_label
_atom_site_fract_x
_atom_site_fract_y
_atom_site_fract_z
Si Si1 0.429264 0.114030 0.794912
Si Si2 0.000000 0.118727 0.000000
Si Si3 0.000000 0.500000 0.000000
Si Si4 0.184549 0.184001 0.918915
Si Si5 0.911216 0.430317 0.326009
Si Si6 0.119797 0.792185 0.486193
O O1 0.497191 0.096596 0.718764
O O2 0.249349 0.158265 0.642705
O O3 0.410321 0.053697 0.853544
O O4 0.618997 0.149471 0.973228
O O5 0.077875 0.156695 0.951188
O O6 0.817956 0.079399 0.834785
O O7 0.036194 0.181792 0.711310
O O8 0.250000 0.250000 0.000000
O O9 0.955554 0.500000 0.354968
O O10 0.000000 0.402597 0.500000
O O11 0.250000 0.750000 0.500000
O O12 0.000000 0.759698 0.500000
#
# Coordination Sequence:
#
# PCOD9203798 Si02
#       6
#     8   4   2   8   8   8
#     4  11  24  46  69 101 142 187 239 291 367 438
#     4  10  23  37  66  98 135 177 230 296 352 424
#     4  12  24  46  76  94 150 196 234 288 366 452
#     4  11  24  43  69 104 141 186 241 302 367 431
#     4  10  20  39  67  97 131 175 228 289 352 424
#     4  12  27  45  72 106 144 188 247 307 366 436
#
# _framework density 20.477173000000001
#
# number of rings (size 3 to 8) (size 9 to 14) (size 15 to 20)
#    0.000    1.053    3.158    2.842    2.947    1.684 
#    0.000    4.737    0.000    0.000    0.000    0.000 
#    0.000    0.000    0.000    0.000    0.000    0.000 
#
# Total GULP energy -105819.884021 kJ/mol
# GULP energy per Si atom -5569.467580 kJ/mol
# Density = 2.043057 g / cm^3
# Si number density = 20.477173 Si / 1000 Ang^3
#
#
#
# Elastic Constant Matrix: (Units=GPa)
#
#
# Indices 1 2 3 4 5 6 
#
# 1 106.0197 32.2922 38.3628 0.0000 -8.4095 0.0000
# 2 32.2922 103.0710 32.7995 0.0000 1.1834 0.0000
# 3 38.3628 32.7995 168.0171 0.0000 -2.8695 0.0000
# 4 0.0000 0.0000 0.0000 28.4032 0.0000 1.4271
# 5 -8.4095 1.1834 -2.8695 0.0000 27.2803 0.0000
# 6 0.0000 0.0000 0.0000 1.4271 0.0000 7.6435
#
#
#
# Elastic Compliance Matrix: (Units=1/GPa)
#
#
# Indices 1 2 3 4 5 6 
#
# 1 0.011309 -0.002963 -0.001945 0.000000 0.003410 0.000000
# 2 -0.002963 0.011133 -0.001523 0.000000 -0.001557 0.000000
# 3 -0.001945 -0.001523 0.006696 0.000000 0.000171 0.000000
# 4 0.000000 0.000000 0.000000 0.035541 0.000000 -0.006636
# 5 0.003410 -0.001557 0.000171 0.000000 0.037793 0.000000
# 6 0.000000 0.000000 0.000000 -0.006636 0.000000 0.132070
#
#
# Mechanical properties :
#
#
# Convention : Reuss Voigt Hill
#
# Bulk Modulus (GPa) = 61.44610 64.89076 63.16843
# Shear Modulus (GPa) = 19.77606 30.90896 25.34251
#
# Velocity S-wave (km/s) = 3.11104 3.88936 3.52177
# Velocity P-wave (km/s) = 6.55569 7.20608 6.88856
#
# Compressibility (1/GPa) = 0.01627442
#
# Stress axis : x y z
#
# Youngs Moduli (GPa) = 88.42333 89.82249 149.33676
#
# Poissons Ratio (x) = 0.26617 0.29053
# Poissons Ratio (y) = 0.26202 0.22749
# Poissons Ratio (z) = 0.17203 0.13683
#
# Static dielectric constant tensor:
#      x y z
#    x 1.753220 0.000000 -0.008840 
#    y 0.000000 1.734520 0.000000 
#    z -0.008840 0.000000 1.785940 
# 
# From -- ./inp_files/134206.got.cif
#   From: 2010.05.17/outbox.cif.g08.bks.cpg/sg12_68_cif.got.tgz:134206.got - 2010.06.03 13:09:07.
