data_PCOD9203554
_publ_section_title
;
Structure prediction by ZEFSAII (Michael W. Deem and Ramdas Pophale) SiO2 
 PCOD9203554
Probable space group: C 2/M
;
_chemical_formula_sum "Si O2"
_cell_formula_units_Z 56
_cell_length_a 24.196881
_cell_length_b 8.735068
_cell_length_c 15.297770
_cell_angle_alpha 90.000000
_cell_angle_beta 116.043108
_cell_angle_gamma 90.000000
_cell_volume 2905.055759
_symmetry_space_group_name_H-M "C 2/M"
_symmetry_group_IT_number 12
_symmetry_cell_setting 'monoclinic'
loop_
_space_group_symop_operation_xyz
x,y,z
-x,y,-z
-x,-y,-z
x,-y,z
1/2+x,1/2+y,z
1/2-x,1/2+y,-z
1/2-x,1/2-y,-z
1/2+x,1/2-y,z
loop_
_atom_site_type_symbol
_atom_site_label
_atom_site_fract_x
_atom_site_fract_y
_atom_site_fract_z
Si Si1 0.999555 0.683166 0.132900
Si Si2 0.849791 0.317006 0.320792
Si Si3 0.599905 0.681462 0.465087
Si Si4 0.305595 0.816687 0.596129
Si Si5 0.977808 0.683011 0.320571
Si Si6 0.781526 0.317229 0.782761
Si Si7 0.904695 0.182204 0.930293
O O1 0.006294 0.500000 0.128613
O O2 0.989034 0.719527 0.226799
O O3 0.059054 0.762113 0.131424
O O4 0.942038 0.740108 0.035338
O O5 0.842565 0.500000 0.318802
O O6 0.866099 0.255957 0.428625
O O7 0.908894 0.279484 0.302471
O O8 0.786762 0.241663 0.245073
O O9 0.606751 0.500000 0.473838
O O10 0.632629 0.746424 0.401065
O O11 0.529020 0.730842 0.412557
O O12 0.250000 0.750000 0.500000
O O13 0.294798 0.779521 0.689927
O O14 0.307361 0.000000 0.588656
O O15 0.986520 0.500000 0.338610
O O16 0.785052 0.500000 0.794950
O O17 0.834898 0.238100 0.875485
O O18 0.908761 0.000000 0.940153
#
# Coordination Sequence:
#
# PCOD9203554 Si02
#       7
#     8   8   8   8   8   8   8
#     4  10  20  39  64  89 118 149 189 239 292 344
#     4  11  23  40  60  82 115 155 197 244 290 341
#     4  12  24  37  57  86 118 156 198 239 289 346
#     4  11  22  36  57  83 116 151 190 238 288 341
#     4  10  23  41  61  85 113 152 198 243 292 343
#     4  11  23  39  59  86 118 154 195 236 290 349
#     4  11  22  37  61  92 121 150 188 233 290 349
#
# _framework density 19.276738000000002
#
# number of rings (size 3 to 8) (size 9 to 14) (size 15 to 20)
#    0.000    1.143    1.429    6.429    0.000    9.143 
#    0.000    0.714    0.000    0.000    0.000    0.000 
#    0.000    0.000    0.000    0.000    0.000    0.000 
#
# Total GULP energy -156653.316433 kJ/mol
# GULP energy per Si atom -5594.761301 kJ/mol
# Density = 1.923286 g / cm^3
# Si number density = 19.276738 Si / 1000 Ang^3
#
#
#
# Elastic Constant Matrix: (Units=GPa)
#
#
# Indices 1 2 3 4 5 6 
#
# 1 89.5207 16.3615 19.2618 0.0000 22.4301 0.0000
# 2 16.3615 37.2230 8.3762 0.0000 4.3688 0.0000
# 3 19.2618 8.3762 42.3184 0.0000 20.0888 0.0000
# 4 0.0000 0.0000 0.0000 17.9115 0.0000 9.2884
# 5 22.4301 4.3688 20.0888 0.0000 31.5260 0.0000
# 6 0.0000 0.0000 0.0000 9.2884 0.0000 32.0220
#
#
#
# Elastic Compliance Matrix: (Units=1/GPa)
#
#
# Indices 1 2 3 4 5 6 
#
# 1 0.014606 -0.005057 -0.001501 0.000000 -0.008735 0.000000
# 2 -0.005057 0.029874 -0.004809 0.000000 0.002522 0.000000
# 3 -0.001501 -0.004809 0.035042 0.000000 -0.020595 0.000000
# 4 0.000000 0.000000 0.000000 0.065715 0.000000 -0.019062
# 5 -0.008735 0.002522 -0.020595 0.000000 0.050709 0.000000
# 6 0.000000 0.000000 0.000000 -0.019062 0.000000 0.036758
#
#
# Mechanical properties :
#
#
# Convention : Reuss Voigt Hill
#
# Bulk Modulus (GPa) = 17.60898 28.56232 23.08565
# Shear Modulus (GPa) = 18.22379 24.62941 21.42660
#
# Velocity S-wave (km/s) = 3.07803 3.57834 3.33757
# Velocity P-wave (km/s) = 4.66766 5.64994 5.18213
#
# Compressibility (1/GPa) = 0.05678920
#
# Stress axis : x y z
#
# Youngs Moduli (GPa) = 68.46278 33.47380 28.53730
#
# Poissons Ratio (x) = 0.16929 0.04283
# Poissons Ratio (y) = 0.34624 0.13722
# Poissons Ratio (z) = 0.10274 0.16096
#
# Static dielectric constant tensor:
#      x y z
#    x 1.637990 0.000000 -0.004770 
#    y 0.000000 1.640440 0.000000 
#    z -0.004770 0.000000 1.652250 
# 
# From -- ./inp_files/238960.got.cif
#   From: 2010.05.17/outbox.cif.g08.bks.cpg/sg12_120_cif.got.tgz:238960.got - 2010.06.03 13:09:07.
