data_PCOD9203802
_publ_section_title
;
Structure prediction by ZEFSAII (Michael W. Deem and Ramdas Pophale) SiO2 
 PCOD9203802
Probable space group: C 2/M
;
_chemical_formula_sum "Si O2"
_cell_formula_units_Z 64
_cell_length_a 11.844946
_cell_length_b 14.999156
_cell_length_c 26.645184
_cell_angle_alpha 90.000000
_cell_angle_beta 37.272920
_cell_angle_gamma 90.000000
_cell_volume 2866.905407
_symmetry_space_group_name_H-M "C 2/M"
_symmetry_group_IT_number 12
_symmetry_cell_setting 'monoclinic'
loop_
_space_group_symop_operation_xyz
x,y,z
-x,y,-z
-x,-y,-z
x,-y,z
1/2+x,1/2+y,z
1/2-x,1/2+y,-z
1/2-x,1/2-y,-z
1/2+x,1/2-y,z
loop_
_atom_site_type_symbol
_atom_site_label
_atom_site_fract_x
_atom_site_fract_y
_atom_site_fract_z
Si Si1 0.064611 0.595355 0.871423
Si Si2 0.792266 0.897994 0.426321
Si Si3 0.313632 0.654383 0.956046
Si Si4 0.206453 0.899861 0.305284
Si Si5 0.705024 0.604862 0.454923
Si Si6 0.827918 0.216834 0.839192
Si Si7 0.353530 0.402014 0.097421
Si Si8 0.304540 0.246662 0.349073
O O1 0.146613 0.500000 0.858943
O O2 0.119920 0.604196 0.793802
O O3 0.163269 0.675823 0.864424
O O4 0.849400 0.594975 0.962442
O O5 0.779756 0.876398 0.490629
O O6 0.714687 0.826146 0.414070
O O7 0.017167 0.897214 0.340168
O O8 0.726854 0.000000 0.441814
O O9 0.318021 0.665510 0.895043
O O10 0.514053 0.620526 0.902557
O O11 0.250000 0.750000 0.000000
O O12 0.204855 0.814750 0.342215
O O13 0.205155 0.000000 0.330280
O O14 0.500000 0.619493 0.500000
O O15 0.744260 0.500000 0.435461
O O16 0.845158 0.670504 0.376475
O O17 0.784260 0.320831 0.861932
O O18 0.021395 0.211899 0.741691
O O19 0.267293 0.500000 0.132041
O O20 0.500000 0.401938 0.000000
#
# Coordination Sequence:
#
# PCOD9203802 Si02
#       8
#     8   8   8   8   8   8   8   8
#     4  11  23  41  65  91 122 166 218 266 315 368
#     4  10  21  41  65  92 129 166 201 251 310 372
#     4  12  22  41  62  85 121 167 211 263 311 369
#     4  10  21  39  63  93 125 161 209 262 310 368
#     4  10  20  39  67  98 127 157 206 262 304 366
#     4  12  25  39  62  91 129 160 206 264 314 370
#     4  11  24  42  61  85 119 163 208 259 316 368
#     4  12  23  36  66  98 125 165 206 252 314 376
#
# _framework density 22.323720999999999
#
# number of rings (size 3 to 8) (size 9 to 14) (size 15 to 20)
#    0.000    1.000    5.000    2.250    0.000    2.500 
#    0.000    0.000    0.000    1.875    0.000    0.000 
#    0.000    0.000    0.000    0.000    0.000    0.000 
#
# Total GULP energy -178625.374084 kJ/mol
# GULP energy per Si atom -5582.042940 kJ/mol
# Density = 2.227291 g / cm^3
# Si number density = 22.323721 Si / 1000 Ang^3
#
#
#
# Elastic Constant Matrix: (Units=GPa)
#
#
# Indices 1 2 3 4 5 6 
#
# 1 51.6608 30.4407 8.9264 -0.0008 8.7857 0.0004
# 2 30.4407 114.3159 11.3762 -0.0004 21.9052 0.0007
# 3 8.9264 11.3762 83.9264 -0.0030 16.9200 0.0023
# 4 -0.0008 -0.0004 -0.0030 14.6964 -0.0002 18.0520
# 5 8.7857 21.9052 16.9200 -0.0002 28.7703 0.0001
# 6 0.0004 0.0007 0.0023 18.0520 0.0001 4.1690
#
#
#
# Elastic Compliance Matrix: (Units=1/GPa)
#
#
# Indices 1 2 3 4 5 6 
#
# 1 0.023272 -0.005681 -0.001298 0.000000 -0.002018 0.000001
# 2 -0.005681 0.011632 0.000526 0.000000 -0.007431 0.000000
# 3 -0.001298 0.000526 0.013595 -0.000003 -0.007999 0.000004
# 4 0.000000 0.000000 -0.000003 -0.015756 0.000002 0.068223
# 5 -0.002018 -0.007431 -0.007999 0.000002 0.045736 -0.000002
# 6 0.000001 0.000000 0.000004 0.068223 -0.000002 -0.055541
#
#
# Mechanical properties :
#
#
# Convention : Reuss Voigt Hill
#
# Bulk Modulus (GPa) = 28.09714 39.04329 33.57022
# Shear Modulus (GPa) = 104.80136 22.80447 63.80291
#
# Velocity S-wave (km/s) = 6.85916 3.19961 5.35190
# Velocity P-wave (km/s) = 8.68011 5.58369 7.29801
#
# Compressibility (1/GPa) = 0.03559081
#
# Stress axis : x y z
#
# Youngs Moduli (GPa) = 42.96985 85.96916 73.55833
#
# Poissons Ratio (x) = 0.48841 0.09551
# Poissons Ratio (y) = 0.24412 -0.03866
# Poissons Ratio (z) = 0.05579 -0.04518
#
# Static dielectric constant tensor:
#      x y z
#    x 1.847120 0.000000 -0.000260 
#    y 0.000000 1.873950 0.000000 
#    z -0.000260 0.000000 1.856430 
# 
# From -- ./inp_files/358436.got.cif
#   From: 2010.05.17/outbox.cif.g08.bks.cpg/sg12_180_cif.got.tgz:358436.got - 2010.06.03 13:09:07.
