data_PCOD9203682
_publ_section_title
;
Structure prediction by ZEFSAII (Michael W. Deem and Ramdas Pophale) SiO2 
 PCOD9203682
Probable space group: C 2/M
;
_chemical_formula_sum "Si O2"
_cell_formula_units_Z 44
_cell_length_a 12.333516
_cell_length_b 14.766693
_cell_length_c 16.422776
_cell_angle_alpha 90.000000
_cell_angle_beta 132.617483
_cell_angle_gamma 90.000000
_cell_volume 2201.050066
_symmetry_space_group_name_H-M "C 2/M"
_symmetry_group_IT_number 12
_symmetry_cell_setting 'monoclinic'
loop_
_space_group_symop_operation_xyz
x,y,z
-x,y,-z
-x,-y,-z
x,-y,z
1/2+x,1/2+y,z
1/2-x,1/2+y,-z
1/2-x,1/2-y,-z
1/2+x,1/2-y,z
loop_
_atom_site_type_symbol
_atom_site_label
_atom_site_fract_x
_atom_site_fract_y
_atom_site_fract_z
Si Si1 0.000000 0.162271 0.500000
Si Si2 0.762720 0.306865 0.329345
Si Si3 0.548123 0.894160 0.709109
Si Si4 0.690018 0.890465 0.953247
Si Si5 0.265538 0.394464 0.509986
Si Si6 0.526873 0.723029 0.921850
O O1 0.876442 0.224397 0.395299
O O2 0.906633 0.112654 0.522779
O O3 0.854565 0.377820 0.321277
O O4 0.723973 0.343540 0.398961
O O5 0.617623 0.281756 0.206185
O O6 0.635722 0.863560 0.833933
O O7 0.382916 0.857414 0.610273
O O8 0.527982 0.000000 0.712903
O O9 0.585047 0.826512 0.953503
O O10 0.685220 0.000000 0.961216
O O11 0.850410 0.846976 0.048823
O O12 0.240999 0.500000 0.515967
O O13 0.500000 0.692732 0.000000
#
# Coordination Sequence:
#
# PCOD9203682 Si02
#       6
#     4   8   8   8   8   8
#     4  12  25  38  65  92 128 166 202 256 317 372
#     4  12  23  38  65  94 126 164 212 258 312 375
#     4  10  20  39  65  94 125 163 210 261 316 376
#     4  10  23  42  65  92 127 166 208 262 319 374
#     4  11  24  42  62  92 128 166 209 255 311 381
#     4  11  24  41  64  94 127 165 215 263 311 376
#
# _framework density 19.990459000000001
#
# number of rings (size 3 to 8) (size 9 to 14) (size 15 to 20)
#    0.000    1.091    3.636    2.455    2.545    3.636 
#    0.000    0.909    0.000    0.000    0.000    0.000 
#    0.000    0.000    0.000    0.000    0.000    0.000 
#
# Total GULP energy -122768.633108 kJ/mol
# GULP energy per Si atom -5580.392414 kJ/mol
# Density = 1.994496 g / cm^3
# Si number density = 19.990459 Si / 1000 Ang^3
#
#
#
# Elastic Constant Matrix: (Units=GPa)
#
#
# Indices 1 2 3 4 5 6 
#
# 1 105.1492 14.4200 34.9582 0.0000 20.7659 0.0000
# 2 14.4200 73.2651 26.8952 0.0000 19.5204 0.0000
# 3 34.9582 26.8952 117.9995 0.0000 39.3305 0.0000
# 4 0.0000 0.0000 0.0000 -268.4710 0.0000 -24.7514
# 5 20.7659 19.5204 39.3305 0.0000 32.1688 0.0000
# 6 0.0000 0.0000 0.0000 -24.7514 0.0000 27.7292
#
#
#
# Elastic Compliance Matrix: (Units=1/GPa)
#
#
# Indices 1 2 3 4 5 6 
#
# 1 0.011062 -0.000253 -0.001503 0.000000 -0.005149 0.000000
# 2 -0.000253 0.016322 -0.000672 0.000000 -0.008919 0.000000
# 3 -0.001503 -0.000672 0.014538 0.000000 -0.016397 0.000000
# 4 0.000000 0.000000 0.000000 -0.003442 0.000000 -0.003072
# 5 -0.005149 -0.008919 -0.016397 0.000000 0.059869 0.000000
# 6 0.000000 0.000000 0.000000 -0.003072 0.000000 0.033321
#
#
# Mechanical properties :
#
#
# Convention : Reuss Voigt Hill
#
# Bulk Modulus (GPa) = 26.98026 49.88450 38.43238
# Shear Modulus (GPa) = 33.58335 -27.03857 3.27239
#
# Velocity S-wave (km/s) = 4.10319 -3.68173 1.28083
# Velocity P-wave (km/s) = 5.99784 2.63341 4.63190
#
# Compressibility (1/GPa) = 0.03706413
#
# Stress axis : x y z
#
# Youngs Moduli (GPa) = 90.40225 61.26689 68.78335
#
# Poissons Ratio (x) = 0.01553 0.10339
# Poissons Ratio (y) = 0.02291 0.04625
# Poissons Ratio (z) = 0.13588 0.04120
#
# Static dielectric constant tensor:
#      x y z
#    x 1.717600 0.000000 -0.002480 
#    y 0.000000 1.712030 0.000000 
#    z -0.002480 0.000000 1.711120 
# 
# From -- ./inp_files/206364.got.cif
#   From: 2010.05.17/outbox.cif.g08.bks.cpg/sg12_104_cif.got.tgz:206364.got - 2010.06.03 13:09:07.
