data_PCOD9203917
_publ_section_title
;
Structure prediction by ZEFSAII (Michael W. Deem and Ramdas Pophale) SiO2 
 PCOD9203917
Probable space group: C 2/M
;
_chemical_formula_sum "Si O2"
_cell_formula_units_Z 64
_cell_length_a 21.510672
_cell_length_b 20.896399
_cell_length_c 8.885029
_cell_angle_alpha 90.000000
_cell_angle_beta 124.706634
_cell_angle_gamma 90.000000
_cell_volume 3283.200234
_symmetry_space_group_name_H-M "C 2/M"
_symmetry_group_IT_number 12
_symmetry_cell_setting 'monoclinic'
loop_
_space_group_symop_operation_xyz
x,y,z
-x,y,-z
-x,-y,-z
x,-y,z
1/2+x,1/2+y,z
1/2-x,1/2+y,-z
1/2-x,1/2-y,-z
1/2+x,1/2-y,z
loop_
_atom_site_type_symbol
_atom_site_label
_atom_site_fract_x
_atom_site_fract_y
_atom_site_fract_z
Si Si1 0.280577 0.426517 0.980652
Si Si2 0.758247 0.658470 0.352861
Si Si3 0.116265 0.574219 0.316734
Si Si4 0.967018 0.808991 0.618724
Si Si5 0.454589 0.569829 0.278635
Si Si6 0.698576 0.298441 0.583074
Si Si7 0.007457 0.321506 0.832164
Si Si8 0.667175 0.126312 0.071380
O O1 0.270376 0.500000 0.912733
O O2 0.364224 0.423710 0.169151
O O3 0.214569 0.410286 0.009227
O O4 0.277732 0.374945 0.841656
O O5 0.812640 0.605497 0.500847
O O6 0.705263 0.685667 0.414133
O O7 0.804034 0.723335 0.380460
O O8 0.106532 0.500000 0.336284
O O9 0.044426 0.616369 0.267514
O O10 0.133027 0.583881 0.161168
O O11 0.880226 0.828499 0.478732
O O12 0.975324 0.742556 0.715709
O O13 0.000000 0.797551 0.500000
O O14 0.012560 0.867524 0.756511
O O15 0.500000 0.569012 0.500000
O O16 0.468545 0.500000 0.226059
O O17 0.771958 0.327096 0.765159
O O18 0.000000 0.311625 0.000000
O O19 0.094422 0.335440 0.909540
#
# Coordination Sequence:
#
# PCOD9203917 Si02
#       8
#     8   8   8   8   8   8   8   8
#     4  11  23  39  62  95 126 156 203 261 310 362
#     4  10  22  39  61  88 121 161 206 252 304 367
#     4  10  20  40  61  82 122 170 206 247 306 372
#     4  11  22  38  62  89 119 156 201 255 302 361
#     4   9  20  39  60  86 122 159 194 244 313 372
#     4  10  22  41  62  85 122 164 205 247 308 371
#     4  10  23  37  56  89 121 160 208 249 302 363
#     4  10  22  36  60  91 116 160 208 257 302 365
#
# _framework density 19.493175999999998
#
# number of rings (size 3 to 8) (size 9 to 14) (size 15 to 20)
#    0.000    1.875    1.250    2.250    5.250    3.250 
#    0.000    3.125    0.000    3.750    0.000    0.000 
#    0.000    0.000    0.000    0.000    0.000    0.000 
#
# Total GULP energy -178410.709261 kJ/mol
# GULP energy per Si atom -5575.334664 kJ/mol
# Density = 1.944881 g / cm^3
# Si number density = 19.493176 Si / 1000 Ang^3
#
#
#
# Elastic Constant Matrix: (Units=GPa)
#
#
# Indices 1 2 3 4 5 6 
#
# 1 75.5067 36.7103 29.7342 0.0000 23.1674 0.0000
# 2 36.7103 164.6347 33.1461 0.0000 7.0583 0.0000
# 3 29.7342 33.1461 65.1448 0.0000 12.0945 0.0000
# 4 0.0000 0.0000 0.0000 30.3816 0.0000 2.3348
# 5 23.1674 7.0583 12.0945 0.0000 25.1897 0.0000
# 6 0.0000 0.0000 0.0000 2.3348 0.0000 24.6214
#
#
#
# Elastic Compliance Matrix: (Units=1/GPa)
#
#
# Indices 1 2 3 4 5 6 
#
# 1 0.022022 -0.003113 -0.005346 0.000000 -0.016815 0.000000
# 2 -0.003113 0.007209 -0.002639 0.000000 0.002110 0.000000
# 3 -0.005346 -0.002639 0.019853 0.000000 -0.003876 0.000000
# 4 0.000000 0.000000 0.000000 0.033156 0.000000 -0.003144
# 5 -0.016815 0.002110 -0.003876 0.000000 0.056433 0.000000
# 6 0.000000 0.000000 0.000000 -0.003144 0.000000 0.040913
#
#
# Mechanical properties :
#
#
# Convention : Reuss Voigt Hill
#
# Bulk Modulus (GPa) = 37.19131 56.05194 46.62162
# Shear Modulus (GPa) = 23.72541 29.75157 26.73849
#
# Velocity S-wave (km/s) = 3.49250 3.91097 3.70764
# Velocity P-wave (km/s) = 5.94844 7.01508 6.50366
#
# Compressibility (1/GPa) = 0.02688800
#
# Stress axis : x y z
#
# Youngs Moduli (GPa) = 45.40956 138.71435 50.37118
#
# Poissons Ratio (x) = 0.43186 0.26927
# Poissons Ratio (y) = 0.14137 0.13292
# Poissons Ratio (z) = 0.24274 0.36604
#
# Static dielectric constant tensor:
#      x y z
#    x 1.675620 0.000000 -0.000750 
#    y 0.000000 1.715110 0.000000 
#    z -0.000750 0.000000 1.688650 
# 
# From -- ./inp_files/99145.got.cif
#   From: 2010.05.17/outbox.cif.g08.bks.cpg/sg12_50_cif.got.tgz:99145.got - 2010.06.03 13:09:07.
