data_PCOD9203623
_publ_section_title
;
Structure prediction by ZEFSAII (Michael W. Deem and Ramdas Pophale) SiO2 
 PCOD9203623
Probable space group: C 2/M
;
_chemical_formula_sum "Si O2"
_cell_formula_units_Z 34
_cell_length_a 20.141982
_cell_length_b 9.657020
_cell_length_c 8.770985
_cell_angle_alpha 90.000000
_cell_angle_beta 90.988372
_cell_angle_gamma 90.000000
_cell_volume 1705.803817
_symmetry_space_group_name_H-M "C 2/M"
_symmetry_group_IT_number 12
_symmetry_cell_setting 'monoclinic'
loop_
_space_group_symop_operation_xyz
x,y,z
-x,y,-z
-x,-y,-z
x,-y,z
1/2+x,1/2+y,z
1/2-x,1/2+y,-z
1/2-x,1/2-y,-z
1/2+x,1/2-y,z
loop_
_atom_site_type_symbol
_atom_site_label
_atom_site_fract_x
_atom_site_fract_y
_atom_site_fract_z
Si Si1 0.924974 0.345254 0.939661
Si Si2 0.811367 0.835847 0.435073
Si Si3 0.000000 0.000000 0.500000
Si Si4 0.310608 0.338463 0.069087
Si Si5 0.444739 0.770350 0.597895
O O1 0.901854 0.500000 0.983960
O O2 0.925765 0.335421 0.756775
O O3 0.877172 0.230454 0.007255
O O4 0.000000 0.328395 0.000000
O O5 0.750000 0.750000 0.500000
O O6 0.810062 0.829688 0.252338
O O7 0.878936 0.767903 0.500497
O O8 0.810433 0.000000 0.478086
O O9 0.018660 0.877372 0.378179
O O10 0.305282 0.500000 0.025957
O O11 0.250000 0.250000 0.000000
O O12 0.500000 0.849149 0.500000
#
# Coordination Sequence:
#
# PCOD9203623 Si02
#       5
#     8   8   2   8   8
#     4  11  25  42  62  92 130 165 205 256 311 366
#     4  11  23  40  62  90 120 157 201 250 305 363
#     4   8  20  36  68  88 124 144 214 260 300 356
#     4  11  25  42  65  92 126 164 207 255 310 372
#     4  10  20  39  65  87 119 157 206 253 300 360
#
# _framework density 19.931953
#
# number of rings (size 3 to 8) (size 9 to 14) (size 15 to 20)
#    0.706    0.706    1.176    3.529    1.647    7.529 
#    0.000    0.000    0.000    0.000    0.000    0.000 
#    0.000    0.000    0.000    0.000    0.000    0.000 
#
# Total GULP energy -94635.756270 kJ/mol
# GULP energy per Si atom -5566.809192 kJ/mol
# Density = 1.988659 g / cm^3
# Si number density = 19.931953 Si / 1000 Ang^3
#
#
#
# Elastic Constant Matrix: (Units=GPa)
#
#
# Indices 1 2 3 4 5 6 
#
# 1 132.0092 77.6624 56.7323 0.0000 -2.0346 0.0000
# 2 77.6624 158.4495 55.0540 0.0000 -2.6892 0.0000
# 3 56.7323 55.0540 89.9136 0.0000 -0.0048 0.0000
# 4 0.0000 0.0000 0.0000 30.3598 0.0000 -9.6670
# 5 -2.0346 -2.6892 -0.0048 0.0000 39.9895 0.0000
# 6 0.0000 0.0000 0.0000 -9.6670 0.0000 5.6710
#
#
#
# Elastic Compliance Matrix: (Units=1/GPa)
#
#
# Indices 1 2 3 4 5 6 
#
# 1 0.012283 -0.004220 -0.005167 0.000000 0.000341 0.000000
# 2 -0.004220 0.009478 -0.003141 0.000000 0.000422 0.000000
# 3 -0.005167 -0.003141 0.016305 0.000000 -0.000472 0.000000
# 4 0.000000 0.000000 0.000000 0.072042 0.000000 0.122806
# 5 0.000341 0.000422 -0.000472 0.000000 0.025052 0.000000
# 6 0.000000 0.000000 0.000000 0.122806 0.000000 0.385679
#
#
# Mechanical properties :
#
#
# Convention : Reuss Voigt Hill
#
# Bulk Modulus (GPa) = 76.85306 84.36331 80.60818
# Shear Modulus (GPa) = 9.08710 27.93229 18.50970
#
# Velocity S-wave (km/s) = 2.13751 3.74757 3.05067
# Velocity P-wave (km/s) = 6.68830 7.81941 7.27587
#
# Compressibility (1/GPa) = 0.01301184
#
# Stress axis : x y z
#
# Youngs Moduli (GPa) = 81.41108 105.50963 61.33133
#
# Poissons Ratio (x) = 0.44521 0.31688
# Poissons Ratio (y) = 0.34352 0.19263
# Poissons Ratio (z) = 0.42063 0.33139
#
# Static dielectric constant tensor:
#      x y z
#    x 1.735480 0.000000 -0.020130 
#    y 0.000000 1.710400 0.000000 
#    z -0.020130 0.000000 1.712990 
# 
# From -- ./inp_files/82066.got.cif
#   From: 2010.05.17/outbox.cif.g08.bks.cpg/sg12_42_cif.got.tgz:82066.got - 2010.06.03 13:09:07.
