data_PCOD9203912
_publ_section_title
;
Structure prediction by ZEFSAII (Michael W. Deem and Ramdas Pophale) SiO2 
 PCOD9203912
Probable space group: C 2/M
;
_chemical_formula_sum "Si O2"
_cell_formula_units_Z 44
_cell_length_a 10.585734
_cell_length_b 24.076016
_cell_length_c 11.618173
_cell_angle_alpha 90.000000
_cell_angle_beta 39.832465
_cell_angle_gamma 90.000000
_cell_volume 1896.675490
_symmetry_space_group_name_H-M "C 2/M"
_symmetry_group_IT_number 12
_symmetry_cell_setting 'monoclinic'
loop_
_space_group_symop_operation_xyz
x,y,z
-x,y,-z
-x,-y,-z
x,-y,z
1/2+x,1/2+y,z
1/2-x,1/2+y,-z
1/2-x,1/2-y,-z
1/2+x,1/2-y,z
loop_
_atom_site_type_symbol
_atom_site_label
_atom_site_fract_x
_atom_site_fract_y
_atom_site_fract_z
Si Si1 0.000000 0.708953 0.500000
Si Si2 0.284690 0.234773 0.111842
Si Si3 0.627018 0.376420 0.303154
Si Si4 0.279135 0.383013 0.365224
Si Si5 0.000000 0.090238 0.000000
Si Si6 0.653207 0.500000 0.273880
Si Si7 0.225913 0.500000 0.071144
Si Si8 0.305108 0.000000 0.482945
O O1 0.873277 0.741550 0.684676
O O2 0.866713 0.667521 0.515718
O O3 0.272916 0.168512 0.147118
O O4 0.500000 0.254194 0.000000
O O5 0.250000 0.250000 0.000000
O O6 0.500000 0.355249 0.500000
O O7 0.463354 0.383137 0.319943
O O8 0.705867 0.438004 0.282307
O O9 0.189682 0.444294 0.444393
O O10 0.362900 0.375956 0.179722
O O11 0.850921 0.051814 0.031921
O O12 0.411192 0.500000 0.428758
O O13 0.751932 0.500000 0.079986
O O14 0.000038 0.500000 0.268792
#
# Coordination Sequence:
#
# PCOD9203912 Si02
#       8
#     4   8   8   8   4   4   4   4
#     4  12  28  47  76 107 144 192 250 318 370 452
#     4  12  30  53  80 111 149 197 256 315 383 449
#     4  11  24  48  76 101 150 196 243 304 367 445
#     4  11  24  41  72 106 144 192 242 301 380 439
#     4  11  20  36  62 100 148 184 238 305 364 436
#     4  10  22  46  65 107 142 195 241 295 361 450
#     4  11  19  35  63  94 148 190 233 294 364 435
#     4  10  20  40  61 103 144 187 231 295 369 444
#
# _framework density 23.198487
#
# number of rings (size 3 to 8) (size 9 to 14) (size 15 to 20)
#    0.000    0.909    4.545    3.000    6.364    4.000 
#    3.273    0.455    0.000    0.000    0.000    0.000 
#    0.000    0.000    0.000    0.000    0.000    0.000 
#
# Total GULP energy -122916.695434 kJ/mol
# GULP energy per Si atom -5587.122520 kJ/mol
# Density = 2.314569 g / cm^3
# Si number density = 23.198487 Si / 1000 Ang^3
#
#
#
# Elastic Constant Matrix: (Units=GPa)
#
#
# Indices 1 2 3 4 5 6 
#
# 1 48.4595 31.1373 37.1207 0.0000 2.0987 0.0000
# 2 31.1373 151.4738 67.5205 0.0000 -4.1752 0.0000
# 3 37.1207 67.5205 180.2740 0.0000 3.9311 0.0000
# 4 0.0000 0.0000 0.0000 61.3048 0.0000 -6.7432
# 5 2.0987 -4.1752 3.9311 0.0000 40.6818 0.0000
# 6 0.0000 0.0000 0.0000 -6.7432 0.0000 33.9708
#
#
#
# Elastic Compliance Matrix: (Units=1/GPa)
#
#
# Indices 1 2 3 4 5 6 
#
# 1 0.026071 -0.003620 -0.003983 0.000000 -0.001332 0.000000
# 2 -0.003620 0.008477 -0.002458 0.000000 0.001294 0.000000
# 3 -0.003983 -0.002458 0.007304 0.000000 -0.000753 0.000000
# 4 0.000000 0.000000 0.000000 0.016676 0.000000 0.003310
# 5 -0.001332 0.001294 -0.000753 0.000000 0.024855 0.000000
# 6 0.000000 0.000000 0.000000 0.003310 0.000000 0.030094
#
#
# Mechanical properties :
#
#
# Convention : Reuss Voigt Hill
#
# Bulk Modulus (GPa) = 46.02030 72.41827 59.21928
# Shear Modulus (GPa) = 35.50021 43.48674 39.49347
#
# Velocity S-wave (km/s) = 3.91612 4.33431 4.13051
# Velocity P-wave (km/s) = 6.35049 7.50552 6.95204
#
# Compressibility (1/GPa) = 0.02172954
#
# Stress axis : x y z
#
# Youngs Moduli (GPa) = 38.35681 117.96226 136.90521
#
# Poissons Ratio (x) = 0.42706 0.54534
# Poissons Ratio (y) = 0.13886 0.33650
# Poissons Ratio (z) = 0.15279 0.28994
#
# Static dielectric constant tensor:
#      x y z
#    x 1.888030 0.000000 0.009370 
#    y 0.000000 1.942070 0.000000 
#    z 0.009370 0.000000 1.880760 
# 
# From -- ./inp_files/135820.got.cif
#   From: 2010.05.17/outbox.cif.g08.bks.cpg/sg12_68_cif.got.tgz:135820.got - 2010.06.03 13:09:07.
