data_PCOD9203839
_publ_section_title
;
Structure prediction by ZEFSAII (Michael W. Deem and Ramdas Pophale) SiO2 
 PCOD9203839
Probable space group: C 2/M
;
_chemical_formula_sum "Si O2"
_cell_formula_units_Z 44
_cell_length_a 12.521748
_cell_length_b 19.905727
_cell_length_c 8.743441
_cell_angle_alpha 90.000000
_cell_angle_beta 77.348284
_cell_angle_gamma 90.000000
_cell_volume 2126.426402
_symmetry_space_group_name_H-M "C 2/M"
_symmetry_group_IT_number 12
_symmetry_cell_setting 'monoclinic'
loop_
_space_group_symop_operation_xyz
x,y,z
-x,y,-z
-x,-y,-z
x,-y,z
1/2+x,1/2+y,z
1/2-x,1/2+y,-z
1/2-x,1/2-y,-z
1/2+x,1/2-y,z
loop_
_atom_site_type_symbol
_atom_site_label
_atom_site_fract_x
_atom_site_fract_y
_atom_site_fract_z
Si Si1 0.658343 0.074526 0.695571
Si Si2 0.151996 0.077835 0.112509
Si Si3 0.294017 0.816795 0.906847
Si Si4 0.270469 0.176800 0.563500
Si Si5 0.563347 0.421950 0.642330
Si Si6 0.000000 0.619147 0.000000
O O1 0.768569 0.084340 0.763081
O O2 0.653001 0.132786 0.572125
O O3 0.663079 0.000000 0.624984
O O4 0.559577 0.078165 0.847357
O O5 0.028875 0.093639 0.201728
O O6 0.156924 0.000000 0.063882
O O7 0.204762 0.125520 0.970531
O O8 0.312558 0.811902 0.721234
O O9 0.405560 0.837062 0.954041
O O10 0.250000 0.750000 0.000000
O O11 0.250000 0.250000 0.500000
O O12 0.160772 0.131263 0.609658
O O13 0.500000 0.419498 0.500000
O O14 0.599514 0.500000 0.651645
#
# Coordination Sequence:
#
# PCOD9203839 Si02
#       6
#     8   8   8   8   8   4
#     4  10  20  40  66  95 128 169 219 272 324 391
#     4   9  19  38  66  95 128 169 214 263 328 391
#     4  11  26  45  63  92 131 175 221 272 328 395
#     4  12  25  41  62 100 135 170 219 274 332 396
#     4  10  20  39  70 102 131 170 212 268 336 395
#     4  10  23  46  68  88 123 178 222 266 333 398
#
# _framework density 20.691993
#
# number of rings (size 3 to 8) (size 9 to 14) (size 15 to 20)
#    0.000    1.636    1.818    3.000    0.000    6.545 
#    0.000    2.727    0.000    0.000    0.000    0.000 
#    0.000    0.000    0.000    0.000    0.000    0.000 
#
# Total GULP energy -122999.345104 kJ/mol
# GULP energy per Si atom -5590.879323 kJ/mol
# Density = 2.064490 g / cm^3
# Si number density = 20.691993 Si / 1000 Ang^3
#
#
#
# Elastic Constant Matrix: (Units=GPa)
#
#
# Indices 1 2 3 4 5 6 
#
# 1 74.7936 37.8612 22.9927 0.0000 -21.2937 0.0000
# 2 37.8612 120.3477 67.8870 0.0000 -3.6273 0.0000
# 3 22.9927 67.8870 134.9803 0.0000 -7.2271 0.0000
# 4 0.0000 0.0000 0.0000 37.0720 0.0000 -3.4297
# 5 -21.2937 -3.6273 -7.2271 0.0000 36.6366 0.0000
# 6 0.0000 0.0000 0.0000 -3.4297 0.0000 16.8551
#
#
#
# Elastic Compliance Matrix: (Units=1/GPa)
#
#
# Indices 1 2 3 4 5 6 
#
# 1 0.019324 -0.005896 0.000246 0.000000 0.010696 0.000000
# 2 -0.005896 0.013399 -0.005910 0.000000 -0.003266 0.000000
# 3 0.000246 -0.005910 0.010425 0.000000 0.001615 0.000000
# 4 0.000000 0.000000 0.000000 0.027492 0.000000 0.005594
# 5 0.010696 -0.003266 0.001615 0.000000 0.033507 0.000000
# 6 0.000000 0.000000 0.000000 0.005594 0.000000 0.060468
#
#
# Mechanical properties :
#
#
# Convention : Reuss Voigt Hill
#
# Bulk Modulus (GPa) = 49.92461 65.28928 57.60695
# Shear Modulus (GPa) = 25.71880 31.53811 28.62845
#
# Velocity S-wave (km/s) = 3.52935 3.90830 3.72365
# Velocity P-wave (km/s) = 6.38657 7.21026 6.81088
#
# Compressibility (1/GPa) = 0.02003020
#
# Stress axis : x y z
#
# Youngs Moduli (GPa) = 51.74853 74.63145 95.92212
#
# Poissons Ratio (x) = 0.44002 -0.02362
# Poissons Ratio (y) = 0.30510 0.56685
# Poissons Ratio (z) = -0.01274 0.44104
#
# Static dielectric constant tensor:
#      x y z
#    x 1.731310 0.000000 -0.003110 
#    y 0.000000 1.717640 0.000000 
#    z -0.003110 0.000000 1.783970 
# 
# From -- ./inp_files/60971.got.cif
#   From: 2010.05.17/outbox.cif.g08.bks.cpg/sg12_31_cif.got.tgz:60971.got - 2010.06.03 13:09:07.
