data_PCOD9203787
_publ_section_title
;
Structure prediction by ZEFSAII (Michael W. Deem and Ramdas Pophale) SiO2 
 PCOD9203787
Probable space group: C 2/M
;
_chemical_formula_sum "Si O2"
_cell_formula_units_Z 44
_cell_length_a 19.135795
_cell_length_b 14.716857
_cell_length_c 9.933464
_cell_angle_alpha 90.000000
_cell_angle_beta 43.489065
_cell_angle_gamma 90.000000
_cell_volume 1925.250059
_symmetry_space_group_name_H-M "C 2/M"
_symmetry_group_IT_number 12
_symmetry_cell_setting 'monoclinic'
loop_
_space_group_symop_operation_xyz
x,y,z
-x,y,-z
-x,-y,-z
x,-y,z
1/2+x,1/2+y,z
1/2-x,1/2+y,-z
1/2-x,1/2-y,-z
1/2+x,1/2-y,z
loop_
_atom_site_type_symbol
_atom_site_label
_atom_site_fract_x
_atom_site_fract_y
_atom_site_fract_z
Si Si1 0.541478 0.606839 0.647826
Si Si2 0.768269 0.107345 0.426163
Si Si3 0.500000 0.748173 0.500000
Si Si4 0.827561 0.332780 0.913628
Si Si5 0.173961 0.101114 0.937338
Si Si6 0.383609 0.110601 0.134915
O O1 0.537261 0.500000 0.610159
O O2 0.624192 0.612275 0.648815
O O3 0.567338 0.677167 0.493279
O O4 0.430621 0.637988 0.855323
O O5 0.781287 0.147200 0.258955
O O6 0.684710 0.145255 0.645317
O O7 0.740545 0.000000 0.449247
O O8 0.431242 0.810305 0.691124
O O9 0.761925 0.405838 0.923987
O O10 0.750000 0.250000 0.000000
O O11 0.847064 0.354862 0.041100
O O12 0.141236 0.000000 0.939473
O O13 0.376153 0.000000 0.140830
O O14 0.500000 0.135247 0.000000
#
# Coordination Sequence:
#
# PCOD9203787 Si02
#       6
#     8   8   4   8   8   8
#     4  10  20  39  67  95 127 166 215 262 317 389
#     4   9  19  37  66  97 121 155 211 270 316 369
#     4  12  25  40  59  92 134 170 210 256 327 384
#     4  12  25  44  61  95 134 168 212 269 329 386
#     4  10  21  40  67  96 125 164 212 266 323 382
#     4  10  23  45  68  91 126 177 230 266 309 385
#
# _framework density 22.854174
#
# number of rings (size 3 to 8) (size 9 to 14) (size 15 to 20)
#    0.000    1.636    1.818    2.455    2.545    2.182 
#    3.273    2.727    0.000    0.000    0.000    0.000 
#    0.000    0.000    0.000    0.000    0.000    0.000 
#
# Total GULP energy -122915.928553 kJ/mol
# GULP energy per Si atom -5587.087661 kJ/mol
# Density = 2.280216 g / cm^3
# Si number density = 22.854174 Si / 1000 Ang^3
#
#
#
# Elastic Constant Matrix: (Units=GPa)
#
#
# Indices 1 2 3 4 5 6 
#
# 1 112.9706 5.8453 43.3110 0.0000 8.7197 0.0000
# 2 5.8453 42.2330 13.7955 0.0000 -4.0990 0.0000
# 3 43.3110 13.7955 128.0119 0.0000 0.8493 0.0000
# 4 0.0000 0.0000 0.0000 21.9508 0.0000 10.2567
# 5 8.7197 -4.0990 0.8493 0.0000 36.7747 0.0000
# 6 0.0000 0.0000 0.0000 10.2567 0.0000 20.3990
#
#
#
# Elastic Compliance Matrix: (Units=1/GPa)
#
#
# Indices 1 2 3 4 5 6 
#
# 1 0.010388 -0.000552 -0.003439 0.000000 -0.002445 0.000000
# 2 -0.000552 0.024862 -0.002512 0.000000 0.002960 0.000000
# 3 -0.003439 -0.002512 0.009244 0.000000 0.000322 0.000000
# 4 0.000000 0.000000 0.000000 0.059546 0.000000 -0.029940
# 5 -0.002445 0.002960 0.000322 0.000000 0.028095 0.000000
# 6 0.000000 0.000000 0.000000 -0.029940 0.000000 0.064076
#
#
# Mechanical properties :
#
#
# Convention : Reuss Voigt Hill
#
# Bulk Modulus (GPa) = 31.75800 45.45769 38.60785
# Shear Modulus (GPa) = 22.75699 30.50912 26.63306
#
# Velocity S-wave (km/s) = 3.15897 3.65766 3.41742
# Velocity P-wave (km/s) = 5.21839 6.14585 5.70101
#
# Compressibility (1/GPa) = 0.03148813
#
# Stress axis : x y z
#
# Youngs Moduli (GPa) = 96.26948 40.22127 108.18004
#
# Poissons Ratio (x) = 0.02219 0.37201
# Poissons Ratio (y) = 0.05311 0.27178
# Poissons Ratio (z) = 0.33105 0.10105
#
# Static dielectric constant tensor:
#      x y z
#    x 1.806500 0.000000 0.030820 
#    y 0.000000 2.083640 0.000000 
#    z 0.030820 0.000000 1.884900 
# 
# From -- ./inp_files/75690.got.cif
#   From: 2010.05.17/outbox.cif.g08.bks.cpg/sg12_38_cif.got.tgz:75690.got - 2010.06.03 13:09:07.
