data_PCOD9203528
_publ_section_title
;
Structure prediction by ZEFSAII (Michael W. Deem and Ramdas Pophale) SiO2 
 PCOD9203528
Probable space group: C 2/M
;
_chemical_formula_sum "Si O2"
_cell_formula_units_Z 64
_cell_length_a 13.211490
_cell_length_b 30.965233
_cell_length_c 9.200521
_cell_angle_alpha 90.000000
_cell_angle_beta 54.101788
_cell_angle_gamma 90.000000
_cell_volume 3048.988093
_symmetry_space_group_name_H-M "C 2/M"
_symmetry_group_IT_number 12
_symmetry_cell_setting 'monoclinic'
loop_
_space_group_symop_operation_xyz
x,y,z
-x,y,-z
-x,-y,-z
x,-y,z
1/2+x,1/2+y,z
1/2-x,1/2+y,-z
1/2-x,1/2-y,-z
1/2+x,1/2-y,z
loop_
_atom_site_type_symbol
_atom_site_label
_atom_site_fract_x
_atom_site_fract_y
_atom_site_fract_z
Si Si1 0.523192 0.295829 0.651415
Si Si2 0.579330 0.887296 0.662510
Si Si3 0.203237 0.171059 0.962121
Si Si4 0.323143 0.362900 0.326534
Si Si5 0.689704 0.076358 0.112459
Si Si6 0.025369 0.700911 0.305257
Si Si7 0.876342 0.953242 0.200666
Si Si8 0.147189 0.546849 0.837563
O O1 0.500000 0.295488 0.500000
O O2 0.636051 0.328404 0.589306
O O3 0.539320 0.245808 0.682245
O O4 0.402642 0.312836 0.840812
O O5 0.677655 0.876031 0.454201
O O6 0.458106 0.916523 0.730674
O O7 0.525801 0.839868 0.742453
O O8 0.657223 0.912933 0.719726
O O9 0.149201 0.161117 0.847574
O O10 0.254605 0.123911 0.961052
O O11 0.324866 0.201590 0.844476
O O12 0.388517 0.409462 0.283072
O O13 0.762456 0.054253 0.183314
O O14 0.708452 0.052444 0.943560
O O15 0.000000 0.693877 0.500000
O O16 0.861549 0.000000 0.286561
O O17 0.000000 0.954633 0.000000
O O18 0.179945 0.500000 0.745905
O O19 0.000000 0.546497 0.000000
#
# Coordination Sequence:
#
# PCOD9203528 Si02
#       8
#     8   8   8   8   8   8   8   8
#     4  11  25  40  61  91 121 167 216 262 319 381
#     4  10  21  36  61  91 124 164 198 259 316 383
#     4  10  20  39  64  86 120 165 208 261 316 378
#     4  11  22  40  63  86 130 161 207 260 321 374
#     4   9  19  35  63  89 123 162 207 252 321 367
#     4  10  20  41  62  90 124 158 211 268 321 372
#     4  10  21  38  62  89 118 162 214 255 304 372
#     4   9  18  34  55  86 127 162 199 249 313 380
#
# _framework density 20.990570999999999
#
# number of rings (size 3 to 8) (size 9 to 14) (size 15 to 20)
#    0.000    2.000    1.250    2.625    1.750    1.500 
#    0.000    6.875    0.000    0.375    0.000    0.000 
#    0.000    0.000    0.000    0.000    0.000    0.000 
#
# Total GULP energy -178412.142778 kJ/mol
# GULP energy per Si atom -5575.379462 kJ/mol
# Density = 2.094280 g / cm^3
# Si number density = 20.990571 Si / 1000 Ang^3
#
#
#
# Elastic Constant Matrix: (Units=GPa)
#
#
# Indices 1 2 3 4 5 6 
#
# 1 45.1393 25.0883 8.9646 0.0000 -1.0668 0.0000
# 2 25.0883 138.2433 5.2611 0.0000 11.0006 0.0000
# 3 8.9646 5.2611 72.9345 0.0000 -12.4373 0.0000
# 4 0.0000 0.0000 0.0000 -9.1597 0.0000 9.0487
# 5 -1.0668 11.0006 -12.4373 0.0000 28.6728 0.0000
# 6 0.0000 0.0000 0.0000 9.0487 0.0000 -4.0375
#
#
#
# Elastic Compliance Matrix: (Units=1/GPa)
#
#
# Indices 1 2 3 4 5 6 
#
# 1 0.025254 -0.004618 -0.002493 0.000000 0.001630 0.000000
# 2 -0.004618 0.008390 -0.000665 0.000000 -0.003679 0.000000
# 3 -0.002493 -0.000665 0.015219 0.000000 0.006764 0.000000
# 4 0.000000 0.000000 0.000000 0.089927 0.000000 0.201542
# 5 0.001630 -0.003679 0.006764 0.000000 0.039282 0.000000
# 6 0.000000 0.000000 0.000000 0.201542 0.000000 0.204013
#
#
# Mechanical properties :
#
#
# Convention : Reuss Voigt Hill
#
# Bulk Modulus (GPa) = 30.02039 37.21610 33.61825
# Shear Modulus (GPa) = 12.23274 17.56199 14.89736
#
# Velocity S-wave (km/s) = 2.41669 2.89565 2.66694
# Velocity P-wave (km/s) = 4.70320 5.38034 5.05313
#
# Compressibility (1/GPa) = 0.03331069
#
# Stress axis : x y z
#
# Youngs Moduli (GPa) = 39.59785 119.19323 65.70850
#
# Poissons Ratio (x) = 0.55042 0.16381
# Poissons Ratio (y) = 0.18286 0.04369
# Poissons Ratio (z) = 0.09872 0.07926
#
# Static dielectric constant tensor:
#      x y z
#    x 1.793510 0.000000 -0.006890 
#    y 0.000000 1.792850 0.000000 
#    z -0.006890 0.000000 1.772410 
# 
# From -- ./inp_files/68599.got.cif
#   From: 2010.05.17/outbox.cif.g08.bks.cpg/sg12_35_cif.got.tgz:68599.got - 2010.06.03 13:09:07.
