data_PCOD9203602
_publ_section_title
;
Structure prediction by ZEFSAII (Michael W. Deem and Ramdas Pophale) SiO2 
 PCOD9203602
Probable space group: C 2/M
;
_chemical_formula_sum "Si O2"
_cell_formula_units_Z 56
_cell_length_a 9.633214
_cell_length_b 18.155388
_cell_length_c 30.722085
_cell_angle_alpha 90.000000
_cell_angle_beta 147.382918
_cell_angle_gamma 90.000000
_cell_volume 2896.235429
_symmetry_space_group_name_H-M "C 2/M"
_symmetry_group_IT_number 12
_symmetry_cell_setting 'monoclinic'
loop_
_space_group_symop_operation_xyz
x,y,z
-x,y,-z
-x,-y,-z
x,-y,z
1/2+x,1/2+y,z
1/2-x,1/2+y,-z
1/2-x,1/2-y,-z
1/2+x,1/2-y,z
loop_
_atom_site_type_symbol
_atom_site_label
_atom_site_fract_x
_atom_site_fract_y
_atom_site_fract_z
Si Si1 0.125781 0.676235 0.721974
Si Si2 0.745249 0.088587 0.217712
Si Si3 0.684304 0.178309 0.510129
Si Si4 0.777302 0.823784 0.308267
Si Si5 0.077126 0.912638 0.886189
Si Si6 0.450162 0.086583 0.057314
Si Si7 0.660893 0.912314 0.646309
O O1 0.189930 0.750133 0.712054
O O2 0.356439 0.640465 0.810703
O O3 0.071131 0.617601 0.669340
O O4 0.899096 0.689670 0.696452
O O5 0.675103 0.116710 0.246913
O O6 0.548752 0.118100 0.129042
O O7 0.040550 0.110920 0.283812
O O8 0.741055 0.000000 0.215062
O O9 0.500000 0.202768 0.500000
O O10 0.750000 0.250000 0.500000
O O11 0.527392 0.121099 0.439505
O O12 0.946877 0.149878 0.600845
O O13 0.306304 0.909922 0.911023
O O14 0.001556 0.000000 0.869027
O O15 0.203439 0.886501 0.965132
O O16 0.397056 0.000000 0.050364
O O17 0.655777 0.000000 0.644144
#
# Coordination Sequence:
#
# PCOD9203602 Si02
#       7
#     8   8   8   8   8   8   8
#     4  12  24  41  62  88 125 163 207 253 300 369
#     4  10  20  39  64  94 123 157 203 251 304 366
#     4  12  24  42  65  89 120 161 208 254 302 365
#     4  12  26  41  63  89 121 164 207 250 311 366
#     4   9  17  33  62  95 121 157 202 251 301 359
#     4   8  15  31  62  94 121 156 200 245 303 367
#     4  11  23  40  66  93 123 161 203 254 306 357
#
# _framework density 19.335445
#
# number of rings (size 3 to 8) (size 9 to 14) (size 15 to 20)
#    0.000    1.429    4.286    3.000    0.000    2.000 
#    0.000    2.143    0.000    2.571    0.000    0.000 
#    0.000    0.000    0.000    0.000    0.000    0.000 
#
# Total GULP energy -156278.858846 kJ/mol
# GULP energy per Si atom -5581.387816 kJ/mol
# Density = 1.929144 g / cm^3
# Si number density = 19.335445 Si / 1000 Ang^3
#
#
#
# Elastic Constant Matrix: (Units=GPa)
#
#
# Indices 1 2 3 4 5 6 
#
# 1 127.1656 28.4310 35.9492 -0.0002 -10.7584 0.0000
# 2 28.4310 46.6971 31.3869 0.0001 -7.2923 -0.0002
# 3 35.9492 31.3869 126.1865 0.0000 -28.9433 -0.0003
# 4 -0.0002 0.0001 0.0000 15.9543 -0.0005 -4.1887
# 5 -10.7584 -7.2923 -28.9433 -0.0005 31.6249 -0.0002
# 6 0.0000 -0.0002 -0.0003 -4.1887 -0.0002 27.9754
#
#
#
# Elastic Compliance Matrix: (Units=1/GPa)
#
#
# Indices 1 2 3 4 5 6 
#
# 1 0.009353 -0.004685 -0.001288 0.000000 0.000923 0.000000
# 2 -0.004685 0.028060 -0.005729 0.000000 -0.000367 0.000000
# 3 -0.001288 -0.005729 0.011788 0.000000 0.009029 0.000000
# 4 0.000000 0.000000 0.000000 0.065244 0.000001 0.009769
# 5 0.000923 -0.000367 0.009029 0.000001 0.040114 0.000001
# 6 0.000000 0.000000 0.000000 0.009769 0.000001 0.037208
#
#
# Mechanical properties :
#
#
# Convention : Reuss Voigt Hill
#
# Bulk Modulus (GPa) = 38.76250 54.62036 46.69143
# Shear Modulus (GPa) = 22.34441 28.72973 25.53707
#
# Velocity S-wave (km/s) = 3.40313 3.85886 3.63814
# Velocity P-wave (km/s) = 5.96092 6.94007 6.46905
#
# Compressibility (1/GPa) = 0.02579813
#
# Stress axis : x y z
#
# Youngs Moduli (GPa) = 106.91395 35.63739 84.83513
#
# Poissons Ratio (x) = 0.16696 0.10923
# Poissons Ratio (y) = 0.50090 0.48602
# Poissons Ratio (z) = 0.13766 0.20416
#
# Static dielectric constant tensor:
#      x y z
#    x 1.672060 0.000000 -0.003990 
#    y 0.000000 1.670990 0.000000 
#    z -0.003990 0.000000 1.735700 
# 
# From -- ./inp_files/301654.got.cif
#   From: 2010.05.17/outbox.cif.g08.bks.cpg/sg12_151_cif.got.tgz:301654.got - 2010.06.03 13:09:07.
