data_PCOD9203789
_publ_section_title
;
Structure prediction by ZEFSAII (Michael W. Deem and Ramdas Pophale) SiO2 
 PCOD9203789
Probable space group: C 2/M
;
_chemical_formula_sum "Si O2"
_cell_formula_units_Z 56
_cell_length_a 22.891893
_cell_length_b 23.046743
_cell_length_c 13.865437
_cell_angle_alpha 90.000000
_cell_angle_beta 22.711316
_cell_angle_gamma 90.000000
_cell_volume 2824.303724
_symmetry_space_group_name_H-M "C 2/M"
_symmetry_group_IT_number 12
_symmetry_cell_setting 'monoclinic'
loop_
_space_group_symop_operation_xyz
x,y,z
-x,y,-z
-x,-y,-z
x,-y,z
1/2+x,1/2+y,z
1/2-x,1/2+y,-z
1/2-x,1/2-y,-z
1/2+x,1/2-y,z
loop_
_atom_site_type_symbol
_atom_site_label
_atom_site_fract_x
_atom_site_fract_y
_atom_site_fract_z
Si Si1 0.970563 0.157285 0.779509
Si Si2 0.677439 0.228737 0.258387
Si Si3 0.248458 0.432432 0.126448
Si Si4 0.322276 0.856115 0.577136
Si Si5 0.342961 0.644240 0.684741
Si Si6 0.397241 0.068658 0.860628
Si Si7 0.621321 0.292630 0.739890
O O1 0.107921 0.161493 0.497165
O O2 0.025805 0.179962 0.798036
O O3 0.811839 0.192017 0.002090
O O4 0.916664 0.090813 0.851647
O O5 0.500000 0.221895 0.500000
O O6 0.669948 0.205649 0.380017
O O7 0.724643 0.295306 0.173282
O O8 0.237554 0.500000 0.161048
O O9 0.210080 0.398492 0.282802
O O10 0.148350 0.420828 0.182986
O O11 0.471777 0.886443 0.310147
O O12 0.202891 0.844357 0.675125
O O13 0.500000 0.634796 0.500000
O O14 0.241154 0.589276 0.862213
O O15 0.431527 0.000000 0.817841
O O16 0.750000 0.250000 0.500000
O O17 0.500000 0.265012 0.000000
#
# Coordination Sequence:
#
# PCOD9203789 Si02
#       7
#     8   8   8   8   8   8   8
#     4  11  23  42  59  97 131 172 220 269 338 392
#     4  10  22  35  62  93 131 163 211 271 338 399
#     4  10  20  39  67  95 131 166 216 275 329 386
#     4  11  22  41  64  94 131 170 226 271 331 393
#     4  11  24  37  61  95 132 174 209 272 340 410
#     4  11  24  41  67 100 134 179 222 271 335 406
#     4  12  26  44  68  96 134 182 228 276 336 404
#
# _framework density 19.827895000000002
#
# number of rings (size 3 to 8) (size 9 to 14) (size 15 to 20)
#    0.000    1.143    4.286    3.429    4.000    3.143 
#    0.000    2.143    0.000    0.857    0.000    0.000 
#    0.000    0.000    0.000    0.000    0.000    0.000 
#
# Total GULP energy -156013.284136 kJ/mol
# GULP energy per Si atom -5571.903005 kJ/mol
# Density = 1.978277 g / cm^3
# Si number density = 19.827895 Si / 1000 Ang^3
#
#
#
# Elastic Constant Matrix: (Units=GPa)
#
#
# Indices 1 2 3 4 5 6 
#
# 1 86.2863 18.5751 30.6954 0.0065 1.1046 -0.0053
# 2 18.5751 55.1622 41.7982 0.0098 -9.1829 -0.0049
# 3 30.6954 41.7982 82.4927 0.0153 6.6041 -0.0115
# 4 0.0065 0.0098 0.0153 53.3226 -0.0015 -19.9121
# 5 1.1046 -9.1829 6.6041 -0.0015 30.6571 0.0014
# 6 -0.0053 -0.0049 -0.0115 -19.9121 0.0014 39.8076
#
#
#
# Elastic Compliance Matrix: (Units=1/GPa)
#
#
# Indices 1 2 3 4 5 6 
#
# 1 0.013406 -0.001146 -0.004418 0.000000 0.000125 0.000000
# 2 -0.001146 0.034853 -0.018389 -0.000001 0.014442 -0.000002
# 3 -0.004418 -0.018389 0.023925 -0.000002 -0.010503 0.000003
# 4 0.000000 -0.000001 -0.000002 0.023061 0.000001 0.011536
# 5 0.000125 0.014442 -0.010503 0.000001 0.039203 -0.000002
# 6 0.000000 -0.000002 0.000003 0.011536 -0.000002 0.030891
#
#
# Mechanical properties :
#
#
# Convention : Reuss Voigt Hill
#
# Bulk Modulus (GPa) = 41.19076 45.11983 43.15529
# Shear Modulus (GPa) = 22.59004 33.61564 28.10284
#
# Velocity S-wave (km/s) = 3.37902 4.12196 3.76884
# Velocity P-wave (km/s) = 6.00358 6.74234 6.38366
#
# Compressibility (1/GPa) = 0.02427729
#
# Stress axis : x y z
#
# Youngs Moduli (GPa) = 74.59359 28.69230 41.79807
#
# Poissons Ratio (x) = 0.03288 0.18465
# Poissons Ratio (y) = 0.08548 0.76863
# Poissons Ratio (z) = 0.32953 0.52763
#
# Static dielectric constant tensor:
#      x y z
#    x 1.732360 0.000000 0.079030 
#    y 0.000000 1.720400 0.000000 
#    z 0.079030 0.000000 1.883140 
# 
# From -- ./inp_files/242112.got.cif
#   From: 2010.05.17/outbox.cif.g08.bks.cpg/sg12_122_cif.got.tgz:242112.got - 2010.06.03 13:09:07.
