data_PCOD9203949
_publ_section_title
;
Structure prediction by ZEFSAII (Michael W. Deem and Ramdas Pophale) SiO2 
 PCOD9203949
Probable space group: C 2/M
;
_chemical_formula_sum "Si O2"
_cell_formula_units_Z 46
_cell_length_a 21.799236
_cell_length_b 26.341294
_cell_length_c 12.835843
_cell_angle_alpha 90.000000
_cell_angle_beta 160.750590
_cell_angle_gamma 90.000000
_cell_volume 2429.945836
_symmetry_space_group_name_H-M "C 2/M"
_symmetry_group_IT_number 12
_symmetry_cell_setting 'monoclinic'
loop_
_space_group_symop_operation_xyz
x,y,z
-x,y,-z
-x,-y,-z
x,-y,z
1/2+x,1/2+y,z
1/2-x,1/2+y,-z
1/2-x,1/2-y,-z
1/2+x,1/2-y,z
loop_
_atom_site_type_symbol
_atom_site_label
_atom_site_fract_x
_atom_site_fract_y
_atom_site_fract_z
Si Si1 0.203244 0.000000 0.276552
Si Si2 0.698255 0.591353 0.873312
Si Si3 0.000000 0.768828 0.000000
Si Si4 0.275384 0.000000 0.148235
Si Si5 0.588761 0.191693 0.325467
Si Si6 0.491213 0.922609 0.158488
Si Si7 0.000000 0.500000 0.000000
Si Si8 0.129890 0.301002 0.808963
O O1 0.320331 0.952042 0.506769
O O2 0.210530 0.000000 0.163664
O O3 0.000000 0.000000 0.000000
O O4 0.500000 0.590998 0.500000
O O5 0.706306 0.550110 0.977665
O O6 0.746804 0.647891 0.990100
O O7 0.853278 0.576567 0.035799
O O8 0.189820 0.800847 0.307351
O O9 0.010808 0.732642 0.118651
O O10 0.500000 0.000000 0.500000
O O11 0.536095 0.135318 0.204360
O O12 0.493758 0.199198 0.285030
O O13 0.415338 0.955429 0.941404
O O14 0.000000 0.302843 0.500000
O O15 0.250000 0.250000 0.000000
#
# Coordination Sequence:
#
# PCOD9203949 Si02
#       8
#     4   8   4   4   8   8   2   8
#     4  11  25  40  61  95 127 166 212 270 328 396
#     4  11  24  40  66  95 125 172 222 273 326 398
#     4  10  21  40  60  90 120 176 213 256 326 388
#     4  12  21  43  67  90 126 170 214 268 331 394
#     4  10  22  39  63  89 127 165 217 267 318 391
#     4  10  22  40  61  89 130 162 219 268 327 386
#     4  10  20  40  62  84 124 170 196 270 328 384
#     4  11  23  41  64  96 132 169 217 280 333 387
#
# _framework density 18.930464000000001
#
# number of rings (size 3 to 8) (size 9 to 14) (size 15 to 20)
#    0.000    1.391    1.739    3.391    3.652    4.174 
#    0.000    1.739    0.000    0.000    0.000    0.000 
#    0.000    0.000    0.000    0.000    0.000    0.000 
#
# Total GULP energy -128263.908345 kJ/mol
# GULP energy per Si atom -5576.691667 kJ/mol
# Density = 1.888738 g / cm^3
# Si number density = 18.930464 Si / 1000 Ang^3
#
#
#
# Elastic Constant Matrix: (Units=GPa)
#
#
# Indices 1 2 3 4 5 6 
#
# 1 67.2537 27.4103 8.8302 0.0000 5.9295 0.0000
# 2 27.4103 109.7605 14.6165 0.0000 11.6176 0.0000
# 3 8.8302 14.6165 91.6468 0.0000 9.7465 0.0000
# 4 0.0000 0.0000 0.0000 26.7617 0.0000 -7.3251
# 5 5.9295 11.6176 9.7465 0.0000 28.5411 0.0000
# 6 0.0000 0.0000 0.0000 -7.3251 0.0000 30.4678
#
#
#
# Elastic Compliance Matrix: (Units=1/GPa)
#
#
# Indices 1 2 3 4 5 6 
#
# 1 0.016705 -0.003893 -0.000818 0.000000 -0.001607 0.000000
# 2 -0.003893 0.010546 -0.000972 0.000000 -0.003152 0.000000
# 3 -0.000818 -0.000972 0.011503 0.000000 -0.003363 0.000000
# 4 0.000000 0.000000 0.000000 0.039999 0.000000 0.009617
# 5 -0.001607 -0.003152 -0.003363 0.000000 0.037802 0.000000
# 6 0.000000 0.000000 0.000000 0.009617 0.000000 0.035134
#
#
# Mechanical properties :
#
#
# Convention : Reuss Voigt Hill
#
# Bulk Modulus (GPa) = 36.51083 41.15276 38.83180
# Shear Modulus (GPa) = 29.03901 31.67440 30.35670
#
# Velocity S-wave (km/s) = 3.92086 4.09491 4.00883
# Velocity P-wave (km/s) = 6.31080 6.64408 6.47958
#
# Compressibility (1/GPa) = 0.02738913
#
# Stress axis : x y z
#
# Youngs Moduli (GPa) = 59.86368 94.82374 86.93514
#
# Poissons Ratio (x) = 0.36912 0.07110
# Poissons Ratio (y) = 0.23303 0.08447
# Poissons Ratio (z) = 0.04896 0.09213
#
# Static dielectric constant tensor:
#      x y z
#    x 1.682330 0.000000 -0.076870 
#    y 0.000000 1.653450 0.000000 
#    z -0.076870 0.000000 1.748860 
# 
# From -- ./inp_files/170729.got.cif
#   From: 2010.05.17/outbox.cif.g08.bks.cpg/sg12_86_cif.got.tgz:170729.got - 2010.06.03 13:09:07.
