data_PCOD9203404
_publ_section_title
;
Structure prediction by ZEFSAII (Michael W. Deem and Ramdas Pophale) SiO2 
 PCOD9203404
Probable space group: C 2/M
;
_chemical_formula_sum "Si O2"
_cell_formula_units_Z 64
_cell_length_a 9.356086
_cell_length_b 18.803706
_cell_length_c 17.234466
_cell_angle_alpha 90.000000
_cell_angle_beta 87.526152
_cell_angle_gamma 90.000000
_cell_volume 3029.218145
_symmetry_space_group_name_H-M "C 2/M"
_symmetry_group_IT_number 12
_symmetry_cell_setting 'monoclinic'
loop_
_space_group_symop_operation_xyz
x,y,z
-x,y,-z
-x,-y,-z
x,-y,z
1/2+x,1/2+y,z
1/2-x,1/2+y,-z
1/2-x,1/2-y,-z
1/2+x,1/2-y,z
loop_
_atom_site_type_symbol
_atom_site_label
_atom_site_fract_x
_atom_site_fract_y
_atom_site_fract_z
Si Si1 0.154436 0.083363 0.526139
Si Si2 0.643267 0.696486 0.271160
Si Si3 0.579325 0.282828 0.095200
Si Si4 0.071054 0.416667 0.573855
Si Si5 0.681580 0.917819 0.185630
Si Si6 0.280190 0.661621 0.044351
Si Si7 0.681205 0.671209 0.678209
Si Si8 0.889001 0.585298 0.258401
O O1 0.262139 0.086816 0.451046
O O2 0.207978 0.128691 0.597924
O O3 0.000000 0.106580 0.500000
O O4 0.146896 0.000000 0.549828
O O5 0.611788 0.722853 0.184582
O O6 0.489541 0.682303 0.312247
O O7 0.734620 0.754491 0.316345
O O8 0.741783 0.627168 0.256290
O O9 0.413855 0.298676 0.083516
O O10 0.642444 0.212012 0.054673
O O11 0.667015 0.343992 0.045477
O O12 0.025647 0.500000 0.576617
O O13 0.044101 0.390120 0.660264
O O14 0.000000 0.382597 0.500000
O O15 0.744921 0.904916 0.098914
O O16 0.767645 0.873403 0.247842
O O17 0.512901 0.898021 0.193899
O O18 0.690156 0.000000 0.207562
O O19 0.865532 0.500000 0.261329
#
# Coordination Sequence:
#
# PCOD9203404 Si02
#       8
#     8   8   8   8   8   8   8   8
#     4  10  21  39  63  89 121 161 208 256 306 368
#     4  12  23  40  62  90 124 162 202 259 308 373
#     4  10  20  39  62  90 120 155 203 249 303 361
#     4   9  17  34  58  83 112 153 200 244 295 359
#     4  11  22  39  61  91 128 161 203 260 313 364
#     4  10  21  38  63  93 115 157 207 250 303 366
#     4  12  24  39  62  92 122 164 212 259 314 367
#     4  10  23  40  62  91 124 161 205 257 312 369
#
# _framework density 21.127565000000001
#
# number of rings (size 3 to 8) (size 9 to 14) (size 15 to 20)
#    0.000    1.500    2.500    2.625    1.750    4.000 
#    0.000    5.000    0.000    1.500    0.000    0.000 
#    0.000    0.000    0.000    0.000    0.000    0.000 
#
# Total GULP energy -178656.531643 kJ/mol
# GULP energy per Si atom -5583.016614 kJ/mol
# Density = 2.107948 g / cm^3
# Si number density = 21.127565 Si / 1000 Ang^3
#
#
#
# Elastic Constant Matrix: (Units=GPa)
#
#
# Indices 1 2 3 4 5 6 
#
# 1 96.0519 30.8950 -6.4722 0.0000 -3.5767 0.0000
# 2 30.8950 70.0499 6.8247 0.0000 -3.5584 0.0000
# 3 -6.4722 6.8247 63.7504 0.0000 -8.5369 0.0000
# 4 0.0000 0.0000 0.0000 30.3737 0.0000 3.6985
# 5 -3.5767 -3.5584 -8.5369 0.0000 22.8450 0.0000
# 6 0.0000 0.0000 0.0000 3.6985 0.0000 19.0110
#
#
#
# Elastic Compliance Matrix: (Units=1/GPa)
#
#
# Indices 1 2 3 4 5 6 
#
# 1 0.012420 -0.005589 0.002109 0.000000 0.001862 0.000000
# 2 -0.005589 0.017008 -0.002264 0.000000 0.000928 0.000000
# 3 0.002109 -0.002264 0.016990 0.000000 0.006326 0.000000
# 4 0.000000 0.000000 0.000000 0.033722 0.000000 -0.006560
# 5 0.001862 0.000928 0.006326 0.000000 0.046573 0.000000
# 6 0.000000 0.000000 0.000000 -0.006560 0.000000 0.053877
#
#
# Mechanical properties :
#
#
# Convention : Reuss Voigt Hill
#
# Bulk Modulus (GPa) = 28.62865 32.48303 30.55584
# Shear Modulus (GPa) = 24.54326 27.68624 26.11475
#
# Velocity S-wave (km/s) = 3.41203 3.62392 3.51957
# Velocity P-wave (km/s) = 5.39466 5.73746 5.56870
#
# Compressibility (1/GPa) = 0.03493005
#
# Stress axis : x y z
#
# Youngs Moduli (GPa) = 80.51514 58.79565 58.85892
#
# Poissons Ratio (x) = 0.32859 -0.12411
# Poissons Ratio (y) = 0.44997 0.13325
# Poissons Ratio (z) = -0.16977 0.13310
#
# Static dielectric constant tensor:
#      x y z
#    x 1.775170 0.000000 0.004860 
#    y 0.000000 1.765680 0.000000 
#    z 0.004860 0.000000 1.772430 
# 
# From -- ./inp_files/258096.got.cif
#   From: 2010.05.17/outbox.cif.g08.bks.cpg/sg12_130_cif.got.tgz:258096.got - 2010.06.03 13:09:07.
