data_PCOD9203017
_publ_section_title
;
Structure prediction by ZEFSAII (Michael W. Deem and Ramdas Pophale) SiO2 
 PCOD9203017
Probable space group: C 2/M
;
_chemical_formula_sum "Si O2"
_cell_formula_units_Z 56
_cell_length_a 17.482316
_cell_length_b 8.334583
_cell_length_c 21.614462
_cell_angle_alpha 90.000000
_cell_angle_beta 129.588611
_cell_angle_gamma 90.000000
_cell_volume 2427.050321
_symmetry_space_group_name_H-M "C 2/M"
_symmetry_group_IT_number 12
_symmetry_cell_setting 'monoclinic'
loop_
_space_group_symop_operation_xyz
x,y,z
-x,y,-z
-x,-y,-z
x,-y,z
1/2+x,1/2+y,z
1/2-x,1/2+y,-z
1/2-x,1/2-y,-z
1/2+x,1/2-y,z
loop_
_atom_site_type_symbol
_atom_site_label
_atom_site_fract_x
_atom_site_fract_y
_atom_site_fract_z
Si Si1 0.109510 0.182825 0.162552
Si Si2 0.749910 0.321849 0.125014
Si Si3 0.587733 0.816019 0.371920
Si Si4 0.556678 0.814981 0.594129
Si Si5 0.770010 0.192690 0.655411
Si Si6 0.083257 0.315343 0.952028
Si Si7 0.555292 0.318937 0.799616
O O1 0.205866 0.176321 0.170277
O O2 0.145918 0.230143 0.249446
O O3 0.031115 0.294657 0.087089
O O4 0.069438 0.000000 0.142141
O O5 0.790179 0.500000 0.131250
O O6 0.833211 0.189299 0.166962
O O7 0.662477 0.283109 0.031861
O O8 0.522843 0.745452 0.396507
O O9 0.687802 0.747239 0.390064
O O10 0.508450 0.797665 0.275740
O O11 0.609958 0.000000 0.399516
O O12 0.500000 0.820127 0.500000
O O13 0.665262 0.745572 0.630422
O O14 0.575227 0.000000 0.625277
O O15 0.760230 0.000000 0.647158
O O16 0.112799 0.500000 0.965911
O O17 0.070058 0.241492 0.876919
O O18 0.515607 0.500000 0.774434
#
# Coordination Sequence:
#
# PCOD9203017 Si02
#       7
#     8   8   8   8   8   8   8
#     4  10  21  38  59  83 116 160 206 252 307 375
#     4  11  23  39  59  84 117 160 206 256 315 375
#     4  11  22  39  65  96 126 165 212 263 315 374
#     4   9  20  40  66  97 133 171 209 247 302 382
#     4  10  20  38  65  93 125 169 212 256 309 373
#     4  12  24  38  57  84 118 157 204 260 314 369
#     4  12  24  40  60  84 117 158 206 259 313 373
#
# _framework density 23.073274000000001
#
# number of rings (size 3 to 8) (size 9 to 14) (size 15 to 20)
#    0.000    1.286    1.429    5.143    0.000    5.714 
#    0.000    2.857    0.000    3.000    0.000    0.000 
#    0.000    0.000    0.000    0.000    0.000    0.000 
#
# Total GULP energy -156177.563806 kJ/mol
# GULP energy per Si atom -5577.770136 kJ/mol
# Density = 2.302076 g / cm^3
# Si number density = 23.073274 Si / 1000 Ang^3
#
#
#
# Elastic Constant Matrix: (Units=GPa)
#
#
# Indices 1 2 3 4 5 6 
#
# 1 127.8203 12.0840 21.2903 0.0000 -16.3994 0.0000
# 2 12.0840 51.3884 -2.1102 0.0000 -2.1614 0.0000
# 3 21.2903 -2.1102 62.7655 0.0000 -8.0052 0.0000
# 4 0.0000 0.0000 0.0000 11.3398 0.0000 -6.0422
# 5 -16.3994 -2.1614 -8.0052 0.0000 41.1822 0.0000
# 6 0.0000 0.0000 0.0000 -6.0422 0.0000 14.3444
#
#
#
# Elastic Compliance Matrix: (Units=1/GPa)
#
#
# Indices 1 2 3 4 5 6 
#
# 1 0.008839 -0.002068 -0.002700 0.000000 0.002887 0.000000
# 2 -0.002068 0.020026 0.001439 0.000000 0.000507 0.000000
# 3 -0.002700 0.001439 0.017195 0.000000 0.002343 0.000000
# 4 0.000000 0.000000 0.000000 0.113705 0.000000 0.047896
# 5 0.002887 0.000507 0.002343 0.000000 0.025914 0.000000
# 6 0.000000 0.000000 0.000000 0.047896 0.000000 0.089889
#
#
# Mechanical properties :
#
#
# Convention : Reuss Voigt Hill
#
# Bulk Modulus (GPa) = 25.37781 33.83359 29.60570
# Shear Modulus (GPa) = 16.92852 27.42063 22.17458
#
# Velocity S-wave (km/s) = 2.71160 3.45108 3.10344
# Velocity P-wave (km/s) = 4.56359 5.52949 5.06960
#
# Compressibility (1/GPa) = 0.03940450
#
# Stress axis : x y z
#
# Youngs Moduli (GPa) = 113.13526 49.93417 58.15560
#
# Poissons Ratio (x) = 0.10326 0.15700
# Poissons Ratio (y) = 0.23396 -0.08371
# Poissons Ratio (z) = 0.30542 -0.07188
#
# Static dielectric constant tensor:
#      x y z
#    x 2.106070 0.000000 -0.007020 
#    y 0.000000 1.915470 0.000000 
#    z -0.007020 0.000000 1.805610 
# 
# From -- ./inp_files/314417.got.cif
#   From: 2010.05.17/outbox.cif.g08.bks.cpg/sg12_158_cif.got.tgz:314417.got - 2010.06.03 13:09:07.
