data_PCOD9203243
_publ_section_title
;
Structure prediction by ZEFSAII (Michael W. Deem and Ramdas Pophale) SiO2 
 PCOD9203243
Probable space group: C 2/M
;
_chemical_formula_sum "Si O2"
_cell_formula_units_Z 52
_cell_length_a 22.872852
_cell_length_b 14.982987
_cell_length_c 8.253050
_cell_angle_alpha 90.000000
_cell_angle_beta 99.228640
_cell_angle_gamma 90.000000
_cell_volume 2791.740775
_symmetry_space_group_name_H-M "C 2/M"
_symmetry_group_IT_number 12
_symmetry_cell_setting 'monoclinic'
loop_
_space_group_symop_operation_xyz
x,y,z
-x,y,-z
-x,-y,-z
x,-y,z
1/2+x,1/2+y,z
1/2-x,1/2+y,-z
1/2-x,1/2-y,-z
1/2+x,1/2-y,z
loop_
_atom_site_type_symbol
_atom_site_label
_atom_site_fract_x
_atom_site_fract_y
_atom_site_fract_z
Si Si1 0.216388 0.500000 0.812406
Si Si2 0.365381 0.320387 0.636984
Si Si3 0.297118 0.500000 0.547518
Si Si4 0.216126 0.699890 0.210084
Si Si5 0.445122 0.728822 0.373231
Si Si6 0.831844 0.301925 0.163221
Si Si7 0.747568 0.500000 0.817273
Si Si8 0.976827 0.898757 0.809147
O O1 0.239180 0.500000 0.637262
O O2 0.182204 0.406811 0.821248
O O3 0.262498 0.500000 0.990603
O O4 0.327669 0.409424 0.615063
O O5 0.323383 0.238733 0.663971
O O6 0.400483 0.308914 0.486928
O O7 0.417876 0.339216 0.786294
O O8 0.298838 0.500000 0.351849
O O9 0.281657 0.744584 0.238895
O O10 0.219904 0.593149 0.206578
O O11 0.183504 0.726021 0.027899
O O12 0.500000 0.772641 0.500000
O O13 0.399819 0.784257 0.241456
O O14 0.476158 0.650779 0.284456
O O15 0.964457 0.000000 0.744401
O O16 0.000000 0.904388 0.000000
#
# Coordination Sequence:
#
# PCOD9203243 Si02
#       8
#     4   8   4   8   8   8   4   8
#     4  10  22  40  61  87 123 155 204 241 308 358
#     4  11  22  36  57  88 120 155 196 243 301 360
#     4  12  22  36  58  89 125 157 193 246 304 362
#     4  10  21  38  60  87 120 153 201 242 307 357
#     4  10  23  37  57  83 120 157 200 240 297 352
#     4  10  20  39  60  85 118 158 196 253 293 357
#     4  10  24  38  54  88 124 161 196 238 297 372
#     4  10  21  39  58  82 114 158 202 241 292 355
#
# _framework density 18.626370000000001
#
# number of rings (size 3 to 8) (size 9 to 14) (size 15 to 20)
#    0.000    1.692    2.308    1.846    3.231    2.154 
#    4.154    0.385    0.000    2.769    0.000   14.000 
#    0.000    0.000    0.000    0.000    0.000    0.000 
#
# Total GULP energy -144765.569202 kJ/mol
# GULP energy per Si atom -5567.906508 kJ/mol
# Density = 1.858398 g / cm^3
# Si number density = 18.626370 Si / 1000 Ang^3
#
#
#
# Elastic Constant Matrix: (Units=GPa)
#
#
# Indices 1 2 3 4 5 6 
#
# 1 84.7144 35.5348 23.1262 0.0000 2.4401 0.0000
# 2 35.5348 96.6161 8.3853 0.0000 -5.4331 0.0000
# 3 23.1262 8.3853 46.7522 0.0000 9.1111 0.0000
# 4 0.0000 0.0000 0.0000 -12.2176 0.0000 2.3390
# 5 2.4401 -5.4331 9.1111 0.0000 30.6594 0.0000
# 6 0.0000 0.0000 0.0000 2.3390 0.0000 23.9855
#
#
#
# Elastic Compliance Matrix: (Units=1/GPa)
#
#
# Indices 1 2 3 4 5 6 
#
# 1 0.015895 -0.005256 -0.006891 0.000000 -0.000149 0.000000
# 2 -0.005256 0.012447 -0.000153 0.000000 0.002669 0.000000
# 3 -0.006891 -0.000153 0.026243 0.000000 -0.007277 0.000000
# 4 0.000000 0.000000 0.000000 -0.080349 0.000000 0.007835
# 5 -0.000149 0.002669 -0.007277 0.000000 0.035264 0.000000
# 6 0.000000 0.000000 0.000000 0.007835 0.000000 0.040928
#
#
# Mechanical properties :
#
#
# Convention : Reuss Voigt Hill
#
# Bulk Modulus (GPa) = 33.34896 40.24172 36.79534
# Shear Modulus (GPa) = 58.80863 19.22121 39.01492
#
# Velocity S-wave (km/s) = 5.62506 3.21586 4.58165
# Velocity P-wave (km/s) = 7.75445 5.95320 6.91274
#
# Compressibility (1/GPa) = 0.02998594
#
# Stress axis : x y z
#
# Youngs Moduli (GPa) = 62.91475 80.34188 38.10476
#
# Poissons Ratio (x) = 0.42230 0.26256
# Poissons Ratio (y) = 0.33070 0.00581
# Poissons Ratio (z) = 0.43352 0.01226
#
# Static dielectric constant tensor:
#      x y z
#    x 1.643160 0.000000 0.038830 
#    y 0.000000 1.622650 0.000000 
#    z 0.038830 0.000000 1.726250 
# 
# From -- ./inp_files/85867.got.cif
#   From: 2010.05.17/outbox.cif.g08.bks.cpg/sg12_43_cif.got.tgz:85867.got - 2010.06.03 13:09:07.
