data_PCOD9203482
_publ_section_title
;
Structure prediction by ZEFSAII (Michael W. Deem and Ramdas Pophale) SiO2 
 PCOD9203482
Probable space group: C 2/M
;
_chemical_formula_sum "Si O2"
_cell_formula_units_Z 44
_cell_length_a 7.610153
_cell_length_b 19.812503
_cell_length_c 15.265863
_cell_angle_alpha 90.000000
_cell_angle_beta 127.450876
_cell_angle_gamma 90.000000
_cell_volume 1827.284676
_symmetry_space_group_name_H-M "C 2/M"
_symmetry_group_IT_number 12
_symmetry_cell_setting 'monoclinic'
loop_
_space_group_symop_operation_xyz
x,y,z
-x,y,-z
-x,-y,-z
x,-y,z
1/2+x,1/2+y,z
1/2-x,1/2+y,-z
1/2-x,1/2-y,-z
1/2+x,1/2-y,z
loop_
_atom_site_type_symbol
_atom_site_label
_atom_site_fract_x
_atom_site_fract_y
_atom_site_fract_z
Si Si1 0.326984 0.869044 0.675494
Si Si2 0.308510 0.500000 0.680207
Si Si3 0.000000 0.875795 0.000000
Si Si4 0.213598 0.728320 0.586993
Si Si5 0.020421 0.421787 0.907573
Si Si6 0.837249 0.142184 0.770269
Si Si7 0.777314 0.500000 0.546891
O O1 0.186096 0.801155 0.624700
O O2 0.368038 0.887504 0.788682
O O3 0.574207 0.853303 0.712243
O O4 0.239046 0.932678 0.593223
O O5 0.392439 0.566273 0.756471
O O6 0.338976 0.500000 0.584022
O O7 0.042354 0.500000 0.611432
O O8 0.226859 0.916395 0.051195
O O9 0.041063 0.837577 0.103721
O O10 0.250000 0.750000 0.500000
O O11 0.375918 0.688823 0.698533
O O12 0.000000 0.681620 0.500000
O O13 0.956420 0.500000 0.891168
O O14 0.000000 0.394119 0.000000
#
# Coordination Sequence:
#
# PCOD9203482 Si02
#       7
#     8   4   4   8   8   8   4
#     4  10  20  39  63  89 127 169 207 264 326 383
#     4   9  18  29  60  90 121 153 210 270 300 378
#     4  10  23  40  68  96 130 167 224 274 316 395
#     4  12  24  41  63  89 128 169 211 258 321 393
#     4  10  21  39  65  97 132 170 214 269 331 388
#     4  10  22  39  61  98 122 167 216 262 324 379
#     4   9  16  32  58  88 118 159 208 254 320 371
#
# _framework density 24.079446000000001
#
# number of rings (size 3 to 8) (size 9 to 14) (size 15 to 20)
#    0.000    1.818    2.727    1.364    7.636    1.455 
#    1.636    2.273    0.000    0.000    0.000    0.000 
#    0.000    0.000    0.000    0.000    0.000    0.000 
#
# Total GULP energy -122833.962008 kJ/mol
# GULP energy per Si atom -5583.361909 kJ/mol
# Density = 2.402464 g / cm^3
# Si number density = 24.079446 Si / 1000 Ang^3
#
#
#
# Elastic Constant Matrix: (Units=GPa)
#
#
# Indices 1 2 3 4 5 6 
#
# 1 75.7097 13.0024 42.9201 0.0000 -17.1973 0.0000
# 2 13.0024 94.9343 57.9130 0.0000 -15.6169 0.0000
# 3 42.9201 57.9130 226.9342 0.0000 -52.1461 0.0000
# 4 0.0000 0.0000 0.0000 36.0210 0.0000 -14.3372
# 5 -17.1973 -15.6169 -52.1461 0.0000 50.0462 0.0000
# 6 0.0000 0.0000 0.0000 -14.3372 0.0000 21.6456
#
#
#
# Elastic Compliance Matrix: (Units=1/GPa)
#
#
# Indices 1 2 3 4 5 6 
#
# 1 0.015118 -0.000303 -0.002117 0.000000 0.002895 0.000000
# 2 -0.000303 0.012504 -0.002973 0.000000 0.000700 0.000000
# 3 -0.002117 -0.002973 0.006818 0.000000 0.005449 0.000000
# 4 0.000000 0.000000 0.000000 0.037701 0.000000 0.024972
# 5 0.002895 0.000700 0.005449 0.000000 0.026872 0.000000
# 6 0.000000 0.000000 0.000000 0.024972 0.000000 0.062739
#
#
# Mechanical properties :
#
#
# Convention : Reuss Voigt Hill
#
# Bulk Modulus (GPa) = 42.27584 69.47213 55.87399
# Shear Modulus (GPa) = 27.71302 40.45876 34.08589
#
# Velocity S-wave (km/s) = 3.39617 4.10350 3.76647
# Velocity P-wave (km/s) = 5.74226 7.16697 6.49380
#
# Compressibility (1/GPa) = 0.02365417
#
# Stress axis : x y z
#
# Youngs Moduli (GPa) = 66.14658 79.97608 146.68079
#
# Poissons Ratio (x) = 0.02424 0.31048
# Poissons Ratio (y) = 0.02005 0.43604
# Poissons Ratio (z) = 0.14001 0.23774
#
# Static dielectric constant tensor:
#      x y z
#    x 2.143300 0.000000 0.045050 
#    y 0.000000 1.878490 0.000000 
#    z 0.045050 0.000000 1.880410 
# 
# From -- ./inp_files/198648.got.cif
#   From: 2010.05.17/outbox.cif.g08.bks.cpg/sg12_100_cif.got.tgz:198648.got - 2010.06.03 13:09:07.
