data_PCOD9203890
_publ_section_title
;
Structure prediction by ZEFSAII (Michael W. Deem and Ramdas Pophale) SiO2 
 PCOD9203890
Probable space group: C 2/M
;
_chemical_formula_sum "Si O2"
_cell_formula_units_Z 56
_cell_length_a 13.741369
_cell_length_b 24.928864
_cell_length_c 9.446016
_cell_angle_alpha 90.000000
_cell_angle_beta 128.240394
_cell_angle_gamma 90.000000
_cell_volume 2541.461403
_symmetry_space_group_name_H-M "C 2/M"
_symmetry_group_IT_number 12
_symmetry_cell_setting 'monoclinic'
loop_
_space_group_symop_operation_xyz
x,y,z
-x,y,-z
-x,-y,-z
x,-y,z
1/2+x,1/2+y,z
1/2-x,1/2+y,-z
1/2-x,1/2-y,-z
1/2+x,1/2-y,z
loop_
_atom_site_type_symbol
_atom_site_label
_atom_site_fract_x
_atom_site_fract_y
_atom_site_fract_z
Si Si1 0.235553 0.936971 0.046913
Si Si2 0.572642 0.831300 0.205434
Si Si3 0.388927 0.251545 0.196833
Si Si4 0.752259 0.243009 0.669170
Si Si5 0.025655 0.873486 0.689752
Si Si6 0.986532 0.441546 0.817790
Si Si7 0.369850 0.371844 0.802448
O O1 0.139609 0.909258 0.850593
O O2 0.205754 0.000000 0.033023
O O3 0.375353 0.931824 0.117300
O O4 0.221504 0.907387 0.185460
O O5 0.486180 0.789595 0.214110
O O6 0.688875 0.800392 0.244837
O O7 0.592417 0.888751 0.295437
O O8 0.500000 0.845020 0.000000
O O9 0.366354 0.237385 0.340534
O O10 0.440691 0.311883 0.239255
O O11 0.250000 0.250000 0.000000
O O12 0.750000 0.250000 0.500000
O O13 0.830975 0.190296 0.772802
O O14 0.000000 0.878044 0.500000
O O15 0.903141 0.887130 0.671755
O O16 0.941314 0.500000 0.725482
O O17 0.000000 0.446635 0.000000
O O18 0.500000 0.377562 0.000000
#
# Coordination Sequence:
#
# PCOD9203890 Si02
#       7
#     8   8   8   8   8   8   8
#     4  10  22  40  66  90 113 160 213 250 297 361
#     4  11  21  36  59  89 115 160 203 240 299 364
#     4  12  22  36  59  83 117 163 203 241 295 363
#     4  12  24  36  56  89 127 156 196 247 305 363
#     4  11  23  37  57  89 130 156 190 257 321 366
#     4   9  19  37  59  89 118 147 202 260 290 340
#     4  10  20  40  60  83 122 159 205 249 293 361
#
# _framework density 22.034566999999999
#
# number of rings (size 3 to 8) (size 9 to 14) (size 15 to 20)
#    0.000    1.286    2.857    4.714    2.000    2.857 
#    0.000    0.000    0.000    0.857    0.000    3.000 
#    0.000    0.000    0.000    0.000    0.000    0.000 
#
# Total GULP energy -156281.866270 kJ/mol
# GULP energy per Si atom -5581.495224 kJ/mol
# Density = 2.198442 g / cm^3
# Si number density = 22.034567 Si / 1000 Ang^3
#
#
#
# Elastic Constant Matrix: (Units=GPa)
#
#
# Indices 1 2 3 4 5 6 
#
# 1 133.8577 37.7307 29.2916 0.0000 -36.0834 0.0000
# 2 37.7307 151.2886 17.3387 0.0000 -13.8478 0.0000
# 3 29.2916 17.3387 63.9964 0.0000 -26.6719 0.0000
# 4 0.0000 0.0000 0.0000 23.9463 0.0000 -14.3270
# 5 -36.0834 -13.8478 -26.6719 0.0000 35.2643 0.0000
# 6 0.0000 0.0000 0.0000 -14.3270 0.0000 20.1060
#
#
#
# Elastic Compliance Matrix: (Units=1/GPa)
#
#
# Indices 1 2 3 4 5 6 
#
# 1 0.010740 -0.001725 -0.000220 0.000000 0.010146 0.000000
# 2 -0.001725 0.007184 -0.001047 0.000000 0.000265 0.000000
# 3 -0.000220 -0.001047 0.022993 0.000000 0.016754 0.000000
# 4 0.000000 0.000000 0.000000 0.072794 0.000000 0.051871
# 5 0.010146 0.000265 0.016754 0.000000 0.051515 0.000000
# 6 0.000000 0.000000 0.000000 0.051871 0.000000 0.086699
#
#
# Mechanical properties :
#
#
# Convention : Reuss Voigt Hill
#
# Bulk Modulus (GPa) = 28.62522 57.54055 43.08288
# Shear Modulus (GPa) = 18.54930 33.51542 26.03236
#
# Velocity S-wave (km/s) = 2.90457 3.90428 3.44093
# Velocity P-wave (km/s) = 4.92625 6.81872 5.94823
#
# Compressibility (1/GPa) = 0.03493423
#
# Stress axis : x y z
#
# Youngs Moduli (GPa) = 93.11170 139.19458 43.49163
#
# Poissons Ratio (x) = 0.24005 0.00957
# Poissons Ratio (y) = 0.16058 0.04552
# Poissons Ratio (z) = 0.02049 0.14570
#
# Static dielectric constant tensor:
#      x y z
#    x 1.857760 0.000000 0.057930 
#    y 0.000000 0.903720 0.000000 
#    z 0.057930 0.000000 1.964410 
# 
# From -- ./inp_files/65979.got.cif
#   From: 2010.05.17/outbox.cif.g08.bks.cpg/sg12_33_cif.got.tgz:65979.got - 2010.06.03 13:09:07.
