data_PCOD9203337
_publ_section_title
;
Structure prediction by ZEFSAII (Michael W. Deem and Ramdas Pophale) SiO2 
 PCOD9203337
Probable space group: C 2/M
;
_chemical_formula_sum "Si O2"
_cell_formula_units_Z 56
_cell_length_a 19.164432
_cell_length_b 16.222757
_cell_length_c 12.374876
_cell_angle_alpha 90.000000
_cell_angle_beta 127.219594
_cell_angle_gamma 90.000000
_cell_volume 3063.732128
_symmetry_space_group_name_H-M "C 2/M"
_symmetry_group_IT_number 12
_symmetry_cell_setting 'monoclinic'
loop_
_space_group_symop_operation_xyz
x,y,z
-x,y,-z
-x,-y,-z
x,-y,z
1/2+x,1/2+y,z
1/2-x,1/2+y,-z
1/2-x,1/2-y,-z
1/2+x,1/2-y,z
loop_
_atom_site_type_symbol
_atom_site_label
_atom_site_fract_x
_atom_site_fract_y
_atom_site_fract_z
Si Si1 0.994949 0.403439 0.763284
Si Si2 0.159997 0.328091 0.034515
Si Si3 0.159679 0.165231 0.912936
Si Si4 0.316183 0.166003 0.690887
Si Si5 0.904062 0.000000 0.042005
Si Si6 0.012622 0.757008 0.639158
Si Si7 0.887945 0.000000 0.783959
Si Si8 0.350816 0.339512 0.610988
O O1 0.002723 0.500000 0.742466
O O2 0.899753 0.384754 0.725292
O O3 0.004947 0.336857 0.675823
O O4 0.072575 0.377003 0.918680
O O5 0.240584 0.348175 0.030171
O O6 0.185286 0.342277 0.181781
O O7 0.147158 0.230880 0.998196
O O8 0.105455 0.206013 0.764037
O O9 0.120890 0.079970 0.914465
O O10 0.329536 0.261015 0.666835
O O11 0.226211 0.143045 0.547035
O O12 0.007243 0.000000 0.120581
O O13 0.859236 0.000000 0.881968
O O14 0.000000 0.760149 0.500000
O O15 0.938461 0.811697 0.629746
O O16 0.859745 0.918693 0.694179
#
# Coordination Sequence:
#
# PCOD9203337 Si02
#       8
#     8   8   8   8   4   8   4   8
#     4  10  23  39  57  85 115 149 203 248 279 343
#     4  10  21  38  61  82 115 157 194 242 292 336
#     4  10  21  38  59  88 118 148 197 237 283 353
#     4  10  21  38  61  82 115 157 194 242 292 336
#     4  11  22  38  62  89 120 153 187 236 290 339
#     4  10  20  39  62  83 115 153 187 236 299 351
#     4  11  22  38  62  89 120 153 187 236 290 339
#     4  10  21  38  59  88 118 148 197 237 283 353
#
# _framework density 18.278359999999999
#
# number of rings (size 3 to 8) (size 9 to 14) (size 15 to 20)
#    0.000    1.857    1.429    2.143    2.000    1.429 
#    0.000    4.286    0.000    0.000    0.000    0.000 
#    0.000    0.000    0.000    0.000    0.000    0.000 
#
# Total GULP energy -156271.258322 kJ/mol
# GULP energy per Si atom -5581.116369 kJ/mol
# Density = 1.823676 g / cm^3
# Si number density = 18.278360 Si / 1000 Ang^3
#
#
#
# Elastic Constant Matrix: (Units=GPa)
#
#
# Indices 1 2 3 4 5 6 
#
# 1 23.2050 12.6438 5.7572 0.0000 14.5582 0.0000
# 2 12.6438 102.0916 28.4679 0.0000 -3.7452 0.0000
# 3 5.7572 28.4679 99.6836 0.0000 -0.8055 0.0000
# 4 0.0000 0.0000 0.0000 17.4517 0.0000 -1.9751
# 5 14.5582 -3.7452 -0.8055 0.0000 37.5519 0.0000
# 6 0.0000 0.0000 0.0000 -1.9751 0.0000 -11.7234
#
#
#
# Elastic Compliance Matrix: (Units=1/GPa)
#
#
# Indices 1 2 3 4 5 6 
#
# 1 0.064276 -0.008490 -0.001496 0.000000 -0.025797 0.000000
# 2 -0.008490 0.011801 -0.002844 0.000000 0.004407 0.000000
# 3 -0.001496 -0.002844 0.010935 0.000000 0.000531 0.000000
# 4 0.000000 0.000000 0.000000 0.056229 0.000000 -0.009473
# 5 -0.025797 0.004407 0.000531 0.000000 0.037082 0.000000
# 6 0.000000 0.000000 0.000000 -0.009473 0.000000 -0.083703
#
#
# Mechanical properties :
#
#
# Convention : Reuss Voigt Hill
#
# Bulk Modulus (GPa) = 16.29951 35.41310 25.85631
# Shear Modulus (GPa) = 35.03126 20.53013 27.78070
#
# Velocity S-wave (km/s) = 4.38258 3.35504 3.90278
# Velocity P-wave (km/s) = 5.87760 5.86727 5.87243
#
# Compressibility (1/GPa) = 0.06135152
#
# Stress axis : x y z
#
# Youngs Moduli (GPa) = 15.55800 84.73615 91.45167
#
# Poissons Ratio (x) = 0.71937 0.13683
# Poissons Ratio (y) = 0.13208 0.26012
# Poissons Ratio (z) = 0.02328 0.24102
#
# Static dielectric constant tensor:
#      x y z
#    x 1.614040 0.000000 0.020040 
#    y 0.000000 1.609630 0.000000 
#    z 0.020040 0.000000 1.618930 
# 
# From -- ./inp_files/156785.got.cif
#   From: 2010.05.17/outbox.cif.g08.bks.cpg/sg12_79_cif.got.tgz:156785.got - 2010.06.03 13:09:07.
