data_PCOD9203727
_publ_section_title
;
Structure prediction by ZEFSAII (Michael W. Deem and Ramdas Pophale) SiO2 
 PCOD9203727
Probable space group: C 2/M
;
_chemical_formula_sum "Si O2"
_cell_formula_units_Z 58
_cell_length_a 14.311509
_cell_length_b 16.165584
_cell_length_c 11.691970
_cell_angle_alpha 90.000000
_cell_angle_beta 111.731986
_cell_angle_gamma 90.000000
_cell_volume 2512.728948
_symmetry_space_group_name_H-M "C 2/M"
_symmetry_group_IT_number 12
_symmetry_cell_setting 'monoclinic'
loop_
_space_group_symop_operation_xyz
x,y,z
-x,y,-z
-x,-y,-z
x,-y,z
1/2+x,1/2+y,z
1/2-x,1/2+y,-z
1/2-x,1/2-y,-z
1/2+x,1/2-y,z
loop_
_atom_site_type_symbol
_atom_site_label
_atom_site_fract_x
_atom_site_fract_y
_atom_site_fract_z
Si Si1 0.578235 0.088430 0.863846
Si Si2 0.361969 0.242627 0.007893
Si Si3 0.426655 0.273085 0.784843
Si Si4 0.500000 0.500000 0.500000
Si Si5 0.852853 0.138083 0.360278
Si Si6 0.351837 0.905664 0.732349
Si Si7 0.400382 0.168123 0.378573
Si Si8 0.301303 0.401477 0.597202
O O1 0.621466 0.145385 0.979956
O O2 0.460510 0.082380 0.836959
O O3 0.589746 0.127286 0.742003
O O4 0.627622 0.000000 0.883337
O O5 0.454029 0.272780 0.132029
O O6 0.250000 0.250000 0.000000
O O7 0.376983 0.275994 0.888114
O O8 0.381107 0.190147 0.702132
O O9 0.389259 0.351704 0.699579
O O10 0.442755 0.573126 0.398895
O O11 0.752460 0.109962 0.248432
O O12 0.883663 0.232959 0.358834
O O13 0.807862 0.125413 0.468462
O O14 0.339725 0.000000 0.669240
O O15 0.500000 0.153626 0.500000
O O16 0.304215 0.127404 0.397033
O O17 0.316066 0.500000 0.610053
#
# Coordination Sequence:
#
# PCOD9203727 Si02
#       8
#     8   8   8   2   8   8   8   8
#     4  10  23  42  67  99 130 164 214 269 324 392
#     4  10  22  42  66  92 125 166 211 274 333 390
#     4  10  23  41  65  98 124 165 225 268 331 396
#     4  12  24  40  60  92 132 180 224 264 316 388
#     4  12  24  41  60  92 136 174 215 266 319 385
#     4  10  20  39  66  93 128 169 210 262 322 384
#     4  12  25  37  65  99 133 175 216 263 320 386
#     4  12  25  43  65  92 134 180 219 270 325 386
#
# _framework density 23.082474999999999
#
# number of rings (size 3 to 8) (size 9 to 14) (size 15 to 20)
#    0.000    1.103    3.448    2.483    3.862    2.759 
#    0.000    4.828    0.000    0.000    1.793    0.000 
#    0.000    0.000    0.000    0.000    0.000    0.000 
#
# Total GULP energy -161519.002394 kJ/mol
# GULP energy per Si atom -5569.620772 kJ/mol
# Density = 2.302994 g / cm^3
# Si number density = 23.082475 Si / 1000 Ang^3
#
#
#
# Elastic Constant Matrix: (Units=GPa)
#
#
# Indices 1 2 3 4 5 6 
#
# 1 109.8625 7.9377 37.0724 0.0000 19.2206 0.0000
# 2 7.9377 124.5597 32.6910 0.0000 31.5746 0.0000
# 3 37.0724 32.6910 93.8198 0.0000 13.7534 0.0000
# 4 0.0000 0.0000 0.0000 4.2241 0.0000 9.5671
# 5 19.2206 31.5746 13.7534 0.0000 35.5481 0.0000
# 6 0.0000 0.0000 0.0000 9.5671 0.0000 18.8123
#
#
#
# Elastic Compliance Matrix: (Units=1/GPa)
#
#
# Indices 1 2 3 4 5 6 
#
# 1 0.011526 0.002008 -0.004324 0.000000 -0.006343 0.000000
# 2 0.002008 0.011246 -0.003274 0.000000 -0.009808 0.000000
# 3 -0.004324 -0.003274 0.013505 0.000000 0.000021 0.000000
# 4 0.000000 0.000000 0.000000 -1.559116 0.000000 0.792902
# 5 -0.006343 -0.009808 0.000021 0.000000 0.040264 0.000000
# 6 0.000000 0.000000 0.000000 0.792902 0.000000 -0.350080
#
#
# Mechanical properties :
#
#
# Convention : Reuss Voigt Hill
#
# Bulk Modulus (GPa) = 39.84664 53.73826 46.79245
# Shear Modulus (GPa) = -2.75769 28.41961 12.83096
#
# Velocity S-wave (km/s) = -1.09422 3.51268 2.36026
# Velocity P-wave (km/s) = 3.96280 6.30741 5.26722
#
# Compressibility (1/GPa) = 0.02509622
#
# Stress axis : x y z
#
# Youngs Moduli (GPa) = 86.75949 88.92178 74.04494
#
# Poissons Ratio (x) = -0.17858 0.32020
# Poissons Ratio (y) = -0.17424 0.24245
# Poissons Ratio (z) = 0.37519 0.29116
#
# Static dielectric constant tensor:
#      x y z
#    x 1.878690 0.000000 0.055230 
#    y 0.000000 2.058190 0.000000 
#    z 0.055230 0.000000 2.015250 
# 
# From -- ./inp_files/215223.got.cif
#   From: 2010.05.17/outbox.cif.g08.bks.cpg/sg12_108_cif.got.tgz:215223.got - 2010.06.03 13:09:07.
