data_PCOD9203697
_publ_section_title
;
Structure prediction by ZEFSAII (Michael W. Deem and Ramdas Pophale) SiO2 
 PCOD9203697
Probable space group: C 2/M
;
_chemical_formula_sum "Si O2"
_cell_formula_units_Z 44
_cell_length_a 17.712977
_cell_length_b 12.681419
_cell_length_c 11.321438
_cell_angle_alpha 90.000000
_cell_angle_beta 58.662083
_cell_angle_gamma 90.000000
_cell_volume 2172.087267
_symmetry_space_group_name_H-M "C 2/M"
_symmetry_group_IT_number 12
_symmetry_cell_setting 'monoclinic'
loop_
_space_group_symop_operation_xyz
x,y,z
-x,y,-z
-x,-y,-z
x,-y,z
1/2+x,1/2+y,z
1/2-x,1/2+y,-z
1/2-x,1/2-y,-z
1/2+x,1/2-y,z
loop_
_atom_site_type_symbol
_atom_site_label
_atom_site_fract_x
_atom_site_fract_y
_atom_site_fract_z
Si Si1 0.338369 0.379142 0.389560
Si Si2 0.893291 0.500000 0.090128
Si Si3 0.315230 0.772810 0.838604
Si Si4 0.782827 0.680432 0.295479
Si Si5 0.841162 0.500000 0.863143
Si Si6 0.983152 0.267360 0.373646
Si Si7 0.466544 0.000000 0.391908
O O1 0.346777 0.500000 0.346176
O O2 0.264953 0.369152 0.552223
O O3 0.315025 0.296467 0.306251
O O4 0.425935 0.329471 0.375956
O O5 0.858741 0.603540 0.186290
O O6 0.841518 0.500000 0.005548
O O7 0.000000 0.500000 0.000000
O O8 0.286933 0.700656 0.752686
O O9 0.421328 0.764571 0.768400
O O10 0.302652 0.897639 0.831774
O O11 0.250000 0.750000 0.000000
O O12 0.945380 0.500000 0.755884
O O13 0.931324 0.380730 0.399314
O O14 0.000000 0.260304 0.500000
O O15 0.500000 0.000000 0.500000
#
# Coordination Sequence:
#
# PCOD9203697 Si02
#       7
#     8   4   8   8   4   8   4
#     4  11  25  45  64  97 134 178 221 272 344 401
#     4  12  26  44  70  96 133 176 224 277 337 407
#     4  11  22  41  65  97 131 169 220 273 333 392
#     4  11  25  44  66  95 136 172 223 281 333 394
#     4  10  22  38  64  95 124 175 214 266 331 392
#     4  10  20  39  65  96 128 169 218 270 326 392
#     4   8  18  34  58  98 123 149 213 270 316 371
#
# _framework density 20.257014000000002
#
# number of rings (size 3 to 8) (size 9 to 14) (size 15 to 20)
#    0.000    1.455    4.545    0.000    6.364    0.364 
#    4.909    0.000    0.000    1.636    0.000    0.000 
#    0.000    0.000    0.000    0.000    0.000    0.000 
#
# Total GULP energy -122699.223218 kJ/mol
# GULP energy per Si atom -5577.237419 kJ/mol
# Density = 2.021091 g / cm^3
# Si number density = 20.257014 Si / 1000 Ang^3
#
#
#
# Elastic Constant Matrix: (Units=GPa)
#
#
# Indices 1 2 3 4 5 6 
#
# 1 70.0291 31.7661 23.0575 0.0000 -14.3503 0.0000
# 2 31.7661 153.7362 23.4047 0.0000 -18.9778 0.0000
# 3 23.0575 23.4047 83.2212 0.0000 -14.6312 0.0000
# 4 0.0000 0.0000 0.0000 30.7615 0.0000 -2.2955
# 5 -14.3503 -18.9778 -14.6312 0.0000 32.2437 0.0000
# 6 0.0000 0.0000 0.0000 -2.2955 0.0000 29.8853
#
#
#
# Elastic Compliance Matrix: (Units=1/GPa)
#
#
# Indices 1 2 3 4 5 6 
#
# 1 0.017492 -0.002520 -0.003292 0.000000 0.004808 0.000000
# 2 -0.002520 0.007521 -0.000908 0.000000 0.002893 0.000000
# 3 -0.003292 -0.000908 0.013945 0.000000 0.004328 0.000000
# 4 0.000000 0.000000 0.000000 0.032696 0.000000 0.002511
# 5 0.004808 0.002893 0.004328 0.000000 0.036820 0.000000
# 6 0.000000 0.000000 0.000000 0.002511 0.000000 0.033654
#
#
# Mechanical properties :
#
#
# Convention : Reuss Voigt Hill
#
# Bulk Modulus (GPa) = 39.19032 51.49365 45.34199
# Shear Modulus (GPa) = 30.47412 33.82865 32.15139
#
# Velocity S-wave (km/s) = 3.88283 4.09096 3.98826
# Velocity P-wave (km/s) = 6.28414 6.91303 6.60607
#
# Compressibility (1/GPa) = 0.02551651
#
# Stress axis : x y z
#
# Youngs Moduli (GPa) = 57.16897 132.96701 71.71175
#
# Poissons Ratio (x) = 0.33502 0.23611
# Poissons Ratio (y) = 0.14404 0.06514
# Poissons Ratio (z) = 0.18823 0.12079
#
# Static dielectric constant tensor:
#      x y z
#    x 1.707480 0.000000 -0.022190 
#    y 0.000000 1.791810 0.000000 
#    z -0.022190 0.000000 1.693520 
# 
# From -- ./inp_files/154137.got.cif
#   From: 2010.05.17/outbox.cif.g08.bks.cpg/sg12_78_cif.got.tgz:154137.got - 2010.06.03 13:09:07.
