data_PCOD9203298
_publ_section_title
;
Structure prediction by ZEFSAII (Michael W. Deem and Ramdas Pophale) SiO2 
 PCOD9203298
Probable space group: C 2/M
;
_chemical_formula_sum "Si O2"
_cell_formula_units_Z 44
_cell_length_a 10.563172
_cell_length_b 28.605690
_cell_length_c 7.870190
_cell_angle_alpha 90.000000
_cell_angle_beta 117.732103
_cell_angle_gamma 90.000000
_cell_volume 2104.943998
_symmetry_space_group_name_H-M "C 2/M"
_symmetry_group_IT_number 12
_symmetry_cell_setting 'monoclinic'
loop_
_space_group_symop_operation_xyz
x,y,z
-x,y,-z
-x,-y,-z
x,-y,z
1/2+x,1/2+y,z
1/2-x,1/2+y,-z
1/2-x,1/2-y,-z
1/2+x,1/2-y,z
loop_
_atom_site_type_symbol
_atom_site_label
_atom_site_fract_x
_atom_site_fract_y
_atom_site_fract_z
Si Si1 0.951116 0.549682 0.274895
Si Si2 0.000000 0.215357 0.000000
Si Si3 0.372802 0.552421 0.056868
Si Si4 0.156730 0.846624 0.846796
Si Si5 0.540027 0.849249 0.829851
Si Si6 0.189786 0.282892 0.318575
O O1 0.000274 0.500000 0.227940
O O2 0.007329 0.598218 0.238904
O O3 0.000000 0.548950 0.500000
O O4 0.780183 0.552030 0.136740
O O5 0.870070 0.249424 0.868408
O O6 0.033150 0.182640 0.860078
O O7 0.387927 0.500000 0.143041
O O8 0.373113 0.597741 0.179771
O O9 0.500000 0.558404 0.000000
O O10 0.205300 0.820835 0.704445
O O11 0.290288 0.843502 0.064542
O O12 0.443353 0.810987 0.680614
O O13 0.500000 0.842190 0.000000
O O14 0.250000 0.250000 0.500000
#
# Coordination Sequence:
#
# PCOD9203298 Si02
#       6
#     8   4   8   8   8   8
#     4   9  18  32  55  86 117 148 192 245 295 358
#     4  12  22  40  59  82 119 162 196 258 296 354
#     4   9  17  33  60  91 121 158 199 243 306 370
#     4  10  20  39  61  86 121 156 199 250 305 354
#     4   9  19  38  57  80 118 151 192 247 296 356
#     4  11  24  39  59  84 118 160 205 251 303 360
#
# _framework density 20.903168999999998
#
# number of rings (size 3 to 8) (size 9 to 14) (size 15 to 20)
#    0.000    2.182    3.636    0.545    0.000    4.000 
#    0.000    2.727    0.000    0.000    0.000    3.818 
#    0.000    0.727    0.000    0.000    0.000    0.000 
#
# Total GULP energy -122556.769043 kJ/mol
# GULP energy per Si atom -5570.762229 kJ/mol
# Density = 2.085559 g / cm^3
# Si number density = 20.903169 Si / 1000 Ang^3
#
#
#
# Elastic Constant Matrix: (Units=GPa)
#
#
# Indices 1 2 3 4 5 6 
#
# 1 36.2466 35.0897 -4.4822 0.0000 -3.0925 0.0000
# 2 35.0897 201.3642 43.6896 0.0000 -2.3804 0.0000
# 3 -4.4822 43.6896 41.3320 0.0000 -7.8944 0.0000
# 4 0.0000 0.0000 0.0000 30.5438 0.0000 -1.1459
# 5 -3.0925 -2.3804 -7.8944 0.0000 11.5597 0.0000
# 6 0.0000 0.0000 0.0000 -1.1459 0.0000 40.4586
#
#
#
# Elastic Compliance Matrix: (Units=1/GPa)
#
#
# Indices 1 2 3 4 5 6 
#
# 1 0.044479 -0.012369 0.022637 0.000000 0.024812 0.000000
# 2 -0.012369 0.010034 -0.014013 0.000000 -0.010813 0.000000
# 3 0.022637 -0.014013 0.048378 0.000000 0.036209 0.000000
# 4 0.000000 0.000000 0.000000 0.032775 0.000000 0.000928
# 5 0.024812 -0.010813 0.036209 0.000000 0.115647 0.000000
# 6 0.000000 0.000000 0.000000 0.000928 0.000000 0.024743
#
#
# Mechanical properties :
#
#
# Convention : Reuss Voigt Hill
#
# Bulk Modulus (GPa) = 10.48205 47.50410 28.99307
# Shear Modulus (GPa) = 15.85561 30.15547 23.00554
#
# Velocity S-wave (km/s) = 2.75712 3.80231 3.32109
# Velocity P-wave (km/s) = 3.89373 6.48474 5.34850
#
# Compressibility (1/GPa) = 0.09540123
#
# Stress axis : x y z
#
# Youngs Moduli (GPa) = 22.48228 99.65938 20.67076
#
# Poissons Ratio (x) = 1.23271 -0.46793
# Poissons Ratio (y) = 0.27809 0.28966
# Poissons Ratio (z) = -0.50894 1.39654
#
# Static dielectric constant tensor:
#      x y z
#    x 1.788350 0.000000 0.071750 
#    y 0.000000 1.827250 0.000000 
#    z 0.071750 0.000000 1.821560 
# 
# From -- ./inp_files/53432.got.cif
#   From: 2010.05.17/outbox.cif.g08.bks.cpg/sg12_27_cif.got.tgz:53432.got - 2010.06.03 13:09:07.
