data_PCOD9203922
_publ_section_title
;
Structure prediction by ZEFSAII (Michael W. Deem and Ramdas Pophale) SiO2 
 PCOD9203922
Probable space group: C 2/M
;
_chemical_formula_sum "Si O2"
_cell_formula_units_Z 48
_cell_length_a 9.970488
_cell_length_b 15.220905
_cell_length_c 18.220502
_cell_angle_alpha 90.000000
_cell_angle_beta 83.428958
_cell_angle_gamma 90.000000
_cell_volume 2746.975705
_symmetry_space_group_name_H-M "C 2/M"
_symmetry_group_IT_number 12
_symmetry_cell_setting 'monoclinic'
loop_
_space_group_symop_operation_xyz
x,y,z
-x,y,-z
-x,-y,-z
x,-y,z
1/2+x,1/2+y,z
1/2-x,1/2+y,-z
1/2-x,1/2-y,-z
1/2+x,1/2-y,z
loop_
_atom_site_type_symbol
_atom_site_label
_atom_site_fract_x
_atom_site_fract_y
_atom_site_fract_z
Si Si1 0.824734 0.831577 0.584962
Si Si2 0.297277 0.500000 0.687466
Si Si3 0.360967 0.643037 0.045168
Si Si4 0.362522 0.332552 0.412792
Si Si5 0.415796 0.000000 0.169747
Si Si6 0.373397 0.845623 0.058927
Si Si7 0.259075 0.000000 0.838700
Si Si8 0.388175 0.500000 0.308080
O O1 0.789465 0.914428 0.636819
O O2 0.727681 0.749611 0.605008
O O3 0.818867 0.855940 0.498902
O O4 0.979894 0.807000 0.592014
O O5 0.176765 0.500000 0.752768
O O6 0.448540 0.500000 0.713336
O O7 0.384279 0.741651 0.074950
O O8 0.297172 0.582780 0.111685
O O9 0.500000 0.611223 0.000000
O O10 0.257320 0.645429 0.983840
O O11 0.352961 0.414599 0.358963
O O12 0.377140 0.086991 0.125522
O O13 0.577553 0.000000 0.173084
O O14 0.500000 0.869459 0.000000
O O15 0.193286 0.000000 0.762437
#
# Coordination Sequence:
#
# PCOD9203922 Si02
#       8
#     8   4   8   8   4   8   4   4
#     4   9  18  36  61  85 111 143 191 228 275 324
#     4  10  23  38  54  82 114 155 185 222 274 339
#     4  10  22  37  62  87 109 139 188 237 278 327
#     4   9  18  36  61  85 110 147 184 234 273 325
#     4  12  24  38  59  79 116 154 183 224 283 335
#     4  10  20  40  61  84 108 144 187 232 279 331
#     4  12  24  39  55  84 116 150 182 230 281 331
#     4  10  23  38  54  81 118 150 186 224 278 329
#
# _framework density 17.473762000000001
#
# number of rings (size 3 to 8) (size 9 to 14) (size 15 to 20)
#    0.000    2.000    1.667    1.500    2.333    4.667 
#    0.000    3.333    0.000    5.000    0.000    0.000 
#    0.000    0.000    0.000    0.000    0.000    0.000 
#
# Total GULP energy -133921.002914 kJ/mol
# GULP energy per Si atom -5580.041788 kJ/mol
# Density = 1.743399 g / cm^3
# Si number density = 17.473762 Si / 1000 Ang^3
#
#
#
# Elastic Constant Matrix: (Units=GPa)
#
#
# Indices 1 2 3 4 5 6 
#
# 1 116.4456 71.4574 73.8969 0.0000 -14.7918 0.0000
# 2 71.4574 119.6781 82.0709 0.0000 -6.9705 0.0000
# 3 73.8969 82.0709 99.6101 0.0000 -5.3156 0.0000
# 4 0.0000 0.0000 0.0000 -43.9013 0.0000 1.9323
# 5 -14.7918 -6.9705 -5.3156 0.0000 32.7000 0.0000
# 6 0.0000 0.0000 0.0000 1.9323 0.0000 40.8579
#
#
#
# Elastic Compliance Matrix: (Units=1/GPa)
#
#
# Indices 1 2 3 4 5 6 
#
# 1 0.017801 -0.003332 -0.010157 0.000000 0.005691 0.000000
# 2 -0.003332 0.019910 -0.013907 0.000000 0.000476 0.000000
# 3 -0.010157 -0.013907 0.028879 0.000000 -0.002864 0.000000
# 4 0.000000 0.000000 0.000000 -0.022731 0.000000 0.001075
# 5 0.005691 0.000476 -0.002864 0.000000 0.032791 0.000000
# 6 0.000000 0.000000 0.000000 0.001075 0.000000 0.024424
#
#
# Mechanical properties :
#
#
# Convention : Reuss Voigt Hill
#
# Bulk Modulus (GPa) = 84.75431 87.84271 86.29851
# Shear Modulus (GPa) = 31.28950 13.15190 22.22070
#
# Velocity S-wave (km/s) = 4.23621 2.74645 3.56990
# Velocity P-wave (km/s) = 8.51682 7.77417 8.15396
#
# Compressibility (1/GPa) = 0.01179881
#
# Stress axis : x y z
#
# Youngs Moduli (GPa) = 56.17729 50.22695 34.62680
#
# Poissons Ratio (x) = 0.16735 0.35170
# Poissons Ratio (y) = 0.18717 0.48155
# Poissons Ratio (z) = 0.57059 0.69850
#
# Static dielectric constant tensor:
#      x y z
#    x 0.934670 0.000000 -0.392380 
#    y 0.000000 1.590060 0.000000 
#    z -0.392380 0.000000 1.325990 
# 
# From -- ./inp_files/196061.got.cif
#   From: 2010.05.17/outbox.cif.g08.bks.cpg/sg12_99_cif.got.tgz:196061.got - 2010.06.03 13:09:07.
