data_PCOD9203809
_publ_section_title
;
Structure prediction by ZEFSAII (Michael W. Deem and Ramdas Pophale) SiO2 
 PCOD9203809
Probable space group: C 2/M
;
_chemical_formula_sum "Si O2"
_cell_formula_units_Z 56
_cell_length_a 11.568510
_cell_length_b 21.244686
_cell_length_c 10.752580
_cell_angle_alpha 90.000000
_cell_angle_beta 106.484183
_cell_angle_gamma 90.000000
_cell_volume 2534.036609
_symmetry_space_group_name_H-M "C 2/M"
_symmetry_group_IT_number 12
_symmetry_cell_setting 'monoclinic'
loop_
_space_group_symop_operation_xyz
x,y,z
-x,y,-z
-x,-y,-z
x,-y,z
1/2+x,1/2+y,z
1/2-x,1/2+y,-z
1/2-x,1/2-y,-z
1/2+x,1/2-y,z
loop_
_atom_site_type_symbol
_atom_site_label
_atom_site_fract_x
_atom_site_fract_y
_atom_site_fract_z
Si Si1 0.719638 0.893282 0.128137
Si Si2 0.857740 0.000000 0.022704
Si Si3 0.870800 0.885729 0.830274
Si Si4 0.795266 0.926458 0.532679
Si Si5 0.436978 0.072576 0.679636
Si Si6 0.372647 0.840984 0.146239
Si Si7 0.927169 0.201483 0.212082
Si Si8 0.500000 0.662984 0.500000
O O1 0.645432 0.918008 0.222505
O O2 0.796027 0.830625 0.179770
O O3 0.632207 0.877212 0.986171
O O4 0.812770 0.945498 0.108031
O O5 0.882448 0.054940 0.924152
O O6 0.829501 0.913083 0.684759
O O7 0.764902 0.841605 0.849575
O O8 0.988492 0.844282 0.842835
O O9 0.655449 0.913177 0.460005
O O10 0.884026 0.882250 0.480574
O O11 0.815413 0.000000 0.508625
O O12 0.548134 0.118634 0.733587
O O13 0.477616 0.000000 0.683385
O O14 0.420669 0.770669 0.154131
O O15 0.981897 0.202130 0.368428
#
# Coordination Sequence:
#
# PCOD9203809 Si02
#       8
#     8   4   8   8   8   8   8   4
#     4  11  23  44  70  95 134 172 228 269 331 391
#     4  10  22  43  65  97 134 169 212 277 333 387
#     4  10  24  43  67  99 135 174 219 273 341 389
#     4  10  20  39  68 100 134 168 218 278 330 390
#     4  11  24  42  70 101 128 174 227 272 329 388
#     4  11  27  43  67  94 140 180 218 273 323 402
#     4  11  25  44  67 100 131 181 221 273 329 396
#     4  10  21  40  68  96 137 170 220 272 326 396
#
# _framework density 22.099128
#
# number of rings (size 3 to 8) (size 9 to 14) (size 15 to 20)
#    0.000    1.429    2.857    1.071    6.000    5.714 
#    6.429    4.286    0.000    0.000    0.000    0.000 
#    0.000    0.000    0.000    0.000    0.000    0.000 
#
# Total GULP energy -156190.903296 kJ/mol
# GULP energy per Si atom -5578.246546 kJ/mol
# Density = 2.204883 g / cm^3
# Si number density = 22.099128 Si / 1000 Ang^3
#
#
#
# Elastic Constant Matrix: (Units=GPa)
#
#
# Indices 1 2 3 4 5 6 
#
# 1 58.4098 13.7748 2.0382 0.0000 4.4954 0.0000
# 2 13.7748 99.8319 5.0143 0.0000 20.6662 0.0000
# 3 2.0382 5.0143 39.3638 0.0000 3.0328 0.0000
# 4 0.0000 0.0000 0.0000 17.7332 0.0000 31.0907
# 5 4.4954 20.6662 3.0328 0.0000 39.0465 0.0000
# 6 0.0000 0.0000 0.0000 31.0907 0.0000 24.2191
#
#
#
# Elastic Compliance Matrix: (Units=1/GPa)
#
#
# Indices 1 2 3 4 5 6 
#
# 1 0.017733 -0.002251 -0.000569 0.000000 -0.000806 0.000000
# 2 -0.002251 0.011573 -0.000911 0.000000 -0.005795 0.000000
# 3 -0.000569 -0.000911 0.025661 0.000000 -0.001445 0.000000
# 4 0.000000 0.000000 0.000000 -0.045088 0.000000 0.057881
# 5 -0.000806 -0.005795 -0.001445 0.000000 0.028883 0.000000
# 6 0.000000 0.000000 0.000000 0.057881 0.000000 -0.033013
#
#
# Mechanical properties :
#
#
# Convention : Reuss Voigt Hill
#
# Bulk Modulus (GPa) = 21.05114 26.58445 23.81779
# Shear Modulus (GPa) = 172.13710 27.98497 100.06104
#
# Velocity S-wave (km/s) = 8.83529 3.56243 6.73621
# Velocity P-wave (km/s) = 10.65971 5.38302 8.44412
#
# Compressibility (1/GPa) = 0.04750337
#
# Stress axis : x y z
#
# Youngs Moduli (GPa) = 56.39127 86.40850 38.96974
#
# Poissons Ratio (x) = 0.19454 0.02219
# Poissons Ratio (y) = 0.12696 0.03551
# Poissons Ratio (z) = 0.03210 0.07873
#
# Static dielectric constant tensor:
#      x y z
#    x 1.850260 0.000000 0.019920 
#    y 0.000000 1.619780 0.000000 
#    z 0.019920 0.000000 1.835870 
# 
# From -- ./inp_files/134008.got.cif
#   From: 2010.05.17/outbox.cif.g08.bks.cpg/sg12_68_cif.got.tgz:134008.got - 2010.06.03 13:09:07.
