data_PCOD9203313
_publ_section_title
;
Structure prediction by ZEFSAII (Michael W. Deem and Ramdas Pophale) SiO2 
 PCOD9203313
Probable space group: C 2/M
;
_chemical_formula_sum "Si O2"
_cell_formula_units_Z 36
_cell_length_a 16.487304
_cell_length_b 14.101705
_cell_length_c 19.503400
_cell_angle_alpha 90.000000
_cell_angle_beta 157.563568
_cell_angle_gamma 90.000000
_cell_volume 1730.637753
_symmetry_space_group_name_H-M "C 2/M"
_symmetry_group_IT_number 12
_symmetry_cell_setting 'monoclinic'
loop_
_space_group_symop_operation_xyz
x,y,z
-x,y,-z
-x,-y,-z
x,-y,z
1/2+x,1/2+y,z
1/2-x,1/2+y,-z
1/2-x,1/2-y,-z
1/2+x,1/2-y,z
loop_
_atom_site_type_symbol
_atom_site_label
_atom_site_fract_x
_atom_site_fract_y
_atom_site_fract_z
Si Si1 0.046804 0.500000 0.122816
Si Si2 0.342532 0.000000 0.637822
Si Si3 0.416308 0.667377 0.613894
Si Si4 0.000000 0.159985 0.000000
Si Si5 0.614840 0.500000 0.846229
Si Si6 0.238348 0.000000 0.103294
Si Si7 0.802623 0.807615 0.291214
O O1 0.044087 0.500000 0.202239
O O2 0.210363 0.500000 0.081216
O O3 0.173936 0.406631 0.198822
O O4 0.202903 0.907383 0.527361
O O5 0.507025 0.000000 0.704267
O O6 0.250000 0.750000 0.500000
O O7 0.492037 0.599215 0.734807
O O8 0.606630 0.702575 0.715144
O O9 0.128617 0.224056 0.155465
O O10 0.155848 0.091153 0.079468
O O11 0.660430 0.500000 0.963249
O O12 0.000000 0.801345 0.500000
#
# Coordination Sequence:
#
# PCOD9203313 Si02
#       7
#     4   4   8   4   4   4   8
#     4  11  21  41  65  96 130 165 210 262 336 393
#     4  10  20  39  61  89 128 162 202 266 318 377
#     4  11  23  39  62  98 128 164 218 261 320 397
#     4  11  26  45  64  96 126 177 232 265 312 392
#     4  10  24  40  70  92 126 180 206 268 342 376
#     4  10  24  47  64  87 132 172 224 274 312 378
#     4  12  24  41  69  98 135 171 212 272 332 385
#
# _framework density 20.801580000000001
#
# number of rings (size 3 to 8) (size 9 to 14) (size 15 to 20)
#    0.000    1.111    2.222    4.333    3.111    1.333 
#    0.000    6.667    0.000    0.000    0.000    0.000 
#    0.000    0.000    0.000    0.000    0.000    0.000 
#
# Total GULP energy -100307.370357 kJ/mol
# GULP energy per Si atom -5572.631687 kJ/mol
# Density = 2.075423 g / cm^3
# Si number density = 20.801580 Si / 1000 Ang^3
#
#
#
# Elastic Constant Matrix: (Units=GPa)
#
#
# Indices 1 2 3 4 5 6 
#
# 1 60.9273 17.4649 3.9980 0.0035 6.6665 -0.0017
# 2 17.4649 137.7223 33.0956 0.0057 10.8993 -0.0193
# 3 3.9980 33.0956 56.8765 0.0022 1.2873 -0.0076
# 4 0.0035 0.0057 0.0022 28.4818 0.0016 36.3067
# 5 6.6665 10.8993 1.2873 0.0016 41.4607 -0.0101
# 6 -0.0017 -0.0193 -0.0076 36.3067 -0.0101 36.9301
#
#
#
# Elastic Compliance Matrix: (Units=1/GPa)
#
#
# Indices 1 2 3 4 5 6 
#
# 1 0.017234 -0.002010 0.000009 0.000002 -0.002243 -0.000003
# 2 -0.002010 0.008857 -0.004970 0.000019 -0.001851 -0.000016
# 3 0.000009 -0.004970 0.020458 0.000012 0.000670 -0.000010
# 4 0.000002 0.000019 0.000012 -0.138656 0.000033 0.136316
# 5 -0.002243 -0.001851 0.000670 0.000033 0.024946 -0.000026
# 6 -0.000003 -0.000016 -0.000010 0.136316 -0.000026 -0.106937
#
#
# Mechanical properties :
#
#
# Convention : Reuss Voigt Hill
#
# Bulk Modulus (GPa) = 30.66919 40.51592 35.59255
# Shear Modulus (GPa) = -33.49277 34.77236 0.63979
#
# Velocity S-wave (km/s) = -4.01697 4.09298 0.55519
# Velocity P-wave (km/s) = 2.59596 6.46964 4.19030
#
# Compressibility (1/GPa) = 0.03260601
#
# Stress axis : x y z
#
# Youngs Moduli (GPa) = 58.02470 112.90749 48.87969
#
# Poissons Ratio (x) = 0.22696 -0.00044
# Poissons Ratio (y) = 0.11664 0.24295
# Poissons Ratio (z) = -0.00052 0.56120
#
# Static dielectric constant tensor:
#      x y z
#    x 1.730680 0.000000 0.016980 
#    y 0.000000 1.697710 0.000000 
#    z 0.016980 0.000000 1.855300 
# 
# From -- ./inp_files/270112.got.cif
#   From: 2010.05.17/outbox.cif.g08.bks.cpg/sg12_136_cif.got.tgz:270112.got - 2010.06.03 13:09:07.
