data_PCOD9203414
_publ_section_title
;
Structure prediction by ZEFSAII (Michael W. Deem and Ramdas Pophale) SiO2 
 PCOD9203414
Probable space group: C 2/M
;
_chemical_formula_sum "Si O2"
_cell_formula_units_Z 64
_cell_length_a 17.425597
_cell_length_b 19.944199
_cell_length_c 19.199735
_cell_angle_alpha 90.000000
_cell_angle_beta 150.182016
_cell_angle_gamma 90.000000
_cell_volume 3317.959411
_symmetry_space_group_name_H-M "C 2/M"
_symmetry_group_IT_number 12
_symmetry_cell_setting 'monoclinic'
loop_
_space_group_symop_operation_xyz
x,y,z
-x,y,-z
-x,-y,-z
x,-y,z
1/2+x,1/2+y,z
1/2-x,1/2+y,-z
1/2-x,1/2-y,-z
1/2+x,1/2-y,z
loop_
_atom_site_type_symbol
_atom_site_label
_atom_site_fract_x
_atom_site_fract_y
_atom_site_fract_z
Si Si1 0.263854 0.821386 0.329173
Si Si2 0.441116 0.922914 0.824026
Si Si3 0.474012 0.149320 0.363239
Si Si4 0.849762 0.168298 0.430250
Si Si5 0.112426 0.696481 0.028609
Si Si6 0.928399 0.818444 0.104681
Si Si7 0.537939 0.294255 0.705451
Si Si8 0.161613 0.425338 0.865194
O O1 0.368876 0.858087 0.469780
O O2 0.343934 0.833819 0.318334
O O3 0.278283 0.741916 0.358043
O O4 0.087435 0.841870 0.194730
O O5 0.276117 0.887714 0.684509
O O6 0.541825 0.875008 0.952761
O O7 0.531660 0.921372 0.822187
O O8 0.429494 0.000000 0.838097
O O9 0.489617 0.215124 0.327177
O O10 0.418928 0.089645 0.271651
O O11 0.000000 0.161847 0.500000
O O12 0.911027 0.169277 0.557944
O O13 0.110018 0.746815 0.960874
O O14 0.290895 0.690453 0.189904
O O15 0.000000 0.724805 0.000000
O O16 0.959594 0.811644 0.211482
O O17 0.790225 0.869352 0.981015
O O18 0.229269 0.500000 0.920477
#
# Coordination Sequence:
#
# PCOD9203414 Si02
#       8
#     8   8   8   8   8   8   8   8
#     4  10  21  37  63  99 128 148 203 271 313 361
#     4  11  25  43  61  88 128 170 208 252 309 374
#     4  10  20  39  62  92 126 162 198 258 318 371
#     4  11  21  40  63  96 129 160 202 257 314 368
#     4  12  22  38  65  92 125 162 206 260 311 367
#     4  12  23  37  63  97 122 162 212 264 309 367
#     4  11  21  35  62  96 121 156 207 261 304 363
#     4  11  25  44  62  86 129 170 209 257 312 376
#
# _framework density 19.288962999999999
#
# number of rings (size 3 to 8) (size 9 to 14) (size 15 to 20)
#    0.000    1.000    6.250    2.625    1.750    1.500 
#    0.000    4.375    0.000    0.000    0.000    0.000 
#    0.000    0.000    0.000    0.000    0.000    0.000 
#
# Total GULP energy -178894.510208 kJ/mol
# GULP energy per Si atom -5590.453444 kJ/mol
# Density = 1.924506 g / cm^3
# Si number density = 19.288963 Si / 1000 Ang^3
#
#
#
# Elastic Constant Matrix: (Units=GPa)
#
#
# Indices 1 2 3 4 5 6 
#
# 1 36.5194 26.3256 7.1857 0.0007 -2.7065 0.0002
# 2 26.3256 68.3216 17.2198 0.0022 -7.8947 0.0024
# 3 7.1857 17.2198 35.0196 0.0020 -0.0054 0.0019
# 4 0.0007 0.0022 0.0020 24.4706 0.0020 1.5933
# 5 -2.7065 -7.8947 -0.0054 0.0020 39.5496 0.0018
# 6 0.0002 0.0024 0.0019 1.5933 0.0018 18.6767
#
#
#
# Elastic Compliance Matrix: (Units=1/GPa)
#
#
# Indices 1 2 3 4 5 6 
#
# 1 0.037931 -0.014483 -0.000662 0.000000 -0.000295 0.000001
# 2 -0.014483 0.022689 -0.008184 -0.000001 0.003537 -0.000002
# 3 -0.000662 -0.008184 0.032715 -0.000002 -0.001674 -0.000002
# 4 0.000000 -0.000001 -0.000002 0.041094 -0.000002 -0.003506
# 5 -0.000295 0.003537 -0.001674 -0.000002 0.025970 -0.000003
# 6 0.000001 -0.000002 -0.000002 -0.003506 -0.000003 0.053842
#
#
# Mechanical properties :
#
#
# Convention : Reuss Voigt Hill
#
# Bulk Modulus (GPa) = 21.42351 26.81363 24.11857
# Shear Modulus (GPa) = 18.08598 22.48136 20.28367
#
# Velocity S-wave (km/s) = 3.06540 3.41765 3.24631
# Velocity P-wave (km/s) = 4.86412 5.43185 5.15580
#
# Compressibility (1/GPa) = 0.04667770
#
# Stress axis : x y z
#
# Youngs Moduli (GPa) = 26.36345 44.07498 30.56687
#
# Poissons Ratio (x) = 0.63834 0.02022
# Poissons Ratio (y) = 0.38182 0.25016
# Poissons Ratio (z) = 0.01744 0.36071
#
# Static dielectric constant tensor:
#      x y z
#    x 1.690590 0.000000 -0.007970 
#    y 0.000000 1.647550 0.000000 
#    z -0.007970 0.000000 1.680920 
# 
# From -- ./inp_files/279135.got.cif
#   From: 2010.05.17/outbox.cif.g08.bks.cpg/sg12_140_cif.got.tgz:279135.got - 2010.06.03 13:09:07.
