data_PCOD9203467
_publ_section_title
;
Structure prediction by ZEFSAII (Michael W. Deem and Ramdas Pophale) SiO2 
 PCOD9203467
Probable space group: C 2/M
;
_chemical_formula_sum "Si O2"
_cell_formula_units_Z 48
_cell_length_a 15.557110
_cell_length_b 8.537299
_cell_length_c 19.514070
_cell_angle_alpha 90.000000
_cell_angle_beta 89.836362
_cell_angle_gamma 90.000000
_cell_volume 2591.764290
_symmetry_space_group_name_H-M "C 2/M"
_symmetry_group_IT_number 12
_symmetry_cell_setting 'monoclinic'
loop_
_space_group_symop_operation_xyz
x,y,z
-x,y,-z
-x,-y,-z
x,-y,z
1/2+x,1/2+y,z
1/2-x,1/2+y,-z
1/2-x,1/2-y,-z
1/2+x,1/2-y,z
loop_
_atom_site_type_symbol
_atom_site_label
_atom_site_fract_x
_atom_site_fract_y
_atom_site_fract_z
Si Si1 0.531004 0.689219 0.576000
Si Si2 0.373455 0.812080 0.827682
Si Si3 0.028624 0.309271 0.923825
Si Si4 0.278849 0.812344 0.425802
Si Si5 0.625414 0.310566 0.326259
Si Si6 0.275777 0.811694 0.074969
O O1 0.500000 0.737504 0.500000
O O2 0.535471 0.500000 0.575975
O O3 0.625322 0.754653 0.589874
O O4 0.459419 0.737860 0.631225
O O5 0.458845 0.757781 0.868323
O O6 0.373877 0.754619 0.750008
O O7 0.291413 0.749923 0.869404
O O8 0.372032 0.000000 0.829291
O O9 0.027783 0.500000 0.924203
O O10 0.126381 0.260550 0.909971
O O11 0.000000 0.258572 0.000000
O O12 0.250000 0.750000 0.500000
O O13 0.209128 0.760964 0.369480
O O14 0.277587 0.000000 0.428120
O O15 0.625711 0.500000 0.323425
O O16 0.273624 0.000000 0.073800
O O17 0.250000 0.750000 0.000000
#
# Coordination Sequence:
#
# PCOD9203467 Si02
#       6
#     8   8   8   8   8   8
#     4  10  20  39  63  88 120 157 197 246 301 354
#     4  11  23  40  61  87 119 155 199 245 294 353
#     4   9  18  36  60  84 115 153 191 235 289 347
#     4  11  22  38  62  90 120 157 203 246 297 359
#     4  10  23  42  60  84 124 161 190 241 308 357
#     4  11  21  37  62  89 119 155 197 243 295 352
#
# _framework density 18.520202999999999
#
# number of rings (size 3 to 8) (size 9 to 14) (size 15 to 20)
#    0.000    1.667    3.333    1.500    0.000    3.667 
#    0.000    9.167    0.000    0.000    0.000    0.000 
#    0.000    0.000    0.000    0.000    0.000    0.000 
#
# Total GULP energy -134082.825447 kJ/mol
# GULP energy per Si atom -5586.784394 kJ/mol
# Density = 1.847805 g / cm^3
# Si number density = 18.520203 Si / 1000 Ang^3
#
#
#
# Elastic Constant Matrix: (Units=GPa)
#
#
# Indices 1 2 3 4 5 6 
#
# 1 231.0565 41.8155 126.6919 0.0000 1.3218 0.0000
# 2 41.8155 28.8285 38.5545 0.0000 -1.2635 0.0000
# 3 126.6919 38.5545 196.0761 0.0000 -0.6587 0.0000
# 4 0.0000 0.0000 0.0000 33.3142 0.0000 -0.4302
# 5 1.3218 -1.2635 -0.6587 0.0000 35.0065 0.0000
# 6 0.0000 0.0000 0.0000 -0.4302 0.0000 30.5281
#
#
#
# Elastic Compliance Matrix: (Units=1/GPa)
#
#
# Indices 1 2 3 4 5 6 
#
# 1 0.007378 -0.005899 -0.003609 0.000000 -0.000559 0.000000
# 2 -0.005899 0.051863 -0.006379 0.000000 0.001975 0.000000
# 3 -0.003609 -0.006379 0.008686 0.000000 0.000069 0.000000
# 4 0.000000 0.000000 0.000000 0.030023 0.000000 0.000423
# 5 -0.000559 0.001975 0.000069 0.000000 0.028660 0.000000
# 6 0.000000 0.000000 0.000000 0.000423 0.000000 0.032763
#
#
# Mechanical properties :
#
#
# Convention : Reuss Voigt Hill
#
# Bulk Modulus (GPa) = 27.66108 96.67611 62.16860
# Shear Modulus (GPa) = 24.60659 36.36305 30.48482
#
# Velocity S-wave (km/s) = 3.64900 4.43586 4.06153
# Velocity P-wave (km/s) = 5.72028 8.86282 7.45893
#
# Compressibility (1/GPa) = 0.03615188
#
# Stress axis : x y z
#
# Youngs Moduli (GPa) = 135.54689 19.28161 115.12157
#
# Poissons Ratio (x) = 0.11375 0.41545
# Poissons Ratio (y) = 0.79962 0.73442
# Poissons Ratio (z) = 0.48916 0.12301
#
# Static dielectric constant tensor:
#      x y z
#    x 1.631710 0.000000 0.009310 
#    y 0.000000 1.638520 0.000000 
#    z 0.009310 0.000000 1.598740 
# 
# From -- ./inp_files/267678.got.cif
#   From: 2010.05.17/outbox.cif.g08.bks.cpg/sg12_134_cif.got.tgz:267678.got - 2010.06.03 13:09:07.
