data_PCOD9203122
_publ_section_title
;
Structure prediction by ZEFSAII (Michael W. Deem and Ramdas Pophale) SiO2 
 PCOD9203122
Probable space group: C 2/M
;
_chemical_formula_sum "Si O2"
_cell_formula_units_Z 58
_cell_length_a 26.476986
_cell_length_b 7.863806
_cell_length_c 23.110078
_cell_angle_alpha 90.000000
_cell_angle_beta 32.581773
_cell_angle_gamma 90.000000
_cell_volume 2591.138804
_symmetry_space_group_name_H-M "C 2/M"
_symmetry_group_IT_number 12
_symmetry_cell_setting 'monoclinic'
loop_
_space_group_symop_operation_xyz
x,y,z
-x,y,-z
-x,-y,-z
x,-y,z
1/2+x,1/2+y,z
1/2-x,1/2+y,-z
1/2-x,1/2-y,-z
1/2+x,1/2-y,z
loop_
_atom_site_type_symbol
_atom_site_label
_atom_site_fract_x
_atom_site_fract_y
_atom_site_fract_z
Si Si1 0.659433 0.798526 0.975598
Si Si2 0.870091 0.791551 0.792522
Si Si3 0.694815 0.806538 0.610110
Si Si4 0.500000 0.500000 0.000000
Si Si5 0.364576 0.806510 0.138562
Si Si6 0.487320 0.696699 0.790904
Si Si7 0.002952 0.798146 0.562290
Si Si8 0.290591 0.807205 0.629558
O O1 0.762194 0.736125 0.895419
O O2 0.648628 0.778330 0.917302
O O3 0.652987 0.000000 0.994235
O O4 0.577463 0.709614 0.090073
O O5 0.925960 0.739241 0.795947
O O6 0.926715 0.731653 0.681282
O O7 0.868411 0.000000 0.793567
O O8 0.750000 0.750000 0.500000
O O9 0.584388 0.792120 0.705779
O O10 0.726759 0.699313 0.634263
O O11 0.719841 0.000000 0.599884
O O12 0.431867 0.653036 0.092819
O O13 0.265063 0.790041 0.266606
O O14 0.398878 0.000000 0.116086
O O15 0.511169 0.500000 0.756398
O O16 0.108247 0.769543 0.482642
O O17 0.000000 0.727535 0.500000
O O18 0.985217 0.000000 0.575447
O O19 0.304699 0.000000 0.634998
#
# Coordination Sequence:
#
# PCOD9203122 Si02
#       8
#     8   8   8   2   8   8   8   8
#     4  10  22  41  65  92 127 169 219 267 326 395
#     4   9  19  38  62  92 127 167 216 268 325 394
#     4  12  26  45  67  93 128 170 217 270 330 398
#     4  12  26  44  68  98 138 168 230 276 330 410
#     4  11  25  44  68  97 134 178 220 277 338 397
#     4  11  23  38  63  93 128 170 213 265 326 388
#     4  10  20  38  67  96 127 172 221 270 333 399
#     4  12  25  43  66  97 134 173 222 276 327 393
#
# _framework density 22.383980000000001
#
# number of rings (size 3 to 8) (size 9 to 14) (size 15 to 20)
#    0.000    1.241    0.690    5.172    2.897    3.586 
#    0.000    2.069    0.000    0.000    0.000    0.000 
#    0.000    0.000    0.000    0.000    0.000    0.000 
#
# Total GULP energy -162015.217060 kJ/mol
# GULP energy per Si atom -5586.731623 kJ/mol
# Density = 2.233303 g / cm^3
# Si number density = 22.383980 Si / 1000 Ang^3
#
#
#
# Elastic Constant Matrix: (Units=GPa)
#
#
# Indices 1 2 3 4 5 6 
#
# 1 66.9491 19.0104 23.7690 -0.0015 -1.3882 0.0064
# 2 19.0104 62.2342 4.5562 -0.0066 7.5528 0.0107
# 3 23.7690 4.5562 132.6898 0.0031 -3.7067 0.0061
# 4 -0.0015 -0.0066 0.0031 13.6731 0.0047 -9.5083
# 5 -1.3882 7.5528 -3.7067 0.0047 34.6448 -0.0072
# 6 0.0064 0.0107 0.0061 -9.5083 -0.0072 13.0249
#
#
#
# Elastic Compliance Matrix: (Units=1/GPa)
#
#
# Indices 1 2 3 4 5 6 
#
# 1 0.017515 -0.005325 -0.002911 -0.000004 0.001551 -0.000005
# 2 -0.005325 0.018184 0.000213 -0.000002 -0.004155 -0.000016
# 3 -0.002911 0.000213 0.008070 -0.000008 0.000700 -0.000008
# 4 -0.000004 -0.000002 -0.000008 0.148545 0.000002 0.108440
# 5 0.001551 -0.004155 0.000700 0.000002 0.029907 0.000020
# 6 -0.000005 -0.000016 -0.000008 0.108440 0.000020 0.155939
#
#
# Mechanical properties :
#
#
# Convention : Reuss Voigt Hill
#
# Bulk Modulus (GPa) = 36.07202 39.61604 37.84403
# Shear Modulus (GPa) = 12.39323 26.57106 19.48214
#
# Velocity S-wave (km/s) = 2.35556 3.44911 2.95339
# Velocity P-wave (km/s) = 4.85266 5.79643 5.34541
#
# Compressibility (1/GPa) = 0.02772232
#
# Stress axis : x y z
#
# Youngs Moduli (GPa) = 57.09525 54.99461 123.91421
#
# Poissons Ratio (x) = 0.29286 0.36074
# Poissons Ratio (y) = 0.30405 -0.02645
# Poissons Ratio (z) = 0.16622 -0.01174
#
# Static dielectric constant tensor:
#      x y z
#    x 1.913290 0.000000 0.005630 
#    y 0.000000 1.818960 0.000010 
#    z 0.005630 0.000010 1.801630 
# 
# From -- ./inp_files/351446.got.cif
#   From: 2010.05.17/outbox.cif.g08.bks.cpg/sg12_176_cif.got.tgz:351446.got - 2010.06.03 13:09:07.
