data_PCOD9203730
_publ_section_title
;
Structure prediction by ZEFSAII (Michael W. Deem and Ramdas Pophale) SiO2 
 PCOD9203730
Probable space group: C 2/M
;
_chemical_formula_sum "Si O2"
_cell_formula_units_Z 40
_cell_length_a 14.736437
_cell_length_b 16.505272
_cell_length_c 13.680088
_cell_angle_alpha 90.000000
_cell_angle_beta 29.967968
_cell_angle_gamma 90.000000
_cell_volume 1662.085123
_symmetry_space_group_name_H-M "C 2/M"
_symmetry_group_IT_number 12
_symmetry_cell_setting 'monoclinic'
loop_
_space_group_symop_operation_xyz
x,y,z
-x,y,-z
-x,-y,-z
x,-y,z
1/2+x,1/2+y,z
1/2-x,1/2+y,-z
1/2-x,1/2-y,-z
1/2+x,1/2-y,z
loop_
_atom_site_type_symbol
_atom_site_label
_atom_site_fract_x
_atom_site_fract_y
_atom_site_fract_z
Si Si1 0.385840 0.591820 0.018929
Si Si2 0.199377 0.591229 0.858576
Si Si3 0.843440 0.152599 0.377810
Si Si4 0.357504 0.724030 0.564136
Si Si5 0.065555 0.402017 0.194043
O O1 0.341507 0.500000 0.092165
O O2 0.522690 0.591277 0.799639
O O3 0.500000 0.630315 0.000000
O O4 0.198668 0.628931 0.155334
O O5 0.283582 0.500000 0.784752
O O6 0.294839 0.652505 0.694978
O O7 0.154752 0.624005 0.008507
O O8 0.000000 0.581218 0.000000
O O9 0.800067 0.221414 0.337074
O O10 0.934286 0.185592 0.391938
O O11 0.643592 0.121115 0.594574
O O12 0.500000 0.770800 0.500000
O O13 0.073082 0.500000 0.185829
#
# Coordination Sequence:
#
# PCOD9203730 Si02
#       5
#     8   8   8   8   8
#     4  10  23  41  64  96 127 168 219 264 316 372
#     4  10  20  39  66  94 123 160 208 264 325 377
#     4  11  24  43  63  94 132 171 214 260 318 384
#     4  11  25  42  60  95 130 166 216 258 319 388
#     4  10  21  41  70  98 126 165 216 269 320 378
#
# _framework density 24.066155999999999
#
# number of rings (size 3 to 8) (size 9 to 14) (size 15 to 20)
#    0.000    1.600    2.000    1.800    2.800    2.000 
#    0.000    6.000    0.000    0.000    0.000    0.000 
#    0.000    0.000    0.000    0.000    0.000    0.000 
#
# Total GULP energy -111637.943381 kJ/mol
# GULP energy per Si atom -5581.897169 kJ/mol
# Density = 2.401138 g / cm^3
# Si number density = 24.066156 Si / 1000 Ang^3
#
#
#
# Elastic Constant Matrix: (Units=GPa)
#
#
# Indices 1 2 3 4 5 6 
#
# 1 188.0638 12.9430 38.5291 -0.0052 -1.6036 0.0019
# 2 12.9430 47.9975 23.7725 -0.0043 19.5976 0.0014
# 3 38.5291 23.7725 91.1850 -0.0099 9.0788 0.0049
# 4 -0.0052 -0.0043 -0.0099 15.0875 0.0047 13.3811
# 5 -1.6036 19.5976 9.0788 0.0047 38.1177 -0.0015
# 6 0.0019 0.0014 0.0049 13.3811 -0.0015 24.0494
#
#
#
# Elastic Compliance Matrix: (Units=1/GPa)
#
#
# Indices 1 2 3 4 5 6 
#
# 1 0.005878 -0.000941 -0.002367 -0.000001 0.001295 0.000001
# 2 -0.000941 0.029718 -0.005966 0.000019 -0.013897 -0.000012
# 3 -0.002367 -0.005966 0.013548 0.000017 -0.000259 -0.000012
# 4 -0.000001 0.000019 0.000017 0.130852 -0.000033 -0.072806
# 5 0.001295 -0.013897 -0.000259 -0.000033 0.033496 0.000021
# 6 0.000001 -0.000012 -0.000012 -0.072806 0.000021 0.082091
#
#
# Mechanical properties :
#
#
# Convention : Reuss Voigt Hill
#
# Bulk Modulus (GPa) = 32.68572 53.08172 42.88372
# Shear Modulus (GPa) = 15.41638 32.25103 23.83370
#
# Velocity S-wave (km/s) = 2.53372 3.66471 3.15038
# Velocity P-wave (km/s) = 4.70858 6.32544 5.57593
#
# Compressibility (1/GPa) = 0.03059440
#
# Stress axis : x y z
#
# Youngs Moduli (GPa) = 170.12107 33.65006 73.81082
#
# Poissons Ratio (x) = 0.03168 0.17473
# Poissons Ratio (y) = 0.16016 0.44036
# Poissons Ratio (z) = 0.40272 0.20076
#
# Static dielectric constant tensor:
#      x y z
#    x 1.944590 0.000000 -0.009480 
#    y 0.000000 1.987380 0.000000 
#    z -0.009480 0.000000 1.922680 
# 
# From -- ./inp_files/60854.got.cif
#   From: 2010.05.17/outbox.cif.g08.bks.cpg/sg12_31_cif.got.tgz:60854.got - 2010.06.03 13:09:07.
