data_PCOD9203039
_publ_section_title
;
Structure prediction by ZEFSAII (Michael W. Deem and Ramdas Pophale) SiO2 
 PCOD9203039
Probable space group: C 2/M
;
_chemical_formula_sum "Si O2"
_cell_formula_units_Z 36
_cell_length_a 13.748687
_cell_length_b 16.235434
_cell_length_c 6.797149
_cell_angle_alpha 90.000000
_cell_angle_beta 101.434985
_cell_angle_gamma 90.000000
_cell_volume 1487.115142
_symmetry_space_group_name_H-M "C 2/M"
_symmetry_group_IT_number 12
_symmetry_cell_setting 'monoclinic'
loop_
_space_group_symop_operation_xyz
x,y,z
-x,y,-z
-x,-y,-z
x,-y,z
1/2+x,1/2+y,z
1/2-x,1/2+y,-z
1/2-x,1/2-y,-z
1/2+x,1/2-y,z
loop_
_atom_site_type_symbol
_atom_site_label
_atom_site_fract_x
_atom_site_fract_y
_atom_site_fract_z
Si Si1 0.572901 0.000000 0.302207
Si Si2 0.500000 0.857474 0.500000
Si Si3 0.023389 0.092969 0.246039
Si Si4 0.663396 0.000000 0.919412
Si Si5 0.283939 0.662262 0.807130
Si Si6 0.116351 0.229179 0.763216
O O1 0.581763 0.918848 0.440020
O O2 0.646721 0.000000 0.148723
O O3 0.454070 0.000000 0.193965
O O4 0.533402 0.798864 0.692000
O O5 0.132300 0.130814 0.304236
O O6 0.936124 0.144561 0.309415
O O7 0.023831 0.000000 0.306867
O O8 0.000000 0.093724 0.000000
O O9 0.723716 0.917519 0.873658
O O10 0.207803 0.728571 0.691713
O O11 0.343388 0.712063 0.001898
#
# Coordination Sequence:
#
# PCOD9203039 Si02
#       6
#     4   4   8   4   8   8
#     4  10  24  38  68  88 130 170 209 261 341 373
#     4  11  22  44  59  92 134 172 199 268 334 381
#     4   9  18  35  62  90 123 165 208 264 317 371
#     4  11  20  40  67  97 116 167 225 270 304 397
#     4  10  20  38  65  97 123 163 221 271 307 383
#     4  10  22  36  62  91 130 166 212 256 326 378
#
# _framework density 24.207941999999999
#
# number of rings (size 3 to 8) (size 9 to 14) (size 15 to 20)
#    0.000    2.000    3.333    0.000    1.556    7.111 
#    0.000    5.000    0.000    0.000    0.000    0.000 
#    0.000    0.000    0.000    0.000    0.000    0.000 
#
# Total GULP energy -100415.501409 kJ/mol
# GULP energy per Si atom -5578.638967 kJ/mol
# Density = 2.415284 g / cm^3
# Si number density = 24.207942 Si / 1000 Ang^3
#
#
#
# Elastic Constant Matrix: (Units=GPa)
#
#
# Indices 1 2 3 4 5 6 
#
# 1 139.3149 100.1884 40.1111 0.0000 -21.0808 0.0000
# 2 100.1884 193.5529 39.2877 0.0000 -11.1133 0.0000
# 3 40.1111 39.2877 90.5229 0.0000 -28.8125 0.0000
# 4 0.0000 0.0000 0.0000 13.9736 0.0000 12.0884
# 5 -21.0808 -11.1133 -28.8125 0.0000 37.5992 0.0000
# 6 0.0000 0.0000 0.0000 12.0884 0.0000 31.7213
#
#
#
# Elastic Compliance Matrix: (Units=1/GPa)
#
#
# Indices 1 2 3 4 5 6 
#
# 1 0.012517 -0.005902 -0.001728 0.000000 0.003950 0.000000
# 2 -0.005902 0.008451 -0.001733 0.000000 -0.002140 0.000000
# 3 -0.001728 -0.001733 0.015995 0.000000 0.010776 0.000000
# 4 0.000000 0.000000 0.000000 0.106759 0.000000 -0.040684
# 5 0.003950 -0.002140 0.010776 0.000000 0.036436 0.000000
# 6 0.000000 0.000000 0.000000 -0.040684 0.000000 0.047028
#
#
# Mechanical properties :
#
#
# Convention : Reuss Voigt Hill
#
# Bulk Modulus (GPa) = 54.83636 86.95166 70.89401
# Shear Modulus (GPa) = 19.84202 32.91241 26.37721
#
# Velocity S-wave (km/s) = 2.86606 3.69124 3.30451
# Velocity P-wave (km/s) = 5.80119 7.35959 6.62636
#
# Compressibility (1/GPa) = 0.01823607
#
# Stress axis : x y z
#
# Youngs Moduli (GPa) = 79.88836 118.33579 62.52071
#
# Poissons Ratio (x) = 0.69840 0.10803
# Poissons Ratio (y) = 0.47149 0.10838
# Poissons Ratio (z) = 0.13804 0.20513
#
# Static dielectric constant tensor:
#      x y z
#    x 1.966340 0.000000 0.066650 
#    y 0.000000 1.897450 0.000000 
#    z 0.066650 0.000000 1.962810 
# 
# From -- ./inp_files/58554.got.cif
#   From: 2010.05.17/outbox.cif.g08.bks.cpg/sg12_30_cif.got.tgz:58554.got - 2010.06.03 13:09:07.
