data_PCOD9203810
_publ_section_title
;
Structure prediction by ZEFSAII (Michael W. Deem and Ramdas Pophale) SiO2 
 PCOD9203810
Probable space group: C 2/M
;
_chemical_formula_sum "Si O2"
_cell_formula_units_Z 64
_cell_length_a 8.465127
_cell_length_b 29.591130
_cell_length_c 14.422962
_cell_angle_alpha 90.000000
_cell_angle_beta 47.694402
_cell_angle_gamma 90.000000
_cell_volume 2671.935895
_symmetry_space_group_name_H-M "C 2/M"
_symmetry_group_IT_number 12
_symmetry_cell_setting 'monoclinic'
loop_
_space_group_symop_operation_xyz
x,y,z
-x,y,-z
-x,-y,-z
x,-y,z
1/2+x,1/2+y,z
1/2-x,1/2+y,-z
1/2-x,1/2-y,-z
1/2+x,1/2-y,z
loop_
_atom_site_type_symbol
_atom_site_label
_atom_site_fract_x
_atom_site_fract_y
_atom_site_fract_z
Si Si1 0.004847 0.631650 0.807576
Si Si2 0.041742 0.388720 0.382088
Si Si3 0.247190 0.787250 0.922012
Si Si4 0.726027 0.447667 0.958836
Si Si5 0.065954 0.823380 0.341204
Si Si6 0.351289 0.753790 0.354130
Si Si7 0.393288 0.580711 0.450614
Si Si8 0.041887 0.051497 0.768743
O O1 0.003783 0.637661 0.695309
O O2 0.829323 0.664191 0.920804
O O3 0.927294 0.581251 0.850977
O O4 0.224539 0.647764 0.765526
O O5 0.272824 0.411745 0.284712
O O6 0.000000 0.365864 0.500000
O O7 0.858611 0.427075 0.455234
O O8 0.417336 0.773690 0.773159
O O9 0.250000 0.750000 0.000000
O O10 0.000000 0.791515 0.000000
O O11 0.757694 0.500000 0.925089
O O12 0.500000 0.433852 0.000000
O O13 0.668540 0.441246 0.088582
O O14 0.179031 0.783036 0.360886
O O15 0.923456 0.799069 0.318908
O O16 0.921646 0.864068 0.438732
O O17 0.250000 0.750000 0.500000
O O18 0.500000 0.563755 0.500000
O O19 0.502383 0.558237 0.320814
O O20 0.114724 0.000000 0.759766
#
# Coordination Sequence:
#
# PCOD9203810 Si02
#       8
#     8   8   8   8   8   8   8   8
#     4  11  22  41  71  97 141 186 233 290 372 431
#     4  10  22  39  66 101 135 184 231 296 351 430
#     4  11  25  44  64  97 141 179 232 295 358 434
#     4  10  20  39  68 104 140 178 239 301 353 428
#     4  11  25  46  66 100 138 174 240 288 358 428
#     4  11  24  45  73  99 134 186 232 300 354 433
#     4  11  22  42  68  97 145 183 229 292 357 431
#     4  10  23  43  68 106 140 180 241 292 351 437
#
# _framework density 23.952670000000001
#
# number of rings (size 3 to 8) (size 9 to 14) (size 15 to 20)
#    0.000    1.375    2.500    3.000    1.750    3.500 
#   11.250    3.750    0.000    1.500    0.000    0.000 
#    0.000    0.000    0.000    0.000    0.000    0.000 
#
# Total GULP energy -178232.540682 kJ/mol
# GULP energy per Si atom -5569.766896 kJ/mol
# Density = 2.389815 g / cm^3
# Si number density = 23.952670 Si / 1000 Ang^3
#
#
#
# Elastic Constant Matrix: (Units=GPa)
#
#
# Indices 1 2 3 4 5 6 
#
# 1 56.0888 5.8999 33.2844 0.0000 -22.4121 0.0000
# 2 5.8999 77.5087 40.6591 0.0000 -10.8538 0.0000
# 3 33.2844 40.6591 121.9553 0.0000 -5.9001 0.0000
# 4 0.0000 0.0000 0.0000 30.9085 0.0000 -5.2788
# 5 -22.4121 -10.8538 -5.9001 0.0000 44.9411 0.0000
# 6 0.0000 0.0000 0.0000 -5.2788 0.0000 25.7642
#
#
#
# Elastic Compliance Matrix: (Units=1/GPa)
#
#
# Indices 1 2 3 4 5 6 
#
# 1 0.027845 0.004181 -0.008326 0.000000 0.013803 0.000000
# 2 0.004181 0.016709 -0.006457 0.000000 0.005273 0.000000
# 3 -0.008326 -0.006457 0.012427 0.000000 -0.004080 0.000000
# 4 0.000000 0.000000 0.000000 0.033527 0.000000 0.006869
# 5 0.013803 0.005273 -0.004080 0.000000 0.029873 0.000000
# 6 0.000000 0.000000 0.000000 0.006869 0.000000 0.040221
#
#
# Mechanical properties :
#
#
# Convention : Reuss Voigt Hill
#
# Bulk Modulus (GPa) = 27.94989 46.13774 37.04381
# Shear Modulus (GPa) = 25.80902 32.03671 28.92287
#
# Velocity S-wave (km/s) = 3.28609 3.66115 3.47868
# Velocity P-wave (km/s) = 5.10803 6.09721 5.62441
#
# Compressibility (1/GPa) = 0.03577832
#
# Stress axis : x y z
#
# Youngs Moduli (GPa) = 35.91286 59.84854 80.46881
#
# Poissons Ratio (x) = -0.25021 0.66995
# Poissons Ratio (y) = -0.15014 0.51955
# Poissons Ratio (z) = 0.29900 0.38642
#
# Static dielectric constant tensor:
#      x y z
#    x 2.036040 0.000000 0.008650 
#    y 0.000000 1.955060 0.000000 
#    z 0.008650 0.000000 2.002550 
# 
# From -- ./inp_files/201299.got.cif
#   From: 2010.05.17/outbox.cif.g08.bks.cpg/sg12_101_cif.got.tgz:201299.got - 2010.06.03 13:09:07.
