data_PCOD9203454
_publ_section_title
;
Structure prediction by ZEFSAII (Michael W. Deem and Ramdas Pophale) SiO2 
 PCOD9203454
Probable space group: C 2/M
;
_chemical_formula_sum "Si O2"
_cell_formula_units_Z 56
_cell_length_a 30.547649
_cell_length_b 9.406252
_cell_length_c 11.660029
_cell_angle_alpha 90.000000
_cell_angle_beta 53.655952
_cell_angle_gamma 90.000000
_cell_volume 2698.640123
_symmetry_space_group_name_H-M "C 2/M"
_symmetry_group_IT_number 12
_symmetry_cell_setting 'monoclinic'
loop_
_space_group_symop_operation_xyz
x,y,z
-x,y,-z
-x,-y,-z
x,-y,z
1/2+x,1/2+y,z
1/2-x,1/2+y,-z
1/2-x,1/2-y,-z
1/2+x,1/2-y,z
loop_
_atom_site_type_symbol
_atom_site_label
_atom_site_fract_x
_atom_site_fract_y
_atom_site_fract_z
Si Si1 0.263794 0.163448 0.591892
Si Si2 0.083330 0.835560 0.121359
Si Si3 0.393721 0.836419 0.394162
Si Si4 0.835307 0.661534 0.852197
Si Si5 0.527743 0.664606 0.576257
Si Si6 0.935304 0.831110 0.108611
Si Si7 0.760804 0.839034 0.811267
O O1 0.250000 0.250000 0.500000
O O2 0.328901 0.166146 0.505389
O O3 0.240280 0.244528 0.738029
O O4 0.245541 0.000000 0.613766
O O5 0.115396 0.733926 0.157274
O O6 0.019943 0.831635 0.254560
O O7 0.101474 0.000000 0.108590
O O8 0.089038 0.796587 0.978983
O O9 0.423610 0.759219 0.452920
O O10 0.410088 0.756254 0.251708
O O11 0.411687 0.000000 0.360617
O O12 0.846793 0.500000 0.795526
O O13 0.812361 0.761322 0.787859
O O14 0.786032 0.654705 0.020443
O O15 0.500000 0.710252 0.500000
O O16 0.545026 0.500000 0.534694
O O17 0.927631 0.000000 0.140792
O O18 0.000000 0.805592 0.000000
O O19 0.773746 0.000000 0.754672
#
# Coordination Sequence:
#
# PCOD9203454 Si02
#       7
#     8   8   8   8   8   8   8
#     4  11  26  45  64  91 124 161 208 258 311 369
#     4  10  21  37  60  92 123 157 204 250 298 360
#     4  11  25  42  62  91 125 159 202 256 311 364
#     4  10  22  39  62  92 125 158 198 253 309 362
#     4  10  22  41  64  91 124 164 209 248 294 367
#     4  10  20  39  63  87 119 157 201 246 290 353
#     4  10  22  42  65  89 120 160 206 252 305 367
#
# _framework density 20.751192
#
# number of rings (size 3 to 8) (size 9 to 14) (size 15 to 20)
#    0.000    1.714    1.429    1.714    4.000    5.714 
#    0.000    0.000    0.000    0.000    0.000    0.000 
#    0.000    0.000    0.000    0.000    0.000    0.000 
#
# Total GULP energy -156589.238762 kJ/mol
# GULP energy per Si atom -5592.472813 kJ/mol
# Density = 2.070396 g / cm^3
# Si number density = 20.751192 Si / 1000 Ang^3
#
#
#
# Elastic Constant Matrix: (Units=GPa)
#
#
# Indices 1 2 3 4 5 6 
#
# 1 78.7639 46.1197 -3.1379 0.0000 16.5654 0.0000
# 2 46.1197 121.6508 18.8018 0.0000 15.3288 0.0000
# 3 -3.1379 18.8018 54.6572 0.0000 19.1244 0.0000
# 4 0.0000 0.0000 0.0000 23.1333 0.0000 4.6069
# 5 16.5654 15.3288 19.1244 0.0000 33.6445 0.0000
# 6 0.0000 0.0000 0.0000 4.6069 0.0000 36.7339
#
#
#
# Elastic Compliance Matrix: (Units=1/GPa)
#
#
# Indices 1 2 3 4 5 6 
#
# 1 0.019341 -0.007139 0.007190 0.000000 -0.010357 0.000000
# 2 -0.007139 0.011536 -0.004705 0.000000 0.000933 0.000000
# 3 0.007190 -0.004705 0.025984 0.000000 -0.016166 0.000000
# 4 0.000000 0.000000 0.000000 0.044335 0.000000 -0.005560
# 5 -0.010357 0.000933 -0.016166 0.000000 0.043586 0.000000
# 6 0.000000 0.000000 0.000000 -0.005560 0.000000 0.027920
#
#
# Mechanical properties :
#
#
# Convention : Reuss Voigt Hill
#
# Bulk Modulus (GPa) = 21.02871 42.07099 31.54985
# Shear Modulus (GPa) = 25.27042 31.58825 28.42934
#
# Velocity S-wave (km/s) = 3.49346 3.90582 3.70538
# Velocity P-wave (km/s) = 5.14082 6.37641 5.79166
#
# Compressibility (1/GPa) = 0.04755404
#
# Stress axis : x y z
#
# Youngs Moduli (GPa) = 51.70395 86.68392 38.48595
#
# Poissons Ratio (x) = 0.61880 -0.27671
# Poissons Ratio (y) = 0.36909 0.18106
# Poissons Ratio (z) = -0.37175 0.40782
#
# Static dielectric constant tensor:
#      x y z
#    x 1.725830 0.000000 0.001030 
#    y 0.000000 1.721510 0.000000 
#    z 0.001030 0.000000 1.757570 
# 
# From -- ./inp_files/187172.got.cif
#   From: 2010.05.17/outbox.cif.g08.bks.cpg/sg12_94_cif.got.tgz:187172.got - 2010.06.03 13:09:07.
