data_PCOD9203851
_publ_section_title
;
Structure prediction by ZEFSAII (Michael W. Deem and Ramdas Pophale) SiO2 
 PCOD9203851
Probable space group: C 2/M
;
_chemical_formula_sum "Si O2"
_cell_formula_units_Z 56
_cell_length_a 13.261372
_cell_length_b 29.343116
_cell_length_c 7.637145
_cell_angle_alpha 90.000000
_cell_angle_beta 121.183359
_cell_angle_gamma 90.000000
_cell_volume 2542.454507
_symmetry_space_group_name_H-M "C 2/M"
_symmetry_group_IT_number 12
_symmetry_cell_setting 'monoclinic'
loop_
_space_group_symop_operation_xyz
x,y,z
-x,y,-z
-x,-y,-z
x,-y,z
1/2+x,1/2+y,z
1/2-x,1/2+y,-z
1/2-x,1/2-y,-z
1/2+x,1/2-y,z
loop_
_atom_site_type_symbol
_atom_site_label
_atom_site_fract_x
_atom_site_fract_y
_atom_site_fract_z
Si Si1 0.553190 0.171655 0.349499
Si Si2 0.420001 0.271891 0.669913
Si Si3 0.076355 0.947658 0.298804
Si Si4 0.179792 0.634045 0.990793
Si Si5 0.315265 0.281241 0.204476
Si Si6 0.677952 0.550765 0.784019
Si Si7 0.206397 0.142196 0.287749
O O1 0.500000 0.181185 0.500000
O O2 0.562123 0.219826 0.257036
O O3 0.456929 0.141369 0.165878
O O4 0.676721 0.146787 0.487792
O O5 0.339215 0.264207 0.423289
O O6 0.551120 0.289467 0.740261
O O7 0.365305 0.311208 0.740136
O O8 0.130206 0.947759 0.543010
O O9 0.134570 0.904098 0.259070
O O10 0.936599 0.939683 0.198308
O O11 0.094112 0.000000 0.246041
O O12 0.245256 0.640986 0.864125
O O13 0.238796 0.673686 0.156175
O O14 0.218773 0.586033 0.097801
O O15 0.250000 0.250000 0.000000
O O16 0.717905 0.500000 0.860350
#
# Coordination Sequence:
#
# PCOD9203851 Si02
#       7
#     8   8   8   8   8   8   8
#     4  10  20  40  55  75 117 162 192 235 292 343
#     4  11  21  38  60  79 116 155 201 246 290 342
#     4   9  19  39  62  87 118 148 187 240 298 350
#     4  11  22  37  59  84 120 152 197 243 293 354
#     4  11  20  36  60  81 110 158 198 234 296 348
#     4   9  19  38  64  88 114 152 191 234 294 361
#     4  11  23  36  58  88 115 154 196 246 294 350
#
# _framework density 22.025959
#
# number of rings (size 3 to 8) (size 9 to 14) (size 15 to 20)
#    0.000    1.714    2.857    3.857    0.000    5.143 
#    0.000    5.000    0.000    4.286    0.000    0.000 
#    0.000    0.000    0.000    0.000    0.000    0.000 
#
# Total GULP energy -156631.488028 kJ/mol
# GULP energy per Si atom -5593.981715 kJ/mol
# Density = 2.197583 g / cm^3
# Si number density = 22.025959 Si / 1000 Ang^3
#
#
#
# Elastic Constant Matrix: (Units=GPa)
#
#
# Indices 1 2 3 4 5 6 
#
# 1 52.5444 25.2818 21.0043 0.0000 -6.6645 0.0000
# 2 25.2818 120.2694 45.4201 0.0000 10.2760 0.0000
# 3 21.0043 45.4201 102.7716 0.0000 13.2780 0.0000
# 4 0.0000 0.0000 0.0000 33.3289 0.0000 8.1972
# 5 -6.6645 10.2760 13.2780 0.0000 32.3162 0.0000
# 6 0.0000 0.0000 0.0000 8.1972 0.0000 22.4628
#
#
#
# Elastic Compliance Matrix: (Units=1/GPa)
#
#
# Indices 1 2 3 4 5 6 
#
# 1 0.023611 -0.004114 -0.004019 0.000000 0.007829 0.000000
# 2 -0.004114 0.010761 -0.003552 0.000000 -0.002811 0.000000
# 3 -0.004019 -0.003552 0.012760 0.000000 -0.004942 0.000000
# 4 0.000000 0.000000 0.000000 0.032962 0.000000 -0.012029
# 5 0.007829 -0.002811 -0.004942 0.000000 0.035483 0.000000
# 6 0.000000 0.000000 0.000000 -0.012029 0.000000 0.048908
#
#
# Mechanical properties :
#
#
# Convention : Reuss Voigt Hill
#
# Bulk Modulus (GPa) = 42.08418 50.99974 46.54196
# Shear Modulus (GPa) = 25.53954 29.88020 27.70987
#
# Velocity S-wave (km/s) = 3.40887 3.68719 3.55076
# Velocity P-wave (km/s) = 5.88574 6.42898 6.16335
#
# Compressibility (1/GPa) = 0.02376190
#
# Stress axis : x y z
#
# Youngs Moduli (GPa) = 42.35397 92.92737 78.37089
#
# Poissons Ratio (x) = 0.38235 0.31494
# Poissons Ratio (y) = 0.17426 0.27836
# Poissons Ratio (z) = 0.17020 0.33006
#
# Static dielectric constant tensor:
#      x y z
#    x 1.862130 0.000000 -0.060270 
#    y 0.000000 1.776800 0.000000 
#    z -0.060270 0.000000 1.841300 
# 
# From -- ./inp_files/68321.got.cif
#   From: 2010.05.17/outbox.cif.g08.bks.cpg/sg12_35_cif.got.tgz:68321.got - 2010.06.03 13:09:07.
