data_PCOD9203048
_publ_section_title
;
Structure prediction by ZEFSAII (Michael W. Deem and Ramdas Pophale) SiO2 
 PCOD9203048
Probable space group: C 2/M
;
_chemical_formula_sum "Si O2"
_cell_formula_units_Z 52
_cell_length_a 18.373734
_cell_length_b 9.203355
_cell_length_c 23.771076
_cell_angle_alpha 90.000000
_cell_angle_beta 144.748297
_cell_angle_gamma 90.000000
_cell_volume 2320.041667
_symmetry_space_group_name_H-M "C 2/M"
_symmetry_group_IT_number 12
_symmetry_cell_setting 'monoclinic'
loop_
_space_group_symop_operation_xyz
x,y,z
-x,y,-z
-x,-y,-z
x,-y,z
1/2+x,1/2+y,z
1/2-x,1/2+y,-z
1/2-x,1/2-y,-z
1/2+x,1/2-y,z
loop_
_atom_site_type_symbol
_atom_site_label
_atom_site_fract_x
_atom_site_fract_y
_atom_site_fract_z
Si Si1 0.002933 0.840844 0.264789
Si Si2 0.371663 0.167867 0.954837
Si Si3 0.314140 0.000000 0.536561
Si Si4 0.649713 0.171920 0.747311
Si Si5 0.000761 0.828886 0.135871
Si Si6 0.287342 0.245593 0.446001
Si Si7 0.774719 0.827308 0.312672
O O1 0.958830 0.712669 0.276767
O O2 0.953246 0.821721 0.170254
O O3 0.153382 0.838810 0.354448
O O4 0.966211 0.000000 0.264234
O O5 0.270468 0.256913 0.855113
O O6 0.332926 0.000000 0.939849
O O7 0.500000 0.165137 0.000000
O O8 0.405797 0.250519 0.033724
O O9 0.369754 0.127535 0.529562
O O10 0.246752 0.123306 0.534555
O O11 0.642263 0.254668 0.683434
O O12 0.662923 0.000000 0.748966
O O13 0.135371 0.745827 0.218981
O O14 0.017908 0.000000 0.132676
O O15 0.323333 0.296451 0.406456
O O16 0.763648 0.000000 0.297174
#
# Coordination Sequence:
#
# PCOD9203048 Si02
#       7
#     8   8   4   8   8   8   8
#     4  10  22  41  60  88 125 163 194 245 301 360
#     4  11  22  38  59  86 119 161 204 257 296 348
#     4  10  20  38  66 102 120 150 192 248 294 356
#     4  12  26  38  60  86 121 164 206 247 303 349
#     4  10  21  36  62  88 117 155 209 255 296 341
#     4  10  21  38  68  96 124 151 199 242 295 354
#     4  11  21  37  59  89 121 161 200 245 294 358
#
# _framework density 22.413391000000001
#
# number of rings (size 3 to 8) (size 9 to 14) (size 15 to 20)
#    0.000    1.385    3.077    2.769    3.231    2.462 
#    0.000    0.000    0.000    5.538    0.000    0.000 
#    0.000    0.000    0.000    0.000    0.000    0.000 
#
# Total GULP energy -144908.946205 kJ/mol
# GULP energy per Si atom -5573.421008 kJ/mol
# Density = 2.236238 g / cm^3
# Si number density = 22.413391 Si / 1000 Ang^3
#
#
#
# Elastic Constant Matrix: (Units=GPa)
#
#
# Indices 1 2 3 4 5 6 
#
# 1 72.7881 45.8907 25.3142 0.0000 -21.2297 0.0000
# 2 45.8907 229.5555 51.5364 0.0000 -33.0585 0.0000
# 3 25.3142 51.5364 78.9693 0.0000 -30.7971 0.0000
# 4 0.0000 0.0000 0.0000 78.4366 0.0000 -15.0158
# 5 -21.2297 -33.0585 -30.7971 0.0000 39.8121 0.0000
# 6 0.0000 0.0000 0.0000 -15.0158 0.0000 37.7871
#
#
#
# Elastic Compliance Matrix: (Units=1/GPa)
#
#
# Indices 1 2 3 4 5 6 
#
# 1 0.017550 -0.002225 -0.001782 0.000000 0.006132 0.000000
# 2 -0.002225 0.005549 -0.002254 0.000000 0.001677 0.000000
# 3 -0.001782 -0.002254 0.019482 0.000000 0.012249 0.000000
# 4 0.000000 0.000000 0.000000 0.013799 0.000000 0.005483
# 5 0.006132 0.001677 0.012249 0.000000 0.039256 0.000000
# 6 0.000000 0.000000 0.000000 0.005483 0.000000 0.028643
#
#
# Mechanical properties :
#
#
# Convention : Reuss Voigt Hill
#
# Bulk Modulus (GPa) = 33.26820 69.64395 51.45607
# Shear Modulus (GPa) = 34.05533 48.44526 41.25030
#
# Velocity S-wave (km/s) = 3.90220 4.65418 4.29468
# Velocity P-wave (km/s) = 5.93112 7.74737 6.89927
#
# Compressibility (1/GPa) = 0.03005873
#
# Stress axis : x y z
#
# Youngs Moduli (GPa) = 56.98096 180.22546 51.32919
#
# Poissons Ratio (x) = 0.40104 0.09147
# Poissons Ratio (y) = 0.12679 0.11567
# Poissons Ratio (z) = 0.10154 0.40615
#
# Static dielectric constant tensor:
#      x y z
#    x 1.827860 0.000000 0.032240 
#    y 0.000000 1.774810 0.000000 
#    z 0.032240 0.000000 1.919530 
# 
# From -- ./inp_files/274179.got.cif
#   From: 2010.05.17/outbox.cif.g08.bks.cpg/sg12_138_cif.got.tgz:274179.got - 2010.06.03 13:09:07.
