data_PCOD9203672
_publ_section_title
;
Structure prediction by ZEFSAII (Michael W. Deem and Ramdas Pophale) SiO2 
 PCOD9203672
Probable space group: C 2/M
;
_chemical_formula_sum "Si O2"
_cell_formula_units_Z 64
_cell_length_a 19.722402
_cell_length_b 14.065419
_cell_length_c 18.365672
_cell_angle_alpha 90.000000
_cell_angle_beta 29.247890
_cell_angle_gamma 90.000000
_cell_volume 2489.218888
_symmetry_space_group_name_H-M "C 2/M"
_symmetry_group_IT_number 12
_symmetry_cell_setting 'monoclinic'
loop_
_space_group_symop_operation_xyz
x,y,z
-x,y,-z
-x,-y,-z
x,-y,z
1/2+x,1/2+y,z
1/2-x,1/2+y,-z
1/2-x,1/2-y,-z
1/2+x,1/2-y,z
loop_
_atom_site_type_symbol
_atom_site_label
_atom_site_fract_x
_atom_site_fract_y
_atom_site_fract_z
Si Si1 0.150292 0.322309 0.883080
Si Si2 0.694152 0.662914 0.130501
Si Si3 0.328001 0.394647 0.123170
Si Si4 0.594920 0.610213 0.645801
Si Si5 0.263564 0.886638 0.347767
Si Si6 0.753545 0.888837 0.353089
Si Si7 0.959208 0.393041 0.821076
Si Si8 0.035131 0.341224 0.343969
O O1 0.227113 0.382384 0.873240
O O2 0.128775 0.214666 0.936488
O O3 0.238099 0.329562 0.726236
O O4 0.000000 0.359042 0.000000
O O5 0.571430 0.614554 0.200247
O O6 0.607683 0.743860 0.252936
O O7 0.829164 0.676278 0.953396
O O8 0.380498 0.500000 0.048514
O O9 0.343978 0.388733 0.195380
O O10 0.163778 0.396695 0.258215
O O11 0.634960 0.500000 0.608019
O O12 0.660160 0.646648 0.508915
O O13 0.661996 0.651077 0.656653
O O14 0.415997 0.877215 0.240743
O O15 0.240075 0.000000 0.355317
O O16 0.605078 0.840064 0.479446
O O17 0.720587 0.000000 0.395898
O O18 0.905074 0.500000 0.879704
O O19 0.012688 0.383364 0.689020
#
# Coordination Sequence:
#
# PCOD9203672 Si02
#       8
#     8   8   8   8   8   8   8   8
#     4  11  24  44  65  91 131 169 215 265 313 389
#     4  11  25  40  61  95 129 167 210 265 321 374
#     4  10  23  41  64  94 127 168 216 267 320 371
#     4  10  22  42  64  95 130 163 209 265 321 380
#     4  10  22  40  69  96 124 169 216 260 319 385
#     4  10  20  39  65  92 124 167 213 260 318 383
#     4  11  21  40  66  91 125 169 213 259 316 386
#     4  11  22  38  64  95 127 164 214 266 313 378
#
# _framework density 25.710875999999999
#
# number of rings (size 3 to 8) (size 9 to 14) (size 15 to 20)
#    0.000    1.500    2.500    2.250    1.750    4.500 
#    4.500    1.250    0.000    0.000    0.000    0.000 
#    0.000    0.000    0.000    0.000    0.000    0.000 
#
# Total GULP energy -178699.427398 kJ/mol
# GULP energy per Si atom -5584.357106 kJ/mol
# Density = 2.565236 g / cm^3
# Si number density = 25.710876 Si / 1000 Ang^3
#
#
#
# Elastic Constant Matrix: (Units=GPa)
#
#
# Indices 1 2 3 4 5 6 
#
# 1 90.3402 -9.9927 -6.0408 0.0000 -19.9800 -0.0001
# 2 -9.9927 97.5499 -5.2058 -0.0004 -6.6396 0.0001
# 3 -6.0408 -5.2058 52.8597 -0.0006 -18.9954 0.0001
# 4 0.0000 -0.0004 -0.0006 33.7591 0.0003 -3.3386
# 5 -19.9800 -6.6396 -18.9954 0.0003 39.7458 0.0000
# 6 -0.0001 0.0001 0.0001 -3.3386 0.0000 21.4266
#
#
#
# Elastic Compliance Matrix: (Units=1/GPa)
#
#
# Indices 1 2 3 4 5 6 
#
# 1 0.013901 0.002391 0.005407 0.000000 0.009972 0.000000
# 2 0.002391 0.010956 0.002948 0.000000 0.004441 0.000000
# 3 0.005407 0.002948 0.025331 0.000000 0.015317 0.000000
# 4 0.000000 0.000000 0.000000 0.030085 0.000000 0.004688
# 5 0.009972 0.004441 0.015317 0.000000 0.038235 0.000000
# 6 0.000000 0.000000 0.000000 0.004688 0.000000 0.047401
#
#
# Mechanical properties :
#
#
# Convention : Reuss Voigt Hill
#
# Bulk Modulus (GPa) = 13.95077 22.03013 17.99045
# Shear Modulus (GPa) = 29.70740 36.45223 33.07981
#
# Velocity S-wave (km/s) = 3.40287 3.76942 3.59082
# Velocity P-wave (km/s) = 4.56915 5.24707 4.91980
#
# Compressibility (1/GPa) = 0.07168063
#
# Stress axis : x y z
#
# Youngs Moduli (GPa) = 71.93889 91.27636 39.47809
#
# Poissons Ratio (x) = -0.21826 -0.21347
# Poissons Ratio (y) = -0.17202 -0.11639
# Poissons Ratio (z) = -0.38900 -0.26910
#
# Static dielectric constant tensor:
#      x y z
#    x 2.036990 0.000000 0.022590 
#    y 0.000000 2.073960 0.000000 
#    z 0.022590 0.000000 2.055090 
# 
# From -- ./inp_files/278118.got.cif
#   From: 2010.05.17/outbox.cif.g08.bks.cpg/sg12_140_cif.got.tgz:278118.got - 2010.06.03 13:09:07.
