data_PCOD9203735
_publ_section_title
;
Structure prediction by ZEFSAII (Michael W. Deem and Ramdas Pophale) SiO2 
 PCOD9203735
Probable space group: C 2/M
;
_chemical_formula_sum "Si O2"
_cell_formula_units_Z 64
_cell_length_a 11.376509
_cell_length_b 15.759359
_cell_length_c 25.750486
_cell_angle_alpha 90.000000
_cell_angle_beta 138.059020
_cell_angle_gamma 90.000000
_cell_volume 3085.649025
_symmetry_space_group_name_H-M "C 2/M"
_symmetry_group_IT_number 12
_symmetry_cell_setting 'monoclinic'
loop_
_space_group_symop_operation_xyz
x,y,z
-x,y,-z
-x,-y,-z
x,-y,z
1/2+x,1/2+y,z
1/2-x,1/2+y,-z
1/2-x,1/2-y,-z
1/2+x,1/2-y,z
loop_
_atom_site_type_symbol
_atom_site_label
_atom_site_fract_x
_atom_site_fract_y
_atom_site_fract_z
Si Si1 0.106741 0.598081 0.175150
Si Si2 0.898851 0.905783 0.867477
Si Si3 0.524173 0.828669 0.367867
Si Si4 0.654990 0.902545 0.510601
Si Si5 0.498765 0.353167 0.317070
Si Si6 0.050830 0.265899 0.956940
Si Si7 0.144901 0.098194 0.263683
Si Si8 0.522390 0.096725 0.261194
O O1 0.045546 0.500000 0.147889
O O2 0.317438 0.598814 0.248669
O O3 0.036478 0.661895 0.108332
O O4 0.049758 0.632501 0.212974
O O5 0.945044 0.893143 0.821929
O O6 0.687444 0.905266 0.799798
O O7 0.965347 0.826647 0.921022
O O8 0.959050 0.000000 0.903819
O O9 0.648487 0.844055 0.457655
O O10 0.465905 0.733097 0.337542
O O11 0.350686 0.883024 0.324211
O O12 0.600815 0.859483 0.337856
O O13 0.500000 0.877604 0.500000
O O14 0.841553 0.897711 0.600539
O O15 0.621005 0.000000 0.483922
O O16 0.569765 0.339499 0.282088
O O17 0.250000 0.250000 0.000000
O O18 0.000000 0.289255 0.000000
O O19 0.123340 0.000000 0.273538
O O20 0.588736 0.000000 0.281466
#
# Coordination Sequence:
#
# PCOD9203735 Si02
#       8
#     8   8   8   8   8   8   8   8
#     4  11  25  44  67  96 138 180 219 272 341 420
#     4   9  20  40  69  97 125 163 218 274 325 401
#     4  11  22  36  63  95 132 170 223 288 334 387
#     4  11  22  40  63  90 131 179 233 286 337 401
#     4  12  25  38  64  98 131 174 223 285 340 400
#     4  12  28  46  69 101 136 174 220 276 348 422
#     4  10  20  39  66  95 124 172 229 271 322 397
#     4   9  19  38  65  94 124 169 220 266 329 401
#
# _framework density 20.74118
#
# number of rings (size 3 to 8) (size 9 to 14) (size 15 to 20)
#    0.000    1.375    1.250    5.625    5.250    1.000 
#    0.000    0.625    0.000    2.250    0.000    0.000 
#    0.000    0.000    0.000    0.000    0.000    0.000 
#
# Total GULP energy -178559.397004 kJ/mol
# GULP energy per Si atom -5579.981156 kJ/mol
# Density = 2.069397 g / cm^3
# Si number density = 20.741180 Si / 1000 Ang^3
#
#
#
# Elastic Constant Matrix: (Units=GPa)
#
#
# Indices 1 2 3 4 5 6 
#
# 1 109.7872 30.0792 54.6569 0.0000 -28.6676 0.0000
# 2 30.0792 87.7038 45.2139 0.0000 -21.0754 0.0000
# 3 54.6569 45.2139 82.7895 0.0000 -15.5972 0.0000
# 4 0.0000 0.0000 0.0000 -18.2780 0.0000 -26.4893
# 5 -28.6676 -21.0754 -15.5972 0.0000 36.9248 0.0000
# 6 0.0000 0.0000 0.0000 -26.4893 0.0000 15.8904
#
#
#
# Elastic Compliance Matrix: (Units=1/GPa)
#
#
# Indices 1 2 3 4 5 6 
#
# 1 0.015864 0.001782 -0.009707 0.000000 0.009233 0.000000
# 2 0.001782 0.017332 -0.009254 0.000000 0.007367 0.000000
# 3 -0.009707 -0.009254 0.022953 0.000000 -0.003123 0.000000
# 4 0.000000 0.000000 0.000000 -0.016016 0.000000 -0.026699
# 5 0.009233 0.007367 -0.003123 0.000000 0.037137 0.000000
# 6 0.000000 0.000000 0.000000 -0.026699 0.000000 0.018423
#
#
# Mechanical properties :
#
#
# Convention : Reuss Voigt Hill
#
# Bulk Modulus (GPa) = 45.89070 60.02008 52.95539
# Shear Modulus (GPa) = 36.41309 16.92946 26.67127
#
# Velocity S-wave (km/s) = 4.19453 2.86006 3.58985
# Velocity P-wave (km/s) = 6.75516 6.31721 6.53985
#
# Compressibility (1/GPa) = 0.02179091
#
# Stress axis : x y z
#
# Youngs Moduli (GPa) = 63.03666 57.69695 43.56726
#
# Poissons Ratio (x) = -0.10284 0.42291
# Poissons Ratio (y) = -0.11235 0.40318
# Poissons Ratio (z) = 0.61190 0.53394
#
# Static dielectric constant tensor:
#      x y z
#    x 1.790970 0.000000 -0.004420 
#    y 0.000000 1.744190 0.000000 
#    z -0.004420 0.000000 1.767890 
# 
# From -- ./inp_files/358476.got.cif
#   From: 2010.05.17/outbox.cif.g08.bks.cpg/sg12_180_cif.got.tgz:358476.got - 2010.06.03 13:09:07.
