data_PCOD9203410
_publ_section_title
;
Structure prediction by ZEFSAII (Michael W. Deem and Ramdas Pophale) SiO2 
 PCOD9203410
Probable space group: C 2/M
;
_chemical_formula_sum "Si O2"
_cell_formula_units_Z 64
_cell_length_a 15.198092
_cell_length_b 20.387615
_cell_length_c 11.435519
_cell_angle_alpha 90.000000
_cell_angle_beta 109.472270
_cell_angle_gamma 90.000000
_cell_volume 3340.660171
_symmetry_space_group_name_H-M "C 2/M"
_symmetry_group_IT_number 12
_symmetry_cell_setting 'monoclinic'
loop_
_space_group_symop_operation_xyz
x,y,z
-x,y,-z
-x,-y,-z
x,-y,z
1/2+x,1/2+y,z
1/2-x,1/2+y,-z
1/2-x,1/2-y,-z
1/2+x,1/2-y,z
loop_
_atom_site_type_symbol
_atom_site_label
_atom_site_fract_x
_atom_site_fract_y
_atom_site_fract_z
Si Si1 0.274179 0.072067 0.176316
Si Si2 0.663129 0.075367 0.304325
Si Si3 0.130343 0.815112 0.155619
Si Si4 0.234577 0.282605 0.367855
Si Si5 0.927465 0.173634 0.126373
Si Si6 0.562464 0.251013 0.635391
Si Si7 0.024552 0.596866 0.640704
Si Si8 0.738034 0.575064 0.894581
O O1 0.211492 0.130719 0.197633
O O2 0.375523 0.071596 0.276361
O O3 0.229819 0.000000 0.173103
O O4 0.284421 0.083041 0.041830
O O5 0.712403 0.140517 0.378092
O O6 0.556971 0.080623 0.303038
O O7 0.688888 0.084918 0.178455
O O8 0.693977 0.000000 0.347480
O O9 0.157644 0.755159 0.253572
O O10 0.031817 0.849962 0.141255
O O11 0.116695 0.795841 0.012283
O O12 0.250000 0.250000 0.500000
O O13 0.331566 0.269153 0.346364
O O14 0.950204 0.222232 0.240939
O O15 0.852223 0.121790 0.141418
O O16 0.500000 0.277991 0.500000
O O17 0.538250 0.174808 0.634342
O O18 0.000000 0.572789 0.500000
O O19 0.705273 0.500000 0.869889
#
# Coordination Sequence:
#
# PCOD9203410 Si02
#       8
#     8   8   8   8   8   8   8   8
#     4  10  21  38  61  91 127 166 215 262 312 381
#     4  11  24  41  64  91 124 171 211 252 320 385
#     4  10  22  38  62  93 124 163 212 262 323 369
#     4  12  23  42  65  92 129 164 211 268 318 380
#     4  10  20  39  62  91 124 160 210 265 314 380
#     4  11  22  39  64  91 124 165 208 262 322 371
#     4  11  23  41  59  89 128 168 211 260 315 371
#     4   9  20  39  62  90 125 166 209 260 319 379
#
# _framework density 19.157889999999998
#
# number of rings (size 3 to 8) (size 9 to 14) (size 15 to 20)
#    0.000    1.500    2.500    3.375    0.000    3.500 
#    0.000    4.375    0.000    3.000    0.000    0.000 
#    0.000    0.000    0.000    0.000    0.000    0.000 
#
# Total GULP energy -178288.549517 kJ/mol
# GULP energy per Si atom -5571.517172 kJ/mol
# Density = 1.911429 g / cm^3
# Si number density = 19.157890 Si / 1000 Ang^3
#
#
#
# Elastic Constant Matrix: (Units=GPa)
#
#
# Indices 1 2 3 4 5 6 
#
# 1 120.3271 33.0515 40.5933 0.0000 4.8585 0.0000
# 2 33.0515 111.0575 56.2863 0.0000 6.3144 0.0000
# 3 40.5933 56.2863 92.3984 0.0000 21.0366 0.0000
# 4 0.0000 0.0000 0.0000 -6.2012 0.0000 -46.1880
# 5 4.8585 6.3144 21.0366 0.0000 19.0299 0.0000
# 6 0.0000 0.0000 0.0000 -46.1880 0.0000 -45.3892
#
#
#
# Elastic Compliance Matrix: (Units=1/GPa)
#
#
# Indices 1 2 3 4 5 6 
#
# 1 0.009940 -0.000852 -0.004456 0.000000 0.002671 0.000000
# 2 -0.000852 0.013623 -0.009281 0.000000 0.005956 0.000000
# 3 -0.004456 -0.009281 0.023351 0.000000 -0.021596 0.000000
# 4 0.000000 0.000000 0.000000 0.024510 0.000000 -0.024941
# 5 0.002671 0.005956 -0.021596 0.000000 0.073764 0.000000
# 6 0.000000 0.000000 0.000000 -0.024941 0.000000 0.003349
#
#
# Mechanical properties :
#
#
# Convention : Reuss Voigt Hill
#
# Bulk Modulus (GPa) = 56.38043 64.84946 60.61494
# Shear Modulus (GPa) = 27.22938 6.41136 16.82037
#
# Velocity S-wave (km/s) = 3.77412 1.83135 2.96630
# Velocity P-wave (km/s) = 6.96313 6.19639 6.59092
#
# Compressibility (1/GPa) = 0.01773665
#
# Stress axis : x y z
#
# Youngs Moduli (GPa) = 100.60236 73.40701 42.82514
#
# Poissons Ratio (x) = 0.06251 0.19085
# Poissons Ratio (y) = 0.08566 0.39744
# Poissons Ratio (z) = 0.44832 0.68126
#
# Static dielectric constant tensor:
#      x y z
#    x 1.742720 0.000000 -0.073100 
#    y 0.000000 1.631880 0.000000 
#    z -0.073100 0.000000 1.729740 
# 
# From -- ./inp_files/147673.got.cif
#   From: 2010.05.17/outbox.cif.g08.bks.cpg/sg12_74_cif.got.tgz:147673.got - 2010.06.03 13:09:07.
