data_PCOD9203315
_publ_section_title
;
Structure prediction by ZEFSAII (Michael W. Deem and Ramdas Pophale) SiO2 
 PCOD9203315
Probable space group: C 2/M
;
_chemical_formula_sum "Si O2"
_cell_formula_units_Z 28
_cell_length_a 20.630962
_cell_length_b 10.061362
_cell_length_c 16.854784
_cell_angle_alpha 90.000000
_cell_angle_beta 155.415719
_cell_angle_gamma 90.000000
_cell_volume 1455.544480
_symmetry_space_group_name_H-M "C 2/M"
_symmetry_group_IT_number 12
_symmetry_cell_setting 'monoclinic'
loop_
_space_group_symop_operation_xyz
x,y,z
-x,y,-z
-x,-y,-z
x,-y,z
1/2+x,1/2+y,z
1/2-x,1/2+y,-z
1/2-x,1/2-y,-z
1/2+x,1/2-y,z
loop_
_atom_site_type_symbol
_atom_site_label
_atom_site_fract_x
_atom_site_fract_y
_atom_site_fract_z
Si Si1 0.479134 0.773835 0.065238
Si Si2 0.861051 0.153501 0.289388
Si Si3 0.156690 0.500000 0.348745
Si Si4 0.499242 0.500000 0.309731
Si Si5 0.399057 0.500000 0.748541
O O1 0.566122 0.633349 0.165892
O O2 0.557249 0.871518 0.216022
O O3 0.500000 0.829938 0.000000
O O4 0.296104 0.764810 0.879734
O O5 0.000000 0.202853 0.500000
O O6 0.824565 0.000000 0.275921
O O7 0.925112 0.126201 0.272043
O O8 0.314096 0.500000 0.470451
O O9 0.229191 0.500000 0.517676
O O10 0.486000 0.500000 0.200721
#
# Coordination Sequence:
#
# PCOD9203315 Si02
#       5
#     8   8   4   4   4
#     4  12  22  37  63  87 115 156 195 233 290 346
#     4   9  18  35  57  89 109 140 197 247 270 324
#     4  10  20  39  61  90 105 156 200 238 276 339
#     4   8  18  35  57  78 120 138 188 236 285 322
#     4  10  25  38  55  88 130 147 180 243 305 340
#
# _framework density 19.236789000000002
#
# number of rings (size 3 to 8) (size 9 to 14) (size 15 to 20)
#    1.714    0.286    1.429    3.429    0.000    1.143 
#    0.000    0.714    0.000    0.000    0.000    0.000 
#    0.000    0.000    0.000    0.000    0.000    0.000 
#
# Total GULP energy -77950.355337 kJ/mol
# GULP energy per Si atom -5567.882524 kJ/mol
# Density = 1.919300 g / cm^3
# Si number density = 19.236789 Si / 1000 Ang^3
#
#
#
# Elastic Constant Matrix: (Units=GPa)
#
#
# Indices 1 2 3 4 5 6 
#
# 1 41.2910 -33.6775 1.3702 0.0000 -0.3397 0.0000
# 2 -33.6775 68.0461 35.4324 0.0000 -2.8058 0.0000
# 3 1.3702 35.4324 121.6945 0.0000 5.9323 0.0000
# 4 0.0000 0.0000 0.0000 -448.8375 0.0000 102.7297
# 5 -0.3397 -2.8058 5.9323 0.0000 25.6830 0.0000
# 6 0.0000 0.0000 0.0000 102.7297 0.0000 -24.8565
#
#
#
# Elastic Compliance Matrix: (Units=1/GPa)
#
#
# Indices 1 2 3 4 5 6 
#
# 1 0.048119 0.028869 -0.009236 0.000000 0.005924 0.000000
# 2 0.028869 0.034888 -0.010809 0.000000 0.006690 0.000000
# 3 -0.009236 -0.010809 0.011663 0.000000 -0.003997 0.000000
# 4 0.000000 0.000000 0.000000 -0.041211 0.000000 -0.170322
# 5 0.005924 0.006690 -0.003997 0.000000 0.040669 0.000000
# 6 0.000000 0.000000 0.000000 -0.170322 0.000000 -0.744154
#
#
# Mechanical properties :
#
#
# Convention : Reuss Voigt Hill
#
# Bulk Modulus (GPa) = 8.90327 26.36465 17.63396
# Shear Modulus (GPa) = -7.93356 -74.40843 -41.17100
#
# Velocity S-wave (km/s) = -2.03301 -6.22609 -4.63127
# Velocity P-wave (km/s) = 0.93409 6.16040 4.40585
#
# Compressibility (1/GPa) = 0.11231833
#
# Stress axis : x y z
#
# Youngs Moduli (GPa) = 20.78163 28.66310 85.73890
#
# Poissons Ratio (x) = -0.82747 0.79189
# Poissons Ratio (y) = -0.59994 0.92676
# Poissons Ratio (z) = 0.19194 0.30982
#
# Static dielectric constant tensor:
#      x y z
#    x 1.662860 0.000000 -0.011500 
#    y 0.000000 1.674710 0.000000 
#    z -0.011500 0.000000 1.665800 
# 
# From -- ./inp_files/289265.got.cif
#   From: 2010.05.17/outbox.cif.g08.bks.cpg/sg12_145_cif.got.tgz:289265.got - 2010.06.03 13:09:07.
