data_PCOD9203896
_publ_section_title
;
Structure prediction by ZEFSAII (Michael W. Deem and Ramdas Pophale) SiO2 
 PCOD9203896
Probable space group: C 2/M
;
_chemical_formula_sum "Si O2"
_cell_formula_units_Z 56
_cell_length_a 14.497852
_cell_length_b 28.518515
_cell_length_c 9.407216
_cell_angle_alpha 90.000000
_cell_angle_beta 131.239241
_cell_angle_gamma 90.000000
_cell_volume 2924.748368
_symmetry_space_group_name_H-M "C 2/M"
_symmetry_group_IT_number 12
_symmetry_cell_setting 'monoclinic'
loop_
_space_group_symop_operation_xyz
x,y,z
-x,y,-z
-x,-y,-z
x,-y,z
1/2+x,1/2+y,z
1/2-x,1/2+y,-z
1/2-x,1/2-y,-z
1/2+x,1/2-y,z
loop_
_atom_site_type_symbol
_atom_site_label
_atom_site_fract_x
_atom_site_fract_y
_atom_site_fract_z
Si Si1 0.995479 0.694564 0.323383
Si Si2 0.371353 0.719474 0.088888
Si Si3 0.040970 0.554716 0.205118
Si Si4 0.722873 0.861776 0.436205
Si Si5 0.369314 0.636462 0.307165
Si Si6 0.136577 0.137991 0.144738
Si Si7 0.817533 0.393833 0.105529
O O1 0.975069 0.741650 0.213506
O O2 0.888247 0.656616 0.178433
O O3 0.000000 0.701495 0.500000
O O4 0.119558 0.671880 0.393771
O O5 0.393641 0.681167 0.233381
O O6 0.250000 0.750000 0.000000
O O7 0.363254 0.688417 0.937461
O O8 0.068401 0.500000 0.247538
O O9 0.156030 0.587865 0.355607
O O10 0.925913 0.569623 0.187268
O O11 0.000000 0.564147 0.000000
O O12 0.779802 0.849090 0.343588
O O13 0.830425 0.859371 0.658585
O O14 0.500000 0.618620 0.500000
O O15 0.285512 0.603357 0.122092
O O16 0.240183 0.106892 0.171965
O O17 0.000000 0.118425 0.000000
#
# Coordination Sequence:
#
# PCOD9203896 Si02
#       7
#     8   8   8   8   8   8   8
#     4  11  20  37  60  82 117 160 206 262 301 347
#     4  11  21  38  55  79 123 159 211 261 294 340
#     4  10  21  39  70 102 120 141 194 263 312 370
#     4  11  22  39  64  91 116 165 201 245 320 361
#     4  11  22  37  57  81 118 166 207 243 291 364
#     4  11  23  39  58  83 123 170 206 244 295 365
#     4  10  20  40  60  85 121 158 192 244 322 356
#
# _framework density 19.146947000000001
#
# number of rings (size 3 to 8) (size 9 to 14) (size 15 to 20)
#    0.000    1.286    5.714    2.143    0.000    1.143 
#    0.000    4.286    0.000    5.143    0.000    0.000 
#    0.000    0.000    0.000    0.000    0.000    0.000 
#
# Total GULP energy -156214.644721 kJ/mol
# GULP energy per Si atom -5579.094454 kJ/mol
# Density = 1.910337 g / cm^3
# Si number density = 19.146947 Si / 1000 Ang^3
#
#
#
# Elastic Constant Matrix: (Units=GPa)
#
#
# Indices 1 2 3 4 5 6 
#
# 1 38.8218 1.5870 -20.7734 0.0000 5.5133 0.0000
# 2 1.5870 69.6596 23.9949 0.0000 -1.5362 0.0000
# 3 -20.7734 23.9949 75.0071 0.0000 4.4743 0.0000
# 4 0.0000 0.0000 0.0000 11.0022 0.0000 -3.1723
# 5 5.5133 -1.5362 4.4743 0.0000 37.3885 0.0000
# 6 0.0000 0.0000 0.0000 -3.1723 0.0000 14.8463
#
#
#
# Elastic Compliance Matrix: (Units=1/GPa)
#
#
# Indices 1 2 3 4 5 6 
#
# 1 0.032686 -0.004644 0.010915 0.000000 -0.006317 0.000000
# 2 -0.004644 0.016855 -0.006809 0.000000 0.002192 0.000000
# 3 0.010915 -0.006809 0.018780 0.000000 -0.004137 0.000000
# 4 0.000000 0.000000 0.000000 0.096858 0.000000 0.020696
# 5 -0.006317 0.002192 -0.004137 0.000000 0.028263 0.000000
# 6 0.000000 0.000000 0.000000 0.020696 0.000000 0.071779
#
#
# Mechanical properties :
#
#
# Convention : Reuss Voigt Hill
#
# Bulk Modulus (GPa) = 14.87081 21.45616 18.16348
# Shear Modulus (GPa) = 17.31832 24.55941 20.93886
#
# Velocity S-wave (km/s) = 3.01075 3.58534 3.31053
# Velocity P-wave (km/s) = 4.45754 5.32634 4.91119
#
# Compressibility (1/GPa) = 0.06724582
#
# Stress axis : x y z
#
# Youngs Moduli (GPa) = 30.59399 59.32959 53.24850
#
# Poissons Ratio (x) = 0.27551 -0.58120
# Poissons Ratio (y) = 0.14207 0.36256
# Poissons Ratio (z) = -0.33393 0.40396
#
# Static dielectric constant tensor:
#      x y z
#    x 1.687500 0.000000 0.014090 
#    y 0.000000 1.641350 0.000000 
#    z 0.014090 0.000000 1.716420 
# 
# From -- ./inp_files/68320.got.cif
#   From: 2010.05.17/outbox.cif.g08.bks.cpg/sg12_35_cif.got.tgz:68320.got - 2010.06.03 13:09:07.
