data_PCOD9203372
_publ_section_title
;
Structure prediction by ZEFSAII (Michael W. Deem and Ramdas Pophale) SiO2 
 PCOD9203372
Probable space group: C 2/M
;
_chemical_formula_sum "Si O2"
_cell_formula_units_Z 64
_cell_length_a 29.685852
_cell_length_b 9.070227
_cell_length_c 12.621890
_cell_angle_alpha 90.000000
_cell_angle_beta 89.396320
_cell_angle_gamma 90.000000
_cell_volume 3398.348854
_symmetry_space_group_name_H-M "C 2/M"
_symmetry_group_IT_number 12
_symmetry_cell_setting 'monoclinic'
loop_
_space_group_symop_operation_xyz
x,y,z
-x,y,-z
-x,-y,-z
x,-y,z
1/2+x,1/2+y,z
1/2-x,1/2+y,-z
1/2-x,1/2-y,-z
1/2+x,1/2-y,z
loop_
_atom_site_type_symbol
_atom_site_label
_atom_site_fract_x
_atom_site_fract_y
_atom_site_fract_z
Si Si1 0.574517 0.828480 0.221760
Si Si2 0.247327 0.174578 0.335341
Si Si3 0.387837 0.677595 0.170081
Si Si4 0.143514 0.671045 0.037500
Si Si5 0.856250 0.177102 0.620509
Si Si6 0.728224 0.326245 0.101270
Si Si7 0.984016 0.678672 0.120268
Si Si8 0.161843 0.176682 0.611545
O O1 0.597577 0.822664 0.104837
O O2 0.606234 0.744569 0.303610
O O3 0.523568 0.778476 0.201662
O O4 0.573867 0.000000 0.253207
O O5 0.195797 0.223819 0.356623
O O6 0.254760 0.195977 0.209239
O O7 0.287955 0.256466 0.391490
O O8 0.249312 0.000000 0.359145
O O9 0.388769 0.500000 0.164034
O O10 0.437610 0.743999 0.153048
O O11 0.365131 0.721552 0.282237
O O12 0.359913 0.743649 0.072421
O O13 0.155341 0.500000 0.019251
O O14 0.179864 0.750070 0.110310
O O15 0.863671 0.214205 0.496705
O O16 0.857071 0.000000 0.634308
O O17 0.723172 0.500000 0.084687
O O18 0.750000 0.250000 0.000000
O O19 0.978608 0.500000 0.122912
O O20 0.000000 0.716421 0.000000
O O21 0.166611 0.000000 0.614228
#
# Coordination Sequence:
#
# PCOD9203372 Si02
#       8
#     8   8   8   8   8   8   8   8
#     4  10  21  37  60  88 114 144 188 235 288 347
#     4  10  21  36  57  84 112 147 197 243 282 336
#     4  11  23  38  58  88 119 152 195 237 286 350
#     4  11  21  36  57  82 115 154 188 233 292 343
#     4  10  21  40  61  83 115 153 194 243 288 331
#     4  11  22  35  51  80 117 154 194 236 287 348
#     4  10  20  39  62  87 118 151 187 234 291 349
#     4  10  23  40  58  82 116 155 194 238 288 339
#
# _framework density 18.832674000000001
#
# number of rings (size 3 to 8) (size 9 to 14) (size 15 to 20)
#    0.000    1.625    2.500    2.250    0.000    6.250 
#    0.000    0.625    0.000    3.750    0.000    0.000 
#    0.000    0.000    0.000    0.000    0.000    0.000 
#
# Total GULP energy -178644.420060 kJ/mol
# GULP energy per Si atom -5582.638127 kJ/mol
# Density = 1.878981 g / cm^3
# Si number density = 18.832674 Si / 1000 Ang^3
#
#
#
# Elastic Constant Matrix: (Units=GPa)
#
#
# Indices 1 2 3 4 5 6 
#
# 1 87.4300 25.9135 42.4369 0.0000 18.9206 0.0000
# 2 25.9135 39.9364 41.6954 0.0000 11.2014 0.0000
# 3 42.4369 41.6954 113.1671 0.0000 15.7513 0.0000
# 4 0.0000 0.0000 0.0000 22.3978 0.0000 5.3262
# 5 18.9206 11.2014 15.7513 0.0000 25.3369 0.0000
# 6 0.0000 0.0000 0.0000 5.3262 0.0000 32.7380
#
#
#
# Elastic Compliance Matrix: (Units=1/GPa)
#
#
# Indices 1 2 3 4 5 6 
#
# 1 0.016142 -0.005015 -0.003105 0.000000 -0.007907 0.000000
# 2 -0.005015 0.044448 -0.013446 0.000000 -0.007547 0.000000
# 3 -0.003105 -0.013446 0.015112 0.000000 -0.001132 0.000000
# 4 0.000000 0.000000 0.000000 0.046444 0.000000 -0.007556
# 5 -0.007907 -0.007547 -0.001132 0.000000 0.049413 0.000000
# 6 0.000000 0.000000 0.000000 -0.007556 0.000000 0.031775
#
#
# Mechanical properties :
#
#
# Convention : Reuss Voigt Hill
#
# Bulk Modulus (GPa) = 30.70102 51.18059 40.94080
# Shear Modulus (GPa) = 19.43082 24.79372 22.11227
#
# Velocity S-wave (km/s) = 3.21559 3.63233 3.43030
# Velocity P-wave (km/s) = 5.48854 6.69532 6.12174
#
# Compressibility (1/GPa) = 0.03257221
#
# Stress axis : x y z
#
# Youngs Moduli (GPa) = 61.94892 22.49804 66.17086
#
# Poissons Ratio (x) = 0.11282 0.20547
# Poissons Ratio (y) = 0.31065 0.88972
# Poissons Ratio (z) = 0.19236 0.30250
#
# Static dielectric constant tensor:
#      x y z
#    x 1.645890 0.000000 -0.019570 
#    y 0.000000 1.629160 0.000000 
#    z -0.019570 0.000000 1.669700 
# 
# From -- ./inp_files/187534.got.cif
#   From: 2010.05.17/outbox.cif.g08.bks.cpg/sg12_94_cif.got.tgz:187534.got - 2010.06.03 13:09:07.
