data_PCOD9203588
_publ_section_title
;
Structure prediction by ZEFSAII (Michael W. Deem and Ramdas Pophale) SiO2 
 PCOD9203588
Probable space group: C 2/M
;
_chemical_formula_sum "Si O2"
_cell_formula_units_Z 48
_cell_length_a 10.795477
_cell_length_b 26.156750
_cell_length_c 13.926694
_cell_angle_alpha 90.000000
_cell_angle_beta 145.683215
_cell_angle_gamma 90.000000
_cell_volume 2217.042906
_symmetry_space_group_name_H-M "C 2/M"
_symmetry_group_IT_number 12
_symmetry_cell_setting 'monoclinic'
loop_
_space_group_symop_operation_xyz
x,y,z
-x,y,-z
-x,-y,-z
x,-y,z
1/2+x,1/2+y,z
1/2-x,1/2+y,-z
1/2-x,1/2-y,-z
1/2+x,1/2-y,z
loop_
_atom_site_type_symbol
_atom_site_label
_atom_site_fract_x
_atom_site_fract_y
_atom_site_fract_z
Si Si1 0.380215 0.267122 0.178977
Si Si2 0.672439 0.058688 0.889711
Si Si3 0.451275 0.388265 0.219599
Si Si4 0.404145 0.941711 0.543607
Si Si5 0.751553 0.215262 0.306708
Si Si6 0.763172 0.095610 0.294471
O O1 0.423788 0.327687 0.205751
O O2 0.608083 0.239189 0.300261
O O3 0.250000 0.250000 0.000000
O O4 0.741879 0.258980 0.796238
O O5 0.597602 0.076849 0.736980
O O6 0.438550 0.063412 0.794915
O O7 0.744733 0.000000 0.931840
O O8 0.860041 0.090829 0.061342
O O9 0.695223 0.405259 0.404428
O O10 0.302307 0.413074 0.207505
O O11 0.500000 0.944979 0.500000
O O12 0.340832 0.000000 0.533550
O O13 0.692966 0.155287 0.259628
O O14 0.000000 0.216995 0.500000
O O15 0.000000 0.088482 0.500000
#
# Coordination Sequence:
#
# PCOD9203588 Si02
#       6
#     8   8   8   8   8   8
#     4  11  23  42  62  92 128 165 207 259 313 369
#     4  11  23  39  65  95 123 161 206 254 308 372
#     4  11  23  41  64  92 127 163 203 255 313 368
#     4  10  23  44  64  88 125 165 208 256 307 364
#     4  10  22  41  65  89 125 167 207 256 313 370
#     4  10  20  39  64  92 127 162 200 254 315 368
#
# _framework density 21.650461
#
# number of rings (size 3 to 8) (size 9 to 14) (size 15 to 20)
#    0.000    1.500    1.667    3.000    0.000    6.333 
#   12.000    2.500    0.000    0.000    0.000    0.000 
#    0.000    0.000    0.000    0.000    0.000    0.000 
#
# Total GULP energy -134011.345033 kJ/mol
# GULP energy per Si atom -5583.806043 kJ/mol
# Density = 2.160118 g / cm^3
# Si number density = 21.650461 Si / 1000 Ang^3
#
#
#
# Elastic Constant Matrix: (Units=GPa)
#
#
# Indices 1 2 3 4 5 6 
#
# 1 52.4083 -1.8565 -1.9444 0.0000 -21.1611 0.0000
# 2 -1.8565 26.4763 17.6036 0.0000 -5.5690 0.0000
# 3 -1.9444 17.6036 56.9706 0.0000 -29.4580 0.0000
# 4 0.0000 0.0000 0.0000 30.0976 0.0000 -1.7870
# 5 -21.1611 -5.5690 -29.4580 0.0000 35.9700 0.0000
# 6 0.0000 0.0000 0.0000 -1.7870 0.0000 42.9721
#
#
#
# Elastic Compliance Matrix: (Units=1/GPa)
#
#
# Indices 1 2 3 4 5 6 
#
# 1 0.035289 -0.004354 0.022437 0.000000 0.038462 0.000000
# 2 -0.004354 0.049473 -0.022200 0.000000 -0.013083 0.000000
# 3 0.022437 -0.022200 0.052428 0.000000 0.052699 0.000000
# 4 0.000000 0.000000 0.000000 0.033308 0.000000 0.001385
# 5 0.038462 -0.013083 0.052699 0.000000 0.091561 0.000000
# 6 0.000000 0.000000 0.000000 0.001385 0.000000 0.023329
#
#
# Mechanical properties :
#
#
# Convention : Reuss Voigt Hill
#
# Bulk Modulus (GPa) = 7.75457 18.16229 12.95843
# Shear Modulus (GPa) = 14.85419 29.94476 22.39947
#
# Velocity S-wave (km/s) = 2.62218 3.72304 3.22000
# Velocity P-wave (km/s) = 3.57173 5.18541 4.45228
#
# Compressibility (1/GPa) = 0.12895626
#
# Stress axis : x y z
#
# Youngs Moduli (GPa) = 28.33743 20.21301 19.07391
#
# Poissons Ratio (x) = 0.08800 -0.42796
# Poissons Ratio (y) = 0.12337 0.42345
# Poissons Ratio (z) = -0.63581 0.44873
#
# Static dielectric constant tensor:
#      x y z
#    x 1.819940 0.000000 -0.027070 
#    y 0.000000 1.821380 0.000000 
#    z -0.027070 0.000000 1.811780 
# 
# From -- ./inp_files/209911.got.cif
#   From: 2010.05.17/outbox.cif.g08.bks.cpg/sg12_105_cif.got.tgz:209911.got - 2010.06.03 13:09:07.
