data_PCOD9203568
_publ_section_title
;
Structure prediction by ZEFSAII (Michael W. Deem and Ramdas Pophale) SiO2 
 PCOD9203568
Probable space group: C 2/M
;
_chemical_formula_sum "Si O2"
_cell_formula_units_Z 58
_cell_length_a 20.522258
_cell_length_b 7.513556
_cell_length_c 25.535862
_cell_angle_alpha 90.000000
_cell_angle_beta 136.555961
_cell_angle_gamma 90.000000
_cell_volume 2707.609133
_symmetry_space_group_name_H-M "C 2/M"
_symmetry_group_IT_number 12
_symmetry_cell_setting 'monoclinic'
loop_
_space_group_symop_operation_xyz
x,y,z
-x,y,-z
-x,-y,-z
x,-y,z
1/2+x,1/2+y,z
1/2-x,1/2+y,-z
1/2-x,1/2-y,-z
1/2+x,1/2-y,z
loop_
_atom_site_type_symbol
_atom_site_label
_atom_site_fract_x
_atom_site_fract_y
_atom_site_fract_z
Si Si1 0.224902 0.788426 0.837436
Si Si2 0.665735 0.215955 0.592598
Si Si3 0.672778 0.787172 0.999647
Si Si4 0.311112 0.287905 0.586808
Si Si5 0.004852 0.293864 0.167228
Si Si6 0.000000 0.000000 0.500000
Si Si7 0.706435 0.711558 0.237510
Si Si8 0.984950 0.797095 0.274420
O O1 0.286801 0.716378 0.921889
O O2 0.274322 0.764299 0.810703
O O3 0.117590 0.714663 0.773697
O O4 0.214662 0.000000 0.841411
O O5 0.750604 0.264446 0.602168
O O6 0.577524 0.341869 0.530074
O O7 0.705421 0.259076 0.673734
O O8 0.648231 0.000000 0.578401
O O9 0.662258 0.000000 0.999711
O O10 0.750000 0.750000 0.000000
O O11 0.572398 0.721252 0.918954
O O12 0.322117 0.500000 0.598005
O O13 0.250000 0.250000 0.500000
O O14 0.417833 0.213052 0.647482
O O15 0.981112 0.500000 0.164209
O O16 0.109099 0.285401 0.204006
O O17 0.997450 0.199962 0.218875
O O18 0.697297 0.500000 0.235120
O O19 0.980808 0.000000 0.292599
#
# Coordination Sequence:
#
# PCOD9203568 Si02
#       8
#     8   8   8   8   8   2   8   8
#     4  10  22  39  62  93 130 166 212 267 322 384
#     4  10  24  45  66  98 133 171 221 275 326 396
#     4  10  21  37  60  93 129 166 209 270 322 379
#     4  10  22  40  64  94 129 160 210 273 323 385
#     4  11  22  36  64  95 123 166 218 260 315 392
#     4  12  26  40  76  94 132 178 222 258 352 406
#     4  11  24  43  65  88 129 171 215 266 320 382
#     4  10  20  39  64  90 122 166 208 254 319 379
#
# _framework density 21.421112000000001
#
# number of rings (size 3 to 8) (size 9 to 14) (size 15 to 20)
#    0.000    1.655    2.759    1.034    2.897    3.862 
#    2.483    4.138    0.000    0.000    0.000    0.000 
#    0.000    0.000    0.000    0.000    0.000    0.000 
#
# Total GULP energy -161706.017636 kJ/mol
# GULP energy per Si atom -5576.069574 kJ/mol
# Density = 2.137236 g / cm^3
# Si number density = 21.421112 Si / 1000 Ang^3
#
#
#
# Elastic Constant Matrix: (Units=GPa)
#
#
# Indices 1 2 3 4 5 6 
#
# 1 61.1164 -11.5271 5.2430 0.0000 3.2923 -0.0001
# 2 -11.5271 64.3019 7.7049 0.0001 15.4171 -0.0003
# 3 5.2430 7.7049 67.8772 0.0000 -3.5906 0.0000
# 4 0.0000 0.0001 0.0000 15.9045 0.0000 -6.7046
# 5 3.2923 15.4171 -3.5906 0.0000 40.4509 0.0000
# 6 -0.0001 -0.0003 0.0000 -6.7046 0.0000 17.9986
#
#
#
# Elastic Compliance Matrix: (Units=1/GPa)
#
#
# Indices 1 2 3 4 5 6 
#
# 1 0.017483 0.004134 -0.001988 0.000000 -0.003175 0.000000
# 2 0.004134 0.018458 -0.002818 0.000000 -0.007621 0.000000
# 3 -0.001988 -0.002818 0.015343 0.000000 0.002598 0.000000
# 4 0.000000 0.000000 0.000000 0.074588 0.000000 0.027785
# 5 -0.003175 -0.007621 0.002598 0.000000 0.028115 0.000000
# 6 0.000000 0.000000 0.000000 0.027785 0.000000 0.065910
#
#
# Mechanical properties :
#
#
# Convention : Reuss Voigt Hill
#
# Bulk Modulus (GPa) = 20.02370 21.79301 20.90836
# Shear Modulus (GPa) = 21.01836 27.66246 24.34041
#
# Velocity S-wave (km/s) = 3.13581 3.59745 3.37453
# Velocity P-wave (km/s) = 4.74120 5.23940 4.99651
#
# Compressibility (1/GPa) = 0.04994081
#
# Stress axis : x y z
#
# Youngs Moduli (GPa) = 57.19724 54.17839 65.17520
#
# Poissons Ratio (x) = -0.22395 0.12954
# Poissons Ratio (y) = -0.23643 0.18364
# Poissons Ratio (z) = 0.11369 0.15265
#
# Static dielectric constant tensor:
#      x y z
#    x 1.728410 0.000000 0.023820 
#    y 0.000000 1.802470 0.000000 
#    z 0.023820 0.000000 1.776280 
# 
# From -- ./inp_files/346530.got.cif
#   From: 2010.05.17/outbox.cif.g08.bks.cpg/sg12_174_cif.got.tgz:346530.got - 2010.06.03 13:09:07.
