data_PCOD9203475
_publ_section_title
;
Structure prediction by ZEFSAII (Michael W. Deem and Ramdas Pophale) SiO2 
 PCOD9203475
Probable space group: C 2/M
;
_chemical_formula_sum "Si O2"
_cell_formula_units_Z 44
_cell_length_a 18.165547
_cell_length_b 25.958768
_cell_length_c 5.544783
_cell_angle_alpha 90.000000
_cell_angle_beta 43.347393
_cell_angle_gamma 90.000000
_cell_volume 1794.762997
_symmetry_space_group_name_H-M "C 2/M"
_symmetry_group_IT_number 12
_symmetry_cell_setting 'monoclinic'
loop_
_space_group_symop_operation_xyz
x,y,z
-x,y,-z
-x,-y,-z
x,-y,z
1/2+x,1/2+y,z
1/2-x,1/2+y,-z
1/2-x,1/2-y,-z
1/2+x,1/2-y,z
loop_
_atom_site_type_symbol
_atom_site_label
_atom_site_fract_x
_atom_site_fract_y
_atom_site_fract_z
Si Si1 0.413758 0.000000 0.455865
Si Si2 0.679760 0.390093 0.630596
Si Si3 0.500000 0.090559 0.500000
Si Si4 0.357141 0.814548 0.737415
Si Si5 0.661791 0.793929 0.721643
Si Si6 0.719572 0.000000 0.717477
Si Si7 0.385105 0.653850 0.713425
O O1 0.487810 0.949499 0.310596
O O2 0.350663 0.000000 0.360583
O O3 0.335311 0.000000 0.882452
O O4 0.780730 0.350210 0.402982
O O5 0.714319 0.447150 0.472476
O O6 0.611015 0.369528 0.566265
O O7 0.632710 0.384999 0.014587
O O8 0.599274 0.128002 0.315647
O O9 0.398628 0.794353 0.385428
O O10 0.391934 0.786059 0.894428
O O11 0.226916 0.814279 0.028388
O O12 0.750000 0.750000 0.500000
O O13 0.500000 0.678442 0.500000
#
# Coordination Sequence:
#
# PCOD9203475 Si02
#       7
#     4   8   4   8   8   4   8
#     4  11  24  36  64  94 132 186 204 260 296 412
#     4  10  21  36  63  92 121 163 201 275 307 377
#     4  11  24  42  64 100 138 168 220 247 336 366
#     4  10  22  38  65  91 128 167 200 274 305 388
#     4  10  20  39  66  88 123 165 213 259 317 372
#     4  12  22  43  63  98 132 170 225 247 334 368
#     4  10  20  39  63  89 120 165 213 260 321 368
#
# _framework density 24.515771000000001
#
# number of rings (size 3 to 8) (size 9 to 14) (size 15 to 20)
#    0.000    1.636    0.000    6.545    0.000    3.636 
#    0.000    2.727   48.000    0.000    0.000    0.000 
#    0.000    0.000    0.000    0.000    0.000    0.000 
#
# Total GULP energy -122761.310446 kJ/mol
# GULP energy per Si atom -5580.059566 kJ/mol
# Density = 2.445997 g / cm^3
# Si number density = 24.515771 Si / 1000 Ang^3
#
#
#
# Elastic Constant Matrix: (Units=GPa)
#
#
# Indices 1 2 3 4 5 6 
#
# 1 219.2865 26.5747 72.0157 0.0000 28.9605 0.0000
# 2 26.5747 106.5620 33.4656 0.0000 4.4093 0.0000
# 3 72.0157 33.4656 140.2449 0.0000 45.5141 0.0000
# 4 0.0000 0.0000 0.0000 18.3087 0.0000 7.3572
# 5 28.9605 4.4093 45.5141 0.0000 64.9036 0.0000
# 6 0.0000 0.0000 0.0000 7.3572 0.0000 28.8420
#
#
#
# Elastic Compliance Matrix: (Units=1/GPa)
#
#
# Indices 1 2 3 4 5 6 
#
# 1 0.005536 -0.000573 -0.002482 0.000000 -0.000691 0.000000
# 2 -0.000573 0.010290 -0.002612 0.000000 0.001388 0.000000
# 3 -0.002482 -0.002612 0.011148 0.000000 -0.006533 0.000000
# 4 0.000000 0.000000 0.000000 0.060857 0.000000 -0.015524
# 5 -0.000691 0.001388 -0.006533 0.000000 0.020203 0.000000
# 6 0.000000 0.000000 0.000000 -0.015524 0.000000 0.038632
#
#
# Mechanical properties :
#
#
# Convention : Reuss Voigt Hill
#
# Bulk Modulus (GPa) = 63.93271 81.13393 72.53332
# Shear Modulus (GPa) = 30.63513 44.68003 37.65758
#
# Velocity S-wave (km/s) = 3.53882 4.27371 3.92351
# Velocity P-wave (km/s) = 6.54465 7.58414 7.08349
#
# Compressibility (1/GPa) = 0.01564144
#
# Stress axis : x y z
#
# Youngs Moduli (GPa) = 180.63778 97.18360 89.70056
#
# Poissons Ratio (x) = 0.05564 0.22263
# Poissons Ratio (y) = 0.10343 0.23428
# Poissons Ratio (z) = 0.44832 0.25383
#
# Static dielectric constant tensor:
#      x y z
#    x 1.925330 0.000000 0.000550 
#    y 0.000000 1.927730 0.000000 
#    z 0.000550 0.000000 2.059040 
# 
# From -- ./inp_files/17569.got.cif
#   From: 2010.05.17/outbox.cif.g08.bks.cpg/sg12_9_cif.got.tgz:17569.got - 2010.06.03 13:09:07.
