data_PCOD9203006
_publ_section_title
;
Structure prediction by ZEFSAII (Michael W. Deem and Ramdas Pophale) SiO2 
 PCOD9203006
Probable space group: C 2/M
;
_chemical_formula_sum "Si O2"
_cell_formula_units_Z 40
_cell_length_a 25.336892
_cell_length_b 8.871552
_cell_length_c 10.100840
_cell_angle_alpha 90.000000
_cell_angle_beta 116.021260
_cell_angle_gamma 90.000000
_cell_volume 2040.290406
_symmetry_space_group_name_H-M "C 2/M"
_symmetry_group_IT_number 12
_symmetry_cell_setting 'monoclinic'
loop_
_space_group_symop_operation_xyz
x,y,z
-x,y,-z
-x,-y,-z
x,-y,z
1/2+x,1/2+y,z
1/2-x,1/2+y,-z
1/2-x,1/2-y,-z
1/2+x,1/2-y,z
loop_
_atom_site_type_symbol
_atom_site_label
_atom_site_fract_x
_atom_site_fract_y
_atom_site_fract_z
Si Si1 0.649429 0.321255 0.172972
Si Si2 0.883933 0.321558 0.348378
Si Si3 0.942740 0.679946 0.131015
Si Si4 0.259986 0.320926 0.156099
Si Si5 0.075906 0.319775 0.315342
O O1 0.656068 0.500000 0.176909
O O2 0.710062 0.243718 0.197356
O O3 0.625359 0.265124 0.287126
O O4 0.600411 0.267935 0.013190
O O5 0.868750 0.500000 0.331362
O O6 0.922264 0.294496 0.259509
O O7 0.824354 0.227573 0.274115
O O8 0.917881 0.290156 0.521684
O O9 0.937369 0.500000 0.098137
O O10 0.010934 0.722164 0.193634
O O11 0.254608 0.500000 0.140888
O O12 0.250000 0.250000 0.000000
O O13 0.082336 0.500000 0.302612
#
# Coordination Sequence:
#
# PCOD9203006 Si02
#       5
#     8   8   8   8   8
#     4  12  25  40  61  90 124 165 207 253 304 356
#     4  10  21  39  65  94 124 160 203 251 303 363
#     4  10  20  38  65  92 123 163 206 251 300 362
#     4  12  24  41  65  91 120 157 202 253 305 364
#     4  10  22  40  62  92 127 164 204 248 304 364
#
# _framework density 19.605051
#
# number of rings (size 3 to 8) (size 9 to 14) (size 15 to 20)
#    0.000    1.200    2.000    4.800    0.000    7.200 
#    0.000    0.000    0.000    3.600    0.000    0.000 
#    0.000    0.000    0.000    0.000    0.000    0.000 
#
# Total GULP energy -111889.306746 kJ/mol
# GULP energy per Si atom -5594.465337 kJ/mol
# Density = 1.956043 g / cm^3
# Si number density = 19.605051 Si / 1000 Ang^3
#
#
#
# Elastic Constant Matrix: (Units=GPa)
#
#
# Indices 1 2 3 4 5 6 
#
# 1 86.0769 31.4037 -13.3364 0.0000 3.2498 0.0000
# 2 31.4037 69.7241 8.9488 0.0000 0.9647 0.0000
# 3 -13.3364 8.9488 28.7637 0.0000 -5.0934 0.0000
# 4 0.0000 0.0000 0.0000 25.0712 0.0000 1.4435
# 5 3.2498 0.9647 -5.0934 0.0000 36.7159 0.0000
# 6 0.0000 0.0000 0.0000 1.4435 0.0000 31.1285
#
#
#
# Elastic Compliance Matrix: (Units=1/GPa)
#
#
# Indices 1 2 3 4 5 6 
#
# 1 0.016392 -0.008714 0.010349 0.000000 0.000214 0.000000
# 2 -0.008714 0.019612 -0.010351 0.000000 -0.001180 0.000000
# 3 0.010349 -0.010351 0.043745 0.000000 0.005424 0.000000
# 4 0.000000 0.000000 0.000000 0.039993 0.000000 -0.001855
# 5 0.000214 -0.001180 0.005424 0.000000 0.028001 0.000000
# 6 0.000000 0.000000 0.000000 -0.001855 0.000000 0.032211
#
#
# Mechanical properties :
#
#
# Convention : Reuss Voigt Hill
#
# Bulk Modulus (GPa) = 16.04679 26.51077 21.27878
# Shear Modulus (GPa) = 22.91910 29.08636 26.00273
#
# Velocity S-wave (km/s) = 3.42283 3.85595 3.64583
# Velocity P-wave (km/s) = 4.88097 5.77722 5.34790
#
# Compressibility (1/GPa) = 0.06231777
#
# Stress axis : x y z
#
# Youngs Moduli (GPa) = 61.00479 50.98934 22.85954
#
# Poissons Ratio (x) = 0.44433 -0.23658
# Poissons Ratio (y) = 0.53161 0.23662
# Poissons Ratio (z) = -0.63135 0.52778
#
# Static dielectric constant tensor:
#      x y z
#    x 1.665410 0.000000 -0.013240 
#    y 0.000000 1.658770 0.000000 
#    z -0.013240 0.000000 1.674520 
# 
# From -- ./inp_files/172580.got.cif
#   From: 2010.05.17/outbox.cif.g08.bks.cpg/sg12_87_cif.got.tgz:172580.got - 2010.06.03 13:09:07.
