data_PCOD9203656
_publ_section_title
;
Structure prediction by ZEFSAII (Michael W. Deem and Ramdas Pophale) SiO2 
 PCOD9203656
Probable space group: C 2/M
;
_chemical_formula_sum "Si O2"
_cell_formula_units_Z 56
_cell_length_a 18.111738
_cell_length_b 13.595653
_cell_length_c 19.999094
_cell_angle_alpha 90.000000
_cell_angle_beta 30.793570
_cell_angle_gamma 90.000000
_cell_volume 2521.129006
_symmetry_space_group_name_H-M "C 2/M"
_symmetry_group_IT_number 12
_symmetry_cell_setting 'monoclinic'
loop_
_space_group_symop_operation_xyz
x,y,z
-x,y,-z
-x,-y,-z
x,-y,z
1/2+x,1/2+y,z
1/2-x,1/2+y,-z
1/2-x,1/2-y,-z
1/2+x,1/2-y,z
loop_
_atom_site_type_symbol
_atom_site_label
_atom_site_fract_x
_atom_site_fract_y
_atom_site_fract_z
Si Si1 0.778700 0.618691 0.484664
Si Si2 0.981775 0.381997 0.807277
Si Si3 0.841147 0.117851 0.990108
Si Si4 0.759886 0.255468 0.823554
Si Si5 0.544391 0.617567 0.241192
Si Si6 0.393475 0.888545 0.146090
Si Si7 0.509994 0.881733 0.568712
O O1 0.779806 0.500000 0.481249
O O2 0.890804 0.652962 0.340852
O O3 0.611812 0.644949 0.608055
O O4 0.844167 0.645943 0.505827
O O5 0.980448 0.500000 0.802387
O O6 0.022381 0.362170 0.851980
O O7 0.820490 0.354905 0.910535
O O8 0.859618 0.183674 0.041733
O O9 0.846773 0.000000 0.999359
O O10 0.944862 0.138769 0.846572
O O11 0.831860 0.173961 0.815455
O O12 0.713483 0.196855 0.793582
O O13 0.879618 0.335090 0.710996
O O14 0.566573 0.500000 0.230622
O O15 0.331537 0.000000 0.203131
O O16 0.500000 0.894227 0.000000
O O17 0.500000 0.849766 0.500000
O O18 0.497822 0.000000 0.580109
#
# Coordination Sequence:
#
# PCOD9203656 Si02
#       7
#     8   8   8   8   8   8   8
#     4   9  18  38  63  87 115 157 205 251 307 369
#     4   9  17  35  65  89 114 160 211 249 296 366
#     4  10  20  39  65  91 121 163 209 258 311 367
#     4  12  22  37  61  93 123 158 209 259 308 371
#     4  10  22  37  59  91 126 157 198 260 323 368
#     4  10  22  40  61  90 130 171 205 251 315 377
#     4  10  22  42  63  85 122 168 210 253 310 377
#
# _framework density 22.21227
#
# number of rings (size 3 to 8) (size 9 to 14) (size 15 to 20)
#    0.000    2.000    1.429    2.143    0.000    4.000 
#    5.143    0.000    0.000    5.143    0.000    0.000 
#    0.000    0.000    0.000    0.000    0.000    0.000 
#
# Total GULP energy -156518.673293 kJ/mol
# GULP energy per Si atom -5589.952618 kJ/mol
# Density = 2.216171 g / cm^3
# Si number density = 22.212270 Si / 1000 Ang^3
#
#
#
# Elastic Constant Matrix: (Units=GPa)
#
#
# Indices 1 2 3 4 5 6 
#
# 1 76.9990 25.1000 5.5890 0.0001 16.4747 0.0000
# 2 25.1000 70.7422 10.8521 0.0000 7.0385 0.0000
# 3 5.5890 10.8521 83.9504 0.0009 12.2017 -0.0003
# 4 0.0001 0.0000 0.0009 17.1770 -0.0001 2.2273
# 5 16.4747 7.0385 12.2017 -0.0001 28.1373 0.0000
# 6 0.0000 0.0000 -0.0003 2.2273 0.0000 21.4107
#
#
#
# Elastic Compliance Matrix: (Units=1/GPa)
#
#
# Indices 1 2 3 4 5 6 
#
# 1 0.016454 -0.005098 0.000831 0.000000 -0.008719 0.000000
# 2 -0.005098 0.016241 -0.001711 0.000000 -0.000335 0.000000
# 3 0.000831 -0.001711 0.012899 -0.000001 -0.005652 0.000000
# 4 0.000000 0.000000 -0.000001 0.059013 0.000001 -0.006139
# 5 -0.008719 -0.000335 -0.005652 0.000001 0.043180 0.000000
# 6 0.000000 0.000000 0.000000 -0.006139 0.000000 0.047344
#
#
# Mechanical properties :
#
#
# Convention : Reuss Voigt Hill
#
# Bulk Modulus (GPa) = 29.72902 34.97486 32.35194
# Shear Modulus (GPa) = 22.90413 26.02170 24.46292
#
# Velocity S-wave (km/s) = 3.21463 3.42643 3.32222
# Velocity P-wave (km/s) = 5.21456 5.60659 5.41412
#
# Compressibility (1/GPa) = 0.03363717
#
# Stress axis : x y z
#
# Youngs Moduli (GPa) = 60.77440 61.57425 77.52423
#
# Poissons Ratio (x) = 0.31391 -0.06441
# Poissons Ratio (y) = 0.30983 0.13266
# Poissons Ratio (z) = -0.05050 0.10537
#
# Static dielectric constant tensor:
#      x y z
#    x 1.808640 0.000000 -0.000790 
#    y 0.000000 1.864100 0.000000 
#    z -0.000790 0.000000 1.817350 
# 
# From -- ./inp_files/316682.got.cif
#   From: 2010.05.17/outbox.cif.g08.bks.cpg/sg12_159_cif.got.tgz:316682.got - 2010.06.03 13:09:07.
