data_PCOD9203591
_publ_section_title
;
Structure prediction by ZEFSAII (Michael W. Deem and Ramdas Pophale) SiO2 
 PCOD9203591
Probable space group: C 2/M
;
_chemical_formula_sum "Si O2"
_cell_formula_units_Z 48
_cell_length_a 11.693402
_cell_length_b 23.560308
_cell_length_c 11.796786
_cell_angle_alpha 90.000000
_cell_angle_beta 132.225969
_cell_angle_gamma 90.000000
_cell_volume 2406.637319
_symmetry_space_group_name_H-M "C 2/M"
_symmetry_group_IT_number 12
_symmetry_cell_setting 'monoclinic'
loop_
_space_group_symop_operation_xyz
x,y,z
-x,y,-z
-x,-y,-z
x,-y,z
1/2+x,1/2+y,z
1/2-x,1/2+y,-z
1/2-x,1/2-y,-z
1/2+x,1/2-y,z
loop_
_atom_site_type_symbol
_atom_site_label
_atom_site_fract_x
_atom_site_fract_y
_atom_site_fract_z
Si Si1 0.912953 0.564414 0.648685
Si Si2 0.620901 0.144621 0.169439
Si Si3 0.342474 0.566507 0.704396
Si Si4 0.225166 0.372830 0.837856
Si Si5 0.415628 0.766912 0.165279
Si Si6 0.093992 0.855466 0.805076
O O1 0.894856 0.500000 0.674092
O O2 0.851171 0.606140 0.703412
O O3 0.818597 0.570890 0.469936
O O4 0.091742 0.580055 0.753824
O O5 0.528374 0.199862 0.154226
O O6 0.777936 0.152351 0.206293
O O7 0.500000 0.117106 0.000000
O O8 0.370340 0.500000 0.750309
O O9 0.332314 0.607601 0.806583
O O10 0.474801 0.593231 0.713032
O O11 0.133664 0.312467 0.771150
O O12 0.316363 0.368829 0.017094
O O13 0.486980 0.706256 0.243542
O O14 0.250000 0.750000 0.000000
#
# Coordination Sequence:
#
# PCOD9203591 Si02
#       6
#     8   8   8   8   8   8
#     4  10  22  41  63  86 119 168 207 251 309 366
#     4  11  20  39  62  92 118 152 213 249 302 371
#     4  11  25  41  60  89 130 168 205 254 314 367
#     4  10  20  39  64  93 117 159 210 254 301 366
#     4   9  19  35  63  93 119 159 197 253 309 363
#     4  11  23  38  63  95 125 161 198 258 307 369
#
# _framework density 19.944842000000001
#
# number of rings (size 3 to 8) (size 9 to 14) (size 15 to 20)
#    0.000    1.667    5.000    1.500    2.333    5.000 
#    0.000    5.000    7.333    0.000    0.000    0.000 
#    0.000    0.000    0.000    0.000    0.000    0.000 
#
# Total GULP energy -133807.267577 kJ/mol
# GULP energy per Si atom -5575.302816 kJ/mol
# Density = 1.989945 g / cm^3
# Si number density = 19.944842 Si / 1000 Ang^3
#
#
#
# Elastic Constant Matrix: (Units=GPa)
#
#
# Indices 1 2 3 4 5 6 
#
# 1 129.1054 49.9322 13.7833 0.0000 -4.7380 0.0000
# 2 49.9322 102.0440 23.0694 0.0000 -5.4435 0.0000
# 3 13.7833 23.0694 27.1301 0.0000 1.2128 0.0000
# 4 0.0000 0.0000 0.0000 60.4100 0.0000 9.1993
# 5 -4.7380 -5.4435 1.2128 0.0000 21.7779 0.0000
# 6 0.0000 0.0000 0.0000 9.1993 0.0000 9.6953
#
#
#
# Elastic Compliance Matrix: (Units=1/GPa)
#
#
# Indices 1 2 3 4 5 6 
#
# 1 0.009604 -0.004368 -0.001212 0.000000 0.001065 0.000000
# 2 -0.004368 0.014410 -0.010177 0.000000 0.003218 0.000000
# 3 -0.001212 -0.010177 0.046370 0.000000 -0.005390 0.000000
# 4 0.000000 0.000000 0.000000 0.019349 0.000000 -0.018359
# 5 0.001065 0.003218 -0.005390 0.000000 0.047254 0.000000
# 6 0.000000 0.000000 0.000000 -0.018359 0.000000 0.120563
#
#
# Mechanical properties :
#
#
# Convention : Reuss Voigt Hill
#
# Bulk Modulus (GPa) = 25.72833 47.98324 36.85579
# Shear Modulus (GPa) = 16.55509 29.80962 23.18236
#
# Velocity S-wave (km/s) = 2.88417 3.87020 3.41298
# Velocity P-wave (km/s) = 4.90092 6.63939 5.83526
#
# Compressibility (1/GPa) = 0.03886766
#
# Stress axis : x y z
#
# Youngs Moduli (GPa) = 104.12763 69.39739 21.56555
#
# Poissons Ratio (x) = 0.30316 0.02614
# Poissons Ratio (y) = 0.45487 0.21948
# Poissons Ratio (z) = 0.12621 0.70629
#
# Static dielectric constant tensor:
#      x y z
#    x 1.754100 0.000000 -0.003150 
#    y 0.000000 1.727980 0.000000 
#    z -0.003150 0.000000 1.705820 
# 
# From -- ./inp_files/134102.got.cif
#   From: 2010.05.17/outbox.cif.g08.bks.cpg/sg12_68_cif.got.tgz:134102.got - 2010.06.03 13:09:07.
