data_PCOD9203007
_publ_section_title
;
Structure prediction by ZEFSAII (Michael W. Deem and Ramdas Pophale) SiO2 
 PCOD9203007
Probable space group: C 2/M
;
_chemical_formula_sum "Si O2"
_cell_formula_units_Z 48
_cell_length_a 19.589978
_cell_length_b 10.283430
_cell_length_c 15.770358
_cell_angle_alpha 90.000000
_cell_angle_beta 132.731439
_cell_angle_gamma 90.000000
_cell_volume 2333.621127
_symmetry_space_group_name_H-M "C 2/M"
_symmetry_group_IT_number 12
_symmetry_cell_setting 'monoclinic'
loop_
_space_group_symop_operation_xyz
x,y,z
-x,y,-z
-x,-y,-z
x,-y,z
1/2+x,1/2+y,z
1/2-x,1/2+y,-z
1/2-x,1/2-y,-z
1/2+x,1/2-y,z
loop_
_atom_site_type_symbol
_atom_site_label
_atom_site_fract_x
_atom_site_fract_y
_atom_site_fract_z
Si Si1 0.436833 0.154079 0.580396
Si Si2 0.329889 0.637453 0.001335
Si Si3 0.353957 0.156285 0.687099
Si Si4 0.165120 0.154843 0.625216
Si Si5 0.534761 0.853420 0.933832
Si Si6 0.358200 0.251154 0.204580
O O1 0.364358 0.182781 0.596186
O O2 0.409994 0.251352 0.482378
O O3 0.540372 0.187117 0.700422
O O4 0.431212 0.000000 0.554188
O O5 0.366654 0.500000 0.000451
O O6 0.378037 0.760995 0.000013
O O7 0.351794 0.651120 0.119681
O O8 0.221322 0.648825 0.888555
O O9 0.262619 0.193360 0.662114
O O10 0.448845 0.205557 0.809218
O O11 0.358402 0.000000 0.699656
O O12 0.165989 0.183355 0.725968
O O13 0.148488 0.000000 0.596774
O O14 0.556527 0.000000 0.921790
O O15 0.500000 0.862304 0.000000
#
# Coordination Sequence:
#
# PCOD9203007 Si02
#       6
#     8   8   8   8   8   8
#     4  11  23  42  66  91 125 168 212 258 314 377
#     4  11  24  40  63  94 128 164 209 265 317 367
#     4   9  19  39  63  90 123 163 209 254 308 374
#     4  11  24  42  66  94 125 162 213 266 310 368
#     4  10  20  38  65  92 123 167 211 252 310 384
#     4  11  24  41  63  91 130 170 209 252 317 385
#
# _framework density 20.568892000000002
#
# number of rings (size 3 to 8) (size 9 to 14) (size 15 to 20)
#    0.000    1.500    1.667    3.000    0.000    9.000 
#    0.000    0.833    0.000    0.000    0.000    0.000 
#    0.000    0.000    0.000    0.000    0.000    0.000 
#
# Total GULP energy -133974.749373 kJ/mol
# GULP energy per Si atom -5582.281224 kJ/mol
# Density = 2.052208 g / cm^3
# Si number density = 20.568892 Si / 1000 Ang^3
#
#
#
# Elastic Constant Matrix: (Units=GPa)
#
#
# Indices 1 2 3 4 5 6 
#
# 1 110.1993 40.3092 28.1367 0.0000 4.5154 0.0000
# 2 40.3092 111.6812 40.5419 0.0000 5.7848 0.0000
# 3 28.1367 40.5419 95.1089 0.0000 0.6064 0.0000
# 4 0.0000 0.0000 0.0000 -10.1658 0.0000 -4.7623
# 5 4.5154 5.7848 0.6064 0.0000 29.9459 0.0000
# 6 0.0000 0.0000 0.0000 -4.7623 0.0000 22.9667
#
#
#
# Elastic Compliance Matrix: (Units=1/GPa)
#
#
# Indices 1 2 3 4 5 6 
#
# 1 0.010737 -0.003164 -0.001822 0.000000 -0.000971 0.000000
# 2 -0.003164 0.011641 -0.004016 0.000000 -0.001690 0.000000
# 3 -0.001822 -0.004016 0.012760 0.000000 0.000792 0.000000
# 4 0.000000 0.000000 0.000000 -0.089660 0.000000 -0.018592
# 5 -0.000971 -0.001690 0.000792 0.000000 0.033850 0.000000
# 6 0.000000 0.000000 0.000000 -0.018592 0.000000 0.039686
#
#
# Mechanical properties :
#
#
# Convention : Reuss Voigt Hill
#
# Bulk Modulus (GPa) = 58.35638 59.44055 58.89847
# Shear Modulus (GPa) = 117.02038 22.41615 69.71827
#
# Velocity S-wave (km/s) = 7.55086 3.30481 5.82826
# Velocity P-wave (km/s) = 10.22024 6.59722 8.60165
#
# Compressibility (1/GPa) = 0.01713609
#
# Stress axis : x y z
#
# Youngs Moduli (GPa) = 93.13991 85.90198 78.37117
#
# Poissons Ratio (x) = 0.27176 0.14275
# Poissons Ratio (y) = 0.29466 0.31470
# Poissons Ratio (z) = 0.16966 0.34495
#
# Static dielectric constant tensor:
#      x y z
#    x 1.762030 0.000000 -0.002510 
#    y 0.000000 1.716290 0.000000 
#    z -0.002510 0.000000 1.752810 
# 
# From -- ./inp_files/232872.got.cif
#   From: 2010.05.17/outbox.cif.g08.bks.cpg/sg12_117_cif.got.tgz:232872.got - 2010.06.03 13:09:07.
