data_PCOD9203113
_publ_section_title
;
Structure prediction by ZEFSAII (Michael W. Deem and Ramdas Pophale) SiO2 
 PCOD9203113
Probable space group: C 2/M
;
_chemical_formula_sum "Si O2"
_cell_formula_units_Z 56
_cell_length_a 20.588285
_cell_length_b 17.485591
_cell_length_c 21.151411
_cell_angle_alpha 90.000000
_cell_angle_beta 19.582364
_cell_angle_gamma 90.000000
_cell_volume 2552.078707
_symmetry_space_group_name_H-M "C 2/M"
_symmetry_group_IT_number 12
_symmetry_cell_setting 'monoclinic'
loop_
_space_group_symop_operation_xyz
x,y,z
-x,y,-z
-x,-y,-z
x,-y,z
1/2+x,1/2+y,z
1/2-x,1/2+y,-z
1/2-x,1/2-y,-z
1/2+x,1/2-y,z
loop_
_atom_site_type_symbol
_atom_site_label
_atom_site_fract_x
_atom_site_fract_y
_atom_site_fract_z
Si Si1 0.514504 0.639405 0.557498
Si Si2 0.999487 0.823688 0.147701
Si Si3 0.050398 0.691281 0.550695
Si Si4 0.025923 0.272271 0.713933
Si Si5 0.584470 0.831786 0.992073
Si Si6 0.188494 0.910190 0.869662
Si Si7 0.387140 0.915010 0.280578
O O1 0.500000 0.605756 0.500000
O O2 0.584931 0.727478 0.485511
O O3 0.662342 0.599453 0.469694
O O4 0.306797 0.647112 0.779455
O O5 0.767873 0.842297 0.358750
O O6 0.057971 0.795222 0.164657
O O7 0.039132 0.747835 0.069113
O O8 0.118782 0.890453 0.004848
O O9 0.881457 0.638609 0.676668
O O10 0.964913 0.713164 0.698484
O O11 0.250000 0.250000 0.500000
O O12 0.030213 0.351228 0.748310
O O13 0.486326 0.898232 0.122544
O O14 0.500000 0.825425 0.000000
O O15 0.227310 0.000000 0.826309
O O16 0.000000 0.889592 0.000000
O O17 0.419069 0.000000 0.274795
#
# Coordination Sequence:
#
# PCOD9203113 Si02
#       7
#     8   8   8   8   8   8   8
#     4  12  22  37  66  97 122 163 213 251 312 382
#     4  10  20  38  67  91 120 162 213 262 309 371
#     4  11  22  39  71  92 118 165 217 258 312 377
#     4   9  19  41  66  93 119 162 218 262 305 369
#     4  11  20  38  60  93 124 163 212 250 300 377
#     4  11  26  42  59  93 134 164 205 269 327 371
#     4  11  24  41  60  91 133 166 203 263 316 365
#
# _framework density 21.942896999999999
#
# number of rings (size 3 to 8) (size 9 to 14) (size 15 to 20)
#    0.000    1.286    7.143    0.429    2.000    2.857 
#    0.000    3.571    0.000    0.000    0.000    0.000 
#    0.000    0.000    0.000    0.000    0.000    0.000 
#
# Total GULP energy -156422.727672 kJ/mol
# GULP energy per Si atom -5586.525988 kJ/mol
# Density = 2.189295 g / cm^3
# Si number density = 21.942897 Si / 1000 Ang^3
#
#
#
# Elastic Constant Matrix: (Units=GPa)
#
#
# Indices 1 2 3 4 5 6 
#
# 1 71.5919 3.6350 8.1468 2.7089 4.8916 -0.7922
# 2 3.6350 76.5423 4.1334 3.0582 -5.7620 -0.8843
# 3 8.1468 4.1334 110.3618 3.9532 -15.7573 -1.1487
# 4 2.7089 3.0582 3.9532-2013.0721 -1.6288 590.5147
# 5 4.8916 -5.7620 -15.7573 -1.6288 39.9976 0.4709
# 6 -0.7922 -0.8843 -1.1487 590.5147 0.4709 -153.7082
#
#
#
# Elastic Compliance Matrix: (Units=1/GPa)
#
#
# Indices 1 2 3 4 5 6 
#
# 1 0.014328 -0.000788 -0.001372 0.000017 -0.002406 -0.000001
# 2 -0.000788 0.013256 -0.000161 0.000015 0.001943 -0.000008
# 3 -0.001372 -0.000161 0.009736 0.000013 0.003981 -0.000004
# 4 0.000017 0.000015 0.000013 0.003913 -0.000013 0.015033
# 5 -0.002406 0.001943 0.003981 -0.000013 0.027143 0.000006
# 6 -0.000001 -0.000008 -0.000004 0.015033 0.000006 0.051247
#
#
# Mechanical properties :
#
#
# Convention : Reuss Voigt Hill
#
# Bulk Modulus (GPa) = 30.60261 32.25849 31.43055
# Shear Modulus (GPa) = 36.99329 -409.18446 -186.09559
#
# Velocity S-wave (km/s) = 4.11041 -13.67047 -9.21917
# Velocity P-wave (km/s) = 6.04186 15.31152 9.94833
#
# Compressibility (1/GPa) = 0.03267695
#
# Stress axis : x y z
#
# Youngs Moduli (GPa) = 69.79370 75.43521 102.70810
#
# Poissons Ratio (x) = 0.05945 0.14094
# Poissons Ratio (y) = 0.05501 0.01659
# Poissons Ratio (z) = 0.09578 0.01218
#
# Static dielectric constant tensor:
#      x y z
#    x 1.855400 -0.000040 -0.008480 
#    y -0.000040 1.777220 0.000030 
#    z -0.008480 0.000030 1.826310 
# 
# From -- ./inp_files/322674.got.cif
#   From: 2010.05.17/outbox.cif.g08.bks.cpg/sg12_162_cif.got.tgz:322674.got - 2010.06.03 13:09:07.
