data_PCOD9203010
_publ_section_title
;
Structure prediction by ZEFSAII (Michael W. Deem and Ramdas Pophale) SiO2 
 PCOD9203010
Probable space group: C 2/M
;
_chemical_formula_sum "Si O2"
_cell_formula_units_Z 52
_cell_length_a 17.939806
_cell_length_b 15.357728
_cell_length_c 13.312934
_cell_angle_alpha 90.000000
_cell_angle_beta 138.677619
_cell_angle_gamma 90.000000
_cell_volume 2421.901927
_symmetry_space_group_name_H-M "C 2/M"
_symmetry_group_IT_number 12
_symmetry_cell_setting 'monoclinic'
loop_
_space_group_symop_operation_xyz
x,y,z
-x,y,-z
-x,-y,-z
x,-y,z
1/2+x,1/2+y,z
1/2-x,1/2+y,-z
1/2-x,1/2-y,-z
1/2+x,1/2-y,z
loop_
_atom_site_type_symbol
_atom_site_label
_atom_site_fract_x
_atom_site_fract_y
_atom_site_fract_z
Si Si1 0.945546 0.163714 0.847885
Si Si2 0.868002 0.232548 0.244458
Si Si3 0.497070 0.000000 0.142223
Si Si4 0.914680 0.852160 0.590986
Si Si5 0.131948 0.500000 0.469307
Si Si6 0.747391 0.500000 0.612954
Si Si7 0.817930 0.312400 0.401987
Si Si8 0.611351 0.182620 0.948249
O O1 0.935682 0.120263 0.727776
O O2 0.817409 0.190301 0.742127
O O3 0.029134 0.245248 0.913576
O O4 0.000000 0.116376 0.000000
O O5 0.871329 0.280610 0.352911
O O6 0.892334 0.297295 0.175374
O O7 0.962777 0.158346 0.333774
O O8 0.741864 0.196194 0.106657
O O9 0.522769 0.000000 0.288257
O O10 0.431734 0.910855 0.059802
O O11 0.622583 0.000000 0.218087
O O12 0.859414 0.755419 0.529108
O O13 0.828425 0.915212 0.446068
O O14 0.229841 0.500000 0.483988
O O15 0.144284 0.410570 0.539812
#
# Coordination Sequence:
#
# PCOD9203010 Si02
#       8
#     8   8   4   8   4   4   8   8
#     4  11  20  37  66  89 123 169 215 273 314 387
#     4  10  23  39  63  90 129 178 209 263 332 404
#     4  10  20  38  65  92 125 165 211 282 314 382
#     4  11  23  41  66  92 132 173 217 270 330 390
#     4  10  22  37  66 104 127 157 226 277 332 383
#     4  10  22  41  63 102 121 170 226 268 325 380
#     4  12  22  42  66 100 128 173 220 273 333 385
#     4  10  21  40  60  91 128 170 219 258 337 384
#
# _framework density 21.470728999999999
#
# number of rings (size 3 to 8) (size 9 to 14) (size 15 to 20)
#    0.462    0.923    3.077    3.692    0.000    1.231 
#    0.000    6.538    0.000    0.000    0.000    0.000 
#    0.000    0.000    0.000    0.000    0.000    0.000 
#
# Total GULP energy -145157.040235 kJ/mol
# GULP energy per Si atom -5582.963086 kJ/mol
# Density = 2.142186 g / cm^3
# Si number density = 21.470729 Si / 1000 Ang^3
#
#
#
# Elastic Constant Matrix: (Units=GPa)
#
#
# Indices 1 2 3 4 5 6 
#
# 1 94.0988 13.7812 28.6642 0.0000 0.0264 0.0000
# 2 13.7812 97.9868 20.2381 0.0000 17.4816 0.0000
# 3 28.6642 20.2381 92.7318 0.0000 19.0656 0.0000
# 4 0.0000 0.0000 0.0000 17.8830 0.0000 11.8737
# 5 0.0264 17.4816 19.0656 0.0000 46.7815 0.0000
# 6 0.0000 0.0000 0.0000 11.8737 0.0000 35.8340
#
#
#
# Elastic Compliance Matrix: (Units=1/GPa)
#
#
# Indices 1 2 3 4 5 6 
#
# 1 0.011982 -0.001253 -0.003848 0.000000 0.002029 0.000000
# 2 -0.001253 0.011313 -0.001324 0.000000 -0.003687 0.000000
# 3 -0.003848 -0.001324 0.013272 0.000000 -0.004912 0.000000
# 4 0.000000 0.000000 0.000000 0.071692 0.000000 -0.023755
# 5 0.002029 -0.003687 -0.004912 0.000000 0.024755 0.000000
# 6 0.000000 0.000000 0.000000 -0.023755 0.000000 0.035778
#
#
# Mechanical properties :
#
#
# Convention : Reuss Voigt Hill
#
# Bulk Modulus (GPa) = 42.16013 45.57605 43.86809
# Shear Modulus (GPa) = 26.37893 34.90861 30.64377
#
# Velocity S-wave (km/s) = 3.50894 4.03658 3.78197
# Velocity P-wave (km/s) = 6.00796 6.55732 6.28864
#
# Compressibility (1/GPa) = 0.02371909
#
# Stress axis : x y z
#
# Youngs Moduli (GPa) = 83.45810 88.39501 75.34696
#
# Poissons Ratio (x) = 0.11072 0.28991
# Poissons Ratio (y) = 0.10454 0.09973
# Poissons Ratio (z) = 0.32112 0.11701
#
# Static dielectric constant tensor:
#      x y z
#    x 1.788630 0.000000 -0.043760 
#    y 0.000000 1.787680 0.000000 
#    z -0.043760 0.000000 1.832250 
# 
# From -- ./inp_files/225808.got.cif
#   From: 2010.05.17/outbox.cif.g08.bks.cpg/sg12_113_cif.got.tgz:225808.got - 2010.06.03 13:09:07.
