data_PCOD9203825
_publ_section_title
;
Structure prediction by ZEFSAII (Michael W. Deem and Ramdas Pophale) SiO2 
 PCOD9203825
Probable space group: C 2/M
;
_chemical_formula_sum "Si O2"
_cell_formula_units_Z 60
_cell_length_a 24.659995
_cell_length_b 9.178516
_cell_length_c 22.755865
_cell_angle_alpha 90.000000
_cell_angle_beta 143.412045
_cell_angle_gamma 90.000000
_cell_volume 3070.053413
_symmetry_space_group_name_H-M "C 2/M"
_symmetry_group_IT_number 12
_symmetry_cell_setting 'monoclinic'
loop_
_space_group_symop_operation_xyz
x,y,z
-x,y,-z
-x,-y,-z
x,-y,z
1/2+x,1/2+y,z
1/2-x,1/2+y,-z
1/2-x,1/2-y,-z
1/2+x,1/2-y,z
loop_
_atom_site_type_symbol
_atom_site_label
_atom_site_fract_x
_atom_site_fract_y
_atom_site_fract_z
Si Si1 0.287524 0.000000 0.044673
Si Si2 0.029020 0.672601 0.959940
Si Si3 0.295697 0.762400 0.951875
Si Si4 0.957955 0.672713 0.583149
Si Si5 0.632632 0.169188 0.273725
Si Si6 0.641632 0.335223 0.725139
Si Si7 0.328062 0.329832 0.384090
Si Si8 0.651571 0.674139 0.408040
O O1 0.248442 0.124969 0.055447
O O2 0.318518 0.125580 0.023760
O O3 0.055454 0.500000 0.985808
O O4 0.943326 0.684278 0.842062
O O5 0.113213 0.760195 0.006548
O O6 0.000000 0.716933 0.000000
O O7 0.220269 0.825342 0.841644
O O8 0.948959 0.500000 0.583144
O O9 0.904012 0.727446 0.478629
O O10 0.912065 0.758598 0.597185
O O11 0.062109 0.721522 0.669035
O O12 0.731899 0.196711 0.332200
O O13 0.616144 0.276331 0.313530
O O14 0.631443 0.000000 0.293544
O O15 0.602782 0.500000 0.692620
O O16 0.678895 0.310246 0.691824
O O17 0.352452 0.500000 0.415989
O O18 0.658479 0.500000 0.419486
O O19 0.750000 0.750000 0.500000
#
# Coordination Sequence:
#
# PCOD9203825 Si02
#       8
#     4   8   8   8   8   8   8   8
#     4  10  24  40  68  90 130 174 218 264 334 376
#     4  10  20  39  69 101 130 168 218 266 316 385
#     4  11  22  45  66  95 130 173 216 273 324 393
#     4  12  26  42  63  94 129 168 214 266 321 378
#     4  10  21  38  65  99 127 167 211 259 320 375
#     4  11  23  41  66  96 125 170 215 258 317 385
#     4  10  21  40  66  92 131 169 209 258 315 385
#     4  12  24  42  66  92 129 168 214 265 321 387
#
# _framework density 19.543634000000001
#
# number of rings (size 3 to 8) (size 9 to 14) (size 15 to 20)
#    0.000    1.200    2.667    3.600    0.933    6.400 
#    3.600    0.333    2.933    0.000    0.000    0.000 
#    0.000    0.000    0.000    0.000    0.000    0.000 
#
# Total GULP energy -167155.674326 kJ/mol
# GULP energy per Si atom -5571.855811 kJ/mol
# Density = 1.949915 g / cm^3
# Si number density = 19.543634 Si / 1000 Ang^3
#
#
#
# Elastic Constant Matrix: (Units=GPa)
#
#
# Indices 1 2 3 4 5 6 
#
# 1 104.5929 31.9663 24.0957 0.0000 -16.9221 0.0000
# 2 31.9663 98.1243 14.0306 0.0000 -10.6613 0.0000
# 3 24.0957 14.0306 47.7922 0.0000 -0.4535 0.0000
# 4 0.0000 0.0000 0.0000 6.3785 0.0000 -6.4162
# 5 -16.9221 -10.6613 -0.4535 0.0000 25.3914 0.0000
# 6 0.0000 0.0000 0.0000 -6.4162 0.0000 21.3014
#
#
#
# Elastic Compliance Matrix: (Units=1/GPa)
#
#
# Indices 1 2 3 4 5 6 
#
# 1 0.012843 -0.002575 -0.005649 0.000000 0.007377 0.000000
# 2 -0.002575 0.011672 -0.002099 0.000000 0.003148 0.000000
# 3 -0.005649 -0.002099 0.024348 0.000000 -0.004211 0.000000
# 4 0.000000 0.000000 0.000000 0.224927 0.000000 0.067750
# 5 0.007377 0.003148 -0.004211 0.000000 0.045546 0.000000
# 6 0.000000 0.000000 0.000000 0.067750 0.000000 0.067353
#
#
# Mechanical properties :
#
#
# Convention : Reuss Voigt Hill
#
# Bulk Modulus (GPa) = 35.43823 43.41050 39.42437
# Shear Modulus (GPa) = 11.99791 22.64205 17.31998
#
# Velocity S-wave (km/s) = 2.48040 3.40742 2.98018
# Velocity P-wave (km/s) = 5.13570 6.14337 5.66200
#
# Compressibility (1/GPa) = 0.02821812
#
# Stress axis : x y z
#
# Youngs Moduli (GPa) = 77.86530 85.67563 41.07071
#
# Poissons Ratio (x) = 0.22057 0.23202
# Poissons Ratio (y) = 0.20047 0.08620
# Poissons Ratio (z) = 0.43987 0.17981
#
# Static dielectric constant tensor:
#      x y z
#    x 1.668990 0.000000 0.003120 
#    y 0.000000 1.666290 0.000000 
#    z 0.003120 0.000000 1.705460 
# 
# From -- ./inp_files/324615.got.cif
#   From: 2010.05.17/outbox.cif.g08.bks.cpg/sg12_163_cif.got.tgz:324615.got - 2010.06.03 13:09:07.
