data_PCOD9203359
_publ_section_title
;
Structure prediction by ZEFSAII (Michael W. Deem and Ramdas Pophale) SiO2 
 PCOD9203359
Probable space group: C 2/M
;
_chemical_formula_sum "Si O2"
_cell_formula_units_Z 48
_cell_length_a 17.821402
_cell_length_b 33.817139
_cell_length_c 8.415951
_cell_angle_alpha 90.000000
_cell_angle_beta 29.559354
_cell_angle_gamma 90.000000
_cell_volume 2502.159435
_symmetry_space_group_name_H-M "C 2/M"
_symmetry_group_IT_number 12
_symmetry_cell_setting 'monoclinic'
loop_
_space_group_symop_operation_xyz
x,y,z
-x,y,-z
-x,-y,-z
x,-y,z
1/2+x,1/2+y,z
1/2-x,1/2+y,-z
1/2-x,1/2-y,-z
1/2+x,1/2-y,z
loop_
_atom_site_type_symbol
_atom_site_label
_atom_site_fract_x
_atom_site_fract_y
_atom_site_fract_z
Si Si1 0.998172 0.080196 0.310550
Si Si2 0.027632 0.655667 0.626050
Si Si3 0.628534 0.500000 0.410067
Si Si4 0.992076 0.500000 0.705814
Si Si5 0.752460 0.632037 0.369721
Si Si6 0.178271 0.578627 0.453129
Si Si7 0.831550 0.290971 0.385594
O O1 0.000000 0.083944 0.500000
O O2 0.905469 0.040632 0.441491
O O3 0.902542 0.116446 0.418862
O O4 0.156786 0.072957 0.929927
O O5 0.000000 0.668285 0.500000
O O6 0.112780 0.613905 0.466570
O O7 0.126843 0.690692 0.520568
O O8 0.880297 0.643422 0.003411
O O9 0.500000 0.500000 0.500000
O O10 0.809624 0.500000 0.056953
O O11 0.076089 0.539059 0.623427
O O12 0.000000 0.500000 0.500000
O O13 0.810226 0.599073 0.392360
O O14 0.732844 0.673465 0.494324
O O15 0.750000 0.250000 0.500000
O O16 0.000000 0.288973 0.000000
#
# Coordination Sequence:
#
# PCOD9203359 Si02
#       7
#     8   8   4   4   8   8   8
#     4  11  21  37  57  84 119 158 203 253 297 353
#     4  10  20  39  62  86 115 156 202 248 298 362
#     4  10  22  37  54  79 116 156 195 247 300 348
#     4  12  22  37  60  87 121 162 208 257 301 356
#     4  10  22  40  59  86 120 155 200 250 303 363
#     4  11  22  36  59  88 118 160 203 252 309 357
#     4   9  20  38  60  85 120 155 191 240 300 363
#
# _framework density 19.183430999999999
#
# number of rings (size 3 to 8) (size 9 to 14) (size 15 to 20)
#    0.000    1.667    0.000    7.000    0.000    3.333 
#    0.000    8.333    0.000    0.000    0.000    0.000 
#    0.000    0.000    0.000    0.000    0.000    0.000 
#
# Total GULP energy -133630.032078 kJ/mol
# GULP energy per Si atom -5567.918003 kJ/mol
# Density = 1.913977 g / cm^3
# Si number density = 19.183431 Si / 1000 Ang^3
#
#
#
# Elastic Constant Matrix: (Units=GPa)
#
#
# Indices 1 2 3 4 5 6 
#
# 1 105.6494 88.2583 46.7379 0.0000 -0.3579 0.0000
# 2 88.2583 154.8379 39.8746 0.0000 -11.1460 0.0000
# 3 46.7379 39.8746 114.9099 0.0000 -11.6258 0.0000
# 4 0.0000 0.0000 0.0000 31.0902 0.0000 -26.2304
# 5 -0.3579 -11.1460 -11.6258 0.0000 29.3710 0.0000
# 6 0.0000 0.0000 0.0000 -26.2304 0.0000 15.9549
#
#
#
# Elastic Compliance Matrix: (Units=1/GPa)
#
#
# Indices 1 2 3 4 5 6 
#
# 1 0.021039 -0.011054 -0.005333 0.000000 -0.006050 0.000000
# 2 -0.011054 0.012992 0.000493 0.000000 0.004991 0.000000
# 3 -0.005333 0.000493 0.011160 0.000000 0.004539 0.000000
# 4 0.000000 0.000000 0.000000 -0.083101 0.000000 -0.136622
# 5 -0.006050 0.004991 0.004539 0.000000 0.037664 0.000000
# 6 0.000000 0.000000 0.000000 -0.136622 0.000000 -0.161934
#
#
# Mechanical properties :
#
#
# Convention : Reuss Voigt Hill
#
# Bulk Modulus (GPa) = 74.62171 80.57098 77.59635
# Shear Modulus (GPa) = -39.70629 28.65165 -5.52732
#
# Velocity S-wave (km/s) = -4.55447 3.86886 -1.69928
# Velocity P-wave (km/s) = 3.36540 7.87711 6.05701
#
# Compressibility (1/GPa) = 0.01340093
#
# Stress axis : x y z
#
# Youngs Moduli (GPa) = 47.53142 76.97273 89.60584
#
# Poissons Ratio (x) = 0.85087 0.47790
# Poissons Ratio (y) = 0.52542 -0.04416
# Poissons Ratio (z) = 0.25350 -0.03794
#
# Static dielectric constant tensor:
#      x y z
#    x 1.665880 0.000000 -0.111100 
#    y 0.000000 1.674180 0.000000 
#    z -0.111100 0.000000 1.545070 
# 
# From -- ./inp_files/80655.got.cif
#   From: 2010.05.17/outbox.cif.g08.bks.cpg/sg12_41_cif.got.tgz:80655.got - 2010.06.03 13:09:07.
