data_PCOD9203070
_publ_section_title
;
Structure prediction by ZEFSAII (Michael W. Deem and Ramdas Pophale) SiO2 
 PCOD9203070
Probable space group: C 2/M
;
_chemical_formula_sum "Si O2"
_cell_formula_units_Z 64
_cell_length_a 12.561420
_cell_length_b 15.041643
_cell_length_c 17.382530
_cell_angle_alpha 90.000000
_cell_angle_beta 87.050461
_cell_angle_gamma 90.000000
_cell_volume 3279.980668
_symmetry_space_group_name_H-M "C 2/M"
_symmetry_group_IT_number 12
_symmetry_cell_setting 'monoclinic'
loop_
_space_group_symop_operation_xyz
x,y,z
-x,y,-z
-x,-y,-z
x,-y,z
1/2+x,1/2+y,z
1/2-x,1/2+y,-z
1/2-x,1/2-y,-z
1/2+x,1/2-y,z
loop_
_atom_site_type_symbol
_atom_site_label
_atom_site_fract_x
_atom_site_fract_y
_atom_site_fract_z
Si Si1 0.132316 0.100972 0.850682
Si Si2 0.834483 0.401171 0.092935
Si Si3 0.331460 0.164701 0.920957
Si Si4 0.993118 0.100781 0.408502
Si Si5 0.276743 0.601165 0.325445
Si Si6 0.389055 0.656566 0.853414
Si Si7 0.900698 0.743841 0.692538
Si Si8 0.499723 0.896836 0.793598
O O1 0.208015 0.162429 0.899666
O O2 0.170620 0.109299 0.761117
O O3 0.006308 0.116998 0.855972
O O4 0.153554 0.000000 0.876343
O O5 0.880193 0.500000 0.088252
O O6 0.711951 0.402801 0.122721
O O7 0.904794 0.358061 0.157476
O O8 0.844558 0.365831 0.006987
O O9 0.378918 0.262100 0.912313
O O10 0.396113 0.108981 0.853713
O O11 0.871748 0.107077 0.383153
O O12 0.000000 0.105994 0.500000
O O13 0.055181 0.182890 0.367681
O O14 0.030320 0.000000 0.383717
O O15 0.230292 0.500000 0.331280
O O16 0.193963 0.681703 0.335499
O O17 0.371375 0.699634 0.769929
O O18 0.982593 0.669809 0.723266
O O19 0.515860 0.000000 0.770095
#
# Coordination Sequence:
#
# PCOD9203070 Si02
#       8
#     8   8   8   8   8   8   8   8
#     4  11  21  38  62  88 117 158 211 260 309 369
#     4  11  24  40  56  81 122 164 205 263 326 371
#     4  11  23  38  61  81 119 162 213 263 315 371
#     4  10  23  43  67  97 130 162 197 244 305 373
#     4  10  20  38  66  93 124 162 203 249 299 368
#     4  11  24  36  56  88 119 153 204 265 313 362
#     4  11  22  36  67  91 122 158 207 253 299 363
#     4  10  21  38  62  89 119 162 215 262 309 373
#
# _framework density 19.512309999999999
#
# number of rings (size 3 to 8) (size 9 to 14) (size 15 to 20)
#    0.000    1.375    3.750    2.625    5.250    2.500 
#    4.500    1.250    0.000    1.500    0.000    0.000 
#    0.000    0.000    0.000    0.000    0.000    0.000 
#
# Total GULP energy -178649.383773 kJ/mol
# GULP energy per Si atom -5582.793243 kJ/mol
# Density = 1.946790 g / cm^3
# Si number density = 19.512310 Si / 1000 Ang^3
#
#
#
# Elastic Constant Matrix: (Units=GPa)
#
#
# Indices 1 2 3 4 5 6 
#
# 1 97.8122 38.0027 24.6380 0.0000 4.4052 0.0000
# 2 38.0027 109.4024 44.1213 0.0000 -7.5265 0.0000
# 3 24.6380 44.1213 71.0091 0.0000 6.9251 0.0000
# 4 0.0000 0.0000 0.0000 43.3232 0.0000 -0.3236
# 5 4.4052 -7.5265 6.9251 0.0000 15.9928 0.0000
# 6 0.0000 0.0000 0.0000 -0.3236 0.0000 35.8104
#
#
#
# Elastic Compliance Matrix: (Units=1/GPa)
#
#
# Indices 1 2 3 4 5 6 
#
# 1 0.012355 -0.004111 -0.001265 0.000000 -0.004790 0.000000
# 2 -0.004111 0.015094 -0.009142 0.000000 0.012194 0.000000
# 3 -0.001265 -0.009142 0.021495 0.000000 -0.013261 0.000000
# 4 0.000000 0.000000 0.000000 0.023084 0.000000 0.000209
# 5 -0.004790 0.012194 -0.013261 0.000000 0.075329 0.000000
# 6 0.000000 0.000000 0.000000 0.000209 0.000000 0.027927
#
#
# Mechanical properties :
#
#
# Convention : Reuss Voigt Hill
#
# Bulk Modulus (GPa) = 50.22936 54.63864 52.43400
# Shear Modulus (GPa) = 23.70155 30.45606 27.07881
#
# Velocity S-wave (km/s) = 3.48903 3.95506 3.72933
# Velocity P-wave (km/s) = 6.48301 6.99426 6.74348
#
# Compressibility (1/GPa) = 0.01990868
#
# Stress axis : x y z
#
# Youngs Moduli (GPa) = 80.93621 66.25018 46.52210
#
# Poissons Ratio (x) = 0.27236 0.05887
# Poissons Ratio (y) = 0.33273 0.42529
# Poissons Ratio (z) = 0.10242 0.60563
#
# Static dielectric constant tensor:
#      x y z
#    x 1.720460 0.000000 0.019650 
#    y 0.000000 1.756220 0.000000 
#    z 0.019650 0.000000 1.654300 
# 
# From -- ./inp_files/263325.got.cif
#   From: 2010.05.17/outbox.cif.g08.bks.cpg/sg12_132_cif.got.tgz:263325.got - 2010.06.03 13:09:07.
