data_PCOD9203947
_publ_section_title
;
Structure prediction by ZEFSAII (Michael W. Deem and Ramdas Pophale) SiO2 
 PCOD9203947
Probable space group: C 2/M
;
_chemical_formula_sum "Si O2"
_cell_formula_units_Z 48
_cell_length_a 10.206365
_cell_length_b 20.643394
_cell_length_c 12.966969
_cell_angle_alpha 90.000000
_cell_angle_beta 78.922966
_cell_angle_gamma 90.000000
_cell_volume 2681.163747
_symmetry_space_group_name_H-M "C 2/M"
_symmetry_group_IT_number 12
_symmetry_cell_setting 'monoclinic'
loop_
_space_group_symop_operation_xyz
x,y,z
-x,y,-z
-x,-y,-z
x,-y,z
1/2+x,1/2+y,z
1/2-x,1/2+y,-z
1/2-x,1/2-y,-z
1/2+x,1/2-y,z
loop_
_atom_site_type_symbol
_atom_site_label
_atom_site_fract_x
_atom_site_fract_y
_atom_site_fract_z
Si Si1 0.476610 0.132262 0.627711
Si Si2 0.304832 0.288451 0.891279
Si Si3 0.662193 0.382784 0.694949
Si Si4 0.056487 0.074582 0.106753
Si Si5 0.133341 0.000000 0.542874
Si Si6 0.083808 0.500000 0.595586
Si Si7 0.080592 0.743771 0.754945
O O1 0.500000 0.138768 0.500000
O O2 0.321326 0.125102 0.680321
O O3 0.542918 0.065674 0.654830
O O4 0.545961 0.189687 0.677454
O O5 0.337358 0.365846 0.898614
O O6 0.201350 0.275310 0.813307
O O7 0.448157 0.257592 0.841798
O O8 0.250000 0.250000 0.000000
O O9 0.571860 0.409459 0.802227
O O10 0.640709 0.435210 0.609464
O O11 0.611907 0.309787 0.688868
O O12 0.102707 0.000000 0.121754
O O13 0.000000 0.076263 0.000000
O O14 0.000000 0.000000 0.500000
O O15 0.261981 0.000000 0.451916
O O16 0.000000 0.500000 0.500000
#
# Coordination Sequence:
#
# PCOD9203947 Si02
#       7
#     8   8   8   8   4   4   8
#     4  11  22  41  64  89 127 171 214 258 309 383
#     4  11  22  43  65  93 129 165 210 264 316 389
#     4  11  21  43  61  91 130 160 211 265 314 378
#     4  10  22  39  66  97 127 164 210 265 322 378
#     4  12  24  40  67  94 124 171 218 264 321 377
#     4  10  20  40  62  84 120 176 215 246 315 376
#     4  11  24  39  66  94 124 169 212 254 333 372
#
# _framework density 17.902674000000001
#
# number of rings (size 3 to 8) (size 9 to 14) (size 15 to 20)
#    0.000    1.167    5.833    2.500    0.000    4.000 
#    1.500    0.000    0.000    1.000    0.000    0.000 
#    0.000    0.000    0.000    0.000    0.000    0.000 
#
# Total GULP energy -133808.059570 kJ/mol
# GULP energy per Si atom -5575.335815 kJ/mol
# Density = 1.786193 g / cm^3
# Si number density = 17.902674 Si / 1000 Ang^3
#
#
#
# Elastic Constant Matrix: (Units=GPa)
#
#
# Indices 1 2 3 4 5 6 
#
# 1 119.5187 64.1628 25.3288 0.0000 -11.7130 0.0000
# 2 64.1628 206.4641 56.6198 0.0000 -2.2894 0.0000
# 3 25.3288 56.6198 36.1275 0.0000 -17.1659 0.0000
# 4 0.0000 0.0000 0.0000 28.2357 0.0000 -0.7040
# 5 -11.7130 -2.2894 -17.1659 0.0000 35.2506 0.0000
# 6 0.0000 0.0000 0.0000 -0.7040 0.0000 36.7766
#
#
#
# Elastic Compliance Matrix: (Units=1/GPa)
#
#
# Indices 1 2 3 4 5 6 
#
# 1 0.010457 -0.002651 -0.002092 0.000000 0.002284 0.000000
# 2 -0.002651 0.011158 -0.020429 0.000000 -0.010104 0.000000
# 3 -0.002092 -0.020429 0.078325 0.000000 0.036120 0.000000
# 4 0.000000 0.000000 0.000000 0.035433 0.000000 0.000678
# 5 0.002284 -0.010104 0.036120 0.000000 0.046060 0.000000
# 6 0.000000 0.000000 0.000000 0.000678 0.000000 0.027204
#
#
# Mechanical properties :
#
#
# Convention : Reuss Voigt Hill
#
# Bulk Modulus (GPa) = 20.16271 72.70368 46.43319
# Shear Modulus (GPa) = 18.14798 34.45251 26.30025
#
# Velocity S-wave (km/s) = 3.18732 4.39160 3.83700
# Velocity P-wave (km/s) = 4.98319 8.14945 6.75447
#
# Compressibility (1/GPa) = 0.04959651
#
# Stress axis : x y z
#
# Youngs Moduli (GPa) = 95.62910 89.62580 12.76727
#
# Poissons Ratio (x) = 0.23757 0.02671
# Poissons Ratio (y) = 0.25348 0.26082
# Poissons Ratio (z) = 0.20006 1.83096
#
# Static dielectric constant tensor:
#      x y z
#    x 1.608650 0.000000 -0.043420 
#    y 0.000000 1.634060 0.000000 
#    z -0.043420 0.000000 1.648370 
# 
# From -- ./inp_files/196962.got.cif
#   From: 2010.05.17/outbox.cif.g08.bks.cpg/sg12_99_cif.got.tgz:196962.got - 2010.06.03 13:09:07.
