data_PCOD9203506
_publ_section_title
;
Structure prediction by ZEFSAII (Michael W. Deem and Ramdas Pophale) SiO2 
 PCOD9203506
Probable space group: C 2/M
;
_chemical_formula_sum "Si O2"
_cell_formula_units_Z 52
_cell_length_a 29.912367
_cell_length_b 14.490381
_cell_length_c 8.781687
_cell_angle_alpha 90.000000
_cell_angle_beta 135.206120
_cell_angle_gamma 90.000000
_cell_volume 2681.794802
_symmetry_space_group_name_H-M "C 2/M"
_symmetry_group_IT_number 12
_symmetry_cell_setting 'monoclinic'
loop_
_space_group_symop_operation_xyz
x,y,z
-x,y,-z
-x,-y,-z
x,-y,z
1/2+x,1/2+y,z
1/2-x,1/2+y,-z
1/2-x,1/2-y,-z
1/2+x,1/2-y,z
loop_
_atom_site_type_symbol
_atom_site_label
_atom_site_fract_x
_atom_site_fract_y
_atom_site_fract_z
Si Si1 0.023515 0.103017 0.263798
Si Si2 0.598735 0.662105 0.151001
Si Si3 0.500000 0.153255 0.500000
Si Si4 0.097545 0.500000 0.286519
Si Si5 0.112972 0.789562 0.682444
Si Si6 0.694985 0.392203 0.136034
Si Si7 0.472064 0.000000 0.182494
Si Si8 0.833066 0.688922 0.483806
O O1 0.067959 0.110677 0.221880
O O2 0.068581 0.129181 0.509973
O O3 0.997305 0.000000 0.213842
O O4 0.965031 0.174220 0.104698
O O5 0.649903 0.609180 0.174869
O O6 0.633965 0.750970 0.303569
O O7 0.561952 0.214089 0.613688
O O8 0.479464 0.088121 0.309607
O O9 0.132990 0.590731 0.427775
O O10 0.031508 0.500000 0.214263
O O11 0.086919 0.500000 0.077586
O O12 0.152124 0.743371 0.637514
O O13 0.157859 0.834720 0.916738
O O14 0.707251 0.500000 0.123901
O O15 0.759369 0.335693 0.323878
#
# Coordination Sequence:
#
# PCOD9203506 Si02
#       8
#     8   8   4   4   8   8   4   8
#     4  10  20  39  63  93 125 156 198 258 310 370
#     4  10  22  37  65  91 120 157 203 254 309 360
#     4  11  22  42  59  98 128 156 201 264 310 363
#     4  11  22  42  68  94 122 164 212 247 316 361
#     4  11  24  38  64  89 124 162 205 247 312 370
#     4  12  24  42  62  88 124 166 206 255 301 367
#     4  10  24  38  70  92 130 158 200 264 309 365
#     4  11  24  43  62  89 124 167 207 251 300 373
#
# _framework density 19.389999
#
# number of rings (size 3 to 8) (size 9 to 14) (size 15 to 20)
#    0.000    1.231    2.308    4.154    4.308    1.231 
#    0.000    2.308    0.000    0.000    0.000    0.000 
#    0.000    0.000    0.000    0.000    0.000    0.000 
#
# Total GULP energy -145115.528210 kJ/mol
# GULP energy per Si atom -5581.366470 kJ/mol
# Density = 1.934587 g / cm^3
# Si number density = 19.389999 Si / 1000 Ang^3
#
#
#
# Elastic Constant Matrix: (Units=GPa)
#
#
# Indices 1 2 3 4 5 6 
#
# 1 85.2109 26.8586 33.2423 0.0000 18.4613 0.0000
# 2 26.8586 108.3529 44.4893 0.0000 5.3777 0.0000
# 3 33.2423 44.4893 94.6391 0.0000 22.0647 0.0000
# 4 0.0000 0.0000 0.0000 25.8868 0.0000 1.2363
# 5 18.4613 5.3777 22.0647 0.0000 29.6180 0.0000
# 6 0.0000 0.0000 0.0000 1.2363 0.0000 21.4198
#
#
#
# Elastic Compliance Matrix: (Units=1/GPa)
#
#
# Indices 1 2 3 4 5 6 
#
# 1 0.014978 -0.002326 -0.002529 0.000000 -0.007030 0.000000
# 2 -0.002326 0.011933 -0.005598 0.000000 0.003453 0.000000
# 3 -0.002529 -0.005598 0.016316 0.000000 -0.009562 0.000000
# 4 0.000000 0.000000 0.000000 0.038737 0.000000 -0.002236
# 5 -0.007030 0.003453 -0.009562 0.000000 0.044642 0.000000
# 6 0.000000 0.000000 0.000000 -0.002236 0.000000 0.046815
#
#
# Mechanical properties :
#
#
# Convention : Reuss Voigt Hill
#
# Bulk Modulus (GPa) = 44.79870 55.26479 50.03175
# Shear Modulus (GPa) = 24.78142 27.62577 26.20359
#
# Velocity S-wave (km/s) = 3.57886 3.77867 3.68012
# Velocity P-wave (km/s) = 6.34286 6.89938 6.62696
#
# Compressibility (1/GPa) = 0.02232208
#
# Stress axis : x y z
#
# Youngs Moduli (GPa) = 66.76353 83.80439 61.29135
#
# Poissons Ratio (x) = 0.19489 0.15500
# Poissons Ratio (y) = 0.15526 0.34309
# Poissons Ratio (z) = 0.16884 0.46911
#
# Static dielectric constant tensor:
#      x y z
#    x 1.675730 0.000000 -0.021540 
#    y 0.000000 1.659890 0.000000 
#    z -0.021540 0.000000 1.688810 
# 
# From -- ./inp_files/112102.got.cif
#   From: 2010.05.17/outbox.cif.g08.bks.cpg/sg12_57_cif.got.tgz:112102.got - 2010.06.03 13:09:07.
