data_PCOD9203933
_publ_section_title
;
Structure prediction by ZEFSAII (Michael W. Deem and Ramdas Pophale) SiO2 
 PCOD9203933
Probable space group: C 2/M
;
_chemical_formula_sum "Si O2"
_cell_formula_units_Z 44
_cell_length_a 17.283696
_cell_length_b 22.019100
_cell_length_c 6.653196
_cell_angle_alpha 90.000000
_cell_angle_beta 116.244867
_cell_angle_gamma 90.000000
_cell_volume 2270.996737
_symmetry_space_group_name_H-M "C 2/M"
_symmetry_group_IT_number 12
_symmetry_cell_setting 'monoclinic'
loop_
_space_group_symop_operation_xyz
x,y,z
-x,y,-z
-x,-y,-z
x,-y,z
1/2+x,1/2+y,z
1/2-x,1/2+y,-z
1/2-x,1/2-y,-z
1/2+x,1/2-y,z
loop_
_atom_site_type_symbol
_atom_site_label
_atom_site_fract_x
_atom_site_fract_y
_atom_site_fract_z
Si Si1 0.080244 0.893823 0.712318
Si Si2 0.764222 0.432405 0.035443
Si Si3 0.634126 0.291098 0.470282
Si Si4 0.099168 0.570357 0.166853
Si Si5 0.800617 0.659153 0.431522
Si Si6 0.000000 0.167337 0.000000
O O1 0.099746 0.832298 0.610898
O O2 0.000000 0.923233 0.500000
O O3 0.050614 0.875275 0.901029
O O4 0.169963 0.929066 0.825546
O O5 0.774392 0.500000 0.137770
O O6 0.770050 0.378854 0.204183
O O7 0.838938 0.424219 0.956231
O O8 0.719773 0.322894 0.479489
O O9 0.655289 0.223491 0.565927
O O10 0.565024 0.293229 0.209756
O O11 0.104533 0.500000 0.241137
O O12 0.134678 0.616183 0.372754
O O13 0.000000 0.583006 0.000000
#
# Coordination Sequence:
#
# PCOD9203933 Si02
#       6
#     8   8   8   8   8   4
#     4  10  21  40  62  92 126 160 202 244 299 368
#     4  11  23  41  65  88 121 163 203 254 303 354
#     4  10  22  37  63  91 123 159 196 248 307 360
#     4  10  23  43  63  85 119 162 208 257 303 355
#     4  11  22  39  62  93 118 159 203 251 302 364
#     4  10  20  40  61  88 129 160 192 250 304 360
#
# _framework density 19.374752999999998
#
# number of rings (size 3 to 8) (size 9 to 14) (size 15 to 20)
#    0.000    1.636    3.636    0.545    1.273    3.273 
#    6.545    3.182    0.000    0.000    0.000    0.000 
#    0.000    0.000    0.000    0.000    0.000    0.000 
#
# Total GULP energy -122855.405510 kJ/mol
# GULP energy per Si atom -5584.336614 kJ/mol
# Density = 1.933065 g / cm^3
# Si number density = 19.374753 Si / 1000 Ang^3
#
#
#
# Elastic Constant Matrix: (Units=GPa)
#
#
# Indices 1 2 3 4 5 6 
#
# 1 119.8802 37.6526 40.0006 0.0000 19.0194 0.0000
# 2 37.6526 97.0718 47.1551 0.0000 14.2459 0.0000
# 3 40.0006 47.1551 81.7530 0.0000 12.9256 0.0000
# 4 0.0000 0.0000 0.0000 25.8914 0.0000 22.2237
# 5 19.0194 14.2459 12.9256 0.0000 35.0390 0.0000
# 6 0.0000 0.0000 0.0000 22.2237 0.0000 172.4271
#
#
#
# Elastic Compliance Matrix: (Units=1/GPa)
#
#
# Indices 1 2 3 4 5 6 
#
# 1 0.010714 -0.001873 -0.003571 0.000000 -0.003737 0.000000
# 2 -0.001873 0.014931 -0.007324 0.000000 -0.002352 0.000000
# 3 -0.003571 -0.007324 0.018506 0.000000 -0.001910 0.000000
# 4 0.000000 0.000000 0.000000 0.043427 0.000000 -0.005597
# 5 -0.003737 -0.002352 -0.001910 0.000000 0.032229 0.000000
# 6 0.000000 0.000000 0.000000 -0.005597 0.000000 0.006521
#
#
# Mechanical properties :
#
#
# Convention : Reuss Voigt Hill
#
# Bulk Modulus (GPa) = 53.71951 60.92460 57.32205
# Shear Modulus (GPa) = 31.63154 58.26463 44.94809
#
# Velocity S-wave (km/s) = 4.04495 5.48978 4.82179
# Velocity P-wave (km/s) = 7.04288 8.46742 7.78779
#
# Compressibility (1/GPa) = 0.01861521
#
# Stress axis : x y z
#
# Youngs Moduli (GPa) = 93.33235 66.97438 54.03656
#
# Poissons Ratio (x) = 0.12542 0.19299
# Poissons Ratio (y) = 0.17477 0.39577
# Poissons Ratio (z) = 0.33333 0.49053
#
# Static dielectric constant tensor:
#      x y z
#    x 1.682430 0.000000 0.022730 
#    y 0.000000 1.651460 0.000000 
#    z 0.022730 0.000000 1.660770 
# 
# From -- ./inp_files/11673.got.cif
#   From: 2010.05.17/outbox.cif.g08.bks.cpg/sg12_6_cif.got.tgz:11673.got - 2010.06.03 13:09:07.
