data_PCOD9203394
_publ_section_title
;
Structure prediction by ZEFSAII (Michael W. Deem and Ramdas Pophale) SiO2 
 PCOD9203394
Probable space group: C 2/M
;
_chemical_formula_sum "Si O2"
_cell_formula_units_Z 58
_cell_length_a 14.523365
_cell_length_b 13.864474
_cell_length_c 14.096469
_cell_angle_alpha 90.000000
_cell_angle_beta 111.485805
_cell_angle_gamma 90.000000
_cell_volume 2641.199828
_symmetry_space_group_name_H-M "C 2/M"
_symmetry_group_IT_number 12
_symmetry_cell_setting 'monoclinic'
loop_
_space_group_symop_operation_xyz
x,y,z
-x,y,-z
-x,-y,-z
x,-y,z
1/2+x,1/2+y,z
1/2-x,1/2+y,-z
1/2-x,1/2-y,-z
1/2+x,1/2-y,z
loop_
_atom_site_type_symbol
_atom_site_label
_atom_site_fract_x
_atom_site_fract_y
_atom_site_fract_z
Si Si1 0.040855 0.311043 0.821512
Si Si2 0.953598 0.887727 0.086354
Si Si3 0.719707 0.891022 0.977080
Si Si4 0.471444 0.840585 0.391256
Si Si5 0.500000 0.500000 0.500000
Si Si6 0.644563 0.111261 0.162016
Si Si7 0.755948 0.253460 0.346508
Si Si8 0.125539 0.165184 0.446659
O O1 0.019566 0.195957 0.827329
O O2 0.018558 0.367670 0.715272
O O3 0.970769 0.363554 0.870723
O O4 0.156373 0.322201 0.887153
O O5 0.836542 0.880411 0.023777
O O6 0.975754 0.000000 0.122702
O O7 0.000000 0.869158 0.000000
O O8 0.680551 0.879051 0.068618
O O9 0.697317 0.000000 0.936997
O O10 0.500000 0.895130 0.500000
O O11 0.358382 0.802946 0.354088
O O12 0.553375 0.756587 0.423948
O O13 0.554965 0.581520 0.454668
O O14 0.702709 0.189273 0.247562
O O15 0.663748 0.000000 0.198728
O O16 0.788953 0.179700 0.442323
O O17 0.682175 0.330340 0.367715
#
# Coordination Sequence:
#
# PCOD9203394 Si02
#       8
#     8   8   8   8   2   8   8   8
#     4  12  22  39  65  91 128 171 213 262 333 388
#     4  10  22  40  62  91 129 169 215 266 320 395
#     4  10  22  41  63  95 128 161 215 269 320 390
#     4  10  21  41  61  90 123 173 216 272 323 394
#     4  12  20  40  72 100 128 166 234 300 326 376
#     4  11  23  37  64  99 127 164 214 266 326 397
#     4  10  20  39  62  88 132 174 209 266 334 394
#     4  10  21  38  62  94 128 168 221 274 331 388
#
# _framework density 21.959716
#
# number of rings (size 3 to 8) (size 9 to 14) (size 15 to 20)
#    0.000    1.517    3.448    2.897    0.966    2.207 
#    1.241    0.000    3.034    1.655    0.000    0.000 
#    0.000    0.000    0.000    0.000    0.000    0.000 
#
# Total GULP energy -161445.196347 kJ/mol
# GULP energy per Si atom -5567.075736 kJ/mol
# Density = 2.190973 g / cm^3
# Si number density = 21.959716 Si / 1000 Ang^3
#
#
#
# Elastic Constant Matrix: (Units=GPa)
#
#
# Indices 1 2 3 4 5 6 
#
# 1 124.6037 13.6430 24.4817 0.0000 -10.5820 0.0000
# 2 13.6430 71.9991 27.5219 0.0000 -7.7949 0.0000
# 3 24.4817 27.5219 71.7908 0.0000 -5.0535 0.0000
# 4 0.0000 0.0000 0.0000 -30.4559 0.0000 -61.4777
# 5 -10.5820 -7.7949 -5.0535 0.0000 27.0694 0.0000
# 6 0.0000 0.0000 0.0000 -61.4777 0.0000 -50.6310
#
#
#
# Elastic Compliance Matrix: (Units=1/GPa)
#
#
# Indices 1 2 3 4 5 6 
#
# 1 0.008832 -0.000340 -0.002681 0.000000 0.002854 0.000000
# 2 -0.000340 0.016634 -0.006012 0.000000 0.003535 0.000000
# 3 -0.002681 -0.006012 0.017178 0.000000 0.000428 0.000000
# 4 0.000000 0.000000 0.000000 0.022628 0.000000 -0.027476
# 5 0.002854 0.003535 0.000428 0.000000 0.039156 0.000000
# 6 0.000000 0.000000 0.000000 -0.027476 0.000000 0.013612
#
#
# Mechanical properties :
#
#
# Convention : Reuss Voigt Hill
#
# Bulk Modulus (GPa) = 40.68482 44.40966 42.54724
# Shear Modulus (GPa) = 34.65039 2.71296 18.68167
#
# Velocity S-wave (km/s) = 3.97660 1.11270 2.91988
# Velocity P-wave (km/s) = 6.29696 4.68166 5.54841
#
# Compressibility (1/GPa) = 0.02457919
#
# Stress axis : x y z
#
# Youngs Moduli (GPa) = 113.22838 60.11645 58.21245
#
# Poissons Ratio (x) = 0.02043 0.15604
# Poissons Ratio (y) = 0.03848 0.34999
# Poissons Ratio (z) = 0.30351 0.36144
#
# Static dielectric constant tensor:
#      x y z
#    x 1.809390 0.000000 -0.026210 
#    y 0.000000 1.836220 0.000000 
#    z -0.026210 0.000000 1.864150 
# 
# From -- ./inp_files/215220.got.cif
#   From: 2010.05.17/outbox.cif.g08.bks.cpg/sg12_108_cif.got.tgz:215220.got - 2010.06.03 13:09:07.
