data_PCOD9203584
_publ_section_title
;
Structure prediction by ZEFSAII (Michael W. Deem and Ramdas Pophale) SiO2 
 PCOD9203584
Probable space group: C 2/M
;
_chemical_formula_sum "Si O2"
_cell_formula_units_Z 64
_cell_length_a 31.454618
_cell_length_b 16.635522
_cell_length_c 9.492228
_cell_angle_alpha 90.000000
_cell_angle_beta 142.365188
_cell_angle_gamma 90.000000
_cell_volume 3032.945528
_symmetry_space_group_name_H-M "C 2/M"
_symmetry_group_IT_number 12
_symmetry_cell_setting 'monoclinic'
loop_
_space_group_symop_operation_xyz
x,y,z
-x,y,-z
-x,-y,-z
x,-y,z
1/2+x,1/2+y,z
1/2-x,1/2+y,-z
1/2-x,1/2-y,-z
1/2+x,1/2-y,z
loop_
_atom_site_type_symbol
_atom_site_label
_atom_site_fract_x
_atom_site_fract_y
_atom_site_fract_z
Si Si1 0.986952 0.151129 0.633358
Si Si2 0.872257 0.345918 0.882278
Si Si3 0.328216 0.821518 0.333592
Si Si4 0.355334 0.635474 0.448405
Si Si5 0.481488 0.815799 0.791640
Si Si6 0.744161 0.908998 0.624609
Si Si7 0.380982 0.654699 0.838494
Si Si8 0.800922 0.591715 0.970777
O O1 0.000000 0.148286 0.500000
O O2 0.915344 0.109474 0.496610
O O3 0.979322 0.242625 0.673560
O O4 0.054337 0.123519 0.898998
O O5 0.822894 0.394823 0.648762
O O6 0.871107 0.250880 0.838691
O O7 0.839133 0.360671 0.946797
O O8 0.953244 0.369671 0.082979
O O9 0.332242 0.725687 0.344874
O O10 0.403939 0.850354 0.589193
O O11 0.266677 0.849283 0.274224
O O12 0.316880 0.861376 0.154827
O O13 0.388425 0.639988 0.691569
O O14 0.282634 0.589757 0.267078
O O15 0.500000 0.788122 0.000000
O O16 0.811373 0.887253 0.710625
O O17 0.747437 0.000000 0.684143
O O18 0.826392 0.500000 0.041020
#
# Coordination Sequence:
#
# PCOD9203584 Si02
#       8
#     8   8   8   8   8   8   8   8
#     4  10  22  36  63  98 123 152 203 260 313 364
#     4  11  21  40  65  91 122 159 211 256 300 365
#     4  11  23  41  63  93 123 164 209 256 309 363
#     4  11  22  42  67  92 123 164 206 254 309 371
#     4  10  20  39  64  92 123 161 207 259 303 358
#     4  12  23  39  63  92 127 165 209 254 304 364
#     4  11  22  40  67  95 123 161 208 256 305 367
#     4  12  27  42  60  92 131 165 204 258 312 363
#
# _framework density 21.101599
#
# number of rings (size 3 to 8) (size 9 to 14) (size 15 to 20)
#    0.000    1.000    3.750    4.875    8.750    0.000 
#    0.000    4.375    0.000    2.250    0.000    0.000 
#    0.000    0.000    0.000    0.000    0.000    0.000 
#
# Total GULP energy -178781.495672 kJ/mol
# GULP energy per Si atom -5586.921740 kJ/mol
# Density = 2.105357 g / cm^3
# Si number density = 21.101599 Si / 1000 Ang^3
#
#
#
# Elastic Constant Matrix: (Units=GPa)
#
#
# Indices 1 2 3 4 5 6 
#
# 1 127.1768 -8.1796 25.4146 0.0000 -0.9203 0.0000
# 2 -8.1796 27.3753 4.3642 0.0000 8.8843 0.0000
# 3 25.4146 4.3642 74.4488 0.0000 -4.7385 0.0000
# 4 0.0000 0.0000 0.0000 31.6189 0.0000 -15.9365
# 5 -0.9203 8.8843 -4.7385 0.0000 50.5342 0.0000
# 6 0.0000 0.0000 0.0000 -15.9365 0.0000 -8.5453
#
#
#
# Elastic Compliance Matrix: (Units=1/GPa)
#
#
# Indices 1 2 3 4 5 6 
#
# 1 0.008717 0.003356 -0.003219 0.000000 -0.000733 0.000000
# 2 0.003356 0.040587 -0.003999 0.000000 -0.007449 0.000000
# 3 -0.003219 -0.003999 0.014895 0.000000 0.002041 0.000000
# 4 0.000000 0.000000 0.000000 0.016303 0.000000 -0.030404
# 5 -0.000733 -0.007449 0.002041 0.000000 0.021276 0.000000
# 6 0.000000 0.000000 0.000000 -0.030404 0.000000 -0.060322
#
#
# Mechanical properties :
#
#
# Convention : Reuss Voigt Hill
#
# Bulk Modulus (GPa) = 17.70706 30.24436 23.97571
# Shear Modulus (GPa) = 73.52395 28.54836 51.03616
#
# Velocity S-wave (km/s) = 5.90919 3.68217 4.92325
# Velocity P-wave (km/s) = 7.41401 5.69576 6.61095
#
# Compressibility (1/GPa) = 0.05647464
#
# Stress axis : x y z
#
# Youngs Moduli (GPa) = 114.72007 24.63840 67.13539
#
# Poissons Ratio (x) = -0.08268 0.21611
# Poissons Ratio (y) = -0.38496 0.26847
# Poissons Ratio (z) = 0.36929 0.09853
#
# Static dielectric constant tensor:
#      x y z
#    x 1.779580 0.000000 0.011590 
#    y 0.000000 1.737760 0.000000 
#    z 0.011590 0.000000 1.796790 
# 
# From -- ./inp_files/112876.got.cif
#   From: 2010.05.17/outbox.cif.g08.bks.cpg/sg12_57_cif.got.tgz:112876.got - 2010.06.03 13:09:07.
