data_PCOD9203593
_publ_section_title
;
Structure prediction by ZEFSAII (Michael W. Deem and Ramdas Pophale) SiO2 
 PCOD9203593
Probable space group: C 2/M
;
_chemical_formula_sum "Si O2"
_cell_formula_units_Z 58
_cell_length_a 24.550443
_cell_length_b 7.620219
_cell_length_c 22.971004
_cell_angle_alpha 90.000000
_cell_angle_beta 142.613890
_cell_angle_gamma 90.000000
_cell_volume 2609.315146
_symmetry_space_group_name_H-M "C 2/M"
_symmetry_group_IT_number 12
_symmetry_cell_setting 'monoclinic'
loop_
_space_group_symop_operation_xyz
x,y,z
-x,y,-z
-x,-y,-z
x,-y,z
1/2+x,1/2+y,z
1/2-x,1/2+y,-z
1/2-x,1/2-y,-z
1/2+x,1/2-y,z
loop_
_atom_site_type_symbol
_atom_site_label
_atom_site_fract_x
_atom_site_fract_y
_atom_site_fract_z
Si Si1 0.398690 0.294598 0.408297
Si Si2 0.400277 0.785508 0.596560
Si Si3 0.091320 0.712351 0.713106
Si Si4 0.067544 0.700374 0.244695
Si Si5 0.755551 0.290471 0.072598
Si Si6 0.241883 0.702984 0.614044
Si Si7 0.000000 0.500000 0.000000
Si Si8 0.933223 0.202180 0.034425
O O1 0.500000 0.221278 0.500000
O O2 0.402016 0.500000 0.425946
O O3 0.373546 0.272101 0.319605
O O4 0.327190 0.212490 0.391139
O O5 0.488987 0.730434 0.636628
O O6 0.413139 0.730207 0.674000
O O7 0.311821 0.724464 0.487630
O O8 0.396556 0.000000 0.592682
O O9 0.090281 0.500000 0.712187
O O10 0.155642 0.775936 0.819409
O O11 0.035493 0.500000 0.224021
O O12 0.164374 0.702737 0.295766
O O13 0.995194 0.798223 0.144726
O O14 0.758627 0.500000 0.079775
O O15 0.750000 0.250000 0.000000
O O16 0.665857 0.237095 0.030242
O O17 0.264145 0.500000 0.622638
O O18 0.973418 0.344291 0.024894
O O19 0.928964 0.000000 0.008516
#
# Coordination Sequence:
#
# PCOD9203593 Si02
#       8
#     8   8   8   8   8   8   2   8
#     4  11  23  39  58  87 127 166 212 270 324 394
#     4   9  19  35  62  93 130 172 216 262 323 400
#     4  10  20  39  64  93 124 169 212 256 326 393
#     4  11  22  41  65  95 129 173 220 273 340 397
#     4  10  23  41  69 103 138 173 223 287 347 413
#     4  11  22  38  61  91 126 173 218 269 325 392
#     4  12  26  48  76  98 136 194 226 292 364 394
#     4  11  25  47  71 103 137 180 238 289 344 419
#
# _framework density 22.228055999999999
#
# number of rings (size 3 to 8) (size 9 to 14) (size 15 to 20)
#    0.000    1.517    2.069    2.690    0.966    3.310 
#    2.483    6.207    0.000    0.000    0.000    0.000 
#    0.000    0.000    0.000    0.000    0.000    0.000 
#
# Total GULP energy -161899.195937 kJ/mol
# GULP energy per Si atom -5582.730894 kJ/mol
# Density = 2.217746 g / cm^3
# Si number density = 22.228056 Si / 1000 Ang^3
#
#
#
# Elastic Constant Matrix: (Units=GPa)
#
#
# Indices 1 2 3 4 5 6 
#
# 1 49.2676 2.2143 -11.6374 0.0000 -12.9016 0.0000
# 2 2.2143 82.6352 -3.4203 0.0000 -1.6862 0.0001
# 3 -11.6374 -3.4203 54.0094 0.0000 7.1029 0.0000
# 4 0.0000 0.0000 0.0000 -0.4205 0.0000 1.7350
# 5 -12.9016 -1.6862 7.1029 0.0000 34.9665 0.0000
# 6 0.0000 0.0001 0.0000 1.7350 0.0000 6.0557
#
#
#
# Elastic Compliance Matrix: (Units=1/GPa)
#
#
# Indices 1 2 3 4 5 6 
#
# 1 0.023285 -0.000301 0.003976 0.000000 0.007769 0.000000
# 2 -0.000301 0.012144 0.000659 0.000000 0.000341 0.000000
# 3 0.003976 0.000659 0.019744 0.000000 -0.002512 0.000000
# 4 0.000000 0.000000 0.000000 -1.089752 0.000000 0.312223
# 5 0.007769 0.000341 -0.002512 0.000000 0.031992 0.000000
# 6 0.000000 0.000000 0.000000 0.312223 0.000000 0.075680
#
#
# Mechanical properties :
#
#
# Convention : Reuss Voigt Hill
#
# Bulk Modulus (GPa) = 15.66359 17.80280 16.73320
# Shear Modulus (GPa) = -5.46868 21.37070 7.95101
#
# Velocity S-wave (km/s) = -1.57022 3.10406 1.89335
# Velocity P-wave (km/s) = 1.94283 4.56875 3.51056
#
# Compressibility (1/GPa) = 0.06384233
#
# Stress axis : x y z
#
# Youngs Moduli (GPa) = 42.94689 82.34733 50.64787
#
# Poissons Ratio (x) = 0.02477 -0.20139
# Poissons Ratio (y) = 0.01292 -0.03340
# Poissons Ratio (z) = -0.17077 -0.05430
#
# Static dielectric constant tensor:
#      x y z
#    x 1.790210 0.000000 -0.001250 
#    y 0.000000 1.831140 0.000000 
#    z -0.001250 0.000000 1.806980 
# 
# From -- ./inp_files/324610.got.cif
#   From: 2010.05.17/outbox.cif.g08.bks.cpg/sg12_163_cif.got.tgz:324610.got - 2010.06.03 13:09:07.
