data_PCOD9203386
_publ_section_title
;
Structure prediction by ZEFSAII (Michael W. Deem and Ramdas Pophale) SiO2 
 PCOD9203386
Probable space group: C 2/M
;
_chemical_formula_sum "Si O2"
_cell_formula_units_Z 56
_cell_length_a 15.548415
_cell_length_b 8.685942
_cell_length_c 24.263683
_cell_angle_alpha 90.000000
_cell_angle_beta 63.695955
_cell_angle_gamma 90.000000
_cell_volume 2937.570767
_symmetry_space_group_name_H-M "C 2/M"
_symmetry_group_IT_number 12
_symmetry_cell_setting 'monoclinic'
loop_
_space_group_symop_operation_xyz
x,y,z
-x,y,-z
-x,-y,-z
x,-y,z
1/2+x,1/2+y,z
1/2-x,1/2+y,-z
1/2-x,1/2-y,-z
1/2+x,1/2-y,z
loop_
_atom_site_type_symbol
_atom_site_label
_atom_site_fract_x
_atom_site_fract_y
_atom_site_fract_z
Si Si1 0.850200 0.814375 0.209625
Si Si2 0.732070 0.685729 0.344694
Si Si3 0.094684 0.681009 0.010621
Si Si4 0.237508 0.816265 0.882626
Si Si5 0.431746 0.316609 0.861481
Si Si6 0.014937 0.814063 0.431558
Si Si7 0.675425 0.815317 0.565834
O O1 0.783118 0.750134 0.276356
O O2 0.813242 0.766448 0.159686
O O3 0.960958 0.766886 0.185243
O O4 0.847468 0.000000 0.211697
O O5 0.733196 0.500000 0.342306
O O6 0.621025 0.733600 0.382367
O O7 0.789201 0.733316 0.383598
O O8 0.104869 0.500000 0.020594
O O9 0.184023 0.738121 0.949211
O O10 0.082983 0.774013 0.070223
O O11 0.000000 0.702228 0.000000
O O12 0.347984 0.766962 0.851983
O O13 0.228609 0.000000 0.890404
O O14 0.423504 0.500000 0.856805
O O15 0.929896 0.743616 0.419733
O O16 0.000000 0.771198 0.500000
O O17 0.008719 0.000000 0.430395
O O18 0.750000 0.750000 0.500000
O O19 0.678185 0.000000 0.562670
#
# Coordination Sequence:
#
# PCOD9203386 Si02
#       7
#     8   8   8   8   8   8   8
#     4  10  24  43  62  85 120 162 204 249 298 357
#     4  10  23  41  62  87 122 161 198 246 302 357
#     4  11  22  37  62  94 122 156 202 252 305 358
#     4  11  23  41  63  89 122 160 202 251 304 356
#     4  11  23  41  63  89 122 161 204 250 303 358
#     4  10  20  39  62  88 123 157 194 242 299 357
#     4  11  22  38  61  92 122 156 197 243 298 356
#
# _framework density 19.063369999999999
#
# number of rings (size 3 to 8) (size 9 to 14) (size 15 to 20)
#    0.000    1.429    2.857    2.143    0.000    6.000 
#    0.000    5.714    0.000    0.000    0.000    0.000 
#    0.000    0.000    0.000    0.000    0.000    0.000 
#
# Total GULP energy -156547.393872 kJ/mol
# GULP energy per Si atom -5590.978353 kJ/mol
# Density = 1.901998 g / cm^3
# Si number density = 19.063370 Si / 1000 Ang^3
#
#
#
# Elastic Constant Matrix: (Units=GPa)
#
#
# Indices 1 2 3 4 5 6 
#
# 1 117.7253 12.2054 30.9054 0.0000 -30.7105 0.0000
# 2 12.2054 13.1268 1.5628 0.0000 -6.4311 0.0000
# 3 30.9054 1.5628 101.0424 0.0000 -28.9713 0.0000
# 4 0.0000 0.0000 0.0000 34.4560 0.0000 -0.1405
# 5 -30.7105 -6.4311 -28.9713 0.0000 27.3336 0.0000
# 6 0.0000 0.0000 0.0000 -0.1405 0.0000 32.3228
#
#
#
# Elastic Compliance Matrix: (Units=1/GPa)
#
#
# Indices 1 2 3 4 5 6 
#
# 1 0.012333 -0.005338 -0.000110 0.000000 0.012484 0.000000
# 2 -0.005338 0.091427 0.006704 0.000000 0.022620 0.000000
# 3 -0.000110 0.006704 0.014716 0.000000 0.017051 0.000000
# 4 0.000000 0.000000 0.000000 0.029023 0.000000 0.000126
# 5 0.012484 0.022620 0.017051 0.000000 0.074006 0.000000
# 6 0.000000 0.000000 0.000000 0.000126 0.000000 0.030938
#
#
# Mechanical properties :
#
#
# Convention : Reuss Voigt Hill
#
# Bulk Modulus (GPa) = 8.26528 35.69351 21.97940
# Shear Modulus (GPa) = 17.22583 31.30389 24.26486
#
# Velocity S-wave (km/s) = 3.00927 4.05667 3.57158
# Velocity P-wave (km/s) = 4.05208 6.38016 5.34443
#
# Compressibility (1/GPa) = 0.12098800
#
# Stress axis : x y z
#
# Youngs Moduli (GPa) = 81.08007 10.93768 67.95424
#
# Poissons Ratio (x) = 0.05839 0.00749
# Poissons Ratio (y) = 0.43282 -0.45558
# Poissons Ratio (z) = 0.00894 -0.07333
#
# Static dielectric constant tensor:
#      x y z
#    x 1.667440 0.000000 -0.002300 
#    y 0.000000 1.643840 0.000000 
#    z -0.002300 0.000000 1.622550 
# 
# From -- ./inp_files/338504.got.cif
#   From: 2010.05.17/outbox.cif.g08.bks.cpg/sg12_170_cif.got.tgz:338504.got - 2010.06.03 13:09:07.
