data_PCOD9203338
_publ_section_title
;
Structure prediction by ZEFSAII (Michael W. Deem and Ramdas Pophale) SiO2 
 PCOD9203338
Probable space group: C 2/M
;
_chemical_formula_sum "Si O2"
_cell_formula_units_Z 48
_cell_length_a 15.515254
_cell_length_b 8.521647
_cell_length_c 27.099986
_cell_angle_alpha 90.000000
_cell_angle_beta 45.748228
_cell_angle_gamma 90.000000
_cell_volume 2566.460243
_symmetry_space_group_name_H-M "C 2/M"
_symmetry_group_IT_number 12
_symmetry_cell_setting 'monoclinic'
loop_
_space_group_symop_operation_xyz
x,y,z
-x,y,-z
-x,-y,-z
x,-y,z
1/2+x,1/2+y,z
1/2-x,1/2+y,-z
1/2-x,1/2-y,-z
1/2+x,1/2-y,z
loop_
_atom_site_type_symbol
_atom_site_label
_atom_site_fract_x
_atom_site_fract_y
_atom_site_fract_z
Si Si1 0.162288 0.310338 0.174803
Si Si2 0.026020 0.190957 0.568306
Si Si3 0.047877 0.187706 0.672071
Si Si4 0.806219 0.810472 0.588054
Si Si5 0.062299 0.189629 0.923486
Si Si6 0.130569 0.312033 0.074663
O O1 0.159949 0.500000 0.176763
O O2 0.298722 0.260413 0.132451
O O3 0.131658 0.259859 0.131169
O O4 0.064920 0.247596 0.251811
O O5 0.041689 0.246234 0.617803
O O6 0.131562 0.239892 0.488509
O O7 0.899443 0.237201 0.593779
O O8 0.027576 0.000000 0.567969
O O9 0.173392 0.243757 0.645087
O O10 0.045809 0.000000 0.671928
O O11 0.800367 0.000000 0.590542
O O12 0.984549 0.254048 0.909537
O O13 0.058553 0.000000 0.923541
O O14 0.000000 0.238243 0.000000
O O15 0.134465 0.500000 0.072543
O O16 0.250000 0.250000 0.000000
#
# Coordination Sequence:
#
# PCOD9203338 Si02
#       6
#     8   8   8   8   8   8
#     4  10  23  41  57  78 113 154 187 222 281 344
#     4   8  17  34  57  82 109 146 188 228 271 330
#     4  11  22  35  53  82 117 145 183 235 278 322
#     4   9  17  35  60  81 107 148 190 224 274 335
#     4  10  20  39  62  84 112 144 181 230 283 336
#     4  11  22  38  61  86 111 142 185 232 281 336
#
# _framework density 18.702802999999999
#
# number of rings (size 3 to 8) (size 9 to 14) (size 15 to 20)
#    0.000    2.167    1.667    2.500    0.000    3.667 
#    0.000    9.167    0.000    0.000    0.000    0.000 
#    0.000    0.000    0.000    0.000    0.000    0.000 
#
# Total GULP energy -134006.948585 kJ/mol
# GULP energy per Si atom -5583.622858 kJ/mol
# Density = 1.866023 g / cm^3
# Si number density = 18.702803 Si / 1000 Ang^3
#
#
#
# Elastic Constant Matrix: (Units=GPa)
#
#
# Indices 1 2 3 4 5 6 
#
# 1 113.0378 18.7003 44.1887 0.0000 -26.3605 0.0002
# 2 18.7003 14.1095 16.2310 0.0000 -6.4239 0.0003
# 3 44.1887 16.2310 90.3877 0.0000 -34.3514 0.0000
# 4 0.0000 0.0000 0.0000 23.3104 0.0000 0.2856
# 5 -26.3605 -6.4239 -34.3514 0.0000 30.9624 0.0000
# 6 0.0002 0.0003 0.0000 0.2856 0.0000 27.8624
#
#
#
# Elastic Compliance Matrix: (Units=1/GPa)
#
#
# Indices 1 2 3 4 5 6 
#
# 1 0.013118 -0.012459 -0.001580 0.000000 0.006831 0.000000
# 2 -0.012459 0.101189 -0.014061 0.000000 -0.005213 -0.000001
# 3 -0.001580 -0.014061 0.022029 0.000000 0.020178 0.000000
# 4 0.000000 0.000000 0.000000 0.042905 0.000000 -0.000440
# 5 0.006831 -0.005213 0.020178 0.000000 0.059418 0.000000
# 6 0.000000 -0.000001 0.000000 -0.000440 0.000000 0.035895
#
#
# Mechanical properties :
#
#
# Convention : Reuss Voigt Hill
#
# Bulk Modulus (GPa) = 12.47868 41.75277 27.11572
# Shear Modulus (GPa) = 13.98733 25.65472 19.82103
#
# Velocity S-wave (km/s) = 2.73769 3.70767 3.25897
# Velocity P-wave (km/s) = 4.08410 6.37980 5.35639
#
# Compressibility (1/GPa) = 0.08013666
#
# Stress axis : x y z
#
# Youngs Moduli (GPa) = 76.22913 9.88252 45.39374
#
# Poissons Ratio (x) = 0.12313 0.07172
# Poissons Ratio (y) = 0.94975 0.63827
# Poissons Ratio (z) = 0.12045 0.13896
#
# Static dielectric constant tensor:
#      x y z
#    x 1.639300 0.000000 0.009380 
#    y 0.000000 1.640500 0.000000 
#    z 0.009380 0.000000 1.618080 
# 
# From -- ./inp_files/360253.got.cif
#   From: 2010.05.17/outbox.cif.g08.bks.cpg/sg12_181_cif.got.tgz:360253.got - 2010.06.03 13:09:07.
