data_PCOD9203668
_publ_section_title
;
Structure prediction by ZEFSAII (Michael W. Deem and Ramdas Pophale) SiO2 
 PCOD9203668
Probable space group: C 2/M
;
_chemical_formula_sum "Si O2"
_cell_formula_units_Z 40
_cell_length_a 22.877004
_cell_length_b 14.129087
_cell_length_c 18.887281
_cell_angle_alpha 90.000000
_cell_angle_beta 17.048681
_cell_angle_gamma 90.000000
_cell_volume 1789.876759
_symmetry_space_group_name_H-M "C 2/M"
_symmetry_group_IT_number 12
_symmetry_cell_setting 'monoclinic'
loop_
_space_group_symop_operation_xyz
x,y,z
-x,y,-z
-x,-y,-z
x,-y,z
1/2+x,1/2+y,z
1/2-x,1/2+y,-z
1/2-x,1/2-y,-z
1/2+x,1/2-y,z
loop_
_atom_site_type_symbol
_atom_site_label
_atom_site_fract_x
_atom_site_fract_y
_atom_site_fract_z
Si Si1 0.924050 0.214154 0.508021
Si Si2 0.375551 0.891460 0.468932
Si Si3 0.652397 0.806830 0.026222
Si Si4 0.632089 0.109338 0.755929
Si Si5 0.971130 0.893835 0.241169
O O1 0.000000 0.216847 0.500000
O O2 0.885928 0.318242 0.520820
O O3 0.729904 0.153921 0.712351
O O4 0.115347 0.171281 0.245197
O O5 0.535104 0.859630 0.224496
O O6 0.162849 0.884579 0.674801
O O7 0.407764 0.000000 0.451740
O O8 0.547528 0.837115 0.074455
O O9 0.618860 0.694303 0.072890
O O10 0.809321 0.115334 0.491567
O O11 0.581262 0.000000 0.824372
O O12 0.057605 0.000000 0.143845
#
# Coordination Sequence:
#
# PCOD9203668 Si02
#       5
#     8   8   8   8   8
#     4  12  26  40  58  89 128 166 198 238 296 365
#     4  10  20  39  65  92 121 153 201 254 297 352
#     4  11  20  40  66  90 115 155 207 249 302 348
#     4  10  21  40  63  89 121 150 196 258 302 348
#     4   9  17  34  66  95 115 148 199 256 305 346
#
# _framework density 22.347905999999998
#
# number of rings (size 3 to 8) (size 9 to 14) (size 15 to 20)
#    0.000    1.600    4.000    3.600    0.000    4.000 
#    0.000    1.000    0.000    2.400    0.000    0.000 
#    0.000    0.000    0.000    0.000    0.000    0.000 
#
# Total GULP energy -111918.468475 kJ/mol
# GULP energy per Si atom -5595.923424 kJ/mol
# Density = 2.229704 g / cm^3
# Si number density = 22.347906 Si / 1000 Ang^3
#
#
#
# Elastic Constant Matrix: (Units=GPa)
#
#
# Indices 1 2 3 4 5 6 
#
# 1 136.4313 34.4414 -1.0562 -0.0112 -18.3597 0.0070
# 2 34.4414 97.5997 9.5087 -0.0064 -7.4832 0.0068
# 3 -1.0562 9.5087 45.5830 -0.0129 -20.4351 0.0061
# 4 -0.0112 -0.0064 -0.0129 -3.4570 0.0056 0.4831
# 5 -18.3597 -7.4832 -20.4351 0.0056 28.5116 -0.0040
# 6 0.0070 0.0068 0.0061 0.4831 -0.0040 7.9473
#
#
#
# Elastic Compliance Matrix: (Units=1/GPa)
#
#
# Indices 1 2 3 4 5 6 
#
# 1 0.009292 -0.003081 0.004682 -0.000029 0.008531 -0.000003
# 2 -0.003081 0.011539 -0.002962 -0.000003 -0.001078 -0.000005
# 3 0.004682 -0.002962 0.034872 -0.000097 0.027232 -0.000008
# 4 -0.000029 -0.000003 -0.000097 -0.286829 -0.000030 0.017436
# 5 0.008531 -0.001078 0.027232 -0.000030 0.059801 0.000005
# 6 -0.000003 -0.000005 -0.000008 0.017436 0.000005 0.124769
#
#
# Mechanical properties :
#
#
# Convention : Reuss Voigt Hill
#
# Bulk Modulus (GPa) = 18.87432 40.60019 29.73725
# Shear Modulus (GPa) = -191.03665 22.38173 -84.32746
#
# Velocity S-wave (km/s) = -9.25573 3.16810 -6.14946
# Velocity P-wave (km/s) = 10.28401 5.62043 6.08981
#
# Compressibility (1/GPa) = 0.05298205
#
# Stress axis : x y z
#
# Youngs Moduli (GPa) = 107.62309 86.66224 28.67596
#
# Poissons Ratio (x) = 0.26701 -0.13427
# Poissons Ratio (y) = 0.33159 0.08493
# Poissons Ratio (z) = -0.50392 0.25668
#
# Static dielectric constant tensor:
#      x y z
#    x 1.864080 0.000000 0.024190 
#    y 0.000000 1.777980 0.000010 
#    z 0.024190 0.000010 1.813520 
# 
# From -- ./inp_files/72349.got.cif
#   From: 2010.05.17/outbox.cif.g08.bks.cpg/sg12_37_cif.got.tgz:72349.got - 2010.06.03 13:09:07.
