data_PCOD9203788
_publ_section_title
;
Structure prediction by ZEFSAII (Michael W. Deem and Ramdas Pophale) SiO2 
 PCOD9203788
Probable space group: C 2/M
;
_chemical_formula_sum "Si O2"
_cell_formula_units_Z 40
_cell_length_a 21.458643
_cell_length_b 14.407787
_cell_length_c 6.995828
_cell_angle_alpha 90.000000
_cell_angle_beta 60.622145
_cell_angle_gamma 90.000000
_cell_volume 1884.768211
_symmetry_space_group_name_H-M "C 2/M"
_symmetry_group_IT_number 12
_symmetry_cell_setting 'monoclinic'
loop_
_space_group_symop_operation_xyz
x,y,z
-x,y,-z
-x,-y,-z
x,-y,z
1/2+x,1/2+y,z
1/2-x,1/2+y,-z
1/2-x,1/2-y,-z
1/2+x,1/2-y,z
loop_
_atom_site_type_symbol
_atom_site_label
_atom_site_fract_x
_atom_site_fract_y
_atom_site_fract_z
Si Si1 0.440913 0.795363 0.962768
Si Si2 0.312401 0.394111 0.785465
Si Si3 0.459267 0.602605 0.763529
Si Si4 0.658712 0.888874 0.196522
Si Si5 0.829247 0.739951 0.461393
O O1 0.379147 0.771388 0.205128
O O2 0.500000 0.848952 0.000000
O O3 0.476695 0.698982 0.838966
O O4 0.404926 0.847254 0.837817
O O5 0.305277 0.500000 0.730534
O O6 0.373844 0.391554 0.853417
O O7 0.340549 0.330948 0.572629
O O8 0.235223 0.364310 0.982192
O O9 0.500000 0.602934 0.500000
O O10 0.473942 0.500000 0.827042
O O11 0.659950 0.843651 0.404281
O O12 0.653853 0.000000 0.212617
O O13 0.750000 0.750000 0.500000
#
# Coordination Sequence:
#
# PCOD9203788 Si02
#       5
#     8   8   8   8   8
#     4  12  26  41  68  98 131 176 224 271 327 391
#     4  10  20  39  67  95 129 170 210 265 333 395
#     4  10  21  40  67  97 133 171 208 260 332 402
#     4  11  25  45  66  94 134 174 224 279 325 379
#     4  12  23  40  70  97 129 170 216 269 329 393
#
# _framework density 21.222767000000001
#
# number of rings (size 3 to 8) (size 9 to 14) (size 15 to 20)
#    0.000    1.000    4.000    3.000    0.000    3.200 
#    0.000    1.000    0.000    0.000    0.000    0.000 
#    0.000    0.000    0.000    0.000    0.000    0.000 
#
# Total GULP energy -111753.574409 kJ/mol
# GULP energy per Si atom -5587.678720 kJ/mol
# Density = 2.117446 g / cm^3
# Si number density = 21.222767 Si / 1000 Ang^3
#
#
#
# Elastic Constant Matrix: (Units=GPa)
#
#
# Indices 1 2 3 4 5 6 
#
# 1 104.2084 16.1287 13.7582 0.0000 16.9803 0.0000
# 2 16.1287 111.9384 38.1834 0.0000 20.1203 0.0000
# 3 13.7582 38.1834 87.4168 0.0000 14.3502 0.0000
# 4 0.0000 0.0000 0.0000 -2.0954 0.0000 -13.0264
# 5 16.9803 20.1203 14.3502 0.0000 34.5583 0.0000
# 6 0.0000 0.0000 0.0000 -13.0264 0.0000 4.7329
#
#
#
# Elastic Compliance Matrix: (Units=1/GPa)
#
#
# Indices 1 2 3 4 5 6 
#
# 1 0.010509 -0.000446 -0.000702 0.000000 -0.004613 0.000000
# 2 -0.000446 0.011217 -0.004071 0.000000 -0.004621 0.000000
# 3 -0.000702 -0.004071 0.013825 0.000000 -0.003026 0.000000
# 4 0.000000 0.000000 0.000000 -0.026351 0.000000 -0.072528
# 5 -0.004613 -0.004621 -0.003026 0.000000 0.035150 0.000000
# 6 0.000000 0.000000 0.000000 -0.072528 0.000000 0.011667
#
#
# Mechanical properties :
#
#
# Convention : Reuss Voigt Hill
#
# Bulk Modulus (GPa) = 39.81834 48.85603 44.33718
# Shear Modulus (GPa) = 66.82256 23.13869 44.98063
#
# Velocity S-wave (km/s) = 5.61735 3.30552 4.60874
# Velocity P-wave (km/s) = 7.80228 6.13507 7.01836
#
# Compressibility (1/GPa) = 0.02511406
#
# Stress axis : x y z
#
# Youngs Moduli (GPa) = 95.15228 89.15096 72.33408
#
# Poissons Ratio (x) = 0.03973 0.05079
# Poissons Ratio (y) = 0.04240 0.29445
# Poissons Ratio (z) = 0.06681 0.36291
#
# Static dielectric constant tensor:
#      x y z
#    x 1.833010 0.000000 0.029700 
#    y 0.000000 1.785780 0.000000 
#    z 0.029700 0.000000 1.749970 
# 
# From -- ./inp_files/24209.got.cif
#   From: 2010.05.17/outbox.cif.g08.bks.cpg/sg12_13_cif.got.tgz:24209.got - 2010.06.03 13:09:07.
