data_PCOD9203766
_publ_section_title
;
Structure prediction by ZEFSAII (Michael W. Deem and Ramdas Pophale) SiO2 
 PCOD9203766
Probable space group: C 2/M
;
_chemical_formula_sum "Si O2"
_cell_formula_units_Z 52
_cell_length_a 10.723615
_cell_length_b 15.886176
_cell_length_c 20.635375
_cell_angle_alpha 90.000000
_cell_angle_beta 130.407841
_cell_angle_gamma 90.000000
_cell_volume 2676.788847
_symmetry_space_group_name_H-M "C 2/M"
_symmetry_group_IT_number 12
_symmetry_cell_setting 'monoclinic'
loop_
_space_group_symop_operation_xyz
x,y,z
-x,y,-z
-x,-y,-z
x,-y,z
1/2+x,1/2+y,z
1/2-x,1/2+y,-z
1/2-x,1/2-y,-z
1/2+x,1/2-y,z
loop_
_atom_site_type_symbol
_atom_site_label
_atom_site_fract_x
_atom_site_fract_y
_atom_site_fract_z
Si Si1 0.908311 0.000000 0.886423
Si Si2 0.942182 0.676479 0.622984
Si Si3 0.531830 0.320245 0.885613
Si Si4 0.059809 0.500000 0.719102
Si Si5 0.295063 0.292948 0.684493
Si Si6 0.093909 0.652167 0.972643
Si Si7 0.188197 0.406644 0.539356
Si Si8 0.871894 0.500000 0.113834
O O1 0.756753 0.000000 0.784009
O O2 0.992972 0.910830 0.903434
O O3 0.185183 0.000000 0.076622
O O4 0.996214 0.583587 0.664253
O O5 0.111047 0.719048 0.652490
O O6 0.859898 0.721917 0.656579
O O7 0.816942 0.658475 0.521795
O O8 0.422985 0.306794 0.785294
O O9 0.504330 0.238240 0.921005
O O10 0.726705 0.322306 0.941691
O O11 0.024728 0.500000 0.784622
O O12 0.285570 0.373597 0.633980
O O13 0.102121 0.584914 0.917662
O O14 0.000000 0.610692 0.000000
O O15 0.239793 0.500000 0.536787
O O16 0.000000 0.410160 0.500000
#
# Coordination Sequence:
#
# PCOD9203766 Si02
#       8
#     4   8   8   4   8   8   8   4
#     4  10  23  40  67  92 120 157 221 258 300 375
#     4  11  21  40  65  97 129 167 210 260 312 372
#     4  11  25  40  63  94 122 165 210 268 312 375
#     4  10  20  39  67  91 123 166 217 250 307 378
#     4  11  23  37  65  94 129 163 212 258 315 380
#     4  11  26  41  63  89 128 162 208 265 329 375
#     4   9  19  35  64  95 128 164 212 261 305 367
#     4  10  22  43  63  90 119 165 208 260 309 382
#
# _framework density 19.426262999999999
#
# number of rings (size 3 to 8) (size 9 to 14) (size 15 to 20)
#    0.462    1.077    2.308    2.077    8.615    0.615 
#    0.000    0.000    1.692    0.923    0.000    0.000 
#    0.000    0.000    0.000    0.000    0.000    0.000 
#
# Total GULP energy -145002.283748 kJ/mol
# GULP energy per Si atom -5577.010913 kJ/mol
# Density = 1.938205 g / cm^3
# Si number density = 19.426263 Si / 1000 Ang^3
#
#
#
# Elastic Constant Matrix: (Units=GPa)
#
#
# Indices 1 2 3 4 5 6 
#
# 1 88.6554 48.4297 22.8880 0.0000 -25.2891 0.0000
# 2 48.4297 127.4033 34.4071 0.0000 -7.8656 0.0000
# 3 22.8880 34.4071 115.5328 0.0000 -16.0273 0.0000
# 4 0.0000 0.0000 0.0000 17.3826 0.0000 23.9237
# 5 -25.2891 -7.8656 -16.0273 0.0000 20.4369 0.0000
# 6 0.0000 0.0000 0.0000 23.9237 0.0000 -50.9880
#
#
#
# Elastic Compliance Matrix: (Units=1/GPa)
#
#
# Indices 1 2 3 4 5 6 
#
# 1 0.022231 -0.007216 0.001319 0.000000 0.025766 0.000000
# 2 -0.007216 0.010916 -0.002780 0.000000 -0.006908 0.000000
# 3 0.001319 -0.002780 0.010435 0.000000 0.008747 0.000000
# 4 0.000000 0.000000 0.000000 0.034956 0.000000 0.016401
# 5 0.025766 -0.006908 0.008747 0.000000 0.085016 0.000000
# 6 0.000000 0.000000 0.000000 0.016401 0.000000 -0.011917
#
#
# Mechanical properties :
#
#
# Convention : Reuss Voigt Hill
#
# Bulk Modulus (GPa) = 38.12488 60.33790 49.23139
# Shear Modulus (GPa) = 28.13202 12.42407 20.27804
#
# Velocity S-wave (km/s) = 3.80958 2.53168 3.23437
# Velocity P-wave (km/s) = 6.24648 6.29867 6.27263
#
# Compressibility (1/GPa) = 0.02622959
#
# Stress axis : x y z
#
# Youngs Moduli (GPa) = 44.98244 91.60527 95.82776
#
# Poissons Ratio (x) = 0.66104 -0.12644
# Poissons Ratio (y) = 0.32460 0.26638
# Poissons Ratio (z) = -0.05935 0.25464
#
# Static dielectric constant tensor:
#      x y z
#    x 1.684150 0.000000 0.002340 
#    y 0.000000 1.674760 0.000000 
#    z 0.002340 0.000000 1.698510 
# 
# From -- ./inp_files/305545.got.cif
#   From: 2010.05.17/outbox.cif.g08.bks.cpg/sg12_153_cif.got.tgz:305545.got - 2010.06.03 13:09:07.
