data_PCOD9203983
_publ_section_title
;
Structure prediction by ZEFSAII (Michael W. Deem and Ramdas Pophale) SiO2 
 PCOD9203983
Probable space group: C 2/M
;
_chemical_formula_sum "Si O2"
_cell_formula_units_Z 64
_cell_length_a 20.385685
_cell_length_b 7.630370
_cell_length_c 18.557566
_cell_angle_alpha 90.000000
_cell_angle_beta 90.511669
_cell_angle_gamma 90.000000
_cell_volume 2886.520211
_symmetry_space_group_name_H-M "C 2/M"
_symmetry_group_IT_number 12
_symmetry_cell_setting 'monoclinic'
loop_
_space_group_symop_operation_xyz
x,y,z
-x,y,-z
-x,-y,-z
x,-y,z
1/2+x,1/2+y,z
1/2-x,1/2+y,-z
1/2-x,1/2-y,-z
1/2+x,1/2-y,z
loop_
_atom_site_type_symbol
_atom_site_label
_atom_site_fract_x
_atom_site_fract_y
_atom_site_fract_z
Si Si1 0.403333 0.715276 0.677092
Si Si2 0.074096 0.214014 0.486467
Si Si3 0.798040 0.790950 0.433680
Si Si4 0.842272 0.294645 0.172004
Si Si5 0.484129 0.297281 0.218329
Si Si6 0.326209 0.789575 0.012006
Si Si7 0.047878 0.287799 0.067237
Si Si8 0.763358 0.205470 0.719420
O O1 0.403107 0.500000 0.678693
O O2 0.404735 0.766323 0.593673
O O3 0.467282 0.775698 0.720663
O O4 0.336490 0.779110 0.713442
O O5 0.129291 0.272030 0.543562
O O6 0.000000 0.272204 0.500000
O O7 0.073958 0.000000 0.488336
O O8 0.750000 0.750000 0.500000
O O9 0.770314 0.717040 0.359189
O O10 0.800364 0.000000 0.425266
O O11 0.827442 0.500000 0.162584
O O12 0.912620 0.283836 0.210207
O O13 0.845782 0.220585 0.091379
O O14 0.784991 0.217147 0.221068
O O15 0.472825 0.500000 0.235600
O O16 0.520715 0.283213 0.141910
O O17 0.333816 0.000000 0.011632
O O18 0.250000 0.750000 0.000000
O O19 0.378826 0.727242 0.953373
O O20 0.046283 0.500000 0.073497
O O21 0.000000 0.242101 0.000000
O O22 0.771339 0.000000 0.736112
#
# Coordination Sequence:
#
# PCOD9203983 Si02
#       8
#     8   8   8   8   8   8   8   8
#     4   9  19  36  55  81 114 150 190 231 282 341
#     4   9  18  33  56  81 109 148 188 228 277 334
#     4  11  21  36  61  86 113 149 191 238 286 340
#     4  10  22  41  61  81 117 162 192 225 293 363
#     4  11  23  36  60  90 117 147 193 249 286 333
#     4  10  22  39  61  86 114 153 195 242 290 348
#     4  10  20  40  63  80 111 156 195 230 288 357
#     4  10  21  39  61  82 112 154 195 234 282 347
#
# _framework density 22.172025000000001
#
# number of rings (size 3 to 8) (size 9 to 14) (size 15 to 20)
#    0.000    2.000    2.500    0.750    3.500    1.750 
#    0.000    1.250    0.000    1.500    0.000    0.000 
#    0.000    0.000    0.000    0.000    0.000    0.000 
#
# Total GULP energy -178816.866696 kJ/mol
# GULP energy per Si atom -5588.027084 kJ/mol
# Density = 2.212156 g / cm^3
# Si number density = 22.172025 Si / 1000 Ang^3
#
#
#
# Elastic Constant Matrix: (Units=GPa)
#
#
# Indices 1 2 3 4 5 6 
#
# 1 117.0657 -4.8178 -7.4195 0.0000 -6.2597 0.0000
# 2 -4.8178 43.6780 -6.7829 0.0000 -3.1552 0.0000
# 3 -7.4195 -6.7829 17.3282 0.0000 -2.1097 0.0000
# 4 0.0000 0.0000 0.0000 13.7770 0.0000 6.7408
# 5 -6.2597 -3.1552 -2.1097 0.0000 45.8695 0.0000
# 6 0.0000 0.0000 0.0000 6.7408 0.0000 18.4559
#
#
#
# Elastic Compliance Matrix: (Units=1/GPa)
#
#
# Indices 1 2 3 4 5 6 
#
# 1 0.009005 0.001848 0.004771 0.000000 0.001575 0.000000
# 2 0.001848 0.024964 0.010864 0.000000 0.002469 0.000000
# 3 0.004771 0.010864 0.064536 0.000000 0.004367 0.000000
# 4 0.000000 0.000000 0.000000 0.088378 0.000000 -0.032279
# 5 0.001575 0.002469 0.004367 0.000000 0.022387 0.000000
# 6 0.000000 0.000000 0.000000 -0.032279 0.000000 0.065973
#
#
# Mechanical properties :
#
#
# Convention : Reuss Voigt Hill
#
# Bulk Modulus (GPa) = 7.49230 15.55906 11.52568
# Shear Modulus (GPa) = 17.55818 28.75996 23.15907
#
# Velocity S-wave (km/s) = 2.81714 3.60547 3.23541
# Velocity P-wave (km/s) = 3.73740 4.93612 4.37798
#
# Compressibility (1/GPa) = 0.13347030
#
# Stress axis : x y z
#
# Youngs Moduli (GPa) = 111.05100 40.05758 15.49514
#
# Poissons Ratio (x) = -0.07402 -0.07392
# Poissons Ratio (y) = -0.20522 -0.16834
# Poissons Ratio (z) = -0.52980 -0.43517
#
# Static dielectric constant tensor:
#      x y z
#    x 1.806960 0.000000 -0.014620 
#    y 0.000000 1.831280 0.000000 
#    z -0.014620 0.000000 1.781410 
# 
# From -- ./inp_files/281262.got.cif
#   From: 2010.05.17/outbox.cif.g08.bks.cpg/sg12_141_cif.got.tgz:281262.got - 2010.06.03 13:09:07.
