data_PCOD9203368
_publ_section_title
;
Structure prediction by ZEFSAII (Michael W. Deem and Ramdas Pophale) SiO2 
 PCOD9203368
Probable space group: C 2/M
;
_chemical_formula_sum "Si O2"
_cell_formula_units_Z 64
_cell_length_a 26.580383
_cell_length_b 8.712773
_cell_length_c 14.456072
_cell_angle_alpha 90.000000
_cell_angle_beta 86.079347
_cell_angle_gamma 90.000000
_cell_volume 3340.029975
_symmetry_space_group_name_H-M "C 2/M"
_symmetry_group_IT_number 12
_symmetry_cell_setting 'monoclinic'
loop_
_space_group_symop_operation_xyz
x,y,z
-x,y,-z
-x,-y,-z
x,-y,z
1/2+x,1/2+y,z
1/2-x,1/2+y,-z
1/2-x,1/2-y,-z
1/2+x,1/2-y,z
loop_
_atom_site_type_symbol
_atom_site_label
_atom_site_fract_x
_atom_site_fract_y
_atom_site_fract_z
Si Si1 0.649824 0.315805 0.395128
Si Si2 0.886031 0.817531 0.901900
Si Si3 0.439055 0.815745 0.718625
Si Si4 0.946650 0.684493 0.055521
Si Si5 0.274988 0.816150 0.905061
Si Si6 0.948208 0.684972 0.271385
Si Si7 0.647765 0.685167 0.610229
Si Si8 0.247923 0.185054 0.705635
O O1 0.649396 0.500000 0.389636
O O2 0.601196 0.251858 0.347703
O O3 0.648863 0.268482 0.502717
O O4 0.700920 0.254648 0.341974
O O5 0.923025 0.741947 0.822144
O O6 0.830641 0.753285 0.889102
O O7 0.886778 0.000000 0.892357
O O8 0.903943 0.766987 0.001113
O O9 0.497087 0.769520 0.695345
O O10 0.436063 0.000000 0.717597
O O11 0.939945 0.500000 0.050365
O O12 0.946525 0.728806 0.163074
O O13 0.000000 0.721174 0.000000
O O14 0.245088 0.776976 0.814838
O O15 0.278255 0.000000 0.911132
O O16 0.250000 0.750000 0.000000
O O17 0.945475 0.500000 0.275306
O O18 0.901642 0.753513 0.332597
O O19 0.647032 0.500000 0.613525
O O20 0.698614 0.737034 0.656100
O O21 0.251484 0.000000 0.697631
#
# Coordination Sequence:
#
# PCOD9203368 Si02
#       8
#     8   8   8   8   8   8   8   8
#     4  11  23  40  65  95 122 157 206 260 316 371
#     4  12  24  38  60  92 125 161 207 253 308 371
#     4  11  22  41  65  90 124 164 209 259 307 367
#     4  10  20  39  62  86 121 161 205 250 296 356
#     4  11  24  41  62  91 128 165 204 249 307 365
#     4  10  23  41  63  91 122 164 211 254 305 367
#     4  10  24  43  62  90 128 162 201 259 318 368
#     4  10  22  42  66  90 122 166 206 249 307 372
#
# _framework density 19.161504999999998
#
# number of rings (size 3 to 8) (size 9 to 14) (size 15 to 20)
#    0.000    1.375    2.500    2.625    1.750    4.250 
#    0.000    2.500    0.000    0.000    0.000    0.000 
#    0.000    0.000    0.000    0.000    0.000    0.000 
#
# Total GULP energy -178896.870665 kJ/mol
# GULP energy per Si atom -5590.527208 kJ/mol
# Density = 1.911789 g / cm^3
# Si number density = 19.161505 Si / 1000 Ang^3
#
#
#
# Elastic Constant Matrix: (Units=GPa)
#
#
# Indices 1 2 3 4 5 6 
#
# 1 139.0147 35.8380 87.2499 0.0000 20.6064 0.0000
# 2 35.8380 34.1323 41.3354 0.0000 5.0459 0.0000
# 3 87.2499 41.3354 155.6913 0.0000 5.3076 0.0000
# 4 0.0000 0.0000 0.0000 29.1095 0.0000 -6.5958
# 5 20.6064 5.0459 5.3076 0.0000 31.7740 0.0000
# 6 0.0000 0.0000 0.0000 -6.5958 0.0000 29.4888
#
#
#
# Elastic Compliance Matrix: (Units=1/GPa)
#
#
# Indices 1 2 3 4 5 6 
#
# 1 0.013281 -0.006216 -0.005564 0.000000 -0.006696 0.000000
# 2 -0.006216 0.046887 -0.008899 0.000000 -0.001928 0.000000
# 3 -0.005564 -0.008899 0.011800 0.000000 0.003050 0.000000
# 4 0.000000 0.000000 0.000000 0.036187 0.000000 0.008094
# 5 -0.006696 -0.001928 0.003050 0.000000 0.035612 0.000000
# 6 0.000000 0.000000 0.000000 0.008094 0.000000 0.035722
#
#
# Mechanical properties :
#
#
# Convention : Reuss Voigt Hill
#
# Bulk Modulus (GPa) = 32.67034 73.07608 52.87321
# Shear Modulus (GPa) = 21.64051 29.03547 25.33799
#
# Velocity S-wave (km/s) = 3.36426 3.89691 3.64034
# Velocity P-wave (km/s) = 5.67257 7.64641 6.73222
#
# Compressibility (1/GPa) = 0.03060880
#
# Stress axis : x y z
#
# Youngs Moduli (GPa) = 75.29715 21.32803 84.74902
#
# Poissons Ratio (x) = 0.13258 0.47153
# Poissons Ratio (y) = 0.46808 0.75416
# Poissons Ratio (z) = 0.41894 0.18979
#
# Static dielectric constant tensor:
#      x y z
#    x 1.639650 0.000000 0.017630 
#    y 0.000000 1.646030 0.000000 
#    z 0.017630 0.000000 1.657440 
# 
# From -- ./inp_files/238659.got.cif
#   From: 2010.05.17/outbox.cif.g08.bks.cpg/sg12_120_cif.got.tgz:238659.got - 2010.06.03 13:09:07.
