data_PCOD9203139
_publ_section_title
;
Structure prediction by ZEFSAII (Michael W. Deem and Ramdas Pophale) SiO2 
 PCOD9203139
Probable space group: C 2/M
;
_chemical_formula_sum "Si O2"
_cell_formula_units_Z 32
_cell_length_a 7.046773
_cell_length_b 17.566748
_cell_length_c 16.958532
_cell_angle_alpha 90.000000
_cell_angle_beta 41.959143
_cell_angle_gamma 90.000000
_cell_volume 1403.578187
_symmetry_space_group_name_H-M "C 2/M"
_symmetry_group_IT_number 12
_symmetry_cell_setting 'monoclinic'
loop_
_space_group_symop_operation_xyz
x,y,z
-x,y,-z
-x,-y,-z
x,-y,z
1/2+x,1/2+y,z
1/2-x,1/2+y,-z
1/2-x,1/2-y,-z
1/2+x,1/2-y,z
loop_
_atom_site_type_symbol
_atom_site_label
_atom_site_fract_x
_atom_site_fract_y
_atom_site_fract_z
Si Si1 0.067410 0.164369 0.390163
Si Si2 0.257724 0.333223 0.334406
Si Si3 0.848486 0.412356 0.784905
Si Si4 0.197806 0.176268 0.069926
O O1 0.075474 0.256439 0.386674
O O2 0.837623 0.140892 0.396489
O O3 0.375283 0.132031 0.270092
O O4 0.000000 0.140048 0.500000
O O5 0.140812 0.397929 0.313247
O O6 0.548597 0.306448 0.200114
O O7 0.860834 0.500000 0.802287
O O8 0.541255 0.375668 0.897720
O O9 0.500000 0.140637 0.000000
O O10 0.250000 0.250000 0.000000
#
# Coordination Sequence:
#
# PCOD9203139 Si02
#       4
#     8   8   8   8
#     4  12  22  39  69  96 126 176 226 263 316 385
#     4  10  22  38  66  96 127 168 219 271 310 380
#     4  10  25  42  62  98 138 164 214 276 322 380
#     4  10  20  38  68  91 123 166 214 256 326 380
#
# _framework density 22.798871999999999
#
# number of rings (size 3 to 8) (size 9 to 14) (size 15 to 20)
#    1.500    0.000    2.500    3.750    0.000    2.000 
#    0.000    1.250    0.000    6.750    0.000    0.000 
#    0.000    0.000    0.000    0.000    0.000    0.000 
#
# Total GULP energy -89319.142992 kJ/mol
# GULP energy per Si atom -5582.446437 kJ/mol
# Density = 2.274698 g / cm^3
# Si number density = 22.798872 Si / 1000 Ang^3
#
#
#
# Elastic Constant Matrix: (Units=GPa)
#
#
# Indices 1 2 3 4 5 6 
#
# 1 95.1757 -2.3034 11.2610 -0.0001 -1.4694 0.0000
# 2 -2.3034 81.0355 10.7326 0.0000 -14.1437 0.0000
# 3 11.2610 10.7326 81.8667 -0.0001 -13.6312 0.0001
# 4 -0.0001 0.0000 -0.0001 16.7970 0.0000 -0.3262
# 5 -1.4694 -14.1437 -13.6312 0.0000 56.8216 0.0000
# 6 0.0000 0.0000 0.0001 -0.3262 0.0000 18.9284
#
#
#
# Elastic Compliance Matrix: (Units=1/GPa)
#
#
# Indices 1 2 3 4 5 6 
#
# 1 0.010701 0.000514 -0.001533 0.000000 0.000037 0.000000
# 2 0.000514 0.013040 -0.001289 0.000000 0.002950 0.000000
# 3 -0.001533 -0.001289 0.013056 0.000000 0.002772 0.000000
# 4 0.000000 0.000000 0.000000 0.059554 0.000000 0.001026
# 5 0.000037 0.002950 0.002772 0.000000 0.018999 0.000000
# 6 0.000000 0.000000 0.000000 0.001026 0.000000 0.052848
#
#
# Mechanical properties :
#
#
# Convention : Reuss Voigt Hill
#
# Bulk Modulus (GPa) = 31.07428 33.05091 32.06260
# Shear Modulus (GPa) = 27.24144 34.40192 30.82168
#
# Velocity S-wave (km/s) = 3.46042 3.88871 3.68080
# Velocity P-wave (km/s) = 5.44292 5.88990 5.67082
#
# Compressibility (1/GPa) = 0.03218095
#
# Stress axis : x y z
#
# Youngs Moduli (GPa) = 93.44665 76.68423 76.59097
#
# Poissons Ratio (x) = -0.03939 0.11743
# Poissons Ratio (y) = -0.04800 0.09873
# Poissons Ratio (z) = 0.14327 0.09885
#
# Static dielectric constant tensor:
#      x y z
#    x 1.872450 0.000000 -0.002190 
#    y 0.000000 1.753660 0.000000 
#    z -0.002190 0.000000 1.974950 
# 
# From -- ./inp_files/256045.got.cif
#   From: 2010.05.17/outbox.cif.g08.bks.cpg/sg12_129_cif.got.tgz:256045.got - 2010.06.03 13:09:07.
