data_PCOD9203333
_publ_section_title
;
Structure prediction by ZEFSAII (Michael W. Deem and Ramdas Pophale) SiO2 
 PCOD9203333
Probable space group: C 2/M
;
_chemical_formula_sum "Si O2"
_cell_formula_units_Z 40
_cell_length_a 24.385542
_cell_length_b 7.529853
_cell_length_c 9.936038
_cell_angle_alpha 90.000000
_cell_angle_beta 109.652303
_cell_angle_gamma 90.000000
_cell_volume 1718.178067
_symmetry_space_group_name_H-M "C 2/M"
_symmetry_group_IT_number 12
_symmetry_cell_setting 'monoclinic'
loop_
_space_group_symop_operation_xyz
x,y,z
-x,y,-z
-x,-y,-z
x,-y,z
1/2+x,1/2+y,z
1/2-x,1/2+y,-z
1/2-x,1/2-y,-z
1/2+x,1/2-y,z
loop_
_atom_site_type_symbol
_atom_site_label
_atom_site_fract_x
_atom_site_fract_y
_atom_site_fract_z
Si Si1 0.593592 0.206254 0.341340
Si Si2 0.023280 0.204473 0.879472
Si Si3 0.311548 0.284728 0.793715
Si Si4 0.811801 0.705257 0.377209
Si Si5 0.351652 0.715428 0.113736
O O1 0.530948 0.291476 0.266611
O O2 0.631003 0.222889 0.235589
O O3 0.636821 0.284705 0.489888
O O4 0.582438 0.000000 0.362569
O O5 0.082438 0.276612 0.864971
O O6 0.038473 0.000000 0.925386
O O7 0.000000 0.287112 0.000000
O O8 0.311274 0.500000 0.789833
O O9 0.253309 0.217942 0.672118
O O10 0.314104 0.232498 0.952048
O O11 0.807264 0.500000 0.417217
O O12 0.829642 0.711193 0.236113
O O13 0.350355 0.500000 0.124130
#
# Coordination Sequence:
#
# PCOD9203333 Si02
#       5
#     8   8   8   8   8
#     4  11  23  37  57  88 118 150 190 233 285 338
#     4  10  20  39  62  83 111 148 192 238 281 335
#     4  10  20  39  62  83 113 154 194 234 279 334
#     4  10  23  39  56  84 122 154 184 231 289 339
#     4  10  21  37  61  87 110 146 195 238 282 335
#
# _framework density 23.280473000000001
#
# number of rings (size 3 to 8) (size 9 to 14) (size 15 to 20)
#    0.000    1.800    2.000    1.800    0.000    5.200 
#    0.000    4.000    0.000    0.000    0.000    0.000 
#    0.000    0.000    0.000    0.000    0.000    0.000 
#
# Total GULP energy -111809.291552 kJ/mol
# GULP energy per Si atom -5590.464578 kJ/mol
# Density = 2.322749 g / cm^3
# Si number density = 23.280473 Si / 1000 Ang^3
#
#
#
# Elastic Constant Matrix: (Units=GPa)
#
#
# Indices 1 2 3 4 5 6 
#
# 1 91.9199 -6.1699 5.3150 0.0000 24.4055 0.0000
# 2 -6.1699 63.3537 -8.8092 0.0000 2.6234 0.0000
# 3 5.3150 -8.8092 92.7249 0.0000 21.0036 0.0000
# 4 0.0000 0.0000 0.0000 15.3782 0.0000 -14.9382
# 5 24.4055 2.6234 21.0036 0.0000 42.0485 0.0000
# 6 0.0000 0.0000 0.0000 -14.9382 0.0000 -50.1241
#
#
#
# Elastic Compliance Matrix: (Units=1/GPa)
#
#
# Indices 1 2 3 4 5 6 
#
# 1 0.013157 0.001814 0.001323 0.000000 -0.008411 0.000000
# 2 0.001814 0.016393 0.002169 0.000000 -0.003159 0.000000
# 3 0.001323 0.002169 0.012538 0.000000 -0.007166 0.000000
# 4 0.000000 0.000000 0.000000 0.050428 0.000000 -0.015029
# 5 -0.008411 -0.003159 -0.007166 0.000000 0.032441 0.000000
# 6 0.000000 0.000000 0.000000 -0.015029 0.000000 -0.015472
#
#
# Mechanical properties :
#
#
# Convention : Reuss Voigt Hill
#
# Bulk Modulus (GPa) = 18.97500 25.40782 22.19141
# Shear Modulus (GPa) = 42.94007 18.63802 30.78905
#
# Velocity S-wave (km/s) = 4.29939 2.83253 3.64060
# Velocity P-wave (km/s) = 5.72840 4.65136 5.21775
#
# Compressibility (1/GPa) = 0.05270092
#
# Stress axis : x y z
#
# Youngs Moduli (GPa) = 76.00272 61.00004 79.75702
#
# Poissons Ratio (x) = -0.11063 -0.10554
# Poissons Ratio (y) = -0.13784 -0.17299
# Poissons Ratio (z) = -0.10058 -0.13231
#
# Static dielectric constant tensor:
#      x y z
#    x 1.850160 0.000000 0.030110 
#    y 0.000000 1.509650 0.000000 
#    z 0.030110 0.000000 1.875810 
# 
# From -- ./inp_files/92745.got.cif
#   From: 2010.05.17/outbox.cif.g08.bks.cpg/sg12_47_cif.got.tgz:92745.got - 2010.06.03 13:09:07.
