data_PCOD9203309
_publ_section_title
;
Structure prediction by ZEFSAII (Michael W. Deem and Ramdas Pophale) SiO2 
 PCOD9203309
Probable space group: C 2/M
;
_chemical_formula_sum "Si O2"
_cell_formula_units_Z 56
_cell_length_a 14.318376
_cell_length_b 14.956765
_cell_length_c 12.695358
_cell_angle_alpha 90.000000
_cell_angle_beta 70.600165
_cell_angle_gamma 90.000000
_cell_volume 2564.431189
_symmetry_space_group_name_H-M "C 2/M"
_symmetry_group_IT_number 12
_symmetry_cell_setting 'monoclinic'
loop_
_space_group_symop_operation_xyz
x,y,z
-x,y,-z
-x,-y,-z
x,-y,z
1/2+x,1/2+y,z
1/2-x,1/2+y,-z
1/2-x,1/2-y,-z
1/2+x,1/2-y,z
loop_
_atom_site_type_symbol
_atom_site_label
_atom_site_fract_x
_atom_site_fract_y
_atom_site_fract_z
Si Si1 0.131548 0.901693 0.202549
Si Si2 0.556387 0.902557 0.134692
Si Si3 0.769658 0.851047 0.029297
Si Si4 0.755521 0.108167 0.281990
Si Si5 0.156086 0.597730 0.778536
Si Si6 0.061851 0.277011 0.331825
Si Si7 0.154691 0.245976 0.608877
O O1 0.247629 0.900670 0.187416
O O2 0.091364 0.823801 0.291372
O O3 0.089794 0.000000 0.239242
O O4 0.137527 0.883480 0.074982
O O5 0.664030 0.897468 0.044656
O O6 0.448823 0.895967 0.121382
O O7 0.552382 0.824936 0.221647
O O8 0.555605 0.000000 0.189263
O O9 0.782012 0.865766 0.150343
O O10 0.750000 0.750000 0.000000
O O11 0.651375 0.161816 0.344580
O O12 0.836337 0.152479 0.330049
O O13 0.747391 0.000000 0.294011
O O14 0.156388 0.500000 0.724451
O O15 0.163962 0.676553 0.692402
O O16 0.948350 0.266560 0.413285
O O17 0.250000 0.250000 0.500000
#
# Coordination Sequence:
#
# PCOD9203309 Si02
#       7
#     8   8   8   8   8   8   8
#     4  11  20  34  58  87 123 166 205 244 300 374
#     4   9  17  31  54  83 115 155 202 255 300 350
#     4  11  18  33  58  89 127 168 208 245 306 370
#     4  11  23  43  66  95 131 169 211 264 315 375
#     4   9  19  37  58  84 118 155 202 256 310 365
#     4  10  20  39  61  88 124 163 203 260 316 377
#     4  11  24  42  65  91 121 158 207 267 329 381
#
# _framework density 21.837201
#
# number of rings (size 3 to 8) (size 9 to 14) (size 15 to 20)
#    0.000    1.714    4.286    2.571    0.000    2.857 
#    0.000    5.000    0.000    3.429    0.000    0.000 
#    0.000    0.000    0.000    0.000    0.000    0.000 
#
# Total GULP energy -155897.845057 kJ/mol
# GULP energy per Si atom -5567.780181 kJ/mol
# Density = 2.178750 g / cm^3
# Si number density = 21.837201 Si / 1000 Ang^3
#
#
#
# Elastic Constant Matrix: (Units=GPa)
#
#
# Indices 1 2 3 4 5 6 
#
# 1 48.0260 2.1472 -2.6128 0.0000 5.5433 0.0000
# 2 2.1472 160.6435 22.4591 0.0000 2.0674 0.0000
# 3 -2.6128 22.4591 58.8427 0.0000 -12.6021 0.0000
# 4 0.0000 0.0000 0.0000 7.3155 0.0000 -7.1892
# 5 5.5433 2.0674 -12.6021 0.0000 27.6121 0.0000
# 6 0.0000 0.0000 0.0000 -7.1892 0.0000 22.2085
#
#
#
# Elastic Compliance Matrix: (Units=1/GPa)
#
#
# Indices 1 2 3 4 5 6 
#
# 1 0.021326 -0.000251 0.000144 0.000000 -0.004197 0.000000
# 2 -0.000251 0.006662 -0.002937 0.000000 -0.001789 0.000000
# 3 0.000144 -0.002937 0.020130 0.000000 0.009378 0.000000
# 4 0.000000 0.000000 0.000000 0.200470 0.000000 0.064894
# 5 -0.004197 -0.001789 0.009378 0.000000 0.041473 0.000000
# 6 0.000000 0.000000 0.000000 0.064894 0.000000 0.066035
#
#
# Mechanical properties :
#
#
# Convention : Reuss Voigt Hill
#
# Bulk Modulus (GPa) = 23.79279 34.61103 29.20191
# Shear Modulus (GPa) = 13.29103 27.79513 20.54308
#
# Velocity S-wave (km/s) = 2.46974 3.57155 3.07047
# Velocity P-wave (km/s) = 4.36486 5.73515 5.09627
#
# Compressibility (1/GPa) = 0.04202953
#
# Stress axis : x y z
#
# Youngs Moduli (GPa) = 46.89214 150.10600 49.67606
#
# Poissons Ratio (x) = 0.03770 -0.00715
# Poissons Ratio (y) = 0.01178 0.14590
# Poissons Ratio (z) = -0.00675 0.44086
#
# Static dielectric constant tensor:
#      x y z
#    x 1.867400 0.000000 -0.008210 
#    y 0.000000 1.674760 0.000000 
#    z -0.008210 0.000000 1.860700 
# 
# From -- ./inp_files/269804.got.cif
#   From: 2010.05.17/outbox.cif.g08.bks.cpg/sg12_135_cif.got.tgz:269804.got - 2010.06.03 13:09:07.
