data_PCOD9203961
_publ_section_title
;
Structure prediction by ZEFSAII (Michael W. Deem and Ramdas Pophale) SiO2 
 PCOD9203961
Probable space group: C 2/M
;
_chemical_formula_sum "Si O2"
_cell_formula_units_Z 50
_cell_length_a 17.236317
_cell_length_b 15.333479
_cell_length_c 10.161107
_cell_angle_alpha 90.000000
_cell_angle_beta 112.120197
_cell_angle_gamma 90.000000
_cell_volume 2487.842308
_symmetry_space_group_name_H-M "C 2/M"
_symmetry_group_IT_number 12
_symmetry_cell_setting 'monoclinic'
loop_
_space_group_symop_operation_xyz
x,y,z
-x,y,-z
-x,-y,-z
x,-y,z
1/2+x,1/2+y,z
1/2-x,1/2+y,-z
1/2-x,1/2-y,-z
1/2+x,1/2-y,z
loop_
_atom_site_type_symbol
_atom_site_label
_atom_site_fract_x
_atom_site_fract_y
_atom_site_fract_z
Si Si1 0.632646 0.842661 0.085559
Si Si2 0.736485 0.291317 0.302239
Si Si3 0.093214 0.897023 0.334503
Si Si4 0.500000 0.000000 0.000000
Si Si5 0.928056 0.183480 0.132037
Si Si6 0.236408 0.901783 0.047551
Si Si7 0.588652 0.723174 0.572925
O O1 0.677118 0.792234 0.235114
O O2 0.570588 0.922131 0.074689
O O3 0.586170 0.768592 0.966916
O O4 0.708460 0.878899 0.043889
O O5 0.682641 0.362583 0.343912
O O6 0.757055 0.332911 0.173464
O O7 0.826151 0.268514 0.419781
O O8 0.079922 0.860932 0.473510
O O9 0.022262 0.851906 0.198181
O O10 0.085980 0.000000 0.323085
O O11 0.904197 0.202987 0.268558
O O12 0.861717 0.111778 0.042281
O O13 0.254581 0.000000 0.101134
O O14 0.500000 0.773090 0.500000
#
# Coordination Sequence:
#
# PCOD9203961 Si02
#       7
#     8   8   8   2   8   8   8
#     4  11  21  38  61  90 122 163 193 245 306 360
#     4  11  21  42  61  86 124 162 198 244 312 369
#     4  11  24  38  59  91 122 155 200 256 300 353
#     4  12  24  36  56 100 134 150 204 244 290 368
#     4  10  20  40  62  89 122 153 202 246 307 367
#     4  11  20  35  65  93 118 152 197 251 302 361
#     4  10  21  38  65  83 111 164 205 246 290 360
#
# _framework density 20.097736999999999
#
# number of rings (size 3 to 8) (size 9 to 14) (size 15 to 20)
#    0.000    1.280    4.000    3.360    0.000    5.440 
#    1.440    4.000    0.000    1.920    6.240    0.000 
#    0.000    0.000    0.000    0.000    0.000    0.000 
#
# Total GULP energy -139332.580902 kJ/mol
# GULP energy per Si atom -5573.303236 kJ/mol
# Density = 2.005199 g / cm^3
# Si number density = 20.097737 Si / 1000 Ang^3
#
#
#
# Elastic Constant Matrix: (Units=GPa)
#
#
# Indices 1 2 3 4 5 6 
#
# 1 96.0496 40.1274 18.5479 0.0000 32.7688 0.0000
# 2 40.1274 115.2258 30.3886 0.0000 31.8690 0.0000
# 3 18.5479 30.3886 60.2846 0.0000 21.3032 0.0000
# 4 0.0000 0.0000 0.0000 10.2888 0.0000 2.5623
# 5 32.7688 31.8690 21.3032 0.0000 33.0929 0.0000
# 6 0.0000 0.0000 0.0000 2.5623 0.0000 28.5429
#
#
#
# Elastic Compliance Matrix: (Units=1/GPa)
#
#
# Indices 1 2 3 4 5 6 
#
# 1 0.016011 -0.001769 0.001251 0.000000 -0.014956 0.000000
# 2 -0.001769 0.012325 -0.002710 0.000000 -0.008373 0.000000
# 3 0.001251 -0.002710 0.022116 0.000000 -0.012865 0.000000
# 4 0.000000 0.000000 0.000000 0.099415 0.000000 -0.008924
# 5 -0.014956 -0.008373 -0.012865 0.000000 0.061373 0.000000
# 6 0.000000 0.000000 0.000000 -0.008924 0.000000 0.035836
#
#
# Mechanical properties :
#
#
# Convention : Reuss Voigt Hill
#
# Bulk Modulus (GPa) = 22.72977 49.96531 36.34754
# Shear Modulus (GPa) = 18.64296 26.55134 22.59715
#
# Velocity S-wave (km/s) = 3.04898 3.63865 3.35679
# Velocity P-wave (km/s) = 4.87126 6.52443 5.75749
#
# Compressibility (1/GPa) = 0.04399516
#
# Stress axis : x y z
#
# Youngs Moduli (GPa) = 62.45574 81.13435 45.21714
#
# Poissons Ratio (x) = 0.14356 -0.05655
# Poissons Ratio (y) = 0.11051 0.12253
# Poissons Ratio (z) = -0.07811 0.21986
#
# Static dielectric constant tensor:
#      x y z
#    x 1.778050 0.000000 0.002910 
#    y 0.000000 1.666220 0.000000 
#    z 0.002910 0.000000 1.743760 
# 
# From -- ./inp_files/156222.got.cif
#   From: 2010.05.17/outbox.cif.g08.bks.cpg/sg12_79_cif.got.tgz:156222.got - 2010.06.03 13:09:07.
