data_PCOD9203106
_publ_section_title
;
Structure prediction by ZEFSAII (Michael W. Deem and Ramdas Pophale) SiO2 
 PCOD9203106
Probable space group: C 2/M
;
_chemical_formula_sum "Si O2"
_cell_formula_units_Z 28
_cell_length_a 15.876489
_cell_length_b 8.870578
_cell_length_c 12.369321
_cell_angle_alpha 90.000000
_cell_angle_beta 47.470781
_cell_angle_gamma 90.000000
_cell_volume 1283.748889
_symmetry_space_group_name_H-M "C 2/M"
_symmetry_group_IT_number 12
_symmetry_cell_setting 'monoclinic'
loop_
_space_group_symop_operation_xyz
x,y,z
-x,y,-z
-x,-y,-z
x,-y,z
1/2+x,1/2+y,z
1/2-x,1/2+y,-z
1/2-x,1/2-y,-z
1/2+x,1/2-y,z
loop_
_atom_site_type_symbol
_atom_site_label
_atom_site_fract_x
_atom_site_fract_y
_atom_site_fract_z
Si Si1 0.941907 0.168603 0.167819
Si Si2 0.362962 0.721741 0.833062
Si Si3 0.337010 0.000000 0.328022
Si Si4 0.634295 0.500000 0.359662
Si Si5 0.497659 0.000000 0.374564
O O1 0.882811 0.334629 0.242845
O O2 0.042817 0.154040 0.168253
O O3 0.881528 0.000000 0.221522
O O4 0.000000 0.182529 0.000000
O O5 0.334130 0.635160 0.747997
O O6 0.429363 0.863907 0.732711
O O7 0.250000 0.750000 0.000000
O O8 0.205025 0.000000 0.408418
O O9 0.375837 0.000000 0.419160
O O10 0.500000 0.500000 0.500000
O O11 0.500000 0.000000 0.500000
#
# Coordination Sequence:
#
# PCOD9203106 Si02
#       5
#     8   8   4   4   4
#     4  10  20  38  67 100 138 178 235 290 347 418
#     4  11  22  41  69 100 137 177 230 291 346 410
#     4  10  23  44  68  93 140 192 231 283 360 426
#     4  12  25  45  67 100 140 181 229 291 360 415
#     4  10  23  45  70  99 137 183 232 282 347 427
#
# _framework density 21.811119999999999
#
# number of rings (size 3 to 8) (size 9 to 14) (size 15 to 20)
#    0.000    1.429    1.429    3.857    0.000    2.286 
#    2.571   15.714    0.000    0.000    0.000    0.000 
#    0.000    0.000    0.000    0.000    0.000    0.000 
#
# Total GULP energy -77946.865757 kJ/mol
# GULP energy per Si atom -5567.633268 kJ/mol
# Density = 2.176148 g / cm^3
# Si number density = 21.811120 Si / 1000 Ang^3
#
#
#
# Elastic Constant Matrix: (Units=GPa)
#
#
# Indices 1 2 3 4 5 6 
#
# 1 157.8208 47.8304 64.4406 0.0000 10.2253 0.0000
# 2 47.8304 154.1450 36.8909 0.0000 4.8881 0.0000
# 3 64.4406 36.8909 132.1523 0.0000 10.5724 0.0000
# 4 0.0000 0.0000 0.0000 -91.5818 0.0000 -6.6926
# 5 10.2253 4.8881 10.5724 0.0000 41.5860 0.0000
# 6 0.0000 0.0000 0.0000 -6.6926 0.0000 16.9312
#
#
#
# Elastic Compliance Matrix: (Units=1/GPa)
#
#
# Indices 1 2 3 4 5 6 
#
# 1 0.008356 -0.001721 -0.003518 0.000000 -0.000958 0.000000
# 2 -0.001721 0.007311 -0.001191 0.000000 -0.000133 0.000000
# 3 -0.003518 -0.001191 0.009732 0.000000 -0.001469 0.000000
# 4 0.000000 0.000000 0.000000 -0.010613 0.000000 -0.004195
# 5 -0.000958 -0.000133 -0.001469 0.000000 0.024671 0.000000
# 6 0.000000 0.000000 0.000000 -0.004195 0.000000 0.057404
#
#
# Mechanical properties :
#
#
# Convention : Reuss Voigt Hill
#
# Bulk Modulus (GPa) = 79.74278 82.49355 81.11817
# Shear Modulus (GPa) = 43.89766 13.05082 28.47424
#
# Velocity S-wave (km/s) = 4.49110 2.44879 3.61708
# Velocity P-wave (km/s) = 7.97078 6.77490 7.39705
#
# Compressibility (1/GPa) = 0.01254032
#
# Stress axis : x y z
#
# Youngs Moduli (GPa) = 119.67214 136.78788 102.74969
#
# Poissons Ratio (x) = 0.23536 0.36144
# Poissons Ratio (y) = 0.20591 0.12239
# Poissons Ratio (z) = 0.42097 0.16293
#
# Static dielectric constant tensor:
#      x y z
#    x 1.812850 0.000000 0.022060 
#    y 0.000000 -1.638520 0.000000 
#    z 0.022060 0.000000 1.746830 
# 
# From -- ./inp_files/138244.got.cif
#   From: 2010.05.17/outbox.cif.g08.bks.cpg/sg12_70_cif.got.tgz:138244.got - 2010.06.03 13:09:07.
