data_PCOD9203321
_publ_section_title
;
Structure prediction by ZEFSAII (Michael W. Deem and Ramdas Pophale) SiO2 
 PCOD9203321
Probable space group: C 2/M
;
_chemical_formula_sum "Si O2"
_cell_formula_units_Z 56
_cell_length_a 8.334096
_cell_length_b 26.058907
_cell_length_c 14.998865
_cell_angle_alpha 90.000000
_cell_angle_beta 134.600421
_cell_angle_gamma 90.000000
_cell_volume 2319.347511
_symmetry_space_group_name_H-M "C 2/M"
_symmetry_group_IT_number 12
_symmetry_cell_setting 'monoclinic'
loop_
_space_group_symop_operation_xyz
x,y,z
-x,y,-z
-x,-y,-z
x,-y,z
1/2+x,1/2+y,z
1/2-x,1/2+y,-z
1/2-x,1/2-y,-z
1/2+x,1/2-y,z
loop_
_atom_site_type_symbol
_atom_site_label
_atom_site_fract_x
_atom_site_fract_y
_atom_site_fract_z
Si Si1 0.856701 0.940595 0.794234
Si Si2 0.819230 0.660839 0.824458
Si Si3 0.890636 0.711642 0.619673
Si Si4 0.153277 0.407263 0.363816
Si Si5 0.618723 0.729758 0.198582
Si Si6 0.995900 0.914731 0.350736
Si Si7 0.295865 0.360703 0.024441
O O1 0.604004 0.921582 0.717046
O O2 0.927639 0.933780 0.716835
O O3 0.032641 0.906785 0.919062
O O4 0.873954 0.000000 0.822998
O O5 0.849033 0.720794 0.850833
O O6 0.578070 0.645645 0.688011
O O7 0.785927 0.634098 0.905806
O O8 0.062386 0.643185 0.879243
O O9 0.750000 0.750000 0.500000
O O10 0.803669 0.654646 0.608724
O O11 0.924688 0.741822 0.725212
O O12 0.146080 0.702028 0.687639
O O13 0.265479 0.429479 0.315729
O O14 0.305517 0.427550 0.504612
O O15 0.441729 0.691459 0.085323
#
# Coordination Sequence:
#
# PCOD9203321 Si02
#       7
#     8   8   8   8   8   8   8
#     4  11  25  46  69  95 129 173 226 288 339 386
#     4  10  20  39  61  91 132 169 212 267 322 403
#     4  12  25  35  60  96 137 177 210 261 327 406
#     4  11  23  42  67  98 135 175 219 272 333 407
#     4  12  21  38  58  93 132 169 216 253 328 402
#     4  10  23  41  67  96 128 170 219 269 338 403
#     4  10  22  39  62  92 126 172 221 271 327 398
#
# _framework density 24.144722000000002
#
# number of rings (size 3 to 8) (size 9 to 14) (size 15 to 20)
#    0.000    1.143    4.286    2.143    4.000    2.857 
#    0.000    9.286    0.000    0.857    0.000    0.000 
#    0.000    0.000    0.000    0.000    0.000    0.000 
#
# Total GULP energy -156027.345003 kJ/mol
# GULP energy per Si atom -5572.405179 kJ/mol
# Density = 2.408977 g / cm^3
# Si number density = 24.144722 Si / 1000 Ang^3
#
#
#
# Elastic Constant Matrix: (Units=GPa)
#
#
# Indices 1 2 3 4 5 6 
#
# 1 135.6048 34.7378 45.0063 0.0000 3.8472 0.0000
# 2 34.7378 118.8941 25.7093 0.0000 14.4864 0.0000
# 3 45.0063 25.7093 86.6842 0.0000 21.0391 0.0000
# 4 0.0000 0.0000 0.0000 35.0969 0.0000 33.4574
# 5 3.8472 14.4864 21.0391 0.0000 48.9791 0.0000
# 6 0.0000 0.0000 0.0000 33.4574 0.0000 49.2983
#
#
#
# Elastic Compliance Matrix: (Units=1/GPa)
#
#
# Indices 1 2 3 4 5 6 
#
# 1 0.009399 -0.001946 -0.004760 0.000000 0.001882 0.000000
# 2 -0.001946 0.009517 -0.001302 0.000000 -0.002103 0.000000
# 3 -0.004760 -0.001302 0.015863 0.000000 -0.006055 0.000000
# 4 0.000000 0.000000 0.000000 0.080708 0.000000 -0.054774
# 5 0.001882 -0.002103 -0.006055 0.000000 0.023492 0.000000
# 6 0.000000 0.000000 0.000000 -0.054774 0.000000 0.057458
#
#
# Mechanical properties :
#
#
# Convention : Reuss Voigt Hill
#
# Bulk Modulus (GPa) = 53.29307 61.34330 57.31819
# Shear Modulus (GPa) = 22.86155 42.39020 32.62587
#
# Velocity S-wave (km/s) = 3.08044 4.19462 3.67994
# Velocity P-wave (km/s) = 5.89681 6.99439 6.46892
#
# Compressibility (1/GPa) = 0.01876416
#
# Stress axis : x y z
#
# Youngs Moduli (GPa) = 106.39175 105.07282 63.03981
#
# Poissons Ratio (x) = 0.20450 0.30004
# Poissons Ratio (y) = 0.20707 0.08206
# Poissons Ratio (z) = 0.50638 0.13678
#
# Static dielectric constant tensor:
#      x y z
#    x 2.134950 0.000000 0.017380 
#    y 0.000000 1.975310 0.000000 
#    z 0.017380 0.000000 1.997000 
# 
# From -- ./inp_files/259878.got.cif
#   From: 2010.05.17/outbox.cif.g08.bks.cpg/sg12_130_cif.got.tgz:259878.got - 2010.06.03 13:09:07.
