data_PCOD9203812
_publ_section_title
;
Structure prediction by ZEFSAII (Michael W. Deem and Ramdas Pophale) SiO2 
 PCOD9203812
Probable space group: C 2/M
;
_chemical_formula_sum "Si O2"
_cell_formula_units_Z 36
_cell_length_a 18.764002
_cell_length_b 10.706156
_cell_length_c 21.139968
_cell_angle_alpha 90.000000
_cell_angle_beta 20.561632
_cell_angle_gamma 90.000000
_cell_volume 1491.544094
_symmetry_space_group_name_H-M "C 2/M"
_symmetry_group_IT_number 12
_symmetry_cell_setting 'monoclinic'
loop_
_space_group_symop_operation_xyz
x,y,z
-x,y,-z
-x,-y,-z
x,-y,z
1/2+x,1/2+y,z
1/2-x,1/2+y,-z
1/2-x,1/2-y,-z
1/2+x,1/2-y,z
loop_
_atom_site_type_symbol
_atom_site_label
_atom_site_fract_x
_atom_site_fract_y
_atom_site_fract_z
Si Si1 0.997453 0.275099 0.932445
Si Si2 0.110911 0.500000 0.173555
Si Si3 0.493849 0.500000 0.773318
Si Si4 0.136538 0.143630 0.448459
Si Si5 0.025173 0.757126 0.290829
Si Si6 0.965894 0.000000 0.119085
O O1 0.136138 0.341535 0.765724
O O2 0.088877 0.133789 0.863505
O O3 0.000000 0.334329 0.000000
O O4 0.767991 0.268337 0.099255
O O5 0.990014 0.626911 0.284102
O O6 0.254089 0.500000 0.992921
O O7 0.287218 0.500000 0.081605
O O8 0.536143 0.374953 0.700291
O O9 0.602678 0.500000 0.750795
O O10 0.000000 0.169547 0.500000
O O11 0.076393 0.231348 0.556334
O O12 0.097390 0.000000 0.500418
#
# Coordination Sequence:
#
# PCOD9203812 Si02
#       6
#     8   4   4   8   8   4
#     4  11  22  39  65  93 123 165 204 255 318 373
#     4   8  20  36  65  92 116 163 213 240 310 371
#     4  10  20  39  68  89 127 171 203 258 310 360
#     4  11  24  39  59  94 128 161 210 259 313 372
#     4  11  21  41  65  92 127 165 205 260 310 368
#     4   8  21  39  63  92 125 155 212 257 303 373
#
# _framework density 24.136061999999999
#
# number of rings (size 3 to 8) (size 9 to 14) (size 15 to 20)
#    0.667    1.111    3.333    1.000    1.556    1.333 
#    0.000    2.222    4.889    0.000    0.000    0.000 
#    0.000    0.000    0.000    0.000    0.000    0.000 
#
# Total GULP energy -100722.218156 kJ/mol
# GULP energy per Si atom -5595.678786 kJ/mol
# Density = 2.408113 g / cm^3
# Si number density = 24.136062 Si / 1000 Ang^3
#
#
#
# Elastic Constant Matrix: (Units=GPa)
#
#
# Indices 1 2 3 4 5 6 
#
# 1 63.7160 25.0183 42.9837 0.0339 17.8183 -0.0192
# 2 25.0183 123.6796 24.5946 0.0975 22.9120 -0.0597
# 3 42.9837 24.5946 143.4168 0.0445 13.0330 -0.0307
# 4 0.0339 0.0975 0.0445 -77.3895 -0.0451 54.3736
# 5 17.8183 22.9120 13.0330 -0.0451 50.5249 0.0313
# 6 -0.0192 -0.0597 -0.0307 54.3736 0.0313 -16.9828
#
#
#
# Elastic Compliance Matrix: (Units=1/GPa)
#
#
# Indices 1 2 3 4 5 6 
#
# 1 0.021906 -0.002336 -0.005692 0.000004 -0.005197 -0.000004
# 2 -0.002336 0.009275 -0.000597 0.000010 -0.003228 -0.000003
# 3 -0.005692 -0.000597 0.008780 0.000003 0.000013 0.000001
# 4 0.000004 0.000010 0.000003 0.010342 -0.000018 0.033110
# 5 -0.005197 -0.003228 0.000013 -0.000018 0.023085 0.000003
# 6 -0.000004 -0.000003 0.000001 0.033110 0.000003 0.047126
#
#
# Mechanical properties :
#
#
# Convention : Reuss Voigt Hill
#
# Bulk Modulus (GPa) = 44.03563 57.33394 50.68478
# Shear Modulus (GPa) = 34.40349 7.11158 20.75753
#
# Velocity S-wave (km/s) = 3.77954 1.71839 2.93579
# Velocity P-wave (km/s) = 6.10990 5.26718 5.70413
#
# Compressibility (1/GPa) = 0.02270889
#
# Stress axis : x y z
#
# Youngs Moduli (GPa) = 45.65030 107.82022 113.89626
#
# Poissons Ratio (x) = 0.25190 0.64834
# Poissons Ratio (y) = 0.10665 0.06799
# Poissons Ratio (z) = 0.25986 0.06436
#
# Static dielectric constant tensor:
#      x y z
#    x 1.906720 0.000000 -0.023160 
#    y 0.000000 1.928240 0.000000 
#    z -0.023160 0.000000 1.896380 
# 
# From -- ./inp_files/321485.got.cif
#   From: 2010.05.17/outbox.cif.g08.bks.cpg/sg12_161_cif.got.tgz:321485.got - 2010.06.03 13:09:07.
