data_PCOD9203272
_publ_section_title
;
Structure prediction by ZEFSAII (Michael W. Deem and Ramdas Pophale) SiO2 
 PCOD9203272
Probable space group: C 2/M
;
_chemical_formula_sum "Si O2"
_cell_formula_units_Z 60
_cell_length_a 24.555307
_cell_length_b 7.464547
_cell_length_c 16.462393
_cell_angle_alpha 90.000000
_cell_angle_beta 108.565536
_cell_angle_gamma 90.000000
_cell_volume 2860.433440
_symmetry_space_group_name_H-M "C 2/M"
_symmetry_group_IT_number 12
_symmetry_cell_setting 'monoclinic'
loop_
_space_group_symop_operation_xyz
x,y,z
-x,y,-z
-x,-y,-z
x,-y,z
1/2+x,1/2+y,z
1/2-x,1/2+y,-z
1/2-x,1/2-y,-z
1/2+x,1/2-y,z
loop_
_atom_site_type_symbol
_atom_site_label
_atom_site_fract_x
_atom_site_fract_y
_atom_site_fract_z
Si Si1 0.405834 0.784346 0.485330
Si Si2 0.705894 0.208297 0.766684
Si Si3 0.324464 0.780839 0.895062
Si Si4 0.038235 0.204245 0.828911
Si Si5 0.163718 0.297481 0.920206
Si Si6 0.671296 0.500000 0.612550
Si Si7 0.951682 0.289930 0.916493
Si Si8 0.981273 0.285461 0.365125
O O1 0.351190 0.658755 0.461615
O O2 0.437297 0.729429 0.414959
O O3 0.454339 0.741261 0.575642
O O4 0.396488 0.000000 0.481290
O O5 0.774078 0.212148 0.814168
O O6 0.680396 0.279662 0.840755
O O7 0.689067 0.341333 0.687184
O O8 0.686440 0.000000 0.744464
O O9 0.387649 0.719700 0.897247
O O10 0.322445 0.000000 0.893412
O O11 0.315580 0.720334 0.984449
O O12 0.094386 0.302056 0.889340
O O13 0.035229 0.217399 0.730654
O O14 0.979602 0.271704 0.841211
O O15 0.045992 0.000000 0.856379
O O16 0.185836 0.500000 0.927693
O O17 0.946924 0.500000 0.933762
O O18 0.000000 0.213149 0.000000
O O19 0.978026 0.500000 0.361258
#
# Coordination Sequence:
#
# PCOD9203272 Si02
#       8
#     8   8   8   8   8   4   8   8
#     4   9  20  36  57  85 119 164 189 235 299 356
#     4  11  24  38  56  85 118 158 200 249 299 342
#     4  10  20  39  62  79 108 155 206 251 296 345
#     4  12  24  32  53  88 122 154 193 241 293 349
#     4  10  21  37  56  79 115 159 199 242 291 349
#     4  12  22  35  58  80 121 145 207 238 282 358
#     4  10  20  39  61  79 109 155 199 240 296 350
#     4   9  19  36  55  81 121 154 196 233 288 361
#
# _framework density 20.975842
#
# number of rings (size 3 to 8) (size 9 to 14) (size 15 to 20)
#    0.000    1.733    2.000    3.600    4.667    4.000 
#    0.000    0.000    0.000    0.000    0.000    0.933 
#    0.000    0.000    0.000    0.000    0.000    0.000 
#
# Total GULP energy -167045.451090 kJ/mol
# GULP energy per Si atom -5568.181703 kJ/mol
# Density = 2.092810 g / cm^3
# Si number density = 20.975842 Si / 1000 Ang^3
#
#
#
# Elastic Constant Matrix: (Units=GPa)
#
#
# Indices 1 2 3 4 5 6 
#
# 1 65.4351 7.4847 -1.1649 0.0000 10.2733 0.0000
# 2 7.4847 96.2516 10.7859 0.0000 14.8623 0.0000
# 3 -1.1649 10.7859 52.0354 0.0000 23.3594 0.0000
# 4 0.0000 0.0000 0.0000 49.3556 0.0000 3.0698
# 5 10.2733 14.8623 23.3594 0.0000 25.0324 0.0000
# 6 0.0000 0.0000 0.0000 3.0698 0.0000 35.4165
#
#
#
# Elastic Compliance Matrix: (Units=1/GPa)
#
#
# Indices 1 2 3 4 5 6 
#
# 1 0.017423 -0.000058 0.006189 0.000000 -0.012892 0.000000
# 2 -0.000058 0.011480 0.001150 0.000000 -0.007865 0.000000
# 3 0.006189 0.001150 0.035390 0.000000 -0.036248 0.000000
# 4 0.000000 0.000000 0.000000 0.020371 0.000000 -0.001766
# 5 -0.012892 -0.007865 -0.036248 0.000000 0.083734 0.000000
# 6 0.000000 0.000000 0.000000 -0.001766 0.000000 0.028388
#
#
# Mechanical properties :
#
#
# Convention : Reuss Voigt Hill
#
# Bulk Modulus (GPa) = 12.68142 27.54815 20.11479
# Shear Modulus (GPa) = 23.97992 35.06866 29.52429
#
# Velocity S-wave (km/s) = 3.38482 4.09327 3.75579
# Velocity P-wave (km/s) = 4.61896 5.95833 5.33088
#
# Compressibility (1/GPa) = 0.07885553
#
# Stress axis : x y z
#
# Youngs Moduli (GPa) = 57.39504 87.11167 28.25666
#
# Poissons Ratio (x) = 0.00503 -0.17489
# Poissons Ratio (y) = 0.00332 -0.03249
# Poissons Ratio (z) = -0.35524 -0.10017
#
# Static dielectric constant tensor:
#      x y z
#    x 1.808050 0.000000 -0.002690 
#    y 0.000000 1.804190 0.000000 
#    z -0.002690 0.000000 1.741070 
# 
# From -- ./inp_files/237720.got.cif
#   From: 2010.05.17/outbox.cif.g08.bks.cpg/sg12_119_cif.got.tgz:237720.got - 2010.06.03 13:09:07.
