data_PCOD9203469
_publ_section_title
;
Structure prediction by ZEFSAII (Michael W. Deem and Ramdas Pophale) SiO2 
 PCOD9203469
Probable space group: C 2/M
;
_chemical_formula_sum "Si O2"
_cell_formula_units_Z 56
_cell_length_a 14.361693
_cell_length_b 13.593204
_cell_length_c 12.190906
_cell_angle_alpha 90.000000
_cell_angle_beta 88.041607
_cell_angle_gamma 90.000000
_cell_volume 2378.535915
_symmetry_space_group_name_H-M "C 2/M"
_symmetry_group_IT_number 12
_symmetry_cell_setting 'monoclinic'
loop_
_space_group_symop_operation_xyz
x,y,z
-x,y,-z
-x,-y,-z
x,-y,z
1/2+x,1/2+y,z
1/2-x,1/2+y,-z
1/2-x,1/2-y,-z
1/2+x,1/2-y,z
loop_
_atom_site_type_symbol
_atom_site_label
_atom_site_fract_x
_atom_site_fract_y
_atom_site_fract_z
Si Si1 0.139889 0.884653 0.351320
Si Si2 0.271464 0.610610 0.434467
Si Si3 0.905495 0.765460 0.061238
Si Si4 0.853458 0.614172 0.757935
Si Si5 0.457851 0.892192 0.377995
Si Si6 0.789361 0.190022 0.875500
Si Si7 0.562834 0.311911 0.692082
O O1 0.202039 0.847174 0.449450
O O2 0.189272 0.871102 0.233043
O O3 0.040876 0.830341 0.346749
O O4 0.121262 0.000000 0.372406
O O5 0.237835 0.500000 0.456333
O O6 0.196833 0.649165 0.351727
O O7 0.367021 0.611077 0.362235
O O8 0.819989 0.691827 0.092381
O O9 0.933237 0.812098 0.176666
O O10 0.854566 0.837335 0.975785
O O11 0.000000 0.727146 0.000000
O O12 0.827348 0.500000 0.784972
O O13 0.961245 0.612849 0.718428
O O14 0.822443 0.696931 0.845258
O O15 0.500000 0.887366 0.500000
O O16 0.402161 0.793737 0.354926
O O17 0.413279 0.000000 0.368708
#
# Coordination Sequence:
#
# PCOD9203469 Si02
#       7
#     8   8   8   8   8   8   8
#     4  11  23  40  63  97 135 166 209 263 322 390
#     4  10  22  38  62  97 130 165 209 260 320 388
#     4  11  23  43  68  92 125 169 217 266 317 376
#     4  10  20  39  63  88 121 163 213 260 311 375
#     4  10  21  36  58  91 128 168 212 254 305 379
#     4  11  23  43  66  91 128 168 210 268 319 374
#     4  12  21  39  65  92 129 175 207 261 325 379
#
# _framework density 23.543894999999999
#
# number of rings (size 3 to 8) (size 9 to 14) (size 15 to 20)
#    0.000    1.286    4.286    1.714    0.000    2.857 
#    0.000    7.857    0.000    4.714    0.000    0.000 
#    0.000    0.000    0.000    0.000    0.000    0.000 
#
# Total GULP energy -156461.626458 kJ/mol
# GULP energy per Si atom -5587.915231 kJ/mol
# Density = 2.349031 g / cm^3
# Si number density = 23.543895 Si / 1000 Ang^3
#
#
#
# Elastic Constant Matrix: (Units=GPa)
#
#
# Indices 1 2 3 4 5 6 
#
# 1 118.1165 0.4019 19.3480 0.0000 -22.0118 0.0000
# 2 0.4019 94.5861 22.3856 0.0000 -6.6769 0.0000
# 3 19.3480 22.3856 118.7366 0.0000 9.9986 0.0000
# 4 0.0000 0.0000 0.0000 17.9630 0.0000 -1.6086
# 5 -22.0118 -6.6769 9.9986 0.0000 45.6031 0.0000
# 6 0.0000 0.0000 0.0000 -1.6086 0.0000 9.0100
#
#
#
# Elastic Compliance Matrix: (Units=1/GPa)
#
#
# Indices 1 2 3 4 5 6 
#
# 1 0.009823 0.000860 -0.002214 0.000000 0.005353 0.000000
# 2 0.000860 0.011346 -0.002500 0.000000 0.002624 0.000000
# 3 -0.002214 -0.002500 0.009551 0.000000 -0.003529 0.000000
# 4 0.000000 0.000000 0.000000 0.056575 0.000000 0.010100
# 5 0.005353 0.002624 -0.003529 0.000000 0.025670 0.000000
# 6 0.000000 0.000000 0.000000 0.010100 0.000000 0.112791
#
#
# Mechanical properties :
#
#
# Convention : Reuss Voigt Hill
#
# Bulk Modulus (GPa) = 43.45404 46.19002 44.82203
# Shear Modulus (GPa) = 20.73533 33.80212 27.26873
#
# Velocity S-wave (km/s) = 2.97089 3.79318 3.40694
# Velocity P-wave (km/s) = 5.50136 6.23262 5.87837
#
# Compressibility (1/GPa) = 0.02301282
#
# Stress axis : x y z
#
# Youngs Moduli (GPa) = 101.79747 88.13912 104.69879
#
# Poissons Ratio (x) = -0.07580 0.23176
# Poissons Ratio (y) = -0.08755 0.26176
# Poissons Ratio (z) = 0.22534 0.22036
#
# Static dielectric constant tensor:
#      x y z
#    x 1.887300 0.000000 -0.003730 
#    y 0.000000 1.919400 0.000000 
#    z -0.003730 0.000000 1.893920 
# 
# From -- ./inp_files/143732.got.cif
#   From: 2010.05.17/outbox.cif.g08.bks.cpg/sg12_72_cif.got.tgz:143732.got - 2010.06.03 13:09:07.
