data_PCOD9203460
_publ_section_title
;
Structure prediction by ZEFSAII (Michael W. Deem and Ramdas Pophale) SiO2 
 PCOD9203460
Probable space group: C 2/M
;
_chemical_formula_sum "Si O2"
_cell_formula_units_Z 48
_cell_length_a 14.003354
_cell_length_b 27.793624
_cell_length_c 8.133733
_cell_angle_alpha 90.000000
_cell_angle_beta 140.652156
_cell_angle_gamma 90.000000
_cell_volume 2007.126745
_symmetry_space_group_name_H-M "C 2/M"
_symmetry_group_IT_number 12
_symmetry_cell_setting 'monoclinic'
loop_
_space_group_symop_operation_xyz
x,y,z
-x,y,-z
-x,-y,-z
x,-y,z
1/2+x,1/2+y,z
1/2-x,1/2+y,-z
1/2-x,1/2-y,-z
1/2+x,1/2-y,z
loop_
_atom_site_type_symbol
_atom_site_label
_atom_site_fract_x
_atom_site_fract_y
_atom_site_fract_z
Si Si1 0.367627 0.446149 0.152662
Si Si2 0.415065 0.081494 0.056181
Si Si3 0.046399 0.789100 0.753170
Si Si4 0.412531 0.623351 0.712425
Si Si5 0.892128 0.318365 0.197806
Si Si6 0.198936 0.553055 0.581434
O O1 0.430414 0.500000 0.235867
O O2 0.493811 0.405867 0.299221
O O3 0.251900 0.438891 0.146506
O O4 0.266688 0.440912 0.852603
O O5 0.405053 0.137625 0.090137
O O6 0.520949 0.056395 0.332587
O O7 0.500000 0.071812 0.000000
O O8 0.057219 0.732849 0.809680
O O9 0.000000 0.791313 0.500000
O O10 0.922380 0.820878 0.681025
O O11 0.214208 0.811401 0.005791
O O12 0.258689 0.596304 0.546043
O O13 0.500000 0.617563 0.000000
O O14 0.000000 0.327485 0.500000
O O15 0.249945 0.500000 0.591797
#
# Coordination Sequence:
#
# PCOD9203460 Si02
#       6
#     8   8   8   8   8   8
#     4  10  20  39  63  87 121 168 216 259 317 387
#     4  12  25  38  60  92 127 166 213 271 323 377
#     4  10  22  41  68  97 129 167 213 268 324 382
#     4  10  21  37  64  94 124 166 213 264 318 384
#     4  10  22  43  68  93 127 174 217 259 320 393
#     4  10  22  39  61  91 126 166 216 267 318 384
#
# _framework density 23.914781999999999
#
# number of rings (size 3 to 8) (size 9 to 14) (size 15 to 20)
#    0.000    1.667    1.667    2.500    4.667    5.333 
#    0.000    0.833    0.000    3.000    0.000    0.000 
#    0.000    0.000    0.000    0.000    0.000    0.000 
#
# Total GULP energy -134257.005382 kJ/mol
# GULP energy per Si atom -5594.041891 kJ/mol
# Density = 2.386035 g / cm^3
# Si number density = 23.914782 Si / 1000 Ang^3
#
#
#
# Elastic Constant Matrix: (Units=GPa)
#
#
# Indices 1 2 3 4 5 6 
#
# 1 73.3479 29.4501 -16.8876 0.0000 -3.8603 0.0000
# 2 29.4501 111.3222 -7.5715 0.0000 8.4291 0.0000
# 3 -16.8876 -7.5715 93.1281 0.0000 -3.2362 0.0000
# 4 0.0000 0.0000 0.0000 7.5048 0.0000 8.7927
# 5 -3.8603 8.4291 -3.2362 0.0000 20.0145 0.0000
# 6 0.0000 0.0000 0.0000 8.7927 0.0000 8.9517
#
#
#
# Elastic Compliance Matrix: (Units=1/GPa)
#
#
# Indices 1 2 3 4 5 6 
#
# 1 0.016403 -0.004569 0.002796 0.000000 0.005540 0.000000
# 2 -0.004569 0.010587 -0.000154 0.000000 -0.005365 0.000000
# 3 0.002796 -0.000154 0.011317 0.000000 0.002434 0.000000
# 4 0.000000 0.000000 0.000000 -0.883674 0.000000 0.867975
# 5 0.005540 -0.005365 0.002434 0.000000 0.053685 0.000000
# 6 0.000000 0.000000 0.000000 0.867975 0.000000 -0.740844
#
#
# Mechanical properties :
#
#
# Convention : Reuss Voigt Hill
#
# Bulk Modulus (GPa) = 29.02521 31.97557 30.50039
# Shear Modulus (GPa) = -3.29557 25.48136 11.09289
#
# Velocity S-wave (km/s) = -1.17518 3.26775 2.15606
# Velocity P-wave (km/s) = 3.21277 5.25711 4.35656
#
# Compressibility (1/GPa) = 0.03445281
#
# Stress axis : x y z
#
# Youngs Moduli (GPa) = 60.96336 94.45240 88.36346
#
# Poissons Ratio (x) = 0.43153 -0.24703
# Poissons Ratio (y) = 0.27853 0.01362
# Poissons Ratio (z) = -0.17043 0.01456
#
# Static dielectric constant tensor:
#      x y z
#    x 1.895760 0.000000 -0.019380 
#    y 0.000000 1.902050 0.000000 
#    z -0.019380 0.000000 1.944850 
# 
# From -- ./inp_files/67358.got.cif
#   From: 2010.05.17/outbox.cif.g08.bks.cpg/sg12_34_cif.got.tgz:67358.got - 2010.06.03 13:09:07.
