data_PCOD9203659
_publ_section_title
;
Structure prediction by ZEFSAII (Michael W. Deem and Ramdas Pophale) SiO2 
 PCOD9203659
Probable space group: C 2/M
;
_chemical_formula_sum "Si O2"
_cell_formula_units_Z 44
_cell_length_a 14.749775
_cell_length_b 25.119874
_cell_length_c 14.266442
_cell_angle_alpha 90.000000
_cell_angle_beta 158.851858
_cell_angle_gamma 90.000000
_cell_volume 1907.048256
_symmetry_space_group_name_H-M "C 2/M"
_symmetry_group_IT_number 12
_symmetry_cell_setting 'monoclinic'
loop_
_space_group_symop_operation_xyz
x,y,z
-x,y,-z
-x,-y,-z
x,-y,z
1/2+x,1/2+y,z
1/2-x,1/2+y,-z
1/2-x,1/2-y,-z
1/2+x,1/2-y,z
loop_
_atom_site_type_symbol
_atom_site_label
_atom_site_fract_x
_atom_site_fract_y
_atom_site_fract_z
Si Si1 0.465882 0.869905 0.665287
Si Si2 0.361403 0.649198 0.476415
Si Si3 0.500000 0.904639 0.000000
Si Si4 0.220975 0.060372 0.907350
Si Si5 0.728673 0.561966 0.289299
Si Si6 0.482181 0.755647 0.295050
O O1 0.373150 0.848715 0.676710
O O2 0.252670 0.899176 0.400450
O O3 0.543420 0.815355 0.688527
O O4 0.667202 0.914395 0.889663
O O5 0.514877 0.600245 0.668284
O O6 0.505682 0.705086 0.624012
O O7 0.233001 0.632261 0.255726
O O8 0.573790 0.938330 0.979636
O O9 0.136946 0.000000 0.839989
O O10 0.699112 0.500000 0.288237
O O11 0.000000 0.566808 0.500000
O O12 0.500000 0.575597 0.000000
O O13 0.750000 0.750000 0.500000
O O14 0.250000 0.750000 0.000000
#
# Coordination Sequence:
#
# PCOD9203659 Si02
#       6
#     8   8   4   8   8   8
#     4  10  22  40  64  90 122 159 218 254 315 380
#     4  10  22  39  62  90 124 166 209 258 316 372
#     4  10  23  40  54  88 134 166 207 262 316 378
#     4  11  22  37  62  90 124 168 213 260 314 381
#     4  10  23  41  61  89 128 163 198 257 319 369
#     4  10  20  39  65  91 122 160 203 262 312 362
#
# _framework density 23.072306000000001
#
# number of rings (size 3 to 8) (size 9 to 14) (size 15 to 20)
#    0.000    1.818    1.818    1.364    2.545    5.091 
#    1.636    1.818    0.000    0.000    0.000    0.000 
#    0.000    0.000    0.000    0.000    0.000    0.000 
#
# Total GULP energy -122828.186830 kJ/mol
# GULP energy per Si atom -5583.099401 kJ/mol
# Density = 2.301979 g / cm^3
# Si number density = 23.072306 Si / 1000 Ang^3
#
#
#
# Elastic Constant Matrix: (Units=GPa)
#
#
# Indices 1 2 3 4 5 6 
#
# 1 56.8736 10.2987 10.4261 -0.0001 -4.3069 -0.0003
# 2 10.2987 194.8114 85.1127 -0.0001 -28.5471 0.0001
# 3 10.4261 85.1127 191.4289 -0.0001 -16.1596 -0.0003
# 4 -0.0001 -0.0001 -0.0001 35.0843 0.0001 -3.9552
# 5 -4.3069 -28.5471 -16.1596 0.0001 33.0810 -0.0002
# 6 -0.0003 0.0001 -0.0003 -3.9552 -0.0002 18.0692
#
#
#
# Elastic Compliance Matrix: (Units=1/GPa)
#
#
# Indices 1 2 3 4 5 6 
#
# 1 0.017903 -0.000421 -0.000648 0.000000 0.001651 0.000000
# 2 -0.000421 0.007023 -0.002704 0.000000 0.004685 0.000000
# 3 -0.000648 -0.002704 0.006527 0.000000 0.000770 0.000000
# 4 0.000000 0.000000 0.000000 0.029224 0.000000 0.006397
# 5 0.001651 0.004685 0.000770 0.000000 0.034863 0.000000
# 6 0.000000 0.000000 0.000000 0.006397 0.000000 0.056743
#
#
# Mechanical properties :
#
#
# Convention : Reuss Voigt Hill
#
# Bulk Modulus (GPa) = 41.83229 72.75431 57.29330
# Shear Modulus (GPa) = 29.79753 39.73199 34.76476
#
# Velocity S-wave (km/s) = 3.59762 4.15428 3.88593
# Velocity P-wave (km/s) = 5.95210 7.39002 6.70969
#
# Compressibility (1/GPa) = 0.02390498
#
# Stress axis : x y z
#
# Youngs Moduli (GPa) = 55.85659 142.37941 153.21946
#
# Poissons Ratio (x) = 0.05998 0.09935
# Poissons Ratio (y) = 0.02353 0.41436
# Poissons Ratio (z) = 0.03622 0.38504
#
# Static dielectric constant tensor:
#      x y z
#    x 2.009760 0.000000 0.042730 
#    y 0.000000 1.892470 0.000000 
#    z 0.042730 0.000000 1.814790 
# 
# From -- ./inp_files/11669.got.cif
#   From: 2010.05.17/outbox.cif.g08.bks.cpg/sg12_6_cif.got.tgz:11669.got - 2010.06.03 13:09:07.
