data_PCOD9203357
_publ_section_title
;
Structure prediction by ZEFSAII (Michael W. Deem and Ramdas Pophale) SiO2 
 PCOD9203357
Probable space group: C 2/M
;
_chemical_formula_sum "Si O2"
_cell_formula_units_Z 44
_cell_length_a 16.111340
_cell_length_b 15.010815
_cell_length_c 23.203624
_cell_angle_alpha 90.000000
_cell_angle_beta 22.781025
_cell_angle_gamma 90.000000
_cell_volume 2172.894386
_symmetry_space_group_name_H-M "C 2/M"
_symmetry_group_IT_number 12
_symmetry_cell_setting 'monoclinic'
loop_
_space_group_symop_operation_xyz
x,y,z
-x,y,-z
-x,-y,-z
x,-y,z
1/2+x,1/2+y,z
1/2-x,1/2+y,-z
1/2-x,1/2-y,-z
1/2+x,1/2-y,z
loop_
_atom_site_type_symbol
_atom_site_label
_atom_site_fract_x
_atom_site_fract_y
_atom_site_fract_z
Si Si1 0.767679 0.333662 0.571439
Si Si2 0.449183 0.000000 0.614803
Si Si3 0.373478 0.500000 0.641487
Si Si4 0.987094 0.500000 0.726141
Si Si5 0.934587 0.000000 0.939259
Si Si6 0.828730 0.155914 0.921049
Si Si7 0.573454 0.000000 0.021184
Si Si8 0.332430 0.641841 0.499786
O O1 0.929525 0.411988 0.485060
O O2 0.556674 0.330575 0.744722
O O3 0.700034 0.347628 0.547763
O O4 0.865270 0.235662 0.509065
O O5 0.503611 0.000000 0.647307
O O6 0.807657 0.000000 0.223496
O O7 0.500000 0.500000 0.500000
O O8 0.460700 0.583890 0.620561
O O9 0.121138 0.500000 0.807933
O O10 0.125471 0.586782 0.656422
O O11 0.734924 0.500000 0.900018
O O12 0.866346 0.912201 0.948816
O O13 0.750000 0.250000 0.000000
O O14 0.696250 0.092952 0.959676
O O15 0.500000 0.000000 0.000000
#
# Coordination Sequence:
#
# PCOD9203357 Si02
#       8
#     8   4   4   4   4   8   4   8
#     4  10  20  39  62  85 121 160 211 241 308 386
#     4  10  21  37  59  90 115 167 196 252 302 380
#     4  11  24  36  63  95 125 152 211 272 324 362
#     4   9  18  37  64  81 120 153 209 244 310 378
#     4  11  23  38  57  89 126 159 201 262 324 374
#     4  11  25  40  65  90 126 168 208 265 324 376
#     4  11  25  46  67  93 133 176 218 262 323 399
#     4   9  20  38  63  87 114 163 201 258 307 374
#
# _framework density 20.249489000000001
#
# number of rings (size 3 to 8) (size 9 to 14) (size 15 to 20)
#    0.000    1.818    0.000    4.091    7.636    2.909 
#    0.000    3.636    0.000    0.000    0.000    0.000 
#    0.000    0.000    0.000    0.000    0.000    0.000 
#
# Total GULP energy -122574.440090 kJ/mol
# GULP energy per Si atom -5571.565459 kJ/mol
# Density = 2.020340 g / cm^3
# Si number density = 20.249489 Si / 1000 Ang^3
#
#
#
# Elastic Constant Matrix: (Units=GPa)
#
#
# Indices 1 2 3 4 5 6 
#
# 1 45.8012 37.5962 3.9136 0.0296 -0.4205 -0.0120
# 2 37.5962 187.9822 54.5211 0.0559 -0.2036 -0.0690
# 3 3.9136 54.5211 128.1654 0.0908 7.7572 -0.0962
# 4 0.0296 0.0559 0.0908 -2.0020 -0.0261 20.0703
# 5 -0.4205 -0.2036 7.7572 -0.0261 25.8702 0.0149
# 6 -0.0120 -0.0690 -0.0962 20.0703 0.0149 -22.0735
#
#
#
# Elastic Compliance Matrix: (Units=1/GPa)
#
#
# Indices 1 2 3 4 5 6 
#
# 1 0.026422 -0.005764 0.001652 -0.000033 -0.000111 -0.000034
# 2 -0.005764 0.007343 -0.003000 0.000011 0.000864 0.000004
# 3 0.001652 -0.003000 0.009195 -0.000007 -0.002754 -0.000040
# 4 -0.000033 0.000011 -0.000007 0.061550 0.000031 0.055965
# 5 -0.000111 0.000864 -0.002754 0.000031 0.039485 0.000065
# 6 -0.000034 0.000004 -0.000040 0.055965 0.000065 0.005583
#
#
# Mechanical properties :
#
#
# Convention : Reuss Voigt Hill
#
# Bulk Modulus (GPa) = 34.79874 61.55674 48.17774
# Shear Modulus (GPa) = 28.83801 18.08679 23.46240
#
# Velocity S-wave (km/s) = 3.77787 2.99188 3.40761
# Velocity P-wave (km/s) = 6.02096 6.51155 6.27106
#
# Compressibility (1/GPa) = 0.02873667
#
# Stress axis : x y z
#
# Youngs Moduli (GPa) = 37.84660 136.17568 108.75600
#
# Poissons Ratio (x) = 0.78487 -0.17964
# Poissons Ratio (y) = 0.21813 0.32629
# Poissons Ratio (z) = -0.06251 0.40855
#
# Static dielectric constant tensor:
#      x y z
#    x 1.739260 0.000000 0.018010 
#    y 0.000000 1.744720 0.000020 
#    z 0.018010 0.000020 1.739630 
# 
# From -- ./inp_files/343989.got.cif
#   From: 2010.05.17/outbox.cif.g08.bks.cpg/sg12_172_cif.got.tgz:343989.got - 2010.06.03 13:09:07.
