data_PCOD9203307
_publ_section_title
;
Structure prediction by ZEFSAII (Michael W. Deem and Ramdas Pophale) SiO2 
 PCOD9203307
Probable space group: C 2/M
;
_chemical_formula_sum "Si O2"
_cell_formula_units_Z 42
_cell_length_a 12.861572
_cell_length_b 19.451097
_cell_length_c 7.066288
_cell_angle_alpha 90.000000
_cell_angle_beta 97.968729
_cell_angle_gamma 90.000000
_cell_volume 1750.715226
_symmetry_space_group_name_H-M "C 2/M"
_symmetry_group_IT_number 12
_symmetry_cell_setting 'monoclinic'
loop_
_space_group_symop_operation_xyz
x,y,z
-x,y,-z
-x,-y,-z
x,-y,z
1/2+x,1/2+y,z
1/2-x,1/2+y,-z
1/2-x,1/2-y,-z
1/2+x,1/2-y,z
loop_
_atom_site_type_symbol
_atom_site_label
_atom_site_fract_x
_atom_site_fract_y
_atom_site_fract_z
Si Si1 0.646460 0.000000 0.860159
Si Si2 0.239263 0.644272 0.944464
Si Si3 0.678039 0.850871 0.335279
Si Si4 0.646982 0.296550 0.363725
Si Si5 0.408395 0.000000 0.705103
Si Si6 0.456933 0.610914 0.182732
Si Si7 0.000000 0.000000 0.500000
O O1 0.710024 0.070585 0.843833
O O2 0.534768 0.000000 0.726349
O O3 0.621849 0.000000 0.079008
O O4 0.266290 0.697533 0.785656
O O5 0.162016 0.656120 0.102164
O O6 0.346681 0.638401 0.086837
O O7 0.622189 0.782540 0.401135
O O8 0.794076 0.836673 0.452799
O O9 0.638888 0.927310 0.378828
O O10 0.542433 0.332993 0.266326
O O11 0.450299 0.558306 0.349044
O O12 0.500000 0.577168 0.000000
#
# Coordination Sequence:
#
# PCOD9203307 Si02
#       7
#     4   8   8   8   4   8   2
#     4   9  19  38  62  91 120 153 216 248 296 372
#     4  10  20  39  61  88 121 162 203 248 308 364
#     4  10  21  40  63  86 124 159 211 251 309 363
#     4  10  22  39  58  92 125 162 199 258 304 374
#     4   9  20  41  63  90 115 165 203 258 307 352
#     4  10  22  37  57  93 124 159 205 247 314 372
#     4  12  20  34  60  84 120 158 194 244 304 372
#
# _framework density 23.990193999999999
#
# number of rings (size 3 to 8) (size 9 to 14) (size 15 to 20)
#    0.000    2.095    0.000    2.571    0.000    6.857 
#   24.000    1.905    0.000    0.000    0.000    0.000 
#    0.000    0.000    0.000    0.000    0.000    0.000 
#
# Total GULP energy -116906.752129 kJ/mol
# GULP energy per Si atom -5566.988197 kJ/mol
# Density = 2.393559 g / cm^3
# Si number density = 23.990194 Si / 1000 Ang^3
#
#
#
# Elastic Constant Matrix: (Units=GPa)
#
#
# Indices 1 2 3 4 5 6 
#
# 1 48.5192 47.8259 6.3976 0.0000 17.5236 0.0000
# 2 47.8259 216.8170 38.1213 0.0000 29.8565 0.0000
# 3 6.3976 38.1213 110.1613 0.0000 5.5747 0.0000
# 4 0.0000 0.0000 0.0000 39.0161 0.0000 15.5960
# 5 17.5236 29.8565 5.5747 0.0000 35.6405 0.0000
# 6 0.0000 0.0000 0.0000 15.5960 0.0000 97.6074
#
#
#
# Elastic Compliance Matrix: (Units=1/GPa)
#
#
# Indices 1 2 3 4 5 6 
#
# 1 0.029298 -0.005168 0.000602 0.000000 -0.010170 0.000000
# 2 -0.005168 0.006419 -0.001792 0.000000 -0.002556 0.000000
# 3 0.000602 -0.001792 0.009678 0.000000 -0.000309 0.000000
# 4 0.000000 0.000000 0.000000 0.027379 0.000000 -0.004375
# 5 -0.010170 -0.002556 -0.000309 0.000000 0.035248 0.000000
# 6 0.000000 0.000000 0.000000 -0.004375 0.000000 0.010944
#
#
# Mechanical properties :
#
#
# Convention : Reuss Voigt Hill
#
# Bulk Modulus (GPa) = 30.60042 62.24300 46.42171
# Shear Modulus (GPa) = 35.06880 53.32966 44.19923
#
# Velocity S-wave (km/s) = 3.82749 4.71996 4.29696
# Velocity P-wave (km/s) = 5.68472 7.46362 6.63406
#
# Compressibility (1/GPa) = 0.03267929
#
# Stress axis : x y z
#
# Youngs Moduli (GPa) = 34.13161 155.78274 103.32336
#
# Poissons Ratio (x) = 0.80508 -0.06215
# Poissons Ratio (y) = 0.17639 0.18514
# Poissons Ratio (z) = -0.02053 0.27914
#
# Static dielectric constant tensor:
#      x y z
#    x 2.002770 0.000000 -0.077620 
#    y 0.000000 2.502280 0.000000 
#    z -0.077620 0.000000 2.053390 
# 
# From -- ./inp_files/61348.got.cif
#   From: 2010.05.17/outbox.cif.g08.bks.cpg/sg12_31_cif.got.tgz:61348.got - 2010.06.03 13:09:07.
