data_PCOD9203466
_publ_section_title
;
Structure prediction by ZEFSAII (Michael W. Deem and Ramdas Pophale) SiO2 
 PCOD9203466
Probable space group: C 2/M
;
_chemical_formula_sum "Si O2"
_cell_formula_units_Z 36
_cell_length_a 8.192947
_cell_length_b 17.243245
_cell_length_c 18.620703
_cell_angle_alpha 90.000000
_cell_angle_beta 145.301879
_cell_angle_gamma 90.000000
_cell_volume 1497.477172
_symmetry_space_group_name_H-M "C 2/M"
_symmetry_group_IT_number 12
_symmetry_cell_setting 'monoclinic'
loop_
_space_group_symop_operation_xyz
x,y,z
-x,y,-z
-x,-y,-z
x,-y,z
1/2+x,1/2+y,z
1/2-x,1/2+y,-z
1/2-x,1/2-y,-z
1/2+x,1/2-y,z
loop_
_atom_site_type_symbol
_atom_site_label
_atom_site_fract_x
_atom_site_fract_y
_atom_site_fract_z
Si Si1 0.731313 0.500000 0.252031
Si Si2 0.997807 0.500000 0.798919
Si Si3 0.174076 0.000000 0.451589
Si Si4 0.839285 0.664820 0.127393
Si Si5 0.181332 0.867441 0.339063
Si Si6 0.674271 0.227555 0.729040
O O1 0.592400 0.424598 0.240531
O O2 0.761285 0.500000 0.177397
O O3 0.067127 0.500000 0.398598
O O4 0.664163 0.500000 0.652105
O O5 0.049286 0.581183 0.858996
O O6 0.229119 0.073340 0.420641
O O7 0.904528 0.668200 0.236586
O O8 0.996379 0.741775 0.154475
O O9 0.500000 0.670241 0.000000
O O10 0.396563 0.810035 0.373387
O O11 0.975634 0.806230 0.302196
#
# Coordination Sequence:
#
# PCOD9203466 Si02
#       6
#     4   4   4   8   8   8
#     4  11  23  42  63  85 118 166 202 239 296 360
#     4  12  22  42  62  88 124 154 204 250 290 348
#     4  11  23  42  63  85 118 166 202 239 296 360
#     4  11  22  39  63  89 119 160 201 244 300 358
#     4  10  20  39  63  88 120 157 196 245 298 349
#     4  10  21  38  65  88 122 158 191 252 305 346
#
# _framework density 24.040433
#
# number of rings (size 3 to 8) (size 9 to 14) (size 15 to 20)
#    0.000    1.333    4.444    2.667    0.000    0.000 
#    0.000    4.444    0.000    2.667    0.000    0.000 
#    0.000    0.000    0.000    0.000    0.000    0.000 
#
# Total GULP energy -100279.527911 kJ/mol
# GULP energy per Si atom -5571.084884 kJ/mol
# Density = 2.398572 g / cm^3
# Si number density = 24.040433 Si / 1000 Ang^3
#
#
#
# Elastic Constant Matrix: (Units=GPa)
#
#
# Indices 1 2 3 4 5 6 
#
# 1 88.6855 31.0127 1.8027 0.0038 0.6291 0.0020
# 2 31.0127 150.9141 1.5253 0.0036 13.8946 0.0022
# 3 1.8027 1.5253 27.5706 0.0188 13.7400 0.0146
# 4 0.0038 0.0036 0.0188 6.7639 0.0106 -2.2577
# 5 0.6291 13.8946 13.7400 0.0106 26.7084 0.0075
# 6 0.0020 0.0022 0.0146 -2.2577 0.0075 37.2247
#
#
#
# Elastic Compliance Matrix: (Units=1/GPa)
#
#
# Indices 1 2 3 4 5 6 
#
# 1 0.012230 -0.002675 -0.001616 -0.000004 0.001935 0.000000
# 2 -0.002675 0.007620 0.002283 -0.000001 -0.005076 0.000000
# 3 -0.001616 0.002283 0.049518 -0.000103 -0.026624 -0.000020
# 4 -0.000004 -0.000001 -0.000103 0.150900 -0.000009 0.009152
# 5 0.001935 -0.005076 -0.026624 -0.000009 0.053733 -0.000001
# 6 0.000000 0.000000 -0.000020 0.009152 -0.000001 0.027419
#
#
# Mechanical properties :
#
#
# Convention : Reuss Voigt Hill
#
# Bulk Modulus (GPa) = 15.30165 37.31685 26.30925
# Shear Modulus (GPa) = 15.28018 29.66136 22.47077
#
# Velocity S-wave (km/s) = 2.52385 3.51638 3.06061
# Velocity P-wave (km/s) = 3.85641 5.66063 4.84328
#
# Compressibility (1/GPa) = 0.06535242
#
# Stress axis : x y z
#
# Youngs Moduli (GPa) = 81.76343 131.22891 20.19457
#
# Poissons Ratio (x) = 0.35106 0.03263
# Poissons Ratio (y) = 0.21873 -0.04610
# Poissons Ratio (z) = 0.13213 -0.29958
#
# Static dielectric constant tensor:
#      x y z
#    x 1.936760 0.000000 0.011340 
#    y 0.000000 1.991450 -0.000010 
#    z 0.011340 -0.000010 2.037490 
# 
# From -- ./inp_files/184291.got.cif
#   From: 2010.05.17/outbox.cif.g08.bks.cpg/sg12_93_cif.got.tgz:184291.got - 2010.06.03 13:09:07.
