data_PCOD9203011
_publ_section_title
;
Structure prediction by ZEFSAII (Michael W. Deem and Ramdas Pophale) SiO2 
 PCOD9203011
Probable space group: C 2/M
;
_chemical_formula_sum "Si O2"
_cell_formula_units_Z 40
_cell_length_a 15.098322
_cell_length_b 10.219418
_cell_length_c 12.536406
_cell_angle_alpha 90.000000
_cell_angle_beta 64.373918
_cell_angle_gamma 90.000000
_cell_volume 1744.050330
_symmetry_space_group_name_H-M "C 2/M"
_symmetry_group_IT_number 12
_symmetry_cell_setting 'monoclinic'
loop_
_space_group_symop_operation_xyz
x,y,z
-x,y,-z
-x,-y,-z
x,-y,z
1/2+x,1/2+y,z
1/2-x,1/2+y,-z
1/2-x,1/2-y,-z
1/2+x,1/2-y,z
loop_
_atom_site_type_symbol
_atom_site_label
_atom_site_fract_x
_atom_site_fract_y
_atom_site_fract_z
Si Si1 0.738332 0.500000 0.950235
Si Si2 0.097798 0.358591 0.739393
Si Si3 0.265977 0.768021 0.769583
Si Si4 0.072575 0.000000 0.562870
Si Si5 0.623733 0.500000 0.209273
Si Si6 0.108444 0.720525 0.494164
Si Si7 0.442740 0.000000 0.919560
O O1 0.754605 0.371946 0.869699
O O2 0.827827 0.500000 0.988522
O O3 0.642210 0.500000 0.072894
O O4 0.141008 0.500000 0.746701
O O5 0.157719 0.260522 0.779967
O O6 0.107217 0.347159 0.608609
O O7 0.983903 0.375526 0.831581
O O8 0.325747 0.634528 0.770987
O O9 0.322224 0.824894 0.636711
O O10 0.992699 0.000000 0.699897
O O11 0.000000 0.000000 0.500000
O O12 0.134430 0.130634 0.515941
O O13 0.000000 0.717736 0.500000
O O14 0.500000 0.000000 0.000000
#
# Coordination Sequence:
#
# PCOD9203011 Si02
#       7
#     4   8   8   4   4   8   4
#     4  12  28  40  72 107 133 181 229 285 324 407
#     4  10  24  39  64  93 135 180 220 281 346 400
#     4  12  23  44  66 101 138 177 227 277 344 404
#     4  10  20  38  65  93 119 175 224 279 331 396
#     4  12  22  44  69  93 134 174 230 261 342 408
#     4  11  21  39  66  96 129 171 230 284 334 400
#     4  10  22  44  64  92 135 183 227 265 340 407
#
# _framework density 22.935117000000002
#
# number of rings (size 3 to 8) (size 9 to 14) (size 15 to 20)
#    0.600    0.400    5.000    3.600    1.400    1.200 
#    0.000    0.000    0.000    1.200    0.000    0.000 
#    0.000    0.000    0.000    0.000    0.000    0.000 
#
# Total GULP energy -111656.144330 kJ/mol
# GULP energy per Si atom -5582.807216 kJ/mol
# Density = 2.288292 g / cm^3
# Si number density = 22.935117 Si / 1000 Ang^3
#
#
#
# Elastic Constant Matrix: (Units=GPa)
#
#
# Indices 1 2 3 4 5 6 
#
# 1 50.7547 1.8916 6.7456 0.0000 10.4567 0.0000
# 2 1.8916 55.0868 25.3583 0.0000 14.8171 0.0000
# 3 6.7456 25.3583 162.8792 0.0000 8.3703 0.0000
# 4 0.0000 0.0000 0.0000 23.9257 0.0000 -1.2810
# 5 10.4567 14.8171 8.3703 0.0000 32.9539 0.0000
# 6 0.0000 0.0000 0.0000 -1.2810 0.0000 18.4635
#
#
#
# Elastic Compliance Matrix: (Units=1/GPa)
#
#
# Indices 1 2 3 4 5 6 
#
# 1 0.021238 0.001567 -0.000751 0.000000 -0.007253 0.000000
# 2 0.001567 0.022082 -0.003006 0.000000 -0.009663 0.000000
# 3 -0.000751 -0.003006 0.006644 0.000000 -0.000098 0.000000
# 4 0.000000 0.000000 0.000000 0.041952 0.000000 0.002911
# 5 -0.007253 -0.009663 -0.000098 0.000000 0.037016 0.000000
# 6 0.000000 0.000000 0.000000 0.002911 0.000000 0.054363
#
#
# Mechanical properties :
#
#
# Convention : Reuss Voigt Hill
#
# Bulk Modulus (GPa) = 21.93721 37.41240 29.67480
# Shear Modulus (GPa) = 24.64634 30.71697 27.68166
#
# Velocity S-wave (km/s) = 3.28168 3.66361 3.47789
# Velocity P-wave (km/s) = 4.89336 5.85182 5.39392
#
# Compressibility (1/GPa) = 0.04558465
#
# Stress axis : x y z
#
# Youngs Moduli (GPa) = 47.08465 45.28514 150.51920
#
# Poissons Ratio (x) = -0.07098 0.11302
# Poissons Ratio (y) = -0.07380 0.45250
# Poissons Ratio (z) = 0.03535 0.13614
#
# Static dielectric constant tensor:
#      x y z
#    x 1.836460 0.000000 -0.036480 
#    y 0.000000 2.117590 0.000000 
#    z -0.036480 0.000000 1.865570 
# 
# From -- ./inp_files/153361.got.cif
#   From: 2010.05.17/outbox.cif.g08.bks.cpg/sg12_77_cif.got.tgz:153361.got - 2010.06.03 13:09:07.
