data_PCOD9203621
_publ_section_title
;
Structure prediction by ZEFSAII (Michael W. Deem and Ramdas Pophale) SiO2 
 PCOD9203621
Probable space group: C 2/M
;
_chemical_formula_sum "Si O2"
_cell_formula_units_Z 40
_cell_length_a 16.101956
_cell_length_b 15.019955
_cell_length_c 8.960175
_cell_angle_alpha 90.000000
_cell_angle_beta 91.628685
_cell_angle_gamma 90.000000
_cell_volume 2166.148734
_symmetry_space_group_name_H-M "C 2/M"
_symmetry_group_IT_number 12
_symmetry_cell_setting 'monoclinic'
loop_
_space_group_symop_operation_xyz
x,y,z
-x,y,-z
-x,-y,-z
x,-y,z
1/2+x,1/2+y,z
1/2-x,1/2+y,-z
1/2-x,1/2-y,-z
1/2+x,1/2-y,z
loop_
_atom_site_type_symbol
_atom_site_label
_atom_site_fract_x
_atom_site_fract_y
_atom_site_fract_z
Si Si1 0.488943 0.500000 0.176956
Si Si2 0.629231 0.637374 0.671063
Si Si3 0.313505 0.898214 0.714373
Si Si4 0.646230 0.500000 0.401688
Si Si5 0.093996 0.331510 0.555629
Si Si6 0.829950 0.500000 0.275434
Si Si7 0.597260 0.000000 0.042336
O O1 0.435886 0.584838 0.230531
O O2 0.574261 0.500000 0.274508
O O3 0.500000 0.500000 0.000000
O O4 0.720750 0.630985 0.748266
O O5 0.635984 0.584172 0.513376
O O6 0.603488 0.737700 0.637346
O O7 0.350175 0.834938 0.590778
O O8 0.375467 0.915277 0.854969
O O9 0.306440 0.000000 0.650131
O O10 0.734614 0.500000 0.323547
O O11 0.125250 0.412502 0.658021
O O12 0.000000 0.346949 0.500000
O O13 0.845694 0.500000 0.100126
O O14 0.500000 0.000000 0.000000
#
# Coordination Sequence:
#
# PCOD9203621 Si02
#       7
#     4   8   8   4   8   4   4
#     4  11  24  41  68  90 128 167 204 258 319 385
#     4  11  21  43  63  96 121 163 212 270 313 367
#     4  10  20  39  65  86 126 165 205 257 322 359
#     4  11  21  39  63  92 121 158 220 259 320 367
#     4  12  22  38  65  94 124 162 214 263 310 368
#     4  12  23  37  61  96 122 171 210 256 314 390
#     4  10  21  39  60  87 129 172 207 243 316 384
#
# _framework density 18.465952999999999
#
# number of rings (size 3 to 8) (size 9 to 14) (size 15 to 20)
#    0.600    0.400    5.000    4.500    2.800    0.000 
#    0.000    6.000    0.000    0.000    0.000    0.000 
#    0.000    0.000    0.000    0.000    0.000    0.000 
#
# Total GULP energy -111645.076979 kJ/mol
# GULP energy per Si atom -5582.253849 kJ/mol
# Density = 1.842392 g / cm^3
# Si number density = 18.465953 Si / 1000 Ang^3
#
#
#
# Elastic Constant Matrix: (Units=GPa)
#
#
# Indices 1 2 3 4 5 6 
#
# 1 124.0500 33.0955 38.7980 0.0000 6.6897 0.0000
# 2 33.0955 114.2201 42.6259 0.0000 -10.6086 0.0000
# 3 38.7980 42.6259 108.8030 0.0000 -3.3855 0.0000
# 4 0.0000 0.0000 0.0000 11.8423 0.0000 -1.3537
# 5 6.6897 -10.6086 -3.3855 0.0000 34.4076 0.0000
# 6 0.0000 0.0000 0.0000 -1.3537 0.0000 -2.0663
#
#
#
# Elastic Compliance Matrix: (Units=1/GPa)
#
#
# Indices 1 2 3 4 5 6 
#
# 1 0.009599 -0.002024 -0.002716 0.000000 -0.002758 0.000000
# 2 -0.002024 0.010952 -0.003462 0.000000 0.003430 0.000000
# 3 -0.002716 -0.003462 0.011534 0.000000 0.000595 0.000000
# 4 0.000000 0.000000 0.000000 0.078560 0.000000 -0.051466
# 5 -0.002758 0.003430 0.000595 0.000000 0.030716 0.000000
# 6 0.000000 0.000000 0.000000 -0.051466 0.000000 -0.450234
#
#
# Mechanical properties :
#
#
# Convention : Reuss Voigt Hill
#
# Bulk Modulus (GPa) = 63.76948 64.01240 63.89094
# Shear Modulus (GPa) = -17.40696 24.34030 3.46667
#
# Velocity S-wave (km/s) = -3.07359 3.63453 1.37164
# Velocity P-wave (km/s) = 4.69175 7.23557 6.09778
#
# Compressibility (1/GPa) = 0.01568148
#
# Stress axis : x y z
#
# Youngs Moduli (GPa) = 104.17317 91.30654 86.69772
#
# Poissons Ratio (x) = 0.18481 0.23546
# Poissons Ratio (y) = 0.21085 0.30017
# Poissons Ratio (z) = 0.28292 0.31613
#
# Static dielectric constant tensor:
#      x y z
#    x 1.645570 0.000000 0.004270 
#    y 0.000000 1.621140 0.000000 
#    z 0.004270 0.000000 1.638010 
# 
# From -- ./inp_files/59159.got.cif
#   From: 2010.05.17/outbox.cif.g08.bks.cpg/sg12_30_cif.got.tgz:59159.got - 2010.06.03 13:09:07.
