data_PCOD9203611
_publ_section_title
;
Structure prediction by ZEFSAII (Michael W. Deem and Ramdas Pophale) SiO2 
 PCOD9203611
Probable space group: C 2/M
;
_chemical_formula_sum "Si O2"
_cell_formula_units_Z 64
_cell_length_a 14.112525
_cell_length_b 10.103383
_cell_length_c 27.210616
_cell_angle_alpha 90.000000
_cell_angle_beta 52.761729
_cell_angle_gamma 90.000000
_cell_volume 3088.813343
_symmetry_space_group_name_H-M "C 2/M"
_symmetry_group_IT_number 12
_symmetry_cell_setting 'monoclinic'
loop_
_space_group_symop_operation_xyz
x,y,z
-x,y,-z
-x,-y,-z
x,-y,z
1/2+x,1/2+y,z
1/2-x,1/2+y,-z
1/2-x,1/2-y,-z
1/2+x,1/2-y,z
loop_
_atom_site_type_symbol
_atom_site_label
_atom_site_fract_x
_atom_site_fract_y
_atom_site_fract_z
Si Si1 0.499964 0.857323 0.244561
Si Si2 0.504452 0.283197 0.148903
Si Si3 0.538108 0.151306 0.430565
Si Si4 0.757183 0.351999 0.095581
Si Si5 0.727843 0.649228 0.823508
Si Si6 0.147778 0.152969 0.552395
Si Si7 0.318988 0.646014 0.341281
Si Si8 0.901225 0.845289 0.987772
O O1 0.511339 0.845086 0.181617
O O2 0.630004 0.844353 0.229091
O O3 0.408079 0.747822 0.289413
O O4 0.451954 0.000000 0.273196
O O5 0.614086 0.361936 0.138898
O O6 0.368341 0.334462 0.189557
O O7 0.542099 0.288759 0.079962
O O8 0.500000 0.157292 0.500000
O O9 0.471240 0.269684 0.424698
O O10 0.678621 0.169159 0.379308
O O11 0.506532 0.000000 0.424159
O O12 0.807826 0.500000 0.076907
O O13 0.792282 0.270419 0.132972
O O14 0.800610 0.255154 0.038463
O O15 0.706324 0.500000 0.851610
O O16 0.250000 0.250000 0.500000
O O17 0.160137 0.147548 0.606902
O O18 0.154732 0.000000 0.532082
O O19 0.346331 0.500000 0.313391
O O20 0.864362 0.000000 0.991452
O O21 0.000000 0.846353 0.000000
#
# Coordination Sequence:
#
# PCOD9203611 Si02
#       8
#     8   8   8   8   8   8   8   8
#     4  10  25  44  65  92 122 160 212 267 308 362
#     4  11  23  41  65  88 118 163 207 248 311 373
#     4  10  20  39  64  95 134 172 213 258 314 378
#     4  11  23  37  59  94 126 152 194 257 315 366
#     4  10  21  42  65  85 117 162 208 250 303 375
#     4  11  22  38  62  96 132 171 212 258 315 371
#     4  10  23  43  65  90 130 173 208 256 315 379
#     4  11  22  39  64  90 121 163 204 245 305 388
#
# _framework density 20.719933000000001
#
# number of rings (size 3 to 8) (size 9 to 14) (size 15 to 20)
#    0.000    1.500    2.500    2.250    0.000    7.500 
#    0.000    3.750    0.000    0.000    0.000    0.000 
#    0.000    0.000    0.000    0.000    0.000    0.000 
#
# Total GULP energy -178404.107455 kJ/mol
# GULP energy per Si atom -5575.128358 kJ/mol
# Density = 2.067277 g / cm^3
# Si number density = 20.719933 Si / 1000 Ang^3
#
#
#
# Elastic Constant Matrix: (Units=GPa)
#
#
# Indices 1 2 3 4 5 6 
#
# 1 113.0119 74.5164 19.1833 0.0000 -19.1243 0.0000
# 2 74.5164 172.1176 58.9272 0.0000 -33.0006 0.0000
# 3 19.1833 58.9272 52.2280 0.0000 -18.3848 0.0000
# 4 0.0000 0.0000 0.0000 24.1963 0.0000 1.9143
# 5 -19.1243 -33.0006 -18.3848 0.0000 24.2638 0.0000
# 6 0.0000 0.0000 0.0000 1.9143 0.0000 0.2116
#
#
#
# Elastic Compliance Matrix: (Units=1/GPa)
#
#
# Indices 1 2 3 4 5 6 
#
# 1 0.012966 -0.005917 0.003652 0.000000 0.004939 0.000000
# 2 -0.005917 0.012989 -0.010780 0.000000 0.004835 -0.000001
# 3 0.003652 -0.010780 0.035213 0.000000 0.014897 0.000000
# 4 0.000000 0.000000 0.000000 0.145321 0.000000 -1.314430
# 5 0.004939 0.004835 0.014897 0.000000 0.062970 -0.000002
# 6 0.000000 -0.000001 0.000000 -1.314430 -0.000002 16.613912
#
#
# Mechanical properties :
#
#
# Convention : Reuss Voigt Hill
#
# Bulk Modulus (GPa) = 28.50824 71.40128 49.95476
# Shear Modulus (GPa) = 0.29549 22.04973 11.17261
#
# Velocity S-wave (km/s) = 0.37805 3.26572 2.32463
# Velocity P-wave (km/s) = 3.73889 6.98247 5.60063
#
# Compressibility (1/GPa) = 0.03507758
#
# Stress axis : x y z
#
# Youngs Moduli (GPa) = 77.12561 76.98597 28.39891
#
# Poissons Ratio (x) = 0.45550 -0.10371
# Poissons Ratio (y) = 0.45633 0.30615
# Poissons Ratio (z) = -0.28166 0.82995
#
# Static dielectric constant tensor:
#      x y z
#    x 1.768680 0.000000 -0.007330 
#    y 0.000000 1.749330 0.000000 
#    z -0.007330 0.000000 1.773700 
# 
# From -- ./inp_files/375487.got.cif
#   From: 2010.05.17/outbox.cif.g08.bks.cpg/sg12_188_cif.got.tgz:375487.got - 2010.06.03 13:09:07.
