data_PCOD9203387
_publ_section_title
;
Structure prediction by ZEFSAII (Michael W. Deem and Ramdas Pophale) SiO2 
 PCOD9203387
Probable space group: C 2/M
;
_chemical_formula_sum "Si O2"
_cell_formula_units_Z 48
_cell_length_a 13.227649
_cell_length_b 22.095360
_cell_length_c 16.693514
_cell_angle_alpha 90.000000
_cell_angle_beta 155.503594
_cell_angle_gamma 90.000000
_cell_volume 2023.013059
_symmetry_space_group_name_H-M "C 2/M"
_symmetry_group_IT_number 12
_symmetry_cell_setting 'monoclinic'
loop_
_space_group_symop_operation_xyz
x,y,z
-x,y,-z
-x,-y,-z
x,-y,z
1/2+x,1/2+y,z
1/2-x,1/2+y,-z
1/2-x,1/2-y,-z
1/2+x,1/2-y,z
loop_
_atom_site_type_symbol
_atom_site_label
_atom_site_fract_x
_atom_site_fract_y
_atom_site_fract_z
Si Si1 0.500000 0.253538 0.000000
Si Si2 0.459326 0.254809 0.807003
Si Si3 0.050584 0.326383 0.747692
Si Si4 0.500000 0.100459 0.000000
Si Si5 0.713169 0.119761 0.595406
Si Si6 0.492385 0.568529 0.327406
Si Si7 0.446260 0.932505 0.775874
O O1 0.590177 0.220466 0.144927
O O2 0.714383 0.293838 0.119113
O O3 0.369200 0.218213 0.665256
O O4 0.350316 0.321921 0.732231
O O5 0.750000 0.250000 0.000000
O O6 0.922568 0.353397 0.579188
O O7 0.106852 0.379825 0.851419
O O8 0.436156 0.072964 0.864499
O O9 0.220312 0.118559 0.819990
O O10 0.500000 0.096009 0.500000
O O11 0.891820 0.074254 0.678013
O O12 0.389514 0.500000 0.259708
O O13 0.689448 0.574288 0.541528
O O14 0.534657 0.000000 0.819800
#
# Coordination Sequence:
#
# PCOD9203387 Si02
#       7
#     4   8   8   4   8   8   8
#     4  10  20  39  62  88 123 165 203 270 316 370
#     4  10  22  39  62  89 122 164 209 261 315 380
#     4  10  22  40  62  89 126 165 211 261 321 382
#     4  12  23  39  67  92 130 179 213 266 321 376
#     4  11  22  42  67  90 127 171 207 267 325 377
#     4  10  23  41  63  96 133 170 218 266 320 384
#     4  10  22  40  62  94 131 166 211 267 321 381
#
# _framework density 23.726984000000002
#
# number of rings (size 3 to 8) (size 9 to 14) (size 15 to 20)
#    0.000    1.667    1.667    2.500    4.667    2.333 
#    3.000    2.083    0.000    0.000    0.000    0.000 
#    0.000    0.000    0.000    0.000    0.000    0.000 
#
# Total GULP energy -133620.584798 kJ/mol
# GULP energy per Si atom -5567.524367 kJ/mol
# Density = 2.367298 g / cm^3
# Si number density = 23.726984 Si / 1000 Ang^3
#
#
#
# Elastic Constant Matrix: (Units=GPa)
#
#
# Indices 1 2 3 4 5 6 
#
# 1 187.1273 30.8073 41.5108 0.0059 -15.4086 -0.0040
# 2 30.8073 68.8738 8.2236 0.0059 9.6371 -0.0021
# 3 41.5108 8.2236 68.5009 0.0248 -17.3948 -0.0122
# 4 0.0059 0.0059 0.0248 21.1360 0.0035 3.9346
# 5 -15.4086 9.6371 -17.3948 0.0035 47.0670 -0.0062
# 6 -0.0040 -0.0021 -0.0122 3.9346 -0.0062 40.1101
#
#
#
# Elastic Compliance Matrix: (Units=1/GPa)
#
#
# Indices 1 2 3 4 5 6 
#
# 1 0.006666 -0.002800 -0.003315 0.000003 0.001531 -0.000001
# 2 -0.002800 0.016641 -0.001544 -0.000001 -0.004895 -0.000001
# 3 -0.003315 -0.001544 0.018316 -0.000023 0.006000 0.000008
# 4 0.000003 -0.000001 -0.000023 0.048193 -0.000011 -0.004728
# 5 0.001531 -0.004895 0.006000 -0.000011 0.024967 0.000007
# 6 -0.000001 -0.000001 0.000008 -0.004728 0.000007 0.025395
#
#
# Mechanical properties :
#
#
# Convention : Reuss Voigt Hill
#
# Bulk Modulus (GPa) = 38.01452 53.95393 45.98423
# Shear Modulus (GPa) = 30.43866 37.92664 34.18265
#
# Velocity S-wave (km/s) = 3.58560 4.00241 3.79973
# Velocity P-wave (km/s) = 5.76181 6.64439 6.21878
#
# Compressibility (1/GPa) = 0.02630574
#
# Stress axis : x y z
#
# Youngs Moduli (GPa) = 150.00713 60.09240 54.59678
#
# Poissons Ratio (x) = 0.16827 0.18098
# Poissons Ratio (y) = 0.42006 0.08428
# Poissons Ratio (z) = 0.49726 0.09277
#
# Static dielectric constant tensor:
#      x y z
#    x 1.897640 0.000000 -0.035480 
#    y 0.000000 2.083490 -0.000010 
#    z -0.035480 -0.000010 2.167480 
# 
# From -- ./inp_files/209493.got.cif
#   From: 2010.05.17/outbox.cif.g08.bks.cpg/sg12_105_cif.got.tgz:209493.got - 2010.06.03 13:09:07.
