data_PCOD9203627
_publ_section_title
;
Structure prediction by ZEFSAII (Michael W. Deem and Ramdas Pophale) SiO2 
 PCOD9203627
Probable space group: C 2/M
;
_chemical_formula_sum "Si O2"
_cell_formula_units_Z 52
_cell_length_a 30.868095
_cell_length_b 17.265975
_cell_length_c 5.408367
_cell_angle_alpha 90.000000
_cell_angle_beta 73.077299
_cell_angle_gamma 90.000000
_cell_volume 2757.668805
_symmetry_space_group_name_H-M "C 2/M"
_symmetry_group_IT_number 12
_symmetry_cell_setting 'monoclinic'
loop_
_space_group_symop_operation_xyz
x,y,z
-x,y,-z
-x,-y,-z
x,-y,z
1/2+x,1/2+y,z
1/2-x,1/2+y,-z
1/2-x,1/2-y,-z
1/2+x,1/2-y,z
loop_
_atom_site_type_symbol
_atom_site_label
_atom_site_fract_x
_atom_site_fract_y
_atom_site_fract_z
Si Si1 0.118361 0.240425 0.497044
Si Si2 0.322450 0.410188 0.577594
Si Si3 0.661806 0.204366 0.940945
Si Si4 0.029870 0.327437 0.700296
Si Si5 0.732033 0.316336 0.710562
Si Si6 0.530169 0.000000 0.700175
Si Si7 0.224789 0.412983 0.005142
O O1 0.138414 0.152907 0.428089
O O2 0.142309 0.271839 0.707825
O O3 0.065817 0.257794 0.634518
O O4 0.128384 0.287505 0.227254
O O5 0.337459 0.500000 0.544898
O O6 0.300605 0.379843 0.357920
O O7 0.276626 0.408088 0.821035
O O8 0.701064 0.266535 0.943637
O O9 0.687794 0.123237 0.886995
O O10 0.052883 0.414316 0.664425
O O11 0.000000 0.324021 0.500000
O O12 0.000000 0.322603 0.000000
O O13 0.750000 0.250000 0.500000
O O14 0.773928 0.359870 0.757166
O O15 0.500000 0.000000 0.500000
O O16 0.500000 0.000000 0.000000
O O17 0.214178 0.500000 0.081499
#
# Coordination Sequence:
#
# PCOD9203627 Si02
#       7
#     8   8   8   8   8   4   8
#     4  11  23  39  60  86 118 148 197 245 298 350
#     4  10  21  35  55  82 114 158 206 250 289 339
#     4  11  22  37  54  82 115 156 194 241 286 338
#     4  10  20  39  65  88 113 147 187 232 297 369
#     4  11  19  34  55  76 107 158 210 247 285 338
#     4   8  16  32  58  88 106 136 178 222 274 352
#     4  11  21  35  52  78 115 161 205 240 287 343
#
# _framework density 18.856507000000001
#
# number of rings (size 3 to 8) (size 9 to 14) (size 15 to 20)
#    0.000    1.538    3.077    3.692    0.000    0.000 
#    2.769    0.000    0.000    0.923    0.000    0.000 
#    0.000    0.000    0.000    0.000    0.000    0.000 
#
# Total GULP energy -144771.466200 kJ/mol
# GULP energy per Si atom -5568.133315 kJ/mol
# Density = 1.881359 g / cm^3
# Si number density = 18.856507 Si / 1000 Ang^3
#
#
#
# Elastic Constant Matrix: (Units=GPa)
#
#
# Indices 1 2 3 4 5 6 
#
# 1 54.2479 44.0391 18.6879 0.0000 -2.4464 0.0000
# 2 44.0391 125.6602 36.4762 0.0000 -0.0671 0.0000
# 3 18.6879 36.4762 95.5633 0.0000 -1.5731 0.0000
# 4 0.0000 0.0000 0.0000 21.1259 0.0000 -3.0997
# 5 -2.4464 -0.0671 -1.5731 0.0000 25.4968 0.0000
# 6 0.0000 0.0000 0.0000 -3.0997 0.0000 22.5202
#
#
#
# Elastic Compliance Matrix: (Units=1/GPa)
#
#
# Indices 1 2 3 4 5 6 
#
# 1 0.026183 -0.008659 -0.001776 0.000000 0.002380 0.000000
# 2 -0.008659 0.011814 -0.002832 0.000000 -0.000975 0.000000
# 3 -0.001776 -0.002832 0.011902 0.000000 0.000556 0.000000
# 4 0.000000 0.000000 0.000000 0.048311 0.000000 0.006650
# 5 0.002380 -0.000975 0.000556 0.000000 0.039481 0.000000
# 6 0.000000 0.000000 0.000000 0.006650 0.000000 0.045320
#
#
# Mechanical properties :
#
#
# Convention : Reuss Voigt Hill
#
# Bulk Modulus (GPa) = 42.80035 52.65307 47.72671
# Shear Modulus (GPa) = 23.00621 25.57981 24.29301
#
# Velocity S-wave (km/s) = 3.49674 3.68713 3.59320
# Velocity P-wave (km/s) = 6.24901 6.79045 6.52535
#
# Compressibility (1/GPa) = 0.02336429
#
# Stress axis : x y z
#
# Youngs Moduli (GPa) = 38.19318 84.64312 84.02159
#
# Poissons Ratio (x) = 0.73295 0.14920
# Poissons Ratio (y) = 0.33073 0.23796
# Poissons Ratio (z) = 0.06782 0.23972
#
# Static dielectric constant tensor:
#      x y z
#    x 1.680940 0.000000 -0.005000 
#    y 0.000000 1.686260 0.000000 
#    z -0.005000 0.000000 1.743730 
# 
# From -- ./inp_files/28496.got.cif
#   From: 2010.05.17/outbox.cif.g08.bks.cpg/sg12_15_cif.got.tgz:28496.got - 2010.06.03 13:09:07.
