data_PCOD9203830
_publ_section_title
;
Structure prediction by ZEFSAII (Michael W. Deem and Ramdas Pophale) SiO2 
 PCOD9203830
Probable space group: C 2/M
;
_chemical_formula_sum "Si O2"
_cell_formula_units_Z 48
_cell_length_a 11.201776
_cell_length_b 13.734712
_cell_length_c 29.812196
_cell_angle_alpha 90.000000
_cell_angle_beta 150.200767
_cell_angle_gamma 90.000000
_cell_volume 2279.417572
_symmetry_space_group_name_H-M "C 2/M"
_symmetry_group_IT_number 12
_symmetry_cell_setting 'monoclinic'
loop_
_space_group_symop_operation_xyz
x,y,z
-x,y,-z
-x,-y,-z
x,-y,z
1/2+x,1/2+y,z
1/2-x,1/2+y,-z
1/2-x,1/2-y,-z
1/2+x,1/2-y,z
loop_
_atom_site_type_symbol
_atom_site_label
_atom_site_fract_x
_atom_site_fract_y
_atom_site_fract_z
Si Si1 0.371614 0.614950 0.153229
Si Si2 0.110015 0.116952 0.322902
Si Si3 0.505357 0.268476 0.449579
Si Si4 0.227832 0.618869 0.917949
Si Si5 0.812526 0.616125 0.994629
Si Si6 0.251692 0.617661 0.288015
O O1 0.432565 0.500000 0.170915
O O2 0.509210 0.650689 0.241683
O O3 0.089596 0.623389 0.071290
O O4 0.377088 0.653776 0.104149
O O5 0.367675 0.166087 0.410517
O O6 0.932392 0.145353 0.305856
O O7 0.121232 0.000000 0.327101
O O8 0.500000 0.307021 0.500000
O O9 0.345505 0.336285 0.364678
O O10 0.750000 0.250000 0.500000
O O11 0.224186 0.500000 0.915564
O O12 0.186268 0.652330 0.954846
O O13 0.017674 0.647457 0.815165
O O14 0.500000 0.651343 0.000000
O O15 0.761527 0.500000 0.980558
O O16 0.256417 0.500000 0.292870
#
# Coordination Sequence:
#
# PCOD9203830 Si02
#       6
#     8   8   8   8   8   8
#     4   8  13  24  48  82 113 148 195 250 293 345
#     4  10  20  39  69  95 122 166 219 265 320 394
#     4  12  26  46  69  96 128 166 212 282 343 390
#     4   9  16  29  53  86 125 168 210 253 309 378
#     4   8  12  21  43  78 117 151 194 242 292 347
#     4  10  21  41  69  95 127 174 221 264 322 395
#
# _framework density 21.058011
#
# number of rings (size 3 to 8) (size 9 to 14) (size 15 to 20)
#    0.000    2.500    3.333    1.000    0.000    1.333 
#    3.000    0.000    3.667    2.000    0.000    0.000 
#    0.000    0.000    0.000    0.000    0.000    0.000 
#
# Total GULP energy -133680.847450 kJ/mol
# GULP energy per Si atom -5570.035310 kJ/mol
# Density = 2.101008 g / cm^3
# Si number density = 21.058011 Si / 1000 Ang^3
#
#
#
# Elastic Constant Matrix: (Units=GPa)
#
#
# Indices 1 2 3 4 5 6 
#
# 1 96.5151 32.9740 90.2623 -0.0001 -19.0541 0.0000
# 2 32.9740 63.1861 33.8157 0.0000 -14.8276 0.0000
# 3 90.2623 33.8157 165.5418 -0.0001 -39.6614 -0.0002
# 4 -0.0001 0.0000 -0.0001 43.6311 0.0000 -0.2322
# 5 -19.0541 -14.8276 -39.6614 0.0000 35.6305 -0.0001
# 6 0.0000 0.0000 -0.0002 -0.2322 -0.0001 15.4990
#
#
#
# Elastic Compliance Matrix: (Units=1/GPa)
#
#
# Indices 1 2 3 4 5 6 
#
# 1 0.023358 -0.006508 -0.012359 0.000000 -0.003974 0.000000
# 2 -0.006508 0.020146 0.000829 0.000000 0.005826 0.000000
# 3 -0.012359 0.000829 0.015150 0.000000 0.010599 0.000000
# 4 0.000000 0.000000 0.000000 0.022921 0.000000 0.000343
# 5 -0.003974 0.005826 0.010599 0.000000 0.040164 0.000000
# 6 0.000000 0.000000 0.000000 0.000343 0.000000 0.064525
#
#
# Mechanical properties :
#
#
# Convention : Reuss Voigt Hill
#
# Bulk Modulus (GPa) = 44.29027 71.03857 57.66442
# Shear Modulus (GPa) = 21.75188 30.16487 25.95837
#
# Velocity S-wave (km/s) = 3.21744 3.78890 3.51480
# Velocity P-wave (km/s) = 5.90599 7.27660 6.62683
#
# Compressibility (1/GPa) = 0.02257832
#
# Stress axis : x y z
#
# Youngs Moduli (GPa) = 42.81173 49.63763 66.00865
#
# Poissons Ratio (x) = 0.32304 0.81579
# Poissons Ratio (y) = 0.27862 -0.05473
# Poissons Ratio (z) = 0.52910 -0.04116
#
# Static dielectric constant tensor:
#      x y z
#    x 1.877010 0.000000 -0.033590 
#    y 0.000000 1.831490 0.000000 
#    z -0.033590 0.000000 1.770390 
# 
# From -- ./inp_files/374138.got.cif
#   From: 2010.05.17/outbox.cif.g08.bks.cpg/sg12_188_cif.got.tgz:374138.got - 2010.06.03 13:09:07.
