data_PCOD9203746
_publ_section_title
;
Structure prediction by ZEFSAII (Michael W. Deem and Ramdas Pophale) SiO2 
 PCOD9203746
Probable space group: C 2/M
;
_chemical_formula_sum "Si O2"
_cell_formula_units_Z 52
_cell_length_a 11.688972
_cell_length_b 23.613848
_cell_length_c 12.780693
_cell_angle_alpha 90.000000
_cell_angle_beta 131.887060
_cell_angle_gamma 90.000000
_cell_volume 2626.275160
_symmetry_space_group_name_H-M "C 2/M"
_symmetry_group_IT_number 12
_symmetry_cell_setting 'monoclinic'
loop_
_space_group_symop_operation_xyz
x,y,z
-x,y,-z
-x,-y,-z
x,-y,z
1/2+x,1/2+y,z
1/2-x,1/2+y,-z
1/2-x,1/2-y,-z
1/2+x,1/2-y,z
loop_
_atom_site_type_symbol
_atom_site_label
_atom_site_fract_x
_atom_site_fract_y
_atom_site_fract_z
Si Si1 0.360652 0.000000 0.198625
Si Si2 0.359405 0.690369 0.834166
Si Si3 0.165905 0.500000 0.237596
Si Si4 0.681035 0.500000 0.883504
Si Si5 0.640578 0.292080 0.650152
Si Si6 0.502014 0.618219 0.731041
Si Si7 0.244703 0.393975 0.413831
Si Si8 0.931474 0.384832 0.341236
O O1 0.365843 0.946871 0.278263
O O2 0.506461 0.000000 0.206251
O O3 0.225062 0.000000 0.032367
O O4 0.281812 0.750355 0.758081
O O5 0.430315 0.652352 0.784485
O O6 0.205447 0.656871 0.774241
O O7 0.500000 0.697453 0.000000
O O8 0.183343 0.500000 0.122818
O O9 0.248032 0.444076 0.331955
O O10 0.598950 0.561439 0.816043
O O11 0.500000 0.261975 0.500000
O O12 0.587229 0.331739 0.715514
O O13 0.694928 0.337704 0.600588
O O14 0.359327 0.593579 0.577941
O O15 0.076123 0.381552 0.352929
O O16 0.000000 0.377913 0.500000
#
# Coordination Sequence:
#
# PCOD9203746 Si02
#       8
#     4   8   4   4   8   8   8   8
#     4  10  24  39  64  99 136 175 218 264 334 409
#     4  12  27  45  63  98 135 178 222 269 337 400
#     4  10  20  39  66  97 134 168 216 275 331 405
#     4  12  22  42  64 103 142 170 209 276 349 396
#     4  10  24  43  68  97 128 172 226 280 324 387
#     4  11  24  41  70  98 132 175 222 276 332 390
#     4  10  21  41  68 102 123 169 227 278 329 383
#     4  11  22  44  71  93 131 179 223 274 318 394
#
# _framework density 19.799904999999999
#
# number of rings (size 3 to 8) (size 9 to 14) (size 15 to 20)
#    0.000    1.231    3.077    2.308    2.154    3.077 
#    5.538    1.538    0.000    0.000    0.000    0.000 
#    0.000    0.000    0.000    0.000    0.000    0.000 
#
# Total GULP energy -144877.506781 kJ/mol
# GULP energy per Si atom -5572.211799 kJ/mol
# Density = 1.975484 g / cm^3
# Si number density = 19.799905 Si / 1000 Ang^3
#
#
#
# Elastic Constant Matrix: (Units=GPa)
#
#
# Indices 1 2 3 4 5 6 
#
# 1 41.5623 11.4253 9.0655 0.0000 7.4931 0.0000
# 2 11.4253 79.5680 37.8240 0.0000 10.7602 0.0000
# 3 9.0655 37.8240 112.3174 0.0000 22.5975 0.0000
# 4 0.0000 0.0000 0.0000 -0.7433 0.0000 5.2499
# 5 7.4931 10.7602 22.5975 0.0000 21.6519 0.0000
# 6 0.0000 0.0000 0.0000 5.2499 0.0000 29.6637
#
#
#
# Elastic Compliance Matrix: (Units=1/GPa)
#
#
# Indices 1 2 3 4 5 6 
#
# 1 0.026218 -0.002900 0.000501 0.000000 -0.008155 0.000000
# 2 -0.002900 0.015415 -0.004579 0.000000 -0.001878 0.000000
# 3 0.000501 -0.004579 0.012635 0.000000 -0.011085 0.000000
# 4 0.000000 0.000000 0.000000 -0.597937 0.000000 0.105823
# 5 -0.008155 -0.001878 -0.011085 0.000000 0.061510 0.000000
# 6 0.000000 0.000000 0.000000 0.105823 0.000000 0.014983
#
#
# Mechanical properties :
#
#
# Convention : Reuss Voigt Hill
#
# Bulk Modulus (GPa) = 24.80629 38.89745 31.85187
# Shear Modulus (GPa) = -11.36927 21.78997 5.21035
#
# Velocity S-wave (km/s) = -2.39886 3.32099 1.62395
# Velocity P-wave (km/s) = 2.20974 5.86457 4.43149
#
# Compressibility (1/GPa) = 0.04031235
#
# Stress axis : x y z
#
# Youngs Moduli (GPa) = 38.14102 64.87146 79.14410
#
# Poissons Ratio (x) = 0.18814 -0.03967
# Poissons Ratio (y) = 0.11062 0.36243
# Poissons Ratio (z) = -0.01912 0.29707
#
# Static dielectric constant tensor:
#      x y z
#    x 1.720350 0.000000 0.020570 
#    y 0.000000 1.747430 0.000000 
#    z 0.020570 0.000000 1.721070 
# 
# From -- ./inp_files/136052.got.cif
#   From: 2010.05.17/outbox.cif.g08.bks.cpg/sg12_69_cif.got.tgz:136052.got - 2010.06.03 13:09:07.
