data_PCOD9203829
_publ_section_title
;
Structure prediction by ZEFSAII (Michael W. Deem and Ramdas Pophale) SiO2 
 PCOD9203829
Probable space group: C 2/M
;
_chemical_formula_sum "Si O2"
_cell_formula_units_Z 64
_cell_length_a 18.165076
_cell_length_b 14.144094
_cell_length_c 24.198122
_cell_angle_alpha 90.000000
_cell_angle_beta 30.721448
_cell_angle_gamma 90.000000
_cell_volume 3176.142351
_symmetry_space_group_name_H-M "C 2/M"
_symmetry_group_IT_number 12
_symmetry_cell_setting 'monoclinic'
loop_
_space_group_symop_operation_xyz
x,y,z
-x,y,-z
-x,-y,-z
x,-y,z
1/2+x,1/2+y,z
1/2-x,1/2+y,-z
1/2-x,1/2-y,-z
1/2+x,1/2-y,z
loop_
_atom_site_type_symbol
_atom_site_label
_atom_site_fract_x
_atom_site_fract_y
_atom_site_fract_z
Si Si1 0.322909 0.886788 0.928913
Si Si2 0.794862 0.612375 0.441923
Si Si3 0.547158 0.610703 0.690775
Si Si4 0.881654 0.793628 0.120933
Si Si5 0.341502 0.385698 0.585831
Si Si6 0.910169 0.611291 0.163184
Si Si7 0.099885 0.292751 0.237426
Si Si8 0.990869 0.112787 0.161168
O O1 0.442600 0.867861 0.898232
O O2 0.359846 0.832472 0.848934
O O3 0.329433 0.000000 0.913713
O O4 0.161080 0.862969 0.051927
O O5 0.822497 0.500000 0.417569
O O6 0.686097 0.624650 0.562854
O O7 0.717457 0.646826 0.435532
O O8 0.945833 0.663651 0.352201
O O9 0.506368 0.500000 0.714661
O O10 0.422627 0.680110 0.750502
O O11 0.574460 0.636602 0.737016
O O12 0.895823 0.681327 0.121440
O O13 0.725614 0.818175 0.198367
O O14 0.915891 0.838332 0.158044
O O15 0.000000 0.825388 0.000000
O O16 0.500000 0.349465 0.500000
O O17 0.353541 0.500000 0.573443
O O18 0.222527 0.368052 0.709476
O O19 0.907414 0.500000 0.151397
O O20 0.980645 0.000000 0.160600
#
# Coordination Sequence:
#
# PCOD9203829 Si02
#       8
#     8   8   8   8   8   8   8   8
#     4  10  20  39  69  93 115 159 214 268 315 364
#     4  10  21  41  67  97 126 161 213 263 315 374
#     4  10  24  43  65  90 125 169 211 258 312 375
#     4  12  27  41  58  93 130 168 206 257 320 375
#     4   9  18  34  60  91 123 160 199 251 316 372
#     4  10  22  40  61  90 126 163 206 256 317 381
#     4  12  23  39  64  95 127 162 213 259 312 372
#     4  10  23  44  65  88 122 168 216 262 315 368
#
# _framework density 20.150230000000001
#
# number of rings (size 3 to 8) (size 9 to 14) (size 15 to 20)
#    0.000    1.625    2.500    1.500    3.500    3.000 
#    0.000    0.625    0.000    2.250    0.000    0.000 
#    0.000    0.000    0.000    0.000    0.000    0.000 
#
# Total GULP energy -178938.913538 kJ/mol
# GULP energy per Si atom -5591.841048 kJ/mol
# Density = 2.010437 g / cm^3
# Si number density = 20.150230 Si / 1000 Ang^3
#
#
#
# Elastic Constant Matrix: (Units=GPa)
#
#
# Indices 1 2 3 4 5 6 
#
# 1 76.0965 20.6781 46.9831 -0.0011 -34.2337 -0.0001
# 2 20.6781 45.0966 31.1994 -0.0012 -6.3337 -0.0007
# 3 46.9831 31.1994 73.5038 -0.0010 -9.8226 -0.0005
# 4 -0.0011 -0.0012 -0.0010 24.2259 0.0001 3.6875
# 5 -34.2337 -6.3337 -9.8226 0.0001 32.5282 -0.0001
# 6 -0.0001 -0.0007 -0.0005 3.6875 -0.0001 25.2017
#
#
#
# Elastic Compliance Matrix: (Units=1/GPa)
#
#
# Indices 1 2 3 4 5 6 
#
# 1 0.047655 0.001808 -0.025508 0.000001 0.042802 0.000000
# 2 0.001808 0.031611 -0.014064 0.000001 0.003811 0.000000
# 3 -0.025508 -0.014064 0.033268 0.000000 -0.019538 0.000000
# 4 0.000001 0.000001 0.000000 0.042218 0.000001 -0.006177
# 5 0.042802 0.003811 -0.019538 0.000001 0.070631 0.000000
# 6 0.000000 0.000000 0.000000 -0.006177 0.000000 0.040584
#
#
# Mechanical properties :
#
#
# Convention : Reuss Voigt Hill
#
# Bulk Modulus (GPa) = 27.02315 43.60200 35.31258
# Shear Modulus (GPa) = 14.13110 22.78026 18.45568
#
# Velocity S-wave (km/s) = 2.65106 3.36597 3.02967
# Velocity P-wave (km/s) = 4.77606 6.06562 5.45905
#
# Compressibility (1/GPa) = 0.03700531
#
# Stress axis : x y z
#
# Youngs Moduli (GPa) = 20.98438 31.63478 30.05910
#
# Poissons Ratio (x) = -0.05719 0.76674
# Poissons Ratio (y) = -0.03794 0.42275
# Poissons Ratio (z) = 0.53527 0.44491
#
# Static dielectric constant tensor:
#      x y z
#    x 1.672500 0.000000 0.003260 
#    y 0.000000 1.753470 0.000000 
#    z 0.003260 0.000000 1.691920 
# 
# From -- ./inp_files/344032.got.cif
#   From: 2010.05.17/outbox.cif.g08.bks.cpg/sg12_173_cif.got.tgz:344032.got - 2010.06.03 13:09:07.
