data_PCOD9203843
_publ_section_title
;
Structure prediction by ZEFSAII (Michael W. Deem and Ramdas Pophale) SiO2 
 PCOD9203843
Probable space group: C 2/M
;
_chemical_formula_sum "Si O2"
_cell_formula_units_Z 24
_cell_length_a 18.057284
_cell_length_b 7.896666
_cell_length_c 9.110061
_cell_angle_alpha 90.000000
_cell_angle_beta 124.111082
_cell_angle_gamma 90.000000
_cell_volume 1075.530128
_symmetry_space_group_name_H-M "C 2/M"
_symmetry_group_IT_number 12
_symmetry_cell_setting 'monoclinic'
loop_
_space_group_symop_operation_xyz
x,y,z
-x,y,-z
-x,-y,-z
x,-y,z
1/2+x,1/2+y,z
1/2-x,1/2+y,-z
1/2-x,1/2-y,-z
1/2+x,1/2-y,z
loop_
_atom_site_type_symbol
_atom_site_label
_atom_site_fract_x
_atom_site_fract_y
_atom_site_fract_z
Si Si1 0.583821 0.684644 0.484092
Si Si2 0.500258 0.000000 0.678767
Si Si3 0.230016 0.798188 0.306715
Si Si4 0.397034 0.000000 0.943148
O O1 0.500000 0.668529 0.500000
O O2 0.599082 0.500000 0.434712
O O3 0.674455 0.748063 0.660509
O O4 0.553943 0.831576 0.341468
O O5 0.500000 0.000000 0.500000
O O6 0.591584 0.000000 0.867207
O O7 0.250000 0.750000 0.500000
O O8 0.156350 0.668491 0.164263
O O9 0.213861 0.000000 0.272720
O O10 0.500000 0.000000 0.000000
#
# Coordination Sequence:
#
# PCOD9203843 Si02
#       4
#     8   4   8   4
#     4  10  20  39  70  95 130 180 223 274 339 399
#     4  10  22  42  66  95 137 180 217 280 338 396
#     4  12  23  41  70 101 135 177 226 284 343 407
#     4  12  26  42  67 103 135 176 234 284 338 410
#
# _framework density 22.314577
#
# number of rings (size 3 to 8) (size 9 to 14) (size 15 to 20)
#    0.000    1.000    5.000    2.000    0.000    2.000 
#    0.000    6.667    0.000    0.000    0.000    0.000 
#    0.000    0.000    0.000    0.000    0.000    0.000 
#
# Total GULP energy -66912.118906 kJ/mol
# GULP energy per Si atom -5576.009909 kJ/mol
# Density = 2.226379 g / cm^3
# Si number density = 22.314577 Si / 1000 Ang^3
#
#
#
# Elastic Constant Matrix: (Units=GPa)
#
#
# Indices 1 2 3 4 5 6 
#
# 1 120.6148 24.4749 46.8586 0.0000 29.6595 0.0000
# 2 24.4749 308.6342 97.0151 0.0000 28.2437 0.0000
# 3 46.8586 97.0151 172.0506 0.0000 19.1215 0.0000
# 4 0.0000 0.0000 0.0000 48.8308 0.0000 21.4057
# 5 29.6595 28.2437 19.1215 0.0000 40.4109 0.0000
# 6 0.0000 0.0000 0.0000 21.4057 0.0000 14.2519
#
#
#
# Elastic Compliance Matrix: (Units=1/GPa)
#
#
# Indices 1 2 3 4 5 6 
#
# 1 0.010924 0.000582 -0.002498 0.000000 -0.007242 0.000000
# 2 0.000582 0.004097 -0.002219 0.000000 -0.002240 0.000000
# 3 -0.002498 -0.002219 0.007777 0.000000 -0.000295 0.000000
# 4 0.000000 0.000000 0.000000 0.059950 0.000000 -0.090043
# 5 -0.007242 -0.002240 -0.000295 0.000000 0.031766 0.000000
# 6 0.000000 0.000000 0.000000 -0.090043 0.000000 0.205406
#
#
# Mechanical properties :
#
#
# Convention : Reuss Voigt Hill
#
# Bulk Modulus (GPa) = 68.84351 104.22185 86.53268
# Shear Modulus (GPa) = 15.01342 49.56213 32.28778
#
# Velocity S-wave (km/s) = 2.59667 4.71793 3.80799
# Velocity P-wave (km/s) = 6.31732 8.74561 7.62870
#
# Compressibility (1/GPa) = 0.01452570
#
# Stress axis : x y z
#
# Youngs Moduli (GPa) = 91.53859 244.10539 128.58440
#
# Poissons Ratio (x) = -0.14202 0.32126
# Poissons Ratio (y) = -0.05326 0.28539
# Poissons Ratio (z) = 0.22870 0.54179
#
# Static dielectric constant tensor:
#      x y z
#    x 2.100190 0.000000 -0.045910 
#    y 0.000000 1.930260 0.000000 
#    z -0.045910 0.000000 1.825510 
# 
# From -- ./inp_files/171276.got.cif
#   From: 2010.05.17/outbox.cif.g08.bks.cpg/sg12_86_cif.got.tgz:171276.got - 2010.06.03 13:09:07.
