data_PCOD9203487
_publ_section_title
;
Structure prediction by ZEFSAII (Michael W. Deem and Ramdas Pophale) SiO2 
 PCOD9203487
Probable space group: C 2/M
;
_chemical_formula_sum "Si O2"
_cell_formula_units_Z 64
_cell_length_a 25.240288
_cell_length_b 8.178865
_cell_length_c 28.904546
_cell_angle_alpha 90.000000
_cell_angle_beta 149.434087
_cell_angle_gamma 90.000000
_cell_volume 3034.376255
_symmetry_space_group_name_H-M "C 2/M"
_symmetry_group_IT_number 12
_symmetry_cell_setting 'monoclinic'
loop_
_space_group_symop_operation_xyz
x,y,z
-x,y,-z
-x,-y,-z
x,-y,z
1/2+x,1/2+y,z
1/2-x,1/2+y,-z
1/2-x,1/2-y,-z
1/2+x,1/2-y,z
loop_
_atom_site_type_symbol
_atom_site_label
_atom_site_fract_x
_atom_site_fract_y
_atom_site_fract_z
Si Si1 0.726034 0.188825 0.288349
Si Si2 0.230802 0.802644 0.038941
Si Si3 0.864425 0.687649 0.317092
Si Si4 0.280437 0.194156 0.471909
Si Si5 0.497867 0.696324 0.141322
Si Si6 0.600526 0.693426 0.759535
Si Si7 0.587691 0.309254 0.507087
Si Si8 0.051946 0.197829 0.280718
O O1 0.775205 0.207018 0.274512
O O2 0.609983 0.259282 0.204808
O O3 0.818224 0.260799 0.390675
O O4 0.717124 0.000000 0.295046
O O5 0.111994 0.753598 0.963103
O O6 0.240678 0.000000 0.048940
O O7 0.250000 0.750000 0.000000
O O8 0.310631 0.723059 0.135055
O O9 0.837331 0.500000 0.304152
O O10 0.876334 0.722621 0.271644
O O11 0.975623 0.725977 0.424615
O O12 0.250000 0.250000 0.500000
O O13 0.371786 0.288507 0.515004
O O14 0.172777 0.232555 0.364494
O O15 0.300396 0.000000 0.485523
O O16 0.495322 0.500000 0.141627
O O17 0.495364 0.759254 0.192461
O O18 0.589892 0.500000 0.742353
O O19 0.497280 0.758364 0.708526
O O20 0.573580 0.500000 0.507632
O O21 0.042004 0.000000 0.275297
#
# Coordination Sequence:
#
# PCOD9203487 Si02
#       8
#     8   8   8   8   8   8   8   8
#     4  11  24  42  65  93 124 162 208 260 311 363
#     4  11  22  38  63  95 129 166 209 255 310 373
#     4  12  26  43  64  91 122 164 212 257 307 371
#     4  11  21  34  54  82 121 164 208 252 306 371
#     4  10  20  39  63  90 123 160 203 251 304 363
#     4  11  22  41  65  92 128 166 204 258 318 373
#     4  11  23  40  61  89 124 161 207 260 311 365
#     4   9  18  34  57  84 118 160 198 242 306 364
#
# _framework density 21.091649
#
# number of rings (size 3 to 8) (size 9 to 14) (size 15 to 20)
#    0.000    1.250    2.500    4.125    0.000    5.000 
#    0.000    2.500    0.000    3.750    0.000    0.000 
#    0.000    0.000    0.000    0.000    0.000    0.000 
#
# Total GULP energy -178767.504069 kJ/mol
# GULP energy per Si atom -5586.484502 kJ/mol
# Density = 2.104364 g / cm^3
# Si number density = 21.091649 Si / 1000 Ang^3
#
#
#
# Elastic Constant Matrix: (Units=GPa)
#
#
# Indices 1 2 3 4 5 6 
#
# 1 106.2626 -13.2198 23.6856 0.0000 19.0050 0.0000
# 2 -13.2198 33.6285 1.7455 0.0000 0.6760 -0.0003
# 3 23.6856 1.7455 70.9820 0.0000 15.0573 0.0000
# 4 0.0000 0.0000 0.0000 27.0684 0.0000 -1.3302
# 5 19.0050 0.6760 15.0573 0.0000 31.3506 0.0000
# 6 0.0000 -0.0003 0.0000 -1.3302 0.0000 21.4675
#
#
#
# Elastic Compliance Matrix: (Units=1/GPa)
#
#
# Indices 1 2 3 4 5 6 
#
# 1 0.011680 0.004853 -0.002775 0.000000 -0.005852 0.000000
# 2 0.004853 0.031794 -0.001817 0.000000 -0.002755 0.000000
# 3 -0.002775 -0.001817 0.016360 0.000000 -0.006136 0.000000
# 4 0.000000 0.000000 0.000000 0.037056 0.000000 0.002296
# 5 -0.005852 -0.002755 -0.006136 0.000000 0.038451 0.000000
# 6 0.000000 0.000000 0.000000 0.002296 0.000000 0.046724
#
#
# Mechanical properties :
#
#
# Convention : Reuss Voigt Hill
#
# Bulk Modulus (GPa) = 16.56833 26.14397 21.35615
# Shear Modulus (GPa) = 24.79385 29.22143 27.00764
#
# Velocity S-wave (km/s) = 3.43232 3.72620 3.58228
# Velocity P-wave (km/s) = 4.85594 5.56193 5.22089
#
# Compressibility (1/GPa) = 0.06035613
#
# Stress axis : x y z
#
# Youngs Moduli (GPa) = 85.61918 31.45232 61.12291
#
# Poissons Ratio (x) = -0.15264 0.16963
# Poissons Ratio (y) = -0.41552 0.11105
# Poissons Ratio (z) = 0.23762 0.05714
#
# Static dielectric constant tensor:
#      x y z
#    x 1.768140 0.000000 -0.013360 
#    y 0.000000 1.729830 0.000000 
#    z -0.013360 0.000000 1.800910 
# 
# From -- ./inp_files/382435.got.cif
#   From: 2010.05.17/outbox.cif.g08.bks.cpg/sg12_192_cif.got.tgz:382435.got - 2010.06.03 13:09:07.
