data_PCOD9203650
_publ_section_title
;
Structure prediction by ZEFSAII (Michael W. Deem and Ramdas Pophale) SiO2 
 PCOD9203650
Probable space group: C 2/M
;
_chemical_formula_sum "Si O2"
_cell_formula_units_Z 40
_cell_length_a 24.546486
_cell_length_b 13.051387
_cell_length_c 11.591517
_cell_angle_alpha 90.000000
_cell_angle_beta 29.635034
_cell_angle_gamma 90.000000
_cell_volume 1836.239125
_symmetry_space_group_name_H-M "C 2/M"
_symmetry_group_IT_number 12
_symmetry_cell_setting 'monoclinic'
loop_
_space_group_symop_operation_xyz
x,y,z
-x,y,-z
-x,-y,-z
x,-y,z
1/2+x,1/2+y,z
1/2-x,1/2+y,-z
1/2-x,1/2-y,-z
1/2+x,1/2-y,z
loop_
_atom_site_type_symbol
_atom_site_label
_atom_site_fract_x
_atom_site_fract_y
_atom_site_fract_z
Si Si1 0.247786 0.806107 0.625925
Si Si2 0.823168 0.890515 0.614251
Si Si3 0.627101 0.695023 0.235447
Si Si4 0.018452 0.613162 0.828293
Si Si5 0.445780 0.332165 0.881394
O O1 0.250000 0.750000 0.500000
O O2 0.261697 0.712879 0.691316
O O3 0.352095 0.879029 0.435924
O O4 0.135443 0.860546 0.866338
O O5 0.854843 0.879732 0.689881
O O6 0.936156 0.884217 0.334487
O O7 0.768905 0.000000 0.691173
O O8 0.500000 0.742188 0.500000
O O9 0.608068 0.648787 0.143999
O O10 0.750000 0.750000 0.000000
O O11 0.978768 0.500000 0.869432
O O12 0.968960 0.710012 0.852998
O O13 0.000000 0.627387 0.000000
#
# Coordination Sequence:
#
# PCOD9203650 Si02
#       5
#     8   8   8   8   8
#     4  11  21  37  61  89 125 163 204 259 319 373
#     4  10  23  40  64  91 121 164 216 261 317 385
#     4  10  20  39  65  90 125 165 209 262 322 375
#     4  10  21  37  57  85 120 162 205 251 308 377
#     4  10  21  38  62  85 125 160 207 259 317 374
#
# _framework density 21.783656000000001
#
# number of rings (size 3 to 8) (size 9 to 14) (size 15 to 20)
#    0.000    1.800    4.000    0.000    0.000    6.000 
#    0.000    1.000    0.000   15.600    0.000    0.000 
#    0.000    0.000    0.000    0.000    0.000    0.000 
#
# Total GULP energy -111384.874293 kJ/mol
# GULP energy per Si atom -5569.243715 kJ/mol
# Density = 2.173408 g / cm^3
# Si number density = 21.783656 Si / 1000 Ang^3
#
#
#
# Elastic Constant Matrix: (Units=GPa)
#
#
# Indices 1 2 3 4 5 6 
#
# 1 49.7678 13.2277 5.8735 0.0000 7.1895 0.0000
# 2 13.2277 104.6079 12.4665 0.0000 -1.3568 0.0000
# 3 5.8735 12.4665 182.9959 0.0000 -21.3568 0.0000
# 4 0.0000 0.0000 0.0000 -23.5171 0.0000 25.4300
# 5 7.1895 -1.3568 -21.3568 0.0000 46.8130 0.0000
# 6 0.0000 0.0000 0.0000 25.4300 0.0000 -26.1730
#
#
#
# Elastic Compliance Matrix: (Units=1/GPa)
#
#
# Indices 1 2 3 4 5 6 
#
# 1 0.021460 -0.002649 -0.000953 0.000000 -0.003807 0.000000
# 2 -0.002649 0.009965 -0.000541 0.000000 0.000449 0.000000
# 3 -0.000953 -0.000541 0.005859 0.000000 0.002804 0.000000
# 4 0.000000 0.000000 0.000000 0.839580 0.000000 0.815747
# 5 -0.003807 0.000449 0.002804 0.000000 0.023238 0.000000
# 6 0.000000 0.000000 0.000000 0.815747 0.000000 0.754383
#
#
# Mechanical properties :
#
#
# Convention : Reuss Voigt Hill
#
# Bulk Modulus (GPa) = 34.48631 44.50077 39.49354
# Shear Modulus (GPa) = 2.98965 19.81151 11.40058
#
# Velocity S-wave (km/s) = 1.17278 3.01901 2.29018
# Velocity P-wave (km/s) = 4.20708 5.71187 5.01622
#
# Compressibility (1/GPa) = 0.02899701
#
# Stress axis : x y z
#
# Youngs Moduli (GPa) = 46.59855 100.35246 170.66955
#
# Poissons Ratio (x) = 0.26588 0.16258
# Poissons Ratio (y) = 0.12346 0.09241
# Poissons Ratio (z) = 0.04439 0.05434
#
# Static dielectric constant tensor:
#      x y z
#    x 1.802490 0.000000 -0.044120 
#    y 0.000000 1.818500 0.000000 
#    z -0.044120 0.000000 1.865680 
# 
# From -- ./inp_files/129234.got.cif
#   From: 2010.05.17/outbox.cif.g08.bks.cpg/sg12_65_cif.got.tgz:129234.got - 2010.06.03 13:09:07.
