data_PCOD9203733
_publ_section_title
;
Structure prediction by ZEFSAII (Michael W. Deem and Ramdas Pophale) SiO2 
 PCOD9203733
Probable space group: C 2/M
;
_chemical_formula_sum "Si O2"
_cell_formula_units_Z 48
_cell_length_a 10.963223
_cell_length_b 26.620159
_cell_length_c 14.506330
_cell_angle_alpha 90.000000
_cell_angle_beta 146.460546
_cell_angle_gamma 90.000000
_cell_volume 2339.092681
_symmetry_space_group_name_H-M "C 2/M"
_symmetry_group_IT_number 12
_symmetry_cell_setting 'monoclinic'
loop_
_space_group_symop_operation_xyz
x,y,z
-x,y,-z
-x,-y,-z
x,-y,z
1/2+x,1/2+y,z
1/2-x,1/2+y,-z
1/2-x,1/2-y,-z
1/2+x,1/2-y,z
loop_
_atom_site_type_symbol
_atom_site_label
_atom_site_fract_x
_atom_site_fract_y
_atom_site_fract_z
Si Si1 0.933593 0.204699 0.853572
Si Si2 0.208924 0.500000 0.565473
Si Si3 0.201288 0.891669 0.955630
Si Si4 0.671219 0.603521 0.426057
Si Si5 0.441876 0.187888 0.855368
Si Si6 0.897797 0.000000 0.037793
Si Si7 0.000000 0.847538 0.500000
Si Si8 0.000000 0.332636 0.500000
O O1 0.006074 0.257669 0.852651
O O2 0.674558 0.198306 0.670320
O O3 0.000000 0.211471 0.000000
O O4 0.043614 0.151459 0.898824
O O5 0.224479 0.548724 0.513078
O O6 0.000000 0.500000 0.500000
O O7 0.409812 0.500000 0.764484
O O8 0.430215 0.861662 0.097590
O O9 0.216955 0.945658 0.016005
O O10 0.070505 0.899404 0.776333
O O11 0.630208 0.622419 0.502772
O O12 0.842323 0.636368 0.471624
O O13 0.184289 0.182802 0.672106
O O14 0.500000 0.188349 0.000000
O O15 0.000000 0.000000 0.000000
#
# Coordination Sequence:
#
# PCOD9203733 Si02
#       8
#     8   4   8   8   8   4   4   4
#     4  10  22  38  65  96 126 174 218 267 327 389
#     4  10  20  39  66  94 132 168 217 273 327 378
#     4  10  21  42  62  94 133 168 219 272 327 387
#     4  10  22  40  65  94 131 177 213 273 326 389
#     4  11  23  43  63  91 134 174 215 272 324 389
#     4  10  22  38  67  98 126 168 217 270 330 387
#     4  12  25  41  66  94 130 177 222 260 333 394
#     4  10  21  41  62  96 134 163 218 274 325 380
#
# _framework density 20.520776000000001
#
# number of rings (size 3 to 8) (size 9 to 14) (size 15 to 20)
#    0.000    1.667    2.500    1.500    2.333    1.667 
#    0.000    3.750    0.000    0.000    0.000    0.000 
#    0.000    0.000    0.000    0.000    0.000    0.000 
#
# Total GULP energy -133633.252662 kJ/mol
# GULP energy per Si atom -5568.052194 kJ/mol
# Density = 2.047407 g / cm^3
# Si number density = 20.520776 Si / 1000 Ang^3
#
#
#
# Elastic Constant Matrix: (Units=GPa)
#
#
# Indices 1 2 3 4 5 6 
#
# 1 79.9745 51.4010 31.0010 0.0000 -4.5340 0.0000
# 2 51.4010 183.0942 43.2132 0.0000 6.6530 0.0000
# 3 31.0010 43.2132 125.6250 0.0000 11.6022 -0.0001
# 4 0.0000 0.0000 0.0000 8.8666 0.0000 19.6664
# 5 -4.5340 6.6530 11.6022 0.0000 34.2001 0.0000
# 6 0.0000 0.0000 -0.0001 19.6664 0.0000 12.1276
#
#
#
# Elastic Compliance Matrix: (Units=1/GPa)
#
#
# Indices 1 2 3 4 5 6 
#
# 1 0.016528 -0.004066 -0.003051 0.000000 0.004017 0.000000
# 2 -0.004066 0.006952 -0.001253 0.000000 -0.001466 0.000000
# 3 -0.003051 -0.001253 0.009455 0.000000 -0.003368 0.000000
# 4 0.000000 0.000000 0.000000 -0.043431 0.000000 0.070429
# 5 0.004017 -0.001466 -0.003368 0.000000 0.031200 0.000000
# 6 0.000000 0.000000 0.000000 0.070429 0.000000 -0.031753
#
#
# Mechanical properties :
#
#
# Convention : Reuss Voigt Hill
#
# Bulk Modulus (GPa) = 61.74426 71.10270 66.42348
# Shear Modulus (GPa) = 450.92574 28.57742 239.75158
#
# Velocity S-wave (km/s) = 14.83975 3.73582 10.82068
# Velocity P-wave (km/s) = 17.99384 7.30293 13.73155
#
# Compressibility (1/GPa) = 0.01619584
#
# Stress axis : x y z
#
# Youngs Moduli (GPa) = 60.50512 143.84359 105.76320
#
# Poissons Ratio (x) = 0.58483 0.32268
# Poissons Ratio (y) = 0.24600 0.13248
# Poissons Ratio (z) = 0.18460 0.18018
#
# Static dielectric constant tensor:
#      x y z
#    x 1.749890 0.000000 0.015480 
#    y 0.000000 1.797240 0.000000 
#    z 0.015480 0.000000 1.765280 
# 
# From -- ./inp_files/209504.got.cif
#   From: 2010.05.17/outbox.cif.g08.bks.cpg/sg12_105_cif.got.tgz:209504.got - 2010.06.03 13:09:07.
