data_PCOD9203934
_publ_section_title
;
Structure prediction by ZEFSAII (Michael W. Deem and Ramdas Pophale) SiO2 
 PCOD9203934
Probable space group: C 2/M
;
_chemical_formula_sum "Si O2"
_cell_formula_units_Z 48
_cell_length_a 13.550827
_cell_length_b 23.136106
_cell_length_c 10.556286
_cell_angle_alpha 90.000000
_cell_angle_beta 134.776018
_cell_angle_gamma 90.000000
_cell_volume 2349.326356
_symmetry_space_group_name_H-M "C 2/M"
_symmetry_group_IT_number 12
_symmetry_cell_setting 'monoclinic'
loop_
_space_group_symop_operation_xyz
x,y,z
-x,y,-z
-x,-y,-z
x,-y,z
1/2+x,1/2+y,z
1/2-x,1/2+y,-z
1/2-x,1/2-y,-z
1/2+x,1/2-y,z
loop_
_atom_site_type_symbol
_atom_site_label
_atom_site_fract_x
_atom_site_fract_y
_atom_site_fract_z
Si Si1 0.593140 0.500000 0.216646
Si Si2 0.353229 0.797146 0.923216
Si Si3 0.246367 0.813810 0.556320
Si Si4 0.977974 0.624363 0.261958
Si Si5 0.964846 0.871954 0.779277
Si Si6 0.428299 0.000000 0.571562
Si Si7 0.221655 0.169550 0.149505
O O1 0.550122 0.440177 0.240782
O O2 0.762804 0.500000 0.384375
O O3 0.500000 0.500000 0.000000
O O4 0.278587 0.822024 0.732842
O O5 0.270434 0.737731 0.874141
O O6 0.500000 0.773813 0.000000
O O7 0.398995 0.843988 0.070273
O O8 0.250000 0.750000 0.500000
O O9 0.372721 0.845446 0.599290
O O10 0.096537 0.840230 0.395875
O O11 0.871258 0.639970 0.277774
O O12 0.017159 0.556734 0.303406
O O13 0.863823 0.847562 0.801104
O O14 0.121286 0.856199 0.951356
O O15 0.500000 0.000000 0.500000
#
# Coordination Sequence:
#
# PCOD9203934 Si02
#       7
#     4   8   8   8   8   4   8
#     4  12  22  38  59  87 122 162 207 245 318 382
#     4  10  20  40  61  89 128 168 207 260 316 380
#     4  11  21  39  62  88 125 163 212 262 309 380
#     4  11  25  39  62  94 129 165 211 263 326 374
#     4  11  21  36  59  88 120 165 204 257 313 376
#     4  12  26  42  62  98 127 158 218 273 316 382
#     4  11  20  38  62  91 125 161 208 256 326 377
#
# _framework density 20.431388999999999
#
# number of rings (size 3 to 8) (size 9 to 14) (size 15 to 20)
#    0.000    1.000    6.667    2.500    0.000    0.000 
#    0.000    7.083    0.000    0.000    0.000    2.333 
#    0.000    0.000    0.000    0.000    0.000    0.000 
#
# Total GULP energy -133740.786318 kJ/mol
# GULP energy per Si atom -5572.532763 kJ/mol
# Density = 2.038489 g / cm^3
# Si number density = 20.431389 Si / 1000 Ang^3
#
#
#
# Elastic Constant Matrix: (Units=GPa)
#
#
# Indices 1 2 3 4 5 6 
#
# 1 43.6547 17.3538 4.3821 0.0000 15.7635 0.0000
# 2 17.3538 162.1330 41.3618 0.0000 7.0551 0.0000
# 3 4.3821 41.3618 107.2369 0.0000 8.9276 0.0000
# 4 0.0000 0.0000 0.0000 54.7938 0.0000 40.0136
# 5 15.7635 7.0551 8.9276 0.0000 26.3513 0.0000
# 6 0.0000 0.0000 0.0000 40.0136 0.0000 56.3039
#
#
#
# Elastic Compliance Matrix: (Units=1/GPa)
#
#
# Indices 1 2 3 4 5 6 
#
# 1 0.030334 -0.002809 0.001330 0.000000 -0.017844 0.000000
# 2 -0.002809 0.007125 -0.002690 0.000000 0.000684 0.000000
# 3 0.001330 -0.002690 0.010614 0.000000 -0.003671 0.000000
# 4 0.000000 0.000000 0.000000 0.037940 0.000000 -0.026963
# 5 -0.017844 0.000684 -0.003671 0.000000 0.049684 0.000000
# 6 0.000000 0.000000 0.000000 -0.026963 0.000000 0.036923
#
#
# Mechanical properties :
#
#
# Convention : Reuss Voigt Hill
#
# Bulk Modulus (GPa) = 25.16828 48.80222 36.98525
# Shear Modulus (GPa) = 25.74610 44.15160 34.94885
#
# Velocity S-wave (km/s) = 3.55367 4.65367 4.14036
# Velocity P-wave (km/s) = 5.40216 7.26727 6.40299
#
# Compressibility (1/GPa) = 0.03973256
#
# Stress axis : x y z
#
# Youngs Moduli (GPa) = 32.96649 140.35020 94.21419
#
# Poissons Ratio (x) = 0.39431 -0.12527
# Poissons Ratio (y) = 0.09262 0.25347
# Poissons Ratio (z) = -0.04383 0.37759
#
# Static dielectric constant tensor:
#      x y z
#    x 1.741390 0.000000 -0.037190 
#    y 0.000000 1.726830 0.000000 
#    z -0.037190 0.000000 1.780710 
# 
# From -- ./inp_files/148069.got.cif
#   From: 2010.05.17/outbox.cif.g08.bks.cpg/sg12_75_cif.got.tgz:148069.got - 2010.06.03 13:09:07.
