data_PCOD9203334
_publ_section_title
;
Structure prediction by ZEFSAII (Michael W. Deem and Ramdas Pophale) SiO2 
 PCOD9203334
Probable space group: C 2/M
;
_chemical_formula_sum "Si O2"
_cell_formula_units_Z 64
_cell_length_a 17.995091
_cell_length_b 13.822867
_cell_length_c 15.807394
_cell_angle_alpha 90.000000
_cell_angle_beta 57.157048
_cell_angle_gamma 90.000000
_cell_volume 3303.502176
_symmetry_space_group_name_H-M "C 2/M"
_symmetry_group_IT_number 12
_symmetry_cell_setting 'monoclinic'
loop_
_space_group_symop_operation_xyz
x,y,z
-x,y,-z
-x,-y,-z
x,-y,z
1/2+x,1/2+y,z
1/2-x,1/2+y,-z
1/2-x,1/2-y,-z
1/2+x,1/2-y,z
loop_
_atom_site_type_symbol
_atom_site_label
_atom_site_fract_x
_atom_site_fract_y
_atom_site_fract_z
Si Si1 0.386180 0.197376 0.674077
Si Si2 0.829373 0.609679 0.047320
Si Si3 0.941135 0.612140 0.366550
Si Si4 0.226494 0.386979 0.109565
Si Si5 0.403560 0.297266 0.070784
Si Si6 0.773973 0.610486 0.589372
Si Si7 0.704470 0.610418 0.288108
Si Si8 0.352619 0.229099 0.287759
O O1 0.485047 0.158296 0.618617
O O2 0.341205 0.173986 0.792003
O O3 0.327610 0.140817 0.640920
O O4 0.373384 0.310836 0.663675
O O5 0.865307 0.500000 0.026057
O O6 0.898683 0.692437 0.028145
O O7 0.753910 0.614507 0.166424
O O8 0.788835 0.629084 0.980268
O O9 0.963471 0.500000 0.335956
O O10 0.845905 0.615842 0.470637
O O11 0.930348 0.675423 0.289075
O O12 0.210874 0.500000 0.136571
O O13 0.324327 0.357941 0.078791
O O14 0.382906 0.278041 0.181754
O O15 0.500000 0.340933 0.000000
O O16 0.742744 0.500000 0.616070
O O17 0.695444 0.687320 0.628719
O O18 0.679487 0.500000 0.320750
O O19 0.778381 0.649867 0.307797
#
# Coordination Sequence:
#
# PCOD9203334 Si02
#       8
#     8   8   8   8   8   8   8   8
#     4  11  21  35  59  84 111 146 183 236 284 333
#     4   9  19  35  56  79 107 146 189 233 275 328
#     4  11  23  36  58  89 114 142 189 242 283 332
#     4  11  21  36  56  78 107 150 193 229 277 332
#     4  11  23  36  55  81 116 149 186 231 281 331
#     4  10  20  39  62  83 112 149 189 233 287 337
#     4   9  18  36  58  79 110 153 188 221 278 337
#     4  10  21  38  57  83 114 154 183 231 281 341
#
# _framework density 19.373379
#
# number of rings (size 3 to 8) (size 9 to 14) (size 15 to 20)
#    0.000    1.750    3.750    2.625    1.750    2.000 
#    0.000    0.625    0.000    6.750    0.000    0.000 
#    0.000    0.000    0.000    0.000    0.000    0.000 
#
# Total GULP energy -178700.803826 kJ/mol
# GULP energy per Si atom -5584.400120 kJ/mol
# Density = 1.932928 g / cm^3
# Si number density = 19.373379 Si / 1000 Ang^3
#
#
#
# Elastic Constant Matrix: (Units=GPa)
#
#
# Indices 1 2 3 4 5 6 
#
# 1 48.7093 13.2749 1.2181 0.0000 -3.1441 0.0000
# 2 13.2749 100.9696 2.3521 0.0000 -5.2768 0.0000
# 3 1.2181 2.3521 21.4803 0.0000 0.5792 0.0000
# 4 0.0000 0.0000 0.0000 21.7315 0.0000 4.6275
# 5 -3.1441 -5.2768 0.5792 0.0000 24.1019 0.0000
# 6 0.0000 0.0000 0.0000 4.6275 0.0000 8.7035
#
#
#
# Elastic Compliance Matrix: (Units=1/GPa)
#
#
# Indices 1 2 3 4 5 6 
#
# 1 0.021428 -0.002678 -0.000982 0.000000 0.002233 0.000000
# 2 -0.002678 0.010382 -0.001038 0.000000 0.001949 0.000000
# 3 -0.000982 -0.001038 0.046764 0.000000 -0.001479 0.000000
# 4 0.000000 0.000000 0.000000 0.051891 0.000000 -0.027590
# 5 0.002233 0.001949 -0.001479 0.000000 0.042244 0.000000
# 6 0.000000 0.000000 0.000000 -0.027590 0.000000 0.129566
#
#
# Mechanical properties :
#
#
# Convention : Reuss Voigt Hill
#
# Bulk Modulus (GPa) = 14.45521 22.76104 18.60812
# Shear Modulus (GPa) = 14.93745 21.19499 18.06622
#
# Velocity S-wave (km/s) = 2.77975 3.31120 3.05705
# Velocity P-wave (km/s) = 4.21667 5.13739 4.69963
#
# Compressibility (1/GPa) = 0.06917921
#
# Stress axis : x y z
#
# Youngs Moduli (GPa) = 46.66707 96.32032 21.38418
#
# Poissons Ratio (x) = 0.25792 0.02100
# Poissons Ratio (y) = 0.12496 0.02219
# Poissons Ratio (z) = 0.04583 0.09994
#
# Static dielectric constant tensor:
#      x y z
#    x 1.650680 0.000000 0.003490 
#    y 0.000000 1.682220 0.000000 
#    z 0.003490 0.000000 1.694390 
# 
# From -- ./inp_files/225266.got.cif
#   From: 2010.05.17/outbox.cif.g08.bks.cpg/sg12_113_cif.got.tgz:225266.got - 2010.06.03 13:09:07.
