data_PCOD9203520
_publ_section_title
;
Structure prediction by ZEFSAII (Michael W. Deem and Ramdas Pophale) SiO2 
 PCOD9203520
Probable space group: C 2/M
;
_chemical_formula_sum "Si O2"
_cell_formula_units_Z 56
_cell_length_a 27.617470
_cell_length_b 13.746536
_cell_length_c 12.092859
_cell_angle_alpha 90.000000
_cell_angle_beta 147.783865
_cell_angle_gamma 90.000000
_cell_volume 2447.522482
_symmetry_space_group_name_H-M "C 2/M"
_symmetry_group_IT_number 12
_symmetry_cell_setting 'monoclinic'
loop_
_space_group_symop_operation_xyz
x,y,z
-x,y,-z
-x,-y,-z
x,-y,z
1/2+x,1/2+y,z
1/2-x,1/2+y,-z
1/2-x,1/2-y,-z
1/2+x,1/2-y,z
loop_
_atom_site_type_symbol
_atom_site_label
_atom_site_fract_x
_atom_site_fract_y
_atom_site_fract_z
Si Si1 0.153445 0.717193 0.364360
Si Si2 0.416202 0.291675 0.133746
Si Si3 0.284548 0.883929 0.294176
Si Si4 0.084410 0.886033 0.369893
Si Si5 0.653478 0.805348 0.808272
Si Si6 0.753375 0.897938 0.189015
Si Si7 0.407865 0.889940 0.965374
O O1 0.250000 0.750000 0.500000
O O2 0.172757 0.651367 0.508842
O O3 0.100961 0.815397 0.298371
O O4 0.099945 0.653446 0.171568
O O5 0.485544 0.373188 0.229870
O O6 0.417152 0.264250 0.265639
O O7 0.312492 0.326316 0.907075
O O8 0.443849 0.196188 0.114691
O O9 0.349381 0.855732 0.315233
O O10 0.268923 0.000000 0.262434
O O11 0.155488 0.843357 0.600126
O O12 0.102297 0.000000 0.379450
O O13 0.750000 0.750000 0.000000
O O14 0.676486 0.880674 0.950199
O O15 0.696269 0.899075 0.191442
O O16 0.793550 0.000000 0.230401
O O17 0.446548 0.000000 0.047190
#
# Coordination Sequence:
#
# PCOD9203520 Si02
#       7
#     8   8   8   8   8   8   8
#     4  12  22  41  61  89 126 165 217 261 304 373
#     4  10  21  40  61  95 130 158 205 263 319 379
#     4  11  22  39  65  95 125 166 213 261 313 368
#     4  11  23  39  63  95 129 164 203 256 327 380
#     4   9  18  35  60  86 121 160 203 249 299 366
#     4   9  17  33  59  86 112 153 204 243 291 365
#     4  10  20  39  64  85 116 167 216 256 302 367
#
# _framework density 22.880281
#
# number of rings (size 3 to 8) (size 9 to 14) (size 15 to 20)
#    0.000    1.714    2.857    3.000    0.000    1.714 
#    0.000    9.286    0.000   13.714    0.000    0.000 
#    0.000    0.000    0.000    0.000    0.000    0.000 
#
# Total GULP energy -155964.713190 kJ/mol
# GULP energy per Si atom -5570.168328 kJ/mol
# Density = 2.282820 g / cm^3
# Si number density = 22.880281 Si / 1000 Ang^3
#
#
#
# Elastic Constant Matrix: (Units=GPa)
#
#
# Indices 1 2 3 4 5 6 
#
# 1 130.7974 42.5602 43.7559 0.0000 -20.2152 0.0000
# 2 42.5602 140.3575 10.9014 0.0000 -12.5212 0.0000
# 3 43.7559 10.9014 46.2786 0.0000 -12.4115 0.0000
# 4 0.0000 0.0000 0.0000 17.0690 0.0000 9.4422
# 5 -20.2152 -12.5212 -12.4115 0.0000 37.1097 0.0000
# 6 0.0000 0.0000 0.0000 9.4422 0.0000 21.2332
#
#
#
# Elastic Compliance Matrix: (Units=1/GPa)
#
#
# Indices 1 2 3 4 5 6 
#
# 1 0.012391 -0.002738 -0.010445 0.000000 0.002333 0.000000
# 2 -0.002738 0.008009 0.001128 0.000000 0.001588 0.000000
# 3 -0.010445 0.001128 0.032730 0.000000 0.005638 0.000000
# 4 0.000000 0.000000 0.000000 0.077699 0.000000 -0.034552
# 5 0.002333 0.001588 0.005638 0.000000 0.030639 0.000000
# 6 0.000000 0.000000 0.000000 -0.034552 0.000000 0.062461
#
#
# Mechanical properties :
#
#
# Convention : Reuss Voigt Hill
#
# Bulk Modulus (GPa) = 34.45873 56.87428 45.66651
# Shear Modulus (GPa) = 19.40145 29.76344 24.58244
#
# Velocity S-wave (km/s) = 2.91513 3.61062 3.28135
# Velocity P-wave (km/s) = 5.14040 6.50334 5.86162
#
# Compressibility (1/GPa) = 0.02902022
#
# Stress axis : x y z
#
# Youngs Moduli (GPa) = 80.70355 124.86043 30.55289
#
# Poissons Ratio (x) = 0.34186 0.31913
# Poissons Ratio (y) = 0.22096 -0.03446
# Poissons Ratio (z) = 0.84295 -0.14084
#
# Static dielectric constant tensor:
#      x y z
#    x 1.807740 0.000000 0.068320 
#    y 0.000000 1.962110 0.000000 
#    z 0.068320 0.000000 1.811680 
# 
# From -- ./inp_files/183535.got.cif
#   From: 2010.05.17/outbox.cif.g08.bks.cpg/sg12_92_cif.got.tgz:183535.got - 2010.06.03 13:09:07.
