data_PCOD9203078
_publ_section_title
;
Structure prediction by ZEFSAII (Michael W. Deem and Ramdas Pophale) SiO2 
 PCOD9203078
Probable space group: C 2/M
;
_chemical_formula_sum "Si O2"
_cell_formula_units_Z 64
_cell_length_a 15.608688
_cell_length_b 15.745271
_cell_length_c 13.293965
_cell_angle_alpha 90.000000
_cell_angle_beta 124.549375
_cell_angle_gamma 90.000000
_cell_volume 2690.960539
_symmetry_space_group_name_H-M "C 2/M"
_symmetry_group_IT_number 12
_symmetry_cell_setting 'monoclinic'
loop_
_space_group_symop_operation_xyz
x,y,z
-x,y,-z
-x,-y,-z
x,-y,z
1/2+x,1/2+y,z
1/2-x,1/2+y,-z
1/2-x,1/2-y,-z
1/2+x,1/2-y,z
loop_
_atom_site_type_symbol
_atom_site_label
_atom_site_fract_x
_atom_site_fract_y
_atom_site_fract_z
Si Si1 0.228441 0.149372 0.981478
Si Si2 0.769193 0.400281 0.235267
Si Si3 0.132872 0.593788 0.501692
Si Si4 0.642263 0.651561 0.425238
Si Si5 0.766081 0.789856 0.307528
Si Si6 0.432512 0.190570 0.727370
Si Si7 0.571349 0.905906 0.950702
Si Si8 0.915355 0.903545 0.272828
O O1 0.259672 0.107217 0.108672
O O2 0.307942 0.109758 0.952681
O O3 0.250000 0.250000 0.000000
O O4 0.116158 0.122638 0.862995
O O5 0.730386 0.500000 0.230481
O O6 0.868014 0.397611 0.378209
O O7 0.734320 0.302129 0.241091
O O8 0.099816 0.500000 0.453365
O O9 0.255520 0.605097 0.550004
O O10 0.069629 0.652512 0.385011
O O11 0.681459 0.708040 0.545946
O O12 0.597225 0.713182 0.310131
O O13 0.538337 0.599856 0.380780
O O14 0.661086 0.842386 0.263284
O O15 0.851785 0.835561 0.296518
O O16 0.536864 0.166287 0.850578
O O17 0.554554 0.000000 0.896305
O O18 0.500000 0.898865 0.000000
O O19 0.881134 0.000000 0.268679
#
# Coordination Sequence:
#
# PCOD9203078 Si02
#       8
#     8   8   8   8   8   8   8   8
#     4  12  25  46  70  93 131 180 218 275 334 396
#     4  11  22  41  67  97 131 175 223 271 329 399
#     4  10  20  38  66  94 130 173 216 272 335 389
#     4  11  22  41  62  97 134 167 221 269 327 390
#     4  11  22  42  68  95 134 173 218 270 336 396
#     4  11  21  39  64  96 128 171 218 268 330 395
#     4  11  25  43  65  96 129 165 221 283 329 388
#     4  12  26  43  67  97 131 174 223 274 331 391
#
# _framework density 23.783331
#
# number of rings (size 3 to 8) (size 9 to 14) (size 15 to 20)
#    0.000    0.875    3.750    4.500    0.000    4.500 
#    0.000    1.250    0.000    6.000    0.000    0.000 
#    0.000    0.000    0.000    0.000    0.000    0.000 
#
# Total GULP energy -178229.047588 kJ/mol
# GULP energy per Si atom -5569.657737 kJ/mol
# Density = 2.372920 g / cm^3
# Si number density = 23.783331 Si / 1000 Ang^3
#
#
#
# Elastic Constant Matrix: (Units=GPa)
#
#
# Indices 1 2 3 4 5 6 
#
# 1 85.5990 25.6091 34.3759 0.0000 -1.7577 0.0000
# 2 25.6091 94.8091 15.2484 0.0000 -12.2788 0.0000
# 3 34.3759 15.2484 85.4885 0.0000 -1.4343 0.0000
# 4 0.0000 0.0000 0.0000 29.1762 0.0000 1.5266
# 5 -1.7577 -12.2788 -1.4343 0.0000 33.7126 0.0000
# 6 0.0000 0.0000 0.0000 1.5266 0.0000 19.0257
#
#
#
# Elastic Compliance Matrix: (Units=1/GPa)
#
#
# Indices 1 2 3 4 5 6 
#
# 1 0.014793 -0.003211 -0.005386 0.000000 -0.000627 0.000000
# 2 -0.003211 0.012087 -0.000794 0.000000 0.004201 0.000000
# 3 -0.005386 -0.000794 0.014005 0.000000 0.000026 0.000000
# 4 0.000000 0.000000 0.000000 0.034419 0.000000 -0.002762
# 5 -0.000627 0.004201 0.000026 0.000000 0.031161 0.000000
# 6 0.000000 0.000000 0.000000 -0.002762 0.000000 0.052782
#
#
# Mechanical properties :
#
#
# Convention : Reuss Voigt Hill
#
# Bulk Modulus (GPa) = 45.24376 46.26260 45.75318
# Shear Modulus (GPa) = 26.96905 29.09378 28.03142
#
# Velocity S-wave (km/s) = 3.37107 3.50134 3.43682
# Velocity P-wave (km/s) = 5.84951 5.98663 5.91847
#
# Compressibility (1/GPa) = 0.02210250
#
# Stress axis : x y z
#
# Youngs Moduli (GPa) = 67.59860 82.73629 71.40054
#
# Poissons Ratio (x) = 0.26565 0.38459
# Poissons Ratio (y) = 0.21704 0.05671
# Poissons Ratio (z) = 0.36411 0.06572
#
# Static dielectric constant tensor:
#      x y z
#    x 1.996960 0.000000 -0.013510 
#    y 0.000000 1.954460 0.000000 
#    z -0.013510 0.000000 1.915520 
# 
# From -- ./inp_files/225770.got.cif
#   From: 2010.05.17/outbox.cif.g08.bks.cpg/sg12_113_cif.got.tgz:225770.got - 2010.06.03 13:09:07.
