data_PCOD9203339
_publ_section_title
;
Structure prediction by ZEFSAII (Michael W. Deem and Ramdas Pophale) SiO2 
 PCOD9203339
Probable space group: C 2/M
;
_chemical_formula_sum "Si O2"
_cell_formula_units_Z 48
_cell_length_a 20.297706
_cell_length_b 10.531602
_cell_length_c 23.730002
_cell_angle_alpha 90.000000
_cell_angle_beta 152.356056
_cell_angle_gamma 90.000000
_cell_volume 2353.608923
_symmetry_space_group_name_H-M "C 2/M"
_symmetry_group_IT_number 12
_symmetry_cell_setting 'monoclinic'
loop_
_space_group_symop_operation_xyz
x,y,z
-x,y,-z
-x,-y,-z
x,-y,z
1/2+x,1/2+y,z
1/2-x,1/2+y,-z
1/2-x,1/2-y,-z
1/2+x,1/2-y,z
loop_
_atom_site_type_symbol
_atom_site_label
_atom_site_fract_x
_atom_site_fract_y
_atom_site_fract_z
Si Si1 0.578403 0.355338 0.835757
Si Si2 0.398099 0.774298 0.797602
Si Si3 0.401699 0.353311 0.473143
Si Si4 0.865867 0.852190 0.569924
Si Si5 0.683683 0.146174 0.065620
Si Si6 0.333136 0.639333 0.858223
O O1 0.597227 0.500000 0.870407
O O2 0.489606 0.283431 0.815905
O O3 0.483138 0.354651 0.707145
O O4 0.729848 0.313013 0.925081
O O5 0.262871 0.845754 0.669647
O O6 0.331880 0.673367 0.791349
O O7 0.515913 0.848654 0.923816
O O8 0.500000 0.291562 0.500000
O O9 0.445617 0.500000 0.510490
O O10 0.420329 0.305314 0.550475
O O11 0.750000 0.750000 0.500000
O O12 0.814207 0.000000 0.524833
O O13 0.718921 0.244627 0.142153
O O14 0.722161 0.000000 0.108310
O O15 0.269383 0.500000 0.821525
O O16 0.500000 0.630816 0.000000
#
# Coordination Sequence:
#
# PCOD9203339 Si02
#       6
#     8   8   8   8   8   8
#     4  10  21  37  60  86 118 157 193 236 292 351
#     4  11  20  36  61  84 119 152 195 243 288 346
#     4  10  22  37  58  86 117 155 197 242 293 345
#     4  10  20  39  62  84 115 155 198 240 290 343
#     4  10  22  38  60  91 119 151 194 241 292 345
#     4   9  20  37  57  82 115 156 193 233 288 346
#
# _framework density 20.394210999999999
#
# number of rings (size 3 to 8) (size 9 to 14) (size 15 to 20)
#    0.000    2.000    1.667    1.500    2.333    4.333 
#    0.000    2.500    0.000    2.500    0.000    0.000 
#    0.000    0.000    0.000    0.000    0.000    0.000 
#
# Total GULP energy -133745.953232 kJ/mol
# GULP energy per Si atom -5572.748051 kJ/mol
# Density = 2.034779 g / cm^3
# Si number density = 20.394211 Si / 1000 Ang^3
#
#
#
# Elastic Constant Matrix: (Units=GPa)
#
#
# Indices 1 2 3 4 5 6 
#
# 1 159.4591 62.8436 15.1630 0.0003 0.4723 0.0001
# 2 62.8436 82.9712 3.3135 0.0013 3.1541 0.0004
# 3 15.1630 3.3135 45.2906 0.0016 3.8740 0.0005
# 4 0.0003 0.0013 0.0016 14.3483 0.0001 7.4853
# 5 0.4723 3.1541 3.8740 0.0001 33.8067 -0.0001
# 6 0.0001 0.0004 0.0005 7.4853 -0.0001 20.1483
#
#
#
# Elastic Compliance Matrix: (Units=1/GPa)
#
#
# Indices 1 2 3 4 5 6 
#
# 1 0.009255 -0.006935 -0.002661 0.000001 0.000823 0.000000
# 2 -0.006935 0.017320 0.001196 -0.000002 -0.001656 0.000000
# 3 -0.002661 0.001196 0.023116 -0.000003 -0.002723 0.000000
# 4 0.000001 -0.000002 -0.000003 0.086449 0.000000 -0.032117
# 5 0.000823 -0.001656 -0.002723 0.000000 0.030035 0.000000
# 6 0.000000 0.000000 0.000000 -0.032117 0.000000 0.061564
#
#
# Mechanical properties :
#
#
# Convention : Reuss Voigt Hill
#
# Bulk Modulus (GPa) = 30.40345 50.04011 40.22178
# Shear Modulus (GPa) = 19.56925 27.42070 23.49497
#
# Velocity S-wave (km/s) = 3.10102 3.67077 3.39786
# Velocity P-wave (km/s) = 5.26897 6.52347 5.92949
#
# Compressibility (1/GPa) = 0.03289101
#
# Stress axis : x y z
#
# Youngs Moduli (GPa) = 108.05119 57.73654 43.25985
#
# Poissons Ratio (x) = 0.40039 0.11514
# Poissons Ratio (y) = 0.74931 -0.05175
# Poissons Ratio (z) = 0.28758 -0.06907
#
# Static dielectric constant tensor:
#      x y z
#    x 2.021690 0.000000 -0.060890 
#    y 0.000000 1.737410 0.000000 
#    z -0.060890 0.000000 1.749090 
# 
# From -- ./inp_files/343447.got.cif
#   From: 2010.05.17/outbox.cif.g08.bks.cpg/sg12_172_cif.got.tgz:343447.got - 2010.06.03 13:09:07.
