data_PCOD9203373
_publ_section_title
;
Structure prediction by ZEFSAII (Michael W. Deem and Ramdas Pophale) SiO2 
 PCOD9203373
Probable space group: C 2/M
;
_chemical_formula_sum "Si O2"
_cell_formula_units_Z 56
_cell_length_a 26.206729
_cell_length_b 7.693077
_cell_length_c 14.952982
_cell_angle_alpha 90.000000
_cell_angle_beta 59.163346
_cell_angle_gamma 90.000000
_cell_volume 2588.498119
_symmetry_space_group_name_H-M "C 2/M"
_symmetry_group_IT_number 12
_symmetry_cell_setting 'monoclinic'
loop_
_space_group_symop_operation_xyz
x,y,z
-x,y,-z
-x,-y,-z
x,-y,z
1/2+x,1/2+y,z
1/2-x,1/2+y,-z
1/2-x,1/2-y,-z
1/2+x,1/2-y,z
loop_
_atom_site_type_symbol
_atom_site_label
_atom_site_fract_x
_atom_site_fract_y
_atom_site_fract_z
Si Si1 0.110773 0.294682 0.286689
Si Si2 0.327137 0.702522 0.182264
Si Si3 0.498648 0.710309 0.276957
Si Si4 0.768005 0.791925 0.584738
Si Si5 0.259677 0.209585 0.888036
Si Si6 0.900583 0.795591 0.504277
Si Si7 0.043382 0.212832 0.880612
O O1 0.115964 0.500000 0.294934
O O2 0.176415 0.224836 0.204564
O O3 0.086741 0.222095 0.402098
O O4 0.064183 0.260738 0.249906
O O5 0.338945 0.500000 0.151252
O O6 0.279737 0.713909 0.304634
O O7 0.293820 0.778256 0.125732
O O8 0.390121 0.775756 0.157138
O O9 0.497210 0.500000 0.277940
O O10 0.451309 0.775692 0.393499
O O11 0.479975 0.770728 0.195202
O O12 0.750000 0.750000 0.500000
O O13 0.834453 0.724678 0.545389
O O14 0.767226 0.000000 0.598333
O O15 0.260756 0.000000 0.877539
O O16 0.250000 0.250000 0.000000
O O17 0.897092 0.000000 0.486394
O O18 0.044234 0.000000 0.876283
O O19 0.000000 0.263077 0.000000
#
# Coordination Sequence:
#
# PCOD9203373 Si02
#       7
#     8   8   8   8   8   8   8
#     4  11  23  39  58  87 120 153 190 238 294 349
#     4  10  20  39  62  87 118 151 194 246 292 342
#     4  10  21  37  59  86 116 152 196 241 284 342
#     4  11  22  36  59  88 119 156 194 238 291 346
#     4  10  23  39  60  88 118 152 194 242 293 348
#     4  10  21  38  58  85 117 154 197 241 286 341
#     4   9  19  36  61  88 113 149 198 244 285 337
#
# _framework density 21.634169
#
# number of rings (size 3 to 8) (size 9 to 14) (size 15 to 20)
#    0.000    1.857    1.429    2.143    2.000    6.857 
#    0.000    2.143    0.000    0.857    0.000    0.000 
#    0.000    0.000    0.000    0.000    0.000    0.000 
#
# Total GULP energy -156496.269270 kJ/mol
# GULP energy per Si atom -5589.152474 kJ/mol
# Density = 2.158493 g / cm^3
# Si number density = 21.634169 Si / 1000 Ang^3
#
#
#
# Elastic Constant Matrix: (Units=GPa)
#
#
# Indices 1 2 3 4 5 6 
#
# 1 146.5513 -8.2016 25.0714 0.0000 15.5510 0.0000
# 2 -8.2016 34.4979 -13.5419 0.0000 -7.8387 -0.0001
# 3 25.0714 -13.5419 73.6143 0.0000 23.0187 0.0000
# 4 0.0000 0.0000 0.0000 17.3788 0.0000 -1.1038
# 5 15.5510 -7.8387 23.0187 0.0000 36.6064 0.0000
# 6 0.0000 -0.0001 0.0000 -1.1038 0.0000 19.5172
#
#
#
# Elastic Compliance Matrix: (Units=1/GPa)
#
#
# Indices 1 2 3 4 5 6 
#
# 1 0.007365 0.000617 -0.001815 0.000000 -0.001856 0.000000
# 2 0.000617 0.031732 0.004462 0.000000 0.003727 0.000000
# 3 -0.001815 0.004462 0.018028 0.000000 -0.009610 0.000000
# 4 0.000000 0.000000 0.000000 0.057749 0.000000 0.003266
# 5 -0.001856 0.003727 -0.009610 0.000000 0.034947 0.000000
# 6 0.000000 0.000000 0.000000 0.003266 0.000000 0.051422
#
#
# Mechanical properties :
#
#
# Convention : Reuss Voigt Hill
#
# Bulk Modulus (GPa) = 15.70992 29.03550 22.37271
# Shear Modulus (GPa) = 23.15532 31.45618 27.30575
#
# Velocity S-wave (km/s) = 3.27511 3.81728 3.55654
# Velocity P-wave (km/s) = 4.64534 5.73403 5.21816
#
# Compressibility (1/GPa) = 0.06365403
#
# Stress axis : x y z
#
# Youngs Moduli (GPa) = 135.76895 31.51362 55.46886
#
# Poissons Ratio (x) = -0.01945 0.10066
# Poissons Ratio (y) = -0.08378 -0.24749
# Poissons Ratio (z) = 0.24639 -0.14061
#
# Static dielectric constant tensor:
#      x y z
#    x 1.781150 0.000000 -0.012370 
#    y 0.000000 1.825290 0.000000 
#    z -0.012370 0.000000 1.739560 
# 
# From -- ./inp_files/238357.got.cif
#   From: 2010.05.17/outbox.cif.g08.bks.cpg/sg12_120_cif.got.tgz:238357.got - 2010.06.03 13:09:07.
