data_PCOD9203187
_publ_section_title
;
Structure prediction by ZEFSAII (Michael W. Deem and Ramdas Pophale) SiO2 
 PCOD9203187
Probable space group: C 2/M
;
_chemical_formula_sum "Si O2"
_cell_formula_units_Z 56
_cell_length_a 9.153335
_cell_length_b 31.025086
_cell_length_c 18.602192
_cell_angle_alpha 90.000000
_cell_angle_beta 150.530129
_cell_angle_gamma 90.000000
_cell_volume 2598.910958
_symmetry_space_group_name_H-M "C 2/M"
_symmetry_group_IT_number 12
_symmetry_cell_setting 'monoclinic'
loop_
_space_group_symop_operation_xyz
x,y,z
-x,y,-z
-x,-y,-z
x,-y,z
1/2+x,1/2+y,z
1/2-x,1/2+y,-z
1/2-x,1/2-y,-z
1/2+x,1/2-y,z
loop_
_atom_site_type_symbol
_atom_site_label
_atom_site_fract_x
_atom_site_fract_y
_atom_site_fract_z
Si Si1 0.681067 0.666665 0.789669
Si Si2 0.718841 0.890554 0.526024
Si Si3 0.313570 0.450595 0.345063
Si Si4 0.164714 0.155925 0.948045
Si Si5 0.153321 0.757907 0.193795
Si Si6 0.657979 0.203753 0.336808
Si Si7 0.609293 0.114358 0.768577
O O1 0.410126 0.652804 0.623308
O O2 0.583833 0.656054 0.828773
O O3 0.789865 0.715872 0.830203
O O4 0.991320 0.643466 0.904391
O O5 0.500000 0.898405 0.500000
O O6 0.537049 0.888524 0.373984
O O7 0.975541 0.926365 0.622073
O O8 0.500000 0.450099 0.500000
O O9 0.258696 0.500000 0.301379
O O10 0.014001 0.424849 0.237283
O O11 0.081301 0.205929 0.933221
O O12 0.954032 0.124095 0.901717
O O13 0.465757 0.782907 0.323146
O O14 0.110432 0.738438 0.253854
O O15 0.526835 0.158110 0.256672
O O16 0.000000 0.199895 0.500000
#
# Coordination Sequence:
#
# PCOD9203187 Si02
#       7
#     8   8   8   8   8   8   8
#     4  11  21  37  56  78 112 151 194 242 283 328
#     4  11  21  36  61  88 115 148 185 232 280 335
#     4   9  19  37  63  92 120 145 176 226 284 343
#     4  10  22  37  54  79 110 152 198 236 284 332
#     4  11  21  36  50  75 107 150 201 241 277 323
#     4  11  21  33  50  78 111 150 188 236 282 331
#     4  10  20  39  57  85 114 147 189 228 285 339
#
# _framework density 21.547485999999999
#
# number of rings (size 3 to 8) (size 9 to 14) (size 15 to 20)
#    0.000    1.571    2.857    3.857    0.000    2.000 
#    0.000    3.571    0.000    1.714    0.000    2.000 
#    0.000    0.000    0.000    0.000    0.000    0.000 
#
# Total GULP energy -156419.064985 kJ/mol
# GULP energy per Si atom -5586.395178 kJ/mol
# Density = 2.149844 g / cm^3
# Si number density = 21.547486 Si / 1000 Ang^3
#
#
#
# Elastic Constant Matrix: (Units=GPa)
#
#
# Indices 1 2 3 4 5 6 
#
# 1 139.3445 48.4175 36.9955 0.0000 26.6229 0.0000
# 2 48.4175 94.3228 13.8382 0.0000 30.0012 0.0000
# 3 36.9955 13.8382 47.7698 0.0000 32.4123 0.0000
# 4 0.0000 0.0000 0.0000 15.3690 0.0000 0.5452
# 5 26.6229 30.0012 32.4123 0.0000 42.4547 0.0000
# 6 0.0000 0.0000 0.0000 0.5452 0.0000 16.0745
#
#
#
# Elastic Compliance Matrix: (Units=1/GPa)
#
#
# Indices 1 2 3 4 5 6 
#
# 1 0.010897 -0.005666 -0.010121 0.000000 0.004898 0.000000
# 2 -0.005666 0.017324 0.010925 0.000000 -0.017030 0.000000
# 3 -0.010121 0.010925 0.055062 0.000000 -0.043411 0.000000
# 4 0.000000 0.000000 0.000000 0.065144 0.000000 -0.002210
# 5 0.004898 -0.017030 -0.043411 0.000000 0.065660 0.000000
# 6 0.000000 0.000000 0.000000 -0.002210 0.000000 0.062285
#
#
# Mechanical properties :
#
#
# Convention : Reuss Voigt Hill
#
# Bulk Modulus (GPa) = 13.59479 53.32660 33.46070
# Shear Modulus (GPa) = 16.09706 26.92538 21.51122
#
# Velocity S-wave (km/s) = 2.73619 3.53878 3.16304
# Velocity P-wave (km/s) = 4.03797 6.44200 5.37609
#
# Compressibility (1/GPa) = 0.07355758
#
# Stress axis : x y z
#
# Youngs Moduli (GPa) = 91.77191 57.72205 18.16147
#
# Poissons Ratio (x) = 0.32708 0.18381
# Poissons Ratio (y) = 0.52002 -0.19841
# Poissons Ratio (z) = 0.92879 -0.63059
#
# Static dielectric constant tensor:
#      x y z
#    x 1.841180 0.000000 0.004830 
#    y 0.000000 1.792540 0.000000 
#    z 0.004830 0.000000 1.827180 
# 
# From -- ./inp_files/303049.got.cif
#   From: 2010.05.17/outbox.cif.g08.bks.cpg/sg12_152_cif.got.tgz:303049.got - 2010.06.03 13:09:07.
