data_PCOD9203565
_publ_section_title
;
Structure prediction by ZEFSAII (Michael W. Deem and Ramdas Pophale) SiO2 
 PCOD9203565
Probable space group: C 2/M
;
_chemical_formula_sum "Si O2"
_cell_formula_units_Z 36
_cell_length_a 10.574655
_cell_length_b 25.097240
_cell_length_c 6.985266
_cell_angle_alpha 90.000000
_cell_angle_beta 71.634467
_cell_angle_gamma 90.000000
_cell_volume 1759.427631
_symmetry_space_group_name_H-M "C 2/M"
_symmetry_group_IT_number 12
_symmetry_cell_setting 'monoclinic'
loop_
_space_group_symop_operation_xyz
x,y,z
-x,y,-z
-x,-y,-z
x,-y,z
1/2+x,1/2+y,z
1/2-x,1/2+y,-z
1/2-x,1/2-y,-z
1/2+x,1/2-y,z
loop_
_atom_site_type_symbol
_atom_site_label
_atom_site_fract_x
_atom_site_fract_y
_atom_site_fract_z
Si Si1 0.898839 0.766866 0.883152
Si Si2 0.406433 0.383115 0.733412
Si Si3 0.404047 0.000000 0.229953
Si Si4 0.500000 0.801422 0.500000
Si Si5 0.095822 0.383476 0.766394
Si Si6 0.408478 0.500000 0.733890
O O1 0.924202 0.829786 0.846425
O O2 0.918357 0.738034 0.672023
O O3 0.750000 0.750000 0.000000
O O4 0.000000 0.747680 0.000000
O O5 0.500000 0.379503 0.500000
O O6 0.249853 0.382008 0.754477
O O7 0.433363 0.441642 0.812693
O O8 0.430049 0.942522 0.309087
O O9 0.248165 0.000000 0.245959
O O10 0.500000 0.000000 0.000000
O O11 0.573423 0.839436 0.616093
O O12 0.000000 0.377268 0.000000
O O13 0.500000 0.500000 0.500000
#
# Coordination Sequence:
#
# PCOD9203565 Si02
#       6
#     8   8   4   4   8   4
#     4  12  27  43  63  92 127 165 214 261 314 377
#     4  10  20  39  64  90 121 160 204 252 314 372
#     4   8  16  33  59  87 122 158 201 252 308 368
#     4  12  24  39  62  87 126 164 208 262 306 368
#     4  10  21  39  62  92 124 164 207 256 312 373
#     4   8  16  32  60  89 117 153 195 252 311 366
#
# _framework density 20.461200000000002
#
# number of rings (size 3 to 8) (size 9 to 14) (size 15 to 20)
#    0.000    1.778    1.111    3.333    3.111    2.222 
#    0.000    0.556    0.000    1.333    0.000    0.000 
#    0.000    0.000    0.000    0.000    0.000    0.000 
#
# Total GULP energy -100290.061752 kJ/mol
# GULP energy per Si atom -5571.670097 kJ/mol
# Density = 2.041463 g / cm^3
# Si number density = 20.461200 Si / 1000 Ang^3
#
#
#
# Elastic Constant Matrix: (Units=GPa)
#
#
# Indices 1 2 3 4 5 6 
#
# 1 101.6038 19.2740 72.3351 0.0000 -27.7050 0.0000
# 2 19.2740 197.0533 56.9426 0.0000 4.7123 0.0000
# 3 72.3351 56.9426 119.4090 0.0000 -21.2645 0.0000
# 4 0.0000 0.0000 0.0000 30.3513 0.0000 -11.4457
# 5 -27.7050 4.7123 -21.2645 0.0000 37.9831 0.0000
# 6 0.0000 0.0000 0.0000 -11.4457 0.0000 25.4651
#
#
#
# Elastic Compliance Matrix: (Units=1/GPa)
#
#
# Indices 1 2 3 4 5 6 
#
# 1 0.019651 0.001056 -0.010972 0.000000 0.008060 0.000000
# 2 0.001056 0.006175 -0.003980 0.000000 -0.002224 0.000000
# 3 -0.010972 -0.003980 0.017308 0.000000 0.002180 0.000000
# 4 0.000000 0.000000 0.000000 0.039672 0.000000 0.017831
# 5 0.008060 -0.002224 0.002180 0.000000 0.033703 0.000000
# 6 0.000000 0.000000 0.000000 0.017831 0.000000 0.047284
#
#
# Mechanical properties :
#
#
# Convention : Reuss Voigt Hill
#
# Bulk Modulus (GPa) = 65.18887 79.46326 72.32607
# Shear Modulus (GPa) = 25.41946 36.72754 31.07350
#
# Velocity S-wave (km/s) = 3.52849 4.24132 3.90122
# Velocity P-wave (km/s) = 6.96629 7.93130 7.46440
#
# Compressibility (1/GPa) = 0.01534004
#
# Stress axis : x y z
#
# Youngs Moduli (GPa) = 50.88734 161.94638 57.77754
#
# Poissons Ratio (x) = -0.17099 0.63396
# Poissons Ratio (y) = -0.05373 0.22997
# Poissons Ratio (z) = 0.55836 0.64460
#
# Static dielectric constant tensor:
#      x y z
#    x 1.665760 0.000000 0.022870 
#    y 0.000000 1.824280 0.000000 
#    z 0.022870 0.000000 1.666370 
# 
# From -- ./inp_files/7534.got.cif
#   From: 2010.05.17/outbox.cif.g08.bks.cpg/sg12_4_cif.got.tgz:7534.got - 2010.06.03 13:09:07.
