data_PCOD9203862
_publ_section_title
;
Structure prediction by ZEFSAII (Michael W. Deem and Ramdas Pophale) SiO2 
 PCOD9203862
Probable space group: C 2/M
;
_chemical_formula_sum "Si O2"
_cell_formula_units_Z 48
_cell_length_a 22.034594
_cell_length_b 23.486482
_cell_length_c 13.335560
_cell_angle_alpha 90.000000
_cell_angle_beta 160.154800
_cell_angle_gamma 90.000000
_cell_volume 2342.871971
_symmetry_space_group_name_H-M "C 2/M"
_symmetry_group_IT_number 12
_symmetry_cell_setting 'monoclinic'
loop_
_space_group_symop_operation_xyz
x,y,z
-x,y,-z
-x,-y,-z
x,-y,z
1/2+x,1/2+y,z
1/2-x,1/2+y,-z
1/2-x,1/2-y,-z
1/2+x,1/2-y,z
loop_
_atom_site_type_symbol
_atom_site_label
_atom_site_fract_x
_atom_site_fract_y
_atom_site_fract_z
Si Si1 0.683020 0.338398 0.731689
Si Si2 0.553567 0.346837 0.304827
Si Si3 0.040398 0.281775 0.278036
Si Si4 0.877409 0.393903 0.713881
Si Si5 0.555528 0.064692 0.794984
Si Si6 0.361465 0.157232 0.369166
O O1 0.500000 0.323979 0.500000
O O2 0.640593 0.348587 0.549775
O O3 0.829889 0.289323 0.974405
O O4 0.772946 0.395454 0.916381
O O5 0.581838 0.281919 0.311613
O O6 0.668443 0.390675 0.417011
O O7 0.340688 0.353954 0.979371
O O8 0.075760 0.329567 0.249658
O O9 0.137876 0.301678 0.531832
O O10 0.936064 0.431426 0.710679
O O11 0.000000 0.408160 0.000000
O O12 0.445440 0.098014 0.539465
O O13 0.598957 0.000000 0.838581
O O14 0.500000 0.178499 0.500000
#
# Coordination Sequence:
#
# PCOD9203862 Si02
#       6
#     8   8   8   8   8   8
#     4  10  21  38  59  88 120 155 205 245 281 355
#     4  12  20  36  61  86 121 162 197 235 293 356
#     4  10  22  35  56  88 126 162 190 232 291 353
#     4  10  20  40  58  88 117 151 204 254 288 347
#     4  10  23  44  63  82 116 156 197 259 318 345
#     4  10  23  39  57  89 123 153 193 244 296 354
#
# _framework density 20.487674999999999
#
# number of rings (size 3 to 8) (size 9 to 14) (size 15 to 20)
#    0.000    2.000    3.333    3.500    0.000    7.667 
#    0.000    2.500    0.000    0.000    0.000    0.000 
#    0.000    0.000    0.000    0.000    0.000    0.000 
#
# Total GULP energy -134019.466712 kJ/mol
# GULP energy per Si atom -5584.144446 kJ/mol
# Density = 2.044104 g / cm^3
# Si number density = 20.487675 Si / 1000 Ang^3
#
#
#
# Elastic Constant Matrix: (Units=GPa)
#
#
# Indices 1 2 3 4 5 6 
#
# 1 38.9314 -23.8919 -0.8451 0.0000 13.0871 0.0000
# 2 -23.8919 59.2199 17.6839 0.0000 -3.5381 0.0000
# 3 -0.8451 17.6839 112.9384 0.0000 12.4109 0.0000
# 4 0.0000 0.0000 0.0000 -13.9344 0.0000 -22.7854
# 5 13.0871 -3.5381 12.4109 0.0000 43.0948 0.0000
# 6 0.0000 0.0000 0.0000 -22.7854 0.0000 -12.5297
#
#
#
# Elastic Compliance Matrix: (Units=1/GPa)
#
#
# Indices 1 2 3 4 5 6 
#
# 1 0.038380 0.015170 -0.000975 0.000000 -0.010129 0.000000
# 2 0.015170 0.023939 -0.003454 0.000000 -0.001647 0.000000
# 3 -0.000975 -0.003454 0.009693 0.000000 -0.002779 0.000000
# 4 0.000000 0.000000 0.000000 0.036362 0.000000 -0.066125
# 5 -0.010129 -0.001647 -0.002779 0.000000 0.026946 0.000000
# 6 0.000000 0.000000 0.000000 -0.066125 0.000000 0.040439
#
#
# Mechanical properties :
#
#
# Convention : Reuss Voigt Hill
#
# Bulk Modulus (GPa) = 10.69583 21.88708 16.29145
# Shear Modulus (GPa) = 26.96268 17.86899 22.41584
#
# Velocity S-wave (km/s) = 3.63167 2.95648 3.31133
# Velocity P-wave (km/s) = 4.77675 4.72870 4.75278
#
# Compressibility (1/GPa) = 0.09349442
#
# Stress axis : x y z
#
# Youngs Moduli (GPa) = 26.05545 41.77202 103.16404
#
# Poissons Ratio (x) = -0.63368 0.10059
# Poissons Ratio (y) = -0.39526 0.35633
# Poissons Ratio (z) = 0.02541 0.14428
#
# Static dielectric constant tensor:
#      x y z
#    x 1.775580 0.000000 0.021290 
#    y 0.000000 1.712840 0.000000 
#    z 0.021290 0.000000 1.726890 
# 
# From -- ./inp_files/123036.got.cif
#   From: 2010.05.17/outbox.cif.g08.bks.cpg/sg12_62_cif.got.tgz:123036.got - 2010.06.03 13:09:07.
