data_PCOD9203564
_publ_section_title
;
Structure prediction by ZEFSAII (Michael W. Deem and Ramdas Pophale) SiO2 
 PCOD9203564
Probable space group: C 2/M
;
_chemical_formula_sum "Si O2"
_cell_formula_units_Z 64
_cell_length_a 15.682237
_cell_length_b 17.458557
_cell_length_c 16.012326
_cell_angle_alpha 90.000000
_cell_angle_beta 47.900288
_cell_angle_gamma 90.000000
_cell_volume 3252.838629
_symmetry_space_group_name_H-M "C 2/M"
_symmetry_group_IT_number 12
_symmetry_cell_setting 'monoclinic'
loop_
_space_group_symop_operation_xyz
x,y,z
-x,y,-z
-x,-y,-z
x,-y,z
1/2+x,1/2+y,z
1/2-x,1/2+y,-z
1/2-x,1/2-y,-z
1/2+x,1/2-y,z
loop_
_atom_site_type_symbol
_atom_site_label
_atom_site_fract_x
_atom_site_fract_y
_atom_site_fract_z
Si Si1 0.425917 0.317474 0.187391
Si Si2 0.680467 0.867309 0.922341
Si Si3 0.661866 0.588520 0.040842
Si Si4 0.058865 0.633446 0.834794
Si Si5 0.258143 0.305909 0.148333
Si Si6 0.127923 0.414211 0.606603
Si Si7 0.011265 0.719334 0.393175
Si Si8 0.333886 0.677415 0.429459
O O1 0.543479 0.364564 0.111894
O O2 0.445760 0.225716 0.174072
O O3 0.352222 0.334218 0.153354
O O4 0.355278 0.334576 0.317679
O O5 0.786077 0.905168 0.900495
O O6 0.655180 0.883654 0.841778
O O7 0.699160 0.775549 0.915435
O O8 0.563783 0.889640 0.047052
O O9 0.647441 0.500000 0.027415
O O10 0.748758 0.632731 0.921223
O O11 0.086350 0.596645 0.728626
O O12 0.139905 0.290145 0.274395
O O13 0.107473 0.500000 0.591258
O O14 0.262684 0.392538 0.513628
O O15 0.059401 0.353338 0.595431
O O16 0.000000 0.721942 0.500000
O O17 0.952375 0.795532 0.393502
O O18 0.250000 0.750000 0.500000
#
# Coordination Sequence:
#
# PCOD9203564 Si02
#       8
#     8   8   8   8   8   8   8   8
#     4  11  21  40  64  93 121 162 213 255 307 369
#     4  10  22  37  64  92 121 162 211 262 307 365
#     4  12  26  40  59  93 136 168 200 253 320 381
#     4  10  20  39  65  93 117 160 216 265 301 364
#     4  11  22  38  64  92 124 163 211 257 309 365
#     4  11  24  41  62  91 131 168 203 255 321 377
#     4  11  23  38  65  98 124 159 213 264 303 365
#     4  10  20  39  64  90 121 156 210 257 306 361
#
# _framework density 19.675124
#
# number of rings (size 3 to 8) (size 9 to 14) (size 15 to 20)
#    0.000    1.250    3.750    3.750    1.750    4.250 
#    0.000    2.500    0.000    0.375    0.000    0.000 
#    0.000    0.000    0.000    0.000    0.000    0.000 
#
# Total GULP energy -178809.829120 kJ/mol
# GULP energy per Si atom -5587.807160 kJ/mol
# Density = 1.963034 g / cm^3
# Si number density = 19.675124 Si / 1000 Ang^3
#
#
#
# Elastic Constant Matrix: (Units=GPa)
#
#
# Indices 1 2 3 4 5 6 
#
# 1 93.1575 16.3939 11.4603 0.0000 -3.0086 0.0000
# 2 16.3939 35.8765 3.6074 0.0000 5.6459 0.0000
# 3 11.4603 3.6074 88.1008 0.0000 1.5306 0.0000
# 4 0.0000 0.0000 0.0000 10.2132 0.0000 -2.7317
# 5 -3.0086 5.6459 1.5306 0.0000 34.5928 0.0000
# 6 0.0000 0.0000 0.0000 -2.7317 0.0000 4.4857
#
#
#
# Elastic Compliance Matrix: (Units=1/GPa)
#
#
# Indices 1 2 3 4 5 6 
#
# 1 0.011961 -0.005647 -0.001360 0.000000 0.002022 0.000000
# 2 -0.005647 0.031380 -0.000453 0.000000 -0.005593 0.000000
# 3 -0.001360 -0.000453 0.011556 0.000000 -0.000556 0.000000
# 4 0.000000 0.000000 0.000000 0.116963 0.000000 0.071227
# 5 0.002022 -0.005593 -0.000556 0.000000 0.030021 0.000000
# 6 0.000000 0.000000 0.000000 0.071227 0.000000 0.266306
#
#
# Mechanical properties :
#
#
# Convention : Reuss Voigt Hill
#
# Bulk Modulus (GPa) = 25.01492 31.11757 28.06624
# Shear Modulus (GPa) = 10.07189 22.23655 16.15422
#
# Velocity S-wave (km/s) = 2.26500 3.36547 2.86850
# Velocity P-wave (km/s) = 4.42514 5.56344 5.02662
#
# Compressibility (1/GPa) = 0.03997614
#
# Stress axis : x y z
#
# Youngs Moduli (GPa) = 83.60596 31.86792 86.53719
#
# Poissons Ratio (x) = 0.17996 0.11767
# Poissons Ratio (y) = 0.47213 0.03921
# Poissons Ratio (z) = 0.11369 0.01444
#
# Static dielectric constant tensor:
#      x y z
#    x 1.711140 0.000000 -0.021160 
#    y 0.000000 1.683930 0.000000 
#    z -0.021160 0.000000 1.685450 
# 
# From -- ./inp_files/216779.got.cif
#   From: 2010.05.17/outbox.cif.g08.bks.cpg/sg12_109_cif.got.tgz:216779.got - 2010.06.03 13:09:07.
