data_PCOD9203036
_publ_section_title
;
Structure prediction by ZEFSAII (Michael W. Deem and Ramdas Pophale) SiO2 
 PCOD9203036
Probable space group: C 2/M
;
_chemical_formula_sum "Si O2"
_cell_formula_units_Z 58
_cell_length_a 19.247924
_cell_length_b 9.552787
_cell_length_c 14.545714
_cell_angle_alpha 90.000000
_cell_angle_beta 71.252742
_cell_angle_gamma 90.000000
_cell_volume 2532.643276
_symmetry_space_group_name_H-M "C 2/M"
_symmetry_group_IT_number 12
_symmetry_cell_setting 'monoclinic'
loop_
_space_group_symop_operation_xyz
x,y,z
-x,y,-z
-x,-y,-z
x,-y,z
1/2+x,1/2+y,z
1/2-x,1/2+y,-z
1/2-x,1/2-y,-z
1/2+x,1/2-y,z
loop_
_atom_site_type_symbol
_atom_site_label
_atom_site_fract_x
_atom_site_fract_y
_atom_site_fract_z
Si Si1 0.000000 0.500000 0.000000
Si Si2 0.223018 0.162106 0.369330
Si Si3 0.239304 0.842006 0.143620
Si Si4 0.102633 0.232783 0.909787
Si Si5 0.993343 0.340046 0.718036
Si Si6 0.587937 0.653989 0.112575
Si Si7 0.417573 0.837720 0.564180
Si Si8 0.871748 0.837101 0.312968
O O1 0.058117 0.377361 0.938085
O O2 0.217054 0.160438 0.260478
O O3 0.149489 0.239291 0.434695
O O4 0.295795 0.252810 0.359100
O O5 0.229186 0.000000 0.397093
O O6 0.310864 0.750065 0.105192
O O7 0.170554 0.810849 0.108683
O O8 0.262286 0.000000 0.111335
O O9 0.104739 0.173694 0.805425
O O10 0.076371 0.147567 0.009394
O O11 0.017625 0.500000 0.718759
O O12 0.062665 0.244051 0.663820
O O13 0.959391 0.277283 0.824366
O O14 0.929256 0.336541 0.669546
O O15 0.570335 0.500000 0.160934
O O16 0.500000 0.797117 0.500000
O O17 0.405474 0.000000 0.540131
O O18 0.864982 0.000000 0.340361
#
# Coordination Sequence:
#
# PCOD9203036 Si02
#       8
#     2   8   8   8   8   8   8   8
#     4  12  24  36  54  76 120 160 214 266 308 356
#     4  10  20  38  65  96 126 164 208 257 312 374
#     4   9  18  35  56  83 118 156 202 258 307 353
#     4  11  23  36  55  84 120 169 214 259 302 359
#     4  11  24  40  63  93 122 161 207 255 311 375
#     4  11  22  37  58  83 121 160 207 263 311 358
#     4  10  22  43  69  98 130 160 199 253 316 384
#     4  11  24  41  63  88 129 170 214 261 310 368
#
# _framework density 22.900974999999999
#
# number of rings (size 3 to 8) (size 9 to 14) (size 15 to 20)
#    0.000    1.517    2.069    2.897    4.828    0.828 
#    0.000    3.448    0.000    0.000    0.000    0.000 
#    0.000    0.000    0.000    0.000    0.000    0.000 
#
# Total GULP energy -161769.646497 kJ/mol
# GULP energy per Si atom -5578.263672 kJ/mol
# Density = 2.284885 g / cm^3
# Si number density = 22.900975 Si / 1000 Ang^3
#
#
#
# Elastic Constant Matrix: (Units=GPa)
#
#
# Indices 1 2 3 4 5 6 
#
# 1 98.3958 56.7639 -3.7963 0.0000 -5.5708 0.0000
# 2 56.7639 161.4152 22.5015 0.0000 -20.3391 0.0000
# 3 -3.7963 22.5015 59.5253 0.0000 -11.1969 0.0000
# 4 0.0000 0.0000 0.0000 10.4189 0.0000 -13.5727
# 5 -5.5708 -20.3391 -11.1969 0.0000 26.1127 0.0000
# 6 0.0000 0.0000 0.0000 -13.5727 0.0000 31.0496
#
#
#
# Elastic Compliance Matrix: (Units=1/GPa)
#
#
# Indices 1 2 3 4 5 6 
#
# 1 0.013158 -0.004998 0.002746 0.000000 0.000091 0.000000
# 2 -0.004998 0.008936 -0.002815 0.000000 0.004687 0.000000
# 3 0.002746 -0.002815 0.019293 0.000000 0.006666 0.000000
# 4 0.000000 0.000000 0.000000 0.222919 0.000000 0.097445
# 5 0.000091 0.004687 0.006666 0.000000 0.044824 0.000000
# 6 0.000000 0.000000 0.000000 0.097445 0.000000 0.074802
#
#
# Mechanical properties :
#
#
# Convention : Reuss Voigt Hill
#
# Bulk Modulus (GPa) = 31.99914 52.25273 42.12593
# Shear Modulus (GPa) = 12.36143 29.77407 21.06775
#
# Velocity S-wave (km/s) = 2.32583 3.60963 3.03636
# Velocity P-wave (km/s) = 4.60606 6.34342 5.54323
#
# Compressibility (1/GPa) = 0.03125084
#
# Stress axis : x y z
#
# Youngs Moduli (GPa) = 76.00146 111.90796 51.83315
#
# Poissons Ratio (x) = 0.55935 -0.14232
# Poissons Ratio (y) = 0.37988 0.14592
# Poissons Ratio (z) = -0.20868 0.31503
#
# Static dielectric constant tensor:
#      x y z
#    x 1.861440 0.000000 0.022350 
#    y 0.000000 1.676260 0.000000 
#    z 0.022350 0.000000 1.921790 
# 
# From -- ./inp_files/282112.got.cif
#   From: 2010.05.17/outbox.cif.g08.bks.cpg/sg12_142_cif.got.tgz:282112.got - 2010.06.03 13:09:07.
