data_PCOD9203269
_publ_section_title
;
Structure prediction by ZEFSAII (Michael W. Deem and Ramdas Pophale) SiO2 
 PCOD9203269
Probable space group: C 2/M
;
_chemical_formula_sum "Si O2"
_cell_formula_units_Z 40
_cell_length_a 27.898540
_cell_length_b 11.596135
_cell_length_c 11.856560
_cell_angle_alpha 90.000000
_cell_angle_beta 152.032335
_cell_angle_gamma 90.000000
_cell_volume 1798.876973
_symmetry_space_group_name_H-M "C 2/M"
_symmetry_group_IT_number 12
_symmetry_cell_setting 'monoclinic'
loop_
_space_group_symop_operation_xyz
x,y,z
-x,y,-z
-x,-y,-z
x,-y,z
1/2+x,1/2+y,z
1/2-x,1/2+y,-z
1/2-x,1/2-y,-z
1/2+x,1/2-y,z
loop_
_atom_site_type_symbol
_atom_site_label
_atom_site_fract_x
_atom_site_fract_y
_atom_site_fract_z
Si Si1 0.408250 0.303834 0.876016
Si Si2 0.808976 0.370424 0.513442
Si Si3 0.389202 0.185300 0.241014
Si Si4 0.803954 0.791358 0.283231
Si Si5 0.028028 0.869693 0.753252
O O1 0.301344 0.369807 0.655636
O O2 0.385687 0.186014 0.762482
O O3 0.500000 0.363528 0.000000
O O4 0.442203 0.295326 0.075576
O O5 0.836228 0.500000 0.535564
O O6 0.798536 0.282343 0.386640
O O7 0.500000 0.129864 0.500000
O O8 0.331448 0.202764 0.238962
O O9 0.423076 0.306293 0.252156
O O10 0.300915 0.144989 0.970541
O O11 0.905348 0.868792 0.495335
O O12 0.066565 0.000000 0.845077
#
# Coordination Sequence:
#
# PCOD9203269 Si02
#       5
#     8   8   8   8   8
#     4  11  23  42  62  96 129 163 215 271 310 371
#     4  11  24  42  66  92 127 173 212 257 323 384
#     4   9  20  37  64  87 125 165 204 261 315 370
#     4  10  20  39  60  95 127 159 210 267 309 374
#     4  11  22  39  66  96 129 170 213 261 321 372
#
# _framework density 22.236094000000001
#
# number of rings (size 3 to 8) (size 9 to 14) (size 15 to 20)
#    0.000    1.600    4.000    0.600    0.000    5.600 
#    0.000    5.000    0.000   12.000    0.000    0.000 
#    0.000    0.000    0.000    0.000    0.000    0.000 
#
# Total GULP energy -111496.550955 kJ/mol
# GULP energy per Si atom -5574.827548 kJ/mol
# Density = 2.218548 g / cm^3
# Si number density = 22.236094 Si / 1000 Ang^3
#
#
#
# Elastic Constant Matrix: (Units=GPa)
#
#
# Indices 1 2 3 4 5 6 
#
# 1 110.2155 26.2017 21.5139 0.0000 -0.7640 0.0000
# 2 26.2017 72.6997 20.6907 0.0000 -5.9671 0.0000
# 3 21.5139 20.6907 165.7817 0.0000 3.4795 0.0000
# 4 0.0000 0.0000 0.0000 -2.7423 0.0000 5.6457
# 5 -0.7640 -5.9671 3.4795 0.0000 48.6414 0.0000
# 6 0.0000 0.0000 0.0000 5.6457 0.0000 -6.8656
#
#
#
# Elastic Compliance Matrix: (Units=1/GPa)
#
#
# Indices 1 2 3 4 5 6 
#
# 1 0.010048 -0.003388 -0.000877 0.000000 -0.000195 0.000000
# 2 -0.003388 0.015578 -0.001546 0.000000 0.001968 0.000000
# 3 -0.000877 -0.001546 0.006353 0.000000 -0.000658 0.000000
# 4 0.000000 0.000000 0.000000 0.526228 0.000000 0.432729
# 5 -0.000195 0.001968 -0.000658 0.000000 0.020844 0.000000
# 6 0.000000 0.000000 0.000000 0.432729 0.000000 0.210189
#
#
# Mechanical properties :
#
#
# Convention : Reuss Voigt Hill
#
# Bulk Modulus (GPa) = 49.12310 53.94552 51.53431
# Shear Modulus (GPa) = 6.19082 26.49274 16.34178
#
# Velocity S-wave (km/s) = 1.67038 3.45545 2.71388
# Velocity P-wave (km/s) = 5.08525 6.34297 5.74861
#
# Compressibility (1/GPa) = 0.02035702
#
# Stress axis : x y z
#
# Youngs Moduli (GPa) = 99.51825 64.19397 157.41609
#
# Poissons Ratio (x) = 0.21748 0.13807
# Poissons Ratio (y) = 0.33716 0.24335
# Poissons Ratio (z) = 0.08729 0.09924
#
# Static dielectric constant tensor:
#      x y z
#    x 1.808920 0.000000 0.003260 
#    y 0.000000 1.806480 0.000000 
#    z 0.003260 0.000000 1.910980 
# 
# From -- ./inp_files/182728.got.cif
#   From: 2010.05.17/outbox.cif.g08.bks.cpg/sg12_92_cif.got.tgz:182728.got - 2010.06.03 13:09:07.
