data_PCOD9203756
_publ_section_title
;
Structure prediction by ZEFSAII (Michael W. Deem and Ramdas Pophale) SiO2 
 PCOD9203756
Probable space group: C 2/M
;
_chemical_formula_sum "Si O2"
_cell_formula_units_Z 44
_cell_length_a 18.995857
_cell_length_b 14.651406
_cell_length_c 12.011276
_cell_angle_alpha 90.000000
_cell_angle_beta 134.959536
_cell_angle_gamma 90.000000
_cell_volume 2365.477593
_symmetry_space_group_name_H-M "C 2/M"
_symmetry_group_IT_number 12
_symmetry_cell_setting 'monoclinic'
loop_
_space_group_symop_operation_xyz
x,y,z
-x,y,-z
-x,-y,-z
x,-y,z
1/2+x,1/2+y,z
1/2-x,1/2+y,-z
1/2-x,1/2-y,-z
1/2+x,1/2-y,z
loop_
_atom_site_type_symbol
_atom_site_label
_atom_site_fract_x
_atom_site_fract_y
_atom_site_fract_z
Si Si1 0.032928 0.672275 0.917419
Si Si2 0.392328 0.312907 0.424443
Si Si3 0.876446 0.500000 0.081466
Si Si4 0.143323 0.796591 0.363967
Si Si5 0.664786 0.500000 0.760736
Si Si6 0.790191 0.000000 0.942309
Si Si7 0.198129 0.183622 0.183670
O O1 0.065212 0.591741 0.873885
O O2 0.941425 0.724250 0.760577
O O3 0.120533 0.743717 0.044340
O O4 0.000000 0.632858 0.000000
O O5 0.500000 0.279735 0.500000
O O6 0.388144 0.337164 0.551942
O O7 0.371749 0.406938 0.335500
O O8 0.304262 0.237709 0.307169
O O9 0.822627 0.500000 0.138896
O O10 0.785046 0.500000 0.890865
O O11 0.250000 0.750000 0.500000
O O12 0.160599 0.846578 0.265160
O O13 0.644777 0.500000 0.871295
O O14 0.803453 0.093005 0.891036
#
# Coordination Sequence:
#
# PCOD9203756 Si02
#       7
#     8   8   4   8   4   4   8
#     4  10  20  39  67  89 122 163 211 258 302 367
#     4  11  23  39  64  88 128 164 202 259 316 364
#     4  10  21  35  63  98 121 153 208 263 304 358
#     4   9  22  40  61  90 119 164 204 246 317 365
#     4  10  23  38  56  95 124 157 205 256 308 370
#     4  10  24  37  65  93 125 158 215 252 305 357
#     4  10  21  43  61  89 125 165 211 252 304 373
#
# _framework density 18.600894
#
# number of rings (size 3 to 8) (size 9 to 14) (size 15 to 20)
#    0.545    1.455    1.818    0.545    5.091    2.182 
#    0.000    8.182    0.000    0.000    0.000    0.000 
#    0.000    0.000    0.000    0.000    0.000    0.000 
#
# Total GULP energy -122518.452112 kJ/mol
# GULP energy per Si atom -5569.020551 kJ/mol
# Density = 1.855856 g / cm^3
# Si number density = 18.600894 Si / 1000 Ang^3
#
#
#
# Elastic Constant Matrix: (Units=GPa)
#
#
# Indices 1 2 3 4 5 6 
#
# 1 137.8758 54.5848 50.9749 0.0000 -17.9724 0.0000
# 2 54.5848 71.2948 26.0444 0.0000 -25.5967 0.0000
# 3 50.9749 26.0444 92.6049 0.0000 -7.9624 0.0000
# 4 0.0000 0.0000 0.0000 17.6727 0.0000 -11.3074
# 5 -17.9724 -25.5967 -7.9624 0.0000 48.2555 0.0000
# 6 0.0000 0.0000 0.0000 -11.3074 0.0000 43.7241
#
#
#
# Elastic Compliance Matrix: (Units=1/GPa)
#
#
# Indices 1 2 3 4 5 6 
#
# 1 0.011840 -0.007572 -0.004417 0.000000 -0.000336 0.000000
# 2 -0.007572 0.023889 -0.001728 0.000000 0.009567 0.000000
# 3 -0.004417 -0.001728 0.013690 0.000000 -0.000303 0.000000
# 4 0.000000 0.000000 0.000000 0.067803 0.000000 0.017534
# 5 -0.000336 0.009567 -0.000303 0.000000 0.025623 0.000000
# 6 0.000000 0.000000 0.000000 0.017534 0.000000 0.027405
#
#
# Mechanical properties :
#
#
# Convention : Reuss Voigt Hill
#
# Bulk Modulus (GPa) = 45.48416 62.77595 54.13005
# Shear Modulus (GPa) = 24.38886 33.27523 28.83205
#
# Velocity S-wave (km/s) = 3.62493 4.23413 3.94132
# Velocity P-wave (km/s) = 6.48274 7.59776 7.06229
#
# Compressibility (1/GPa) = 0.02198568
#
# Stress axis : x y z
#
# Youngs Moduli (GPa) = 84.46161 41.85958 73.04762
#
# Poissons Ratio (x) = 0.31695 0.32262
# Poissons Ratio (y) = 0.63952 0.12624
# Poissons Ratio (z) = 0.37303 0.07234
#
# Static dielectric constant tensor:
#      x y z
#    x 1.688060 0.000000 -0.005110 
#    y 0.000000 1.590750 0.000000 
#    z -0.005110 0.000000 1.662060 
# 
# From -- ./inp_files/167456.got.cif
#   From: 2010.05.17/outbox.cif.g08.bks.cpg/sg12_84_cif.got.tgz:167456.got - 2010.06.03 13:09:07.
