data_PCOD9203622
_publ_section_title
;
Structure prediction by ZEFSAII (Michael W. Deem and Ramdas Pophale) SiO2 
 PCOD9203622
Probable space group: C 2/M
;
_chemical_formula_sum "Si O2"
_cell_formula_units_Z 44
_cell_length_a 28.077121
_cell_length_b 12.677859
_cell_length_c 17.440938
_cell_angle_alpha 90.000000
_cell_angle_beta 161.848834
_cell_angle_gamma 90.000000
_cell_volume 1934.022027
_symmetry_space_group_name_H-M "C 2/M"
_symmetry_group_IT_number 12
_symmetry_cell_setting 'monoclinic'
loop_
_space_group_symop_operation_xyz
x,y,z
-x,y,-z
-x,-y,-z
x,-y,z
1/2+x,1/2+y,z
1/2-x,1/2+y,-z
1/2-x,1/2-y,-z
1/2+x,1/2-y,z
loop_
_atom_site_type_symbol
_atom_site_label
_atom_site_fract_x
_atom_site_fract_y
_atom_site_fract_z
Si Si1 0.577173 0.114088 0.723907
Si Si2 0.914383 0.385428 0.762363
Si Si3 0.500000 0.293919 0.500000
Si Si4 0.781842 0.882377 0.825162
Si Si5 0.162722 0.821867 0.258280
Si Si6 0.173872 0.329610 0.042491
O O1 0.600079 0.222224 0.712457
O O2 0.396640 0.104953 0.431371
O O3 0.647462 0.000000 0.807471
O O4 0.611594 0.128311 0.866267
O O5 0.903603 0.500000 0.782432
O O6 0.875416 0.290335 0.760420
O O7 0.784935 0.376710 0.498889
O O8 0.073937 0.374256 0.960174
O O9 0.358229 0.350425 0.326504
O O10 0.779447 0.823720 0.739588
O O11 0.854270 0.797168 0.992712
O O12 0.850206 0.000000 0.927703
O O13 0.000000 0.877847 0.000000
#
# Coordination Sequence:
#
# PCOD9203622 Si02
#       6
#     8   8   4   8   8   8
#     4  10  20  39  65  87 118 162 204 251 314 370
#     4  11  24  41  63  90 127 166 203 252 311 366
#     4  10  23  38  65  90 122 158 207 258 301 364
#     4  10  21  38  62  90 123 165 209 255 301 357
#     4  11  22  41  61  93 122 163 208 251 299 366
#     4  11  21  40  61  94 123 160 204 258 308 363
#
# _framework density 22.750516000000001
#
# number of rings (size 3 to 8) (size 9 to 14) (size 15 to 20)
#    0.000    1.455    3.636    1.909    0.000    2.545 
#    0.000    1.818    0.000    8.727    0.000    0.000 
#    0.000    0.000    0.000    0.000    0.000    0.000 
#
# Total GULP energy -122609.069577 kJ/mol
# GULP energy per Si atom -5573.139526 kJ/mol
# Density = 2.269873 g / cm^3
# Si number density = 22.750516 Si / 1000 Ang^3
#
#
#
# Elastic Constant Matrix: (Units=GPa)
#
#
# Indices 1 2 3 4 5 6 
#
# 1 65.5345 30.4484 2.4469 0.0000 1.8810 0.0000
# 2 30.4484 123.6535 29.8882 0.0000 0.1300 0.0000
# 3 2.4469 29.8882 66.4822 0.0000 -1.8541 0.0000
# 4 0.0000 0.0000 0.0000 -63.0614 0.0000 -5.9905
# 5 1.8810 0.1300 -1.8541 0.0000 44.6431 0.0000
# 6 0.0000 0.0000 0.0000 -5.9905 0.0000 -3.6800
#
#
#
# Elastic Compliance Matrix: (Units=1/GPa)
#
#
# Indices 1 2 3 4 5 6 
#
# 1 0.017372 -0.004620 0.001419 0.000000 -0.000660 0.000000
# 2 -0.004620 0.010303 -0.004463 0.000000 -0.000021 0.000000
# 3 0.001419 -0.004463 0.017014 0.000000 0.000660 0.000000
# 4 0.000000 0.000000 0.000000 -0.018758 0.000000 0.030536
# 5 -0.000660 -0.000021 0.000660 0.000000 0.022455 0.000000
# 6 0.000000 0.000000 0.000000 0.030536 0.000000 -0.321452
#
#
# Mechanical properties :
#
#
# Convention : Reuss Voigt Hill
#
# Bulk Modulus (GPa) = 34.05721 42.35968 38.20844
# Shear Modulus (GPa) = -20.16518 8.43946 -5.86286
#
# Velocity S-wave (km/s) = -2.98041 1.92811 -1.60705
# Velocity P-wave (km/s) = 1.77723 4.85968 3.65889
#
# Compressibility (1/GPa) = 0.02936236
#
# Stress axis : x y z
#
# Youngs Moduli (GPa) = 57.56538 97.05538 58.77501
#
# Poissons Ratio (x) = 0.44839 -0.08341
# Poissons Ratio (y) = 0.26595 0.26229
# Poissons Ratio (z) = -0.08170 0.43312
#
# Static dielectric constant tensor:
#      x y z
#    x 2.006770 0.000000 0.061180 
#    y 0.000000 2.003960 0.000000 
#    z 0.061180 0.000000 1.837240 
# 
# From -- ./inp_files/296551.got.cif
#   From: 2010.05.17/outbox.cif.g08.bks.cpg/sg12_149_cif.got.tgz:296551.got - 2010.06.03 13:09:07.
