data_PCOD9203237
_publ_section_title
;
Structure prediction by ZEFSAII (Michael W. Deem and Ramdas Pophale) SiO2 
 PCOD9203237
Probable space group: C 2/M
;
_chemical_formula_sum "Si O2"
_cell_formula_units_Z 42
_cell_length_a 15.420427
_cell_length_b 7.723324
_cell_length_c 17.656823
_cell_angle_alpha 90.000000
_cell_angle_beta 67.016118
_cell_angle_gamma 90.000000
_cell_volume 1935.936638
_symmetry_space_group_name_H-M "C 2/M"
_symmetry_group_IT_number 12
_symmetry_cell_setting 'monoclinic'
loop_
_space_group_symop_operation_xyz
x,y,z
-x,y,-z
-x,-y,-z
x,-y,z
1/2+x,1/2+y,z
1/2-x,1/2+y,-z
1/2-x,1/2-y,-z
1/2+x,1/2-y,z
loop_
_atom_site_type_symbol
_atom_site_label
_atom_site_fract_x
_atom_site_fract_y
_atom_site_fract_z
Si Si1 0.822047 0.793631 0.907477
Si Si2 0.778502 0.709939 0.210237
Si Si3 0.737065 0.702329 0.614130
Si Si4 0.589244 0.200976 0.552053
Si Si5 0.500000 0.500000 0.500000
Si Si6 0.481360 0.795035 0.090288
O O1 0.782517 0.729572 0.840628
O O2 0.925384 0.728074 0.892584
O O3 0.826490 0.000000 0.901802
O O4 0.750000 0.750000 0.000000
O O5 0.776749 0.500000 0.211532
O O6 0.746507 0.768766 0.303438
O O7 0.885548 0.772442 0.159544
O O8 0.726879 0.500000 0.601517
O O9 0.642051 0.789129 0.614902
O O10 0.827139 0.760738 0.534609
O O11 0.511537 0.344477 0.561432
O O12 0.563084 0.000000 0.547874
O O13 0.465007 0.000000 0.085969
O O14 0.500000 0.721185 0.000000
#
# Coordination Sequence:
#
# PCOD9203237 Si02
#       6
#     8   8   8   8   2   8
#     4  11  22  38  59  86 117 158 207 259 318 380
#     4  10  22  39  61  86 122 168 209 261 323 379
#     4  10  21  41  65  92 123 171 215 256 316 391
#     4  10  22  41  67  95 133 170 213 262 320 380
#     4  12  22  40  68 106 124 166 210 268 314 386
#     4  10  20  39  60  83 118 159 204 256 317 380
#
# _framework density 21.694925999999999
#
# number of rings (size 3 to 8) (size 9 to 14) (size 15 to 20)
#    0.000    1.714    2.857    1.429    2.667    2.667 
#    3.429    0.000    0.000    0.000    0.000    0.000 
#    0.000    0.000    0.000    0.000    0.000    0.000 
#
# Total GULP energy -117061.553889 kJ/mol
# GULP energy per Si atom -5574.359709 kJ/mol
# Density = 2.164555 g / cm^3
# Si number density = 21.694926 Si / 1000 Ang^3
#
#
#
# Elastic Constant Matrix: (Units=GPa)
#
#
# Indices 1 2 3 4 5 6 
#
# 1 92.3319 -5.4954 22.5650 0.0000 23.4147 0.0000
# 2 -5.4954 73.8572 -7.8020 0.0000 2.4566 0.0000
# 3 22.5650 -7.8020 94.4617 0.0000 29.4226 0.0000
# 4 0.0000 0.0000 0.0000 19.7645 0.0000 7.5343
# 5 23.4147 2.4566 29.4226 0.0000 32.8820 0.0000
# 6 0.0000 0.0000 0.0000 7.5343 0.0000 20.0133
#
#
#
# Elastic Compliance Matrix: (Units=1/GPa)
#
#
# Indices 1 2 3 4 5 6 
#
# 1 0.013344 0.001295 -0.000126 0.000000 -0.009486 0.000000
# 2 0.001295 0.013975 0.002020 0.000000 -0.003774 0.000000
# 3 -0.000126 0.002020 0.014976 0.000000 -0.013462 0.000000
# 4 0.000000 0.000000 0.000000 0.059073 0.000000 -0.022239
# 5 -0.009486 -0.003774 -0.013462 0.000000 0.049494 0.000000
# 6 0.000000 0.000000 0.000000 -0.022239 0.000000 0.058339
#
#
# Mechanical properties :
#
#
# Convention : Reuss Voigt Hill
#
# Bulk Modulus (GPa) = 20.54468 31.02065 25.78266
# Shear Modulus (GPa) = 22.82609 31.29083 27.05846
#
# Velocity S-wave (km/s) = 3.24719 3.80190 3.53544
# Velocity P-wave (km/s) = 4.85277 5.79674 5.34563
#
# Compressibility (1/GPa) = 0.04867441
#
# Stress axis : x y z
#
# Youngs Moduli (GPa) = 74.94037 71.55650 66.77183
#
# Poissons Ratio (x) = -0.09267 0.00841
# Poissons Ratio (y) = -0.09705 -0.13491
# Poissons Ratio (z) = 0.00944 -0.14458
#
# Static dielectric constant tensor:
#      x y z
#    x 1.863900 0.000000 -0.013960 
#    y 0.000000 1.828900 0.000000 
#    z -0.013960 0.000000 1.791810 
# 
# From -- ./inp_files/267069.got.cif
#   From: 2010.05.17/outbox.cif.g08.bks.cpg/sg12_134_cif.got.tgz:267069.got - 2010.06.03 13:09:07.
