data_PCOD9203964
_publ_section_title
;
Structure prediction by ZEFSAII (Michael W. Deem and Ramdas Pophale) SiO2 
 PCOD9203964
Probable space group: C 2/M
;
_chemical_formula_sum "Si O2"
_cell_formula_units_Z 56
_cell_length_a 20.105291
_cell_length_b 23.163752
_cell_length_c 7.565353
_cell_angle_alpha 90.000000
_cell_angle_beta 127.695249
_cell_angle_gamma 90.000000
_cell_volume 2787.889098
_symmetry_space_group_name_H-M "C 2/M"
_symmetry_group_IT_number 12
_symmetry_cell_setting 'monoclinic'
loop_
_space_group_symop_operation_xyz
x,y,z
-x,y,-z
-x,-y,-z
x,-y,z
1/2+x,1/2+y,z
1/2-x,1/2+y,-z
1/2-x,1/2-y,-z
1/2+x,1/2-y,z
loop_
_atom_site_type_symbol
_atom_site_label
_atom_site_fract_x
_atom_site_fract_y
_atom_site_fract_z
Si Si1 0.437830 0.129883 0.763428
Si Si2 0.073848 0.819163 0.759640
Si Si3 0.004429 0.064365 0.795148
Si Si4 0.086182 0.298184 0.940978
Si Si5 0.747515 0.853419 0.057756
Si Si6 0.718053 0.068457 0.668263
Si Si7 0.191008 0.933536 0.541455
O O1 0.503122 0.165681 0.749089
O O2 0.369016 0.092161 0.556209
O O3 0.500000 0.095420 0.000000
O O4 0.399568 0.178019 0.836128
O O5 0.070343 0.769589 0.901827
O O6 0.000000 0.807085 0.500000
O O7 0.057778 0.883271 0.807546
O O8 0.166076 0.818661 0.824271
O O9 0.907758 0.072124 0.578525
O O10 0.034238 0.000000 0.790347
O O11 0.000000 0.065618 0.000000
O O12 0.165488 0.314853 0.951755
O O13 0.737194 0.894940 0.872747
O O14 0.757480 0.892427 0.247971
O O15 0.788019 0.078201 0.629431
O O16 0.714043 0.000000 0.697366
O O17 0.215021 0.000000 0.611707
#
# Coordination Sequence:
#
# PCOD9203964 Si02
#       7
#     8   8   8   8   8   8   8
#     4   8  20  44  68  90 127 175 211 271 328 379
#     4  12  25  40  65  96 128 174 221 266 317 403
#     4  10  22  40  64  92 125 167 216 272 324 383
#     4   9  23  43  64  90 128 171 215 270 329 377
#     4  12  23  42  63  98 132 173 215 271 333 380
#     4  11  23  40  68 101 130 174 224 267 326 401
#     4  10  20  40  62  89 134 172 213 266 324 385
#
# _framework density 20.086881000000002
#
# number of rings (size 3 to 8) (size 9 to 14) (size 15 to 20)
#    0.857    0.714    2.857    1.714    4.000    2.857 
#    0.000    2.857    0.000    0.000    0.000    0.000 
#    0.000    0.000    0.000    0.000    0.000    0.000 
#
# Total GULP energy -156236.688472 kJ/mol
# GULP energy per Si atom -5579.881731 kJ/mol
# Density = 2.004116 g / cm^3
# Si number density = 20.086881 Si / 1000 Ang^3
#
#
#
# Elastic Constant Matrix: (Units=GPa)
#
#
# Indices 1 2 3 4 5 6 
#
# 1 97.5599 36.6305 15.9510 0.0000 15.6973 0.0000
# 2 36.6305 85.2818 34.1860 0.0000 0.6011 0.0000
# 3 15.9510 34.1860 74.2125 0.0000 -1.7348 0.0000
# 4 0.0000 0.0000 0.0000 44.9072 0.0000 -39.8589
# 5 15.6973 0.6011 -1.7348 0.0000 25.6004 0.0000
# 6 0.0000 0.0000 0.0000 -39.8589 0.0000 38.6574
#
#
#
# Elastic Compliance Matrix: (Units=1/GPa)
#
#
# Indices 1 2 3 4 5 6 
#
# 1 0.013810 -0.005647 -0.000563 0.000000 -0.008373 0.000000
# 2 -0.005647 0.016706 -0.006420 0.000000 0.002635 0.000000
# 3 -0.000563 -0.006420 0.016591 0.000000 0.001620 0.000000
# 4 0.000000 0.000000 0.000000 0.262512 0.000000 0.270671
# 5 -0.008373 0.002635 0.001620 0.000000 0.044244 0.000000
# 6 0.000000 0.000000 0.000000 0.270671 0.000000 0.304952
#
#
# Mechanical properties :
#
#
# Convention : Reuss Voigt Hill
#
# Bulk Modulus (GPa) = 45.77277 47.84326 46.80801
# Shear Modulus (GPa) = 7.23214 33.18545 20.20880
#
# Velocity S-wave (km/s) = 1.89954 4.06901 3.17530
# Velocity P-wave (km/s) = 5.25812 6.77832 6.06603
#
# Compressibility (1/GPa) = 0.02184705
#
# Stress axis : x y z
#
# Youngs Moduli (GPa) = 72.41347 59.85702 60.27286
#
# Poissons Ratio (x) = 0.33801 0.03391
# Poissons Ratio (y) = 0.40892 0.38698
# Poissons Ratio (z) = 0.04074 0.38431
#
# Static dielectric constant tensor:
#      x y z
#    x 1.730420 0.000000 0.002870 
#    y 0.000000 1.684010 0.000000 
#    z 0.002870 0.000000 1.717340 
# 
# From -- ./inp_files/98220.got.cif
#   From: 2010.05.17/outbox.cif.g08.bks.cpg/sg12_50_cif.got.tgz:98220.got - 2010.06.03 13:09:07.
