data_PCOD9203906
_publ_section_title
;
Structure prediction by ZEFSAII (Michael W. Deem and Ramdas Pophale) SiO2 
 PCOD9203906
Probable space group: C 2/M
;
_chemical_formula_sum "Si O2"
_cell_formula_units_Z 32
_cell_length_a 26.997435
_cell_length_b 14.504954
_cell_length_c 21.599594
_cell_angle_alpha 90.000000
_cell_angle_beta 168.394522
_cell_angle_gamma 90.000000
_cell_volume 1701.574888
_symmetry_space_group_name_H-M "C 2/M"
_symmetry_group_IT_number 12
_symmetry_cell_setting 'monoclinic'
loop_
_space_group_symop_operation_xyz
x,y,z
-x,y,-z
-x,-y,-z
x,-y,z
1/2+x,1/2+y,z
1/2-x,1/2+y,-z
1/2-x,1/2-y,-z
1/2+x,1/2-y,z
loop_
_atom_site_type_symbol
_atom_site_label
_atom_site_fract_x
_atom_site_fract_y
_atom_site_fract_z
Si Si1 0.963860 0.500000 0.124531
Si Si2 0.249971 0.500000 0.655173
Si Si3 0.649035 0.355259 0.806459
Si Si4 0.023716 0.000000 0.204395
Si Si5 0.819993 0.358342 0.155874
Si Si6 0.757777 0.000000 0.281662
O O1 0.256368 0.500000 0.475913
O O2 0.879691 0.409680 0.059392
O O3 0.807408 0.500000 0.870338
O O4 0.337483 0.500000 0.691075
O O5 0.075308 0.412922 0.457696
O O6 0.500000 0.500000 0.000000
O O7 0.642275 0.248054 0.781451
O O8 0.416140 0.411594 0.496233
O O9 0.678660 0.362499 0.916770
O O10 0.847474 0.087394 0.999993
O O11 0.500000 0.000000 0.000000
#
# Coordination Sequence:
#
# PCOD9203906 Si02
#       6
#     4   4   8   4   8   4
#     4  11  20  39  65  88 122 161 198 248 306 361
#     4  11  23  44  58  85 121 155 203 256 294 350
#     4  10  20  40  60  90 125 155 198 248 295 360
#     4  11  21  42  64  86 116 164 203 240 309 359
#     4  10  22  40  64  88 122 159 200 247 296 359
#     4  11  22  38  59  94 127 158 198 250 307 354
#
# _framework density 18.806107000000001
#
# number of rings (size 3 to 8) (size 9 to 14) (size 15 to 20)
#    0.000    1.500    2.500    5.250    0.000    4.000 
#   13.500    0.000    0.000    0.000    0.000    0.000 
#    0.000    0.000    0.000    0.000    0.000    0.000 
#
# Total GULP energy -89346.217888 kJ/mol
# GULP energy per Si atom -5584.138618 kJ/mol
# Density = 1.876330 g / cm^3
# Si number density = 18.806107 Si / 1000 Ang^3
#
#
#
# Elastic Constant Matrix: (Units=GPa)
#
#
# Indices 1 2 3 4 5 6 
#
# 1 61.6209 51.7876 37.8769 0.0112 9.7938 0.0229
# 2 51.7876 198.1102 72.9881 0.0504 15.3893 0.0372
# 3 37.8769 72.9881 135.1459 0.0486 9.6816 0.0285
# 4 0.0112 0.0504 0.0486 1.8135 0.0056 -5.7132
# 5 9.7938 15.3893 9.6816 0.0056 40.5469 0.0047
# 6 0.0229 0.0372 0.0285 -5.7132 0.0047 16.6319
#
#
#
# Elastic Compliance Matrix: (Units=1/GPa)
#
#
# Indices 1 2 3 4 5 6 
#
# 1 0.022644 -0.004283 -0.003823 -0.000558 -0.002931 -0.000206
# 2 -0.004283 0.007216 -0.002620 0.001435 -0.001079 0.000487
# 3 -0.003823 -0.002620 0.009917 0.002261 -0.000451 0.000771
# 4 -0.000558 0.001435 0.002261 -6.709432 0.000237 -2.304733
# 5 -0.002931 -0.001079 -0.000451 0.000237 0.025888 0.000081
# 6 -0.000206 0.000487 0.000771 -2.304733 0.000081 -0.731565
#
#
# Mechanical properties :
#
#
# Convention : Reuss Voigt Hill
#
# Bulk Modulus (GPa) = 54.57077 80.02022 67.29549
# Shear Modulus (GPa) = -0.68048 27.28010 13.29981
#
# Velocity S-wave (km/s) = -0.60218 3.81280 2.66222
# Velocity P-wave (km/s) = 5.34762 7.87565 6.73138
#
# Compressibility (1/GPa) = 0.01832483
#
# Stress axis : x y z
#
# Youngs Moduli (GPa) = 44.16256 138.58247 100.83504
#
# Poissons Ratio (x) = 0.59353 0.38549
# Poissons Ratio (y) = 0.18914 0.26419
# Poissons Ratio (z) = 0.16883 0.36310
#
# Static dielectric constant tensor:
#      x y z
#    x 1.690420 -0.000030 -0.017700 
#    y -0.000030 1.628700 -0.000040 
#    z -0.017700 -0.000040 1.641480 
# 
# From -- ./inp_files/354204.got.cif
#   From: 2010.05.17/outbox.cif.g08.bks.cpg/sg12_178_cif.got.tgz:354204.got - 2010.06.03 13:09:07.
