data_PCOD9203110
_publ_section_title
;
Structure prediction by ZEFSAII (Michael W. Deem and Ramdas Pophale) SiO2 
 PCOD9203110
Probable space group: C 2/M
;
_chemical_formula_sum "Si O2"
_cell_formula_units_Z 34
_cell_length_a 10.273625
_cell_length_b 13.744916
_cell_length_c 8.801433
_cell_angle_alpha 90.000000
_cell_angle_beta 101.832852
_cell_angle_gamma 90.000000
_cell_volume 1216.440723
_symmetry_space_group_name_H-M "C 2/M"
_symmetry_group_IT_number 12
_symmetry_cell_setting 'monoclinic'
loop_
_space_group_symop_operation_xyz
x,y,z
-x,y,-z
-x,-y,-z
x,-y,z
1/2+x,1/2+y,z
1/2-x,1/2+y,-z
1/2-x,1/2-y,-z
1/2+x,1/2-y,z
loop_
_atom_site_type_symbol
_atom_site_label
_atom_site_fract_x
_atom_site_fract_y
_atom_site_fract_z
Si Si1 0.500000 0.000000 0.500000
Si Si2 0.657485 0.605097 0.643800
Si Si3 0.655058 0.815237 0.638549
Si Si4 0.455246 0.893503 0.815636
Si Si5 0.574008 0.388823 0.164697
O O1 0.616165 0.909161 0.530233
O O2 0.651341 0.500000 0.562568
O O3 0.649239 0.709174 0.560031
O O4 0.797144 0.611051 0.767962
O O5 0.535785 0.604480 0.731216
O O6 0.542621 0.817821 0.744375
O O7 0.794638 0.833195 0.754041
O O8 0.492413 0.000000 0.745476
O O9 0.500000 0.896500 0.000000
O O10 0.616307 0.500000 0.134797
O O11 0.500000 0.346381 0.000000
#
# Coordination Sequence:
#
# PCOD9203110 Si02
#       5
#     2   8   8   8   8
#     4  12  28  48  70  94 120 184 240 274 308 400
#     4  10  23  39  63  98 140 166 212 276 331 393
#     4  12  23  44  70  93 135 181 225 265 321 403
#     4  10  20  38  67 105 140 171 212 273 339 398
#     4  10  20  38  67 105 140 171 212 273 339 398
#
# _framework density 27.950393999999999
#
# number of rings (size 3 to 8) (size 9 to 14) (size 15 to 20)
#    0.000    1.412    2.353    2.824    0.000    9.412 
#    0.000    5.294    0.000    0.000    0.000    0.000 
#    0.000    0.000    0.000    0.000    0.000    0.000 
#
# Total GULP energy -95221.380929 kJ/mol
# GULP energy per Si atom -5601.257702 kJ/mol
# Density = 2.788678 g / cm^3
# Si number density = 27.950394 Si / 1000 Ang^3
#
#
#
# Elastic Constant Matrix: (Units=GPa)
#
#
# Indices 1 2 3 4 5 6 
#
# 1 170.9097 43.7728 66.8510 0.0000 51.8777 0.0000
# 2 43.7728 292.5317 62.8475 0.0000 1.9731 0.0000
# 3 66.8510 62.8475 159.9257 0.0000 46.9809 0.0000
# 4 0.0000 0.0000 0.0000 22.3677 0.0000 -3.7206
# 5 51.8777 1.9731 46.9809 0.0000 59.5756 0.0000
# 6 0.0000 0.0000 0.0000 -3.7206 0.0000 26.7478
#
#
#
# Elastic Compliance Matrix: (Units=1/GPa)
#
#
# Indices 1 2 3 4 5 6 
#
# 1 0.008545 -0.000950 -0.001330 0.000000 -0.006361 0.000000
# 2 -0.000950 0.003924 -0.001757 0.000000 0.002083 0.000000
# 3 -0.001330 -0.001757 0.009295 0.000000 -0.006114 0.000000
# 4 0.000000 0.000000 0.000000 0.045766 0.000000 0.006366
# 5 -0.006361 0.002083 -0.006114 0.000000 0.027077 0.000000
# 6 0.000000 0.000000 0.000000 0.006366 0.000000 0.038272
#
#
# Mechanical properties :
#
#
# Convention : Reuss Voigt Hill
#
# Bulk Modulus (GPa) = 73.04140 107.81216 90.42678
# Shear Modulus (GPa) = 34.36034 51.73129 43.04581
#
# Velocity S-wave (km/s) = 3.50999 4.30679 3.92864
# Velocity P-wave (km/s) = 6.52809 7.96164 7.28023
#
# Compressibility (1/GPa) = 0.01369087
#
# Stress axis : x y z
#
# Youngs Moduli (GPa) = 117.02213 254.84493 107.58122
#
# Poissons Ratio (x) = 0.24211 0.14310
# Poissons Ratio (y) = 0.11117 0.18899
# Poissons Ratio (z) = 0.15566 0.44769
#
# Static dielectric constant tensor:
#      x y z
#    x 2.098550 0.000000 0.121380 
#    y 0.000000 2.211590 0.000000 
#    z 0.121380 0.000000 1.808390 
# 
# From -- ./inp_files/129444.got.cif
#   From: 2010.05.17/outbox.cif.g08.bks.cpg/sg12_65_cif.got.tgz:129444.got - 2010.06.03 13:09:07.
