data_PCOD9203075
_publ_section_title
;
Structure prediction by ZEFSAII (Michael W. Deem and Ramdas Pophale) SiO2 
 PCOD9203075
Probable space group: C 2/M
;
_chemical_formula_sum "Si O2"
_cell_formula_units_Z 40
_cell_length_a 31.369730
_cell_length_b 11.358244
_cell_length_c 10.008905
_cell_angle_alpha 90.000000
_cell_angle_beta 34.717394
_cell_angle_gamma 90.000000
_cell_volume 2031.067937
_symmetry_space_group_name_H-M "C 2/M"
_symmetry_group_IT_number 12
_symmetry_cell_setting 'monoclinic'
loop_
_space_group_symop_operation_xyz
x,y,z
-x,y,-z
-x,-y,-z
x,-y,z
1/2+x,1/2+y,z
1/2-x,1/2+y,-z
1/2-x,1/2-y,-z
1/2+x,1/2-y,z
loop_
_atom_site_type_symbol
_atom_site_label
_atom_site_fract_x
_atom_site_fract_y
_atom_site_fract_z
Si Si1 0.017673 0.500000 0.612211
Si Si2 0.195400 0.129598 0.997907
Si Si3 0.297080 0.365953 0.337682
Si Si4 0.862775 0.299374 0.636089
Si Si5 0.910537 0.241529 0.231200
Si Si6 0.076638 0.500000 0.888746
O O1 0.069338 0.389004 0.517672
O O2 0.000000 0.500000 0.500000
O O3 0.946514 0.500000 0.895611
O O4 0.189536 0.144111 0.854670
O O5 0.282973 0.139966 0.811636
O O6 0.168518 0.000000 0.103866
O O7 0.150048 0.224527 0.198294
O O8 0.267547 0.500000 0.439816
O O9 0.250000 0.250000 0.500000
O O10 0.372855 0.348081 0.226531
O O11 0.880885 0.224321 0.457403
O O12 0.887507 0.376012 0.246887
O O13 0.000000 0.235349 0.000000
O O14 0.000000 0.500000 0.000000
#
# Coordination Sequence:
#
# PCOD9203075 Si02
#       6
#     4   8   8   8   8   4
#     4  12  24  38  62 100 132 166 219 270 322 396
#     4  10  23  41  62  88 130 171 207 263 330 384
#     4  11  25  44  67  97 131 173 224 277 328 394
#     4  11  21  40  62  92 128 167 212 265 324 383
#     4  11  22  40  68  96 130 170 219 273 337 390
#     4  10  20  38  66  94 126 176 211 263 346 382
#
# _framework density 19.694072999999999
#
# number of rings (size 3 to 8) (size 9 to 14) (size 15 to 20)
#    0.000    1.200    7.000    0.000    4.200    1.200 
#    1.800    0.000    0.000    3.000    0.000    0.000 
#    0.000    0.000    0.000    0.000    0.000    0.000 
#
# Total GULP energy -111653.134856 kJ/mol
# GULP energy per Si atom -5582.656743 kJ/mol
# Density = 1.964925 g / cm^3
# Si number density = 19.694073 Si / 1000 Ang^3
#
#
#
# Elastic Constant Matrix: (Units=GPa)
#
#
# Indices 1 2 3 4 5 6 
#
# 1 93.5526 36.4304 9.6666 0.0000 17.4467 0.0000
# 2 36.4304 98.9558 30.1306 0.0000 6.5461 0.0000
# 3 9.6666 30.1306 60.7172 0.0000 14.4734 0.0000
# 4 0.0000 0.0000 0.0000 2.5928 0.0000 -25.9475
# 5 17.4467 6.5461 14.4734 0.0000 33.9899 0.0000
# 6 0.0000 0.0000 0.0000 -25.9475 0.0000 -6.1331
#
#
#
# Elastic Compliance Matrix: (Units=1/GPa)
#
#
# Indices 1 2 3 4 5 6 
#
# 1 0.013821 -0.005257 0.002068 0.000000 -0.006962 0.000000
# 2 -0.005257 0.013906 -0.006754 0.000000 0.002896 0.000000
# 3 0.002068 -0.006754 0.021631 0.000000 -0.008972 0.000000
# 4 0.000000 0.000000 0.000000 0.008899 0.000000 -0.037650
# 5 -0.006962 0.002896 -0.008972 0.000000 0.036257 0.000000
# 6 0.000000 0.000000 0.000000 -0.037650 0.000000 -0.003762
#
#
# Mechanical properties :
#
#
# Convention : Reuss Voigt Hill
#
# Bulk Modulus (GPa) = 33.93141 45.07563 39.50352
# Shear Modulus (GPa) = 41.50683 17.88980 29.69831
#
# Velocity S-wave (km/s) = 4.59582 3.01721 3.88749
# Velocity P-wave (km/s) = 6.74008 5.92247 6.34446
#
# Compressibility (1/GPa) = 0.02947122
#
# Stress axis : x y z
#
# Youngs Moduli (GPa) = 72.35267 71.91159 46.23028
#
# Poissons Ratio (x) = 0.37807 -0.09561
# Poissons Ratio (y) = 0.38039 0.31225
# Poissons Ratio (z) = -0.14964 0.48570
#
# Static dielectric constant tensor:
#      x y z
#    x 1.699500 0.000000 -0.034940 
#    y 0.000000 1.684770 0.000000 
#    z -0.034940 0.000000 1.688310 
# 
# From -- ./inp_files/109726.got.cif
#   From: 2010.05.17/outbox.cif.g08.bks.cpg/sg12_55_cif.got.tgz:109726.got - 2010.06.03 13:09:07.
