data_PCOD9203444
_publ_section_title
;
Structure prediction by ZEFSAII (Michael W. Deem and Ramdas Pophale) SiO2 
 PCOD9203444
Probable space group: C 2/M
;
_chemical_formula_sum "Si O2"
_cell_formula_units_Z 58
_cell_length_a 21.808918
_cell_length_b 10.387412
_cell_length_c 25.228792
_cell_angle_alpha 90.000000
_cell_angle_beta 28.287932
_cell_angle_gamma 90.000000
_cell_volume 2708.489519
_symmetry_space_group_name_H-M "C 2/M"
_symmetry_group_IT_number 12
_symmetry_cell_setting 'monoclinic'
loop_
_space_group_symop_operation_xyz
x,y,z
-x,y,-z
-x,-y,-z
x,-y,z
1/2+x,1/2+y,z
1/2-x,1/2+y,-z
1/2-x,1/2-y,-z
1/2+x,1/2-y,z
loop_
_atom_site_type_symbol
_atom_site_label
_atom_site_fract_x
_atom_site_fract_y
_atom_site_fract_z
Si Si1 0.709316 0.857377 0.752283
Si Si2 0.526652 0.852317 0.626075
Si Si3 0.363816 0.140556 0.573327
Si Si4 0.015324 0.355016 0.811518
Si Si5 0.538996 0.350511 0.709752
Si Si6 0.729327 0.143143 0.944308
Si Si7 0.775883 0.208453 0.155720
Si Si8 0.000000 0.000000 0.000000
O O1 0.788782 0.751624 0.659967
O O2 0.570800 0.851585 0.828869
O O3 0.712844 0.824350 0.811118
O O4 0.762505 0.000000 0.702824
O O5 0.605355 0.836093 0.511734
O O6 0.562298 0.738875 0.640226
O O7 0.373064 0.840312 0.729837
O O8 0.548364 0.000000 0.628902
O O9 0.500000 0.132871 0.500000
O O10 0.298662 0.000000 0.628266
O O11 0.042035 0.500000 0.770125
O O12 0.077099 0.240803 0.730126
O O13 0.861001 0.340299 0.935653
O O14 0.586498 0.500000 0.671802
O O15 0.383213 0.358114 0.834346
O O16 0.700083 0.248756 0.922650
O O17 0.696442 0.000000 0.948765
O O18 0.885301 0.109621 0.088948
#
# Coordination Sequence:
#
# PCOD9203444 Si02
#       8
#     8   8   8   8   8   8   8   2
#     4  11  24  39  61  89 125 163 203 249 308 366
#     4  10  20  39  63  86 119 157 196 243 303 357
#     4  10  21  39  63  90 120 158 197 250 304 363
#     4  10  21  39  57  81 118 163 199 244 303 361
#     4  10  21  37  60  89 115 152 203 257 297 351
#     4   9  19  37  59  82 116 156 202 246 298 356
#     4  11  21  37  55  90 123 159 199 243 295 356
#     4  12  24  32  54  86 128 160 202 236 284 364
#
# _framework density 21.414148999999998
#
# number of rings (size 3 to 8) (size 9 to 14) (size 15 to 20)
#    0.000    1.793    2.069    2.069    0.966    1.931 
#    3.724    3.448    0.000    0.000    0.000    0.000 
#    0.000    0.000    0.000    0.000    0.000    0.000 
#
# Total GULP energy -161541.581920 kJ/mol
# GULP energy per Si atom -5570.399377 kJ/mol
# Density = 2.136541 g / cm^3
# Si number density = 21.414149 Si / 1000 Ang^3
#
#
#
# Elastic Constant Matrix: (Units=GPa)
#
#
# Indices 1 2 3 4 5 6 
#
# 1 46.3364 20.6811 -7.7724 0.0000 12.1617 0.0000
# 2 20.6811 150.3430 27.9143 0.0002 14.7534 -0.0001
# 3 -7.7724 27.9143 36.9884 0.0005 -0.3232 -0.0001
# 4 0.0000 0.0002 0.0005 37.3841 -0.0001 5.0954
# 5 12.1617 14.7534 -0.3232 -0.0001 24.1431 0.0000
# 6 0.0000 -0.0001 -0.0001 5.0954 0.0000 10.8501
#
#
#
# Elastic Compliance Matrix: (Units=1/GPa)
#
#
# Indices 1 2 3 4 5 6 
#
# 1 0.028071 -0.004454 0.009161 0.000000 -0.011296 0.000000
# 2 -0.004454 0.009043 -0.007790 0.000000 -0.003387 0.000000
# 3 0.009161 -0.007790 0.034845 0.000000 0.000612 0.000001
# 4 0.000000 0.000000 0.000000 0.028579 0.000000 -0.013421
# 5 -0.011296 -0.003387 0.000612 0.000000 0.049188 0.000000
# 6 0.000000 0.000000 0.000001 -0.013421 0.000000 0.098468
#
#
# Mechanical properties :
#
#
# Convention : Reuss Voigt Hill
#
# Bulk Modulus (GPa) = 15.19925 35.03486 25.11705
# Shear Modulus (GPa) = 18.09701 27.33176 22.71439
#
# Velocity S-wave (km/s) = 2.91021 3.57647 3.26040
# Velocity P-wave (km/s) = 4.29017 5.78368 5.09198
#
# Compressibility (1/GPa) = 0.06579273
#
# Stress axis : x y z
#
# Youngs Moduli (GPa) = 35.62453 110.58499 28.69871
#
# Poissons Ratio (x) = 0.49253 -0.26291
# Poissons Ratio (y) = 0.15867 0.22356
# Poissons Ratio (z) = -0.32636 0.86145
#
# Static dielectric constant tensor:
#      x y z
#    x 1.812370 0.000000 -0.028350 
#    y 0.000000 1.779710 0.000000 
#    z -0.028350 0.000000 1.762490 
# 
# From -- ./inp_files/367497.got.cif
#   From: 2010.05.17/outbox.cif.g08.bks.cpg/sg12_184_cif.got.tgz:367497.got - 2010.06.03 13:09:07.
