data_PCOD9203937
_publ_section_title
;
Structure prediction by ZEFSAII (Michael W. Deem and Ramdas Pophale) SiO2 
 PCOD9203937
Probable space group: C 2/M
;
_chemical_formula_sum "Si O2"
_cell_formula_units_Z 44
_cell_length_a 10.961546
_cell_length_b 26.427893
_cell_length_c 11.064797
_cell_angle_alpha 90.000000
_cell_angle_beta 43.723305
_cell_angle_gamma 90.000000
_cell_volume 2215.474290
_symmetry_space_group_name_H-M "C 2/M"
_symmetry_group_IT_number 12
_symmetry_cell_setting 'monoclinic'
loop_
_space_group_symop_operation_xyz
x,y,z
-x,y,-z
-x,-y,-z
x,-y,z
1/2+x,1/2+y,z
1/2-x,1/2+y,-z
1/2-x,1/2-y,-z
1/2+x,1/2-y,z
loop_
_atom_site_type_symbol
_atom_site_label
_atom_site_fract_x
_atom_site_fract_y
_atom_site_fract_z
Si Si1 0.165892 0.753993 0.192384
Si Si2 0.799994 0.443315 0.794990
Si Si3 0.500000 0.190094 0.000000
Si Si4 0.476781 0.557008 0.216498
Si Si5 0.071669 0.152550 0.584186
Si Si6 0.490877 0.847490 0.273041
O O1 0.016637 0.796697 0.300525
O O2 0.085352 0.699147 0.274407
O O3 0.250000 0.750000 0.000000
O O4 0.330774 0.774730 0.151553
O O5 0.876766 0.500000 0.742083
O O6 0.696493 0.436344 0.743175
O O7 0.936741 0.399690 0.726462
O O8 0.645155 0.441004 0.006761
O O9 0.534316 0.158244 0.097530
O O10 0.471262 0.500000 0.272919
O O11 0.486390 0.602790 0.301959
O O12 0.281871 0.156073 0.436064
O O13 0.000000 0.148346 0.500000
#
# Coordination Sequence:
#
# PCOD9203937 Si02
#       6
#     8   8   4   8   8   8
#     4  10  22  40  62  86 121 167 206 247 304 378
#     4   9  20  41  67  93 122 166 220 258 299 372
#     4  10  20  40  61  90 125 160 208 254 308 388
#     4   9  20  41  66  92 126 167 212 258 307 369
#     4  12  24  41  62  94 136 162 203 264 315 372
#     4  11  23  38  64  91 127 165 204 257 320 369
#
# _framework density 19.860306999999999
#
# number of rings (size 3 to 8) (size 9 to 14) (size 15 to 20)
#    0.000    1.818    1.818    3.818    0.000    6.182 
#    3.273    2.273    0.000    0.000    0.000    0.000 
#    0.000    0.000    0.000    0.000    0.000    0.000 
#
# Total GULP energy -122895.898224 kJ/mol
# GULP energy per Si atom -5586.177192 kJ/mol
# Density = 1.981510 g / cm^3
# Si number density = 19.860307 Si / 1000 Ang^3
#
#
#
# Elastic Constant Matrix: (Units=GPa)
#
#
# Indices 1 2 3 4 5 6 
#
# 1 63.2144 68.8958 29.6865 0.0000 -24.1567 0.0000
# 2 68.8958 184.7352 58.3675 0.0000 -12.5665 0.0000
# 3 29.6865 58.3675 64.1444 0.0000 -13.6751 0.0000
# 4 0.0000 0.0000 0.0000 702.5935 0.0000 630.4161
# 5 -24.1567 -12.5665 -13.6751 0.0000 42.9799 0.0000
# 6 0.0000 0.0000 0.0000 630.4161 0.0000 644.4426
#
#
#
# Elastic Compliance Matrix: (Units=1/GPa)
#
#
# Indices 1 2 3 4 5 6 
#
# 1 0.035398 -0.011249 -0.002796 0.000000 0.015717 0.000000
# 2 -0.011249 0.011172 -0.006020 0.000000 -0.004971 0.000000
# 3 -0.002796 -0.006020 0.023227 0.000000 0.004059 0.000000
# 4 0.000000 0.000000 0.000000 0.011642 0.000000 -0.011388
# 5 0.015717 -0.004971 0.004059 0.000000 0.031938 0.000000
# 6 0.000000 0.000000 0.000000 -0.011388 0.000000 0.012692
#
#
# Mechanical properties :
#
#
# Convention : Reuss Voigt Hill
#
# Bulk Modulus (GPa) = 33.70663 69.55485 51.63074
# Shear Modulus (GPa) = 28.39498 288.34615 158.37057
#
# Velocity S-wave (km/s) = 3.78529 12.06244 8.93954
# Velocity P-wave (km/s) = 6.00943 15.13609 11.51552
#
# Compressibility (1/GPa) = 0.02966776
#
# Stress axis : x y z
#
# Youngs Moduli (GPa) = 28.24999 89.50811 43.05404
#
# Poissons Ratio (x) = 1.00688 0.12038
# Poissons Ratio (y) = 0.31779 0.25917
# Poissons Ratio (z) = 0.07898 0.53881
#
# Static dielectric constant tensor:
#      x y z
#    x 1.709800 0.000000 0.001460 
#    y 0.000000 1.688880 0.000000 
#    z 0.001460 0.000000 1.717600 
# 
# From -- ./inp_files/135738.got.cif
#   From: 2010.05.17/outbox.cif.g08.bks.cpg/sg12_68_cif.got.tgz:135738.got - 2010.06.03 13:09:07.
