data_PCOD9203385
_publ_section_title
;
Structure prediction by ZEFSAII (Michael W. Deem and Ramdas Pophale) SiO2 
 PCOD9203385
Probable space group: C 2/M
;
_chemical_formula_sum "Si O2"
_cell_formula_units_Z 52
_cell_length_a 19.481401
_cell_length_b 9.873368
_cell_length_c 15.937795
_cell_angle_alpha 90.000000
_cell_angle_beta 62.065557
_cell_angle_gamma 90.000000
_cell_volume 2708.398238
_symmetry_space_group_name_H-M "C 2/M"
_symmetry_group_IT_number 12
_symmetry_cell_setting 'monoclinic'
loop_
_space_group_symop_operation_xyz
x,y,z
-x,y,-z
-x,-y,-z
x,-y,z
1/2+x,1/2+y,z
1/2-x,1/2+y,-z
1/2-x,1/2-y,-z
1/2+x,1/2-y,z
loop_
_atom_site_type_symbol
_atom_site_label
_atom_site_fract_x
_atom_site_fract_y
_atom_site_fract_z
Si Si1 0.092478 0.342804 0.963041
Si Si2 0.440853 0.157405 0.459773
Si Si3 0.737192 0.842115 0.426251
Si Si4 0.995680 0.841063 0.277154
Si Si5 0.635981 0.658563 0.785706
Si Si6 0.653288 0.255007 0.107378
Si Si7 0.253961 0.000000 0.977062
O O1 0.118606 0.500000 0.949403
O O2 0.131845 0.255332 0.867813
O O3 0.112923 0.280781 0.040958
O O4 0.000000 0.340344 0.000000
O O5 0.500000 0.189129 0.500000
O O6 0.353290 0.170414 0.543223
O O7 0.456286 0.253592 0.372386
O O8 0.451781 0.000000 0.427981
O O9 0.750000 0.750000 0.500000
O O10 0.793783 0.806820 0.317276
O O11 0.753783 0.000000 0.437396
O O12 0.942773 0.826320 0.223855
O O13 0.082851 0.791538 0.209246
O O14 0.995443 0.000000 0.298603
O O15 0.642309 0.500000 0.807494
O O16 0.708987 0.381329 0.057952
O O17 0.701213 0.120911 0.101841
#
# Coordination Sequence:
#
# PCOD9203385 Si02
#       7
#     8   8   8   8   8   8   4
#     4  11  23  38  60  91 128 155 203 263 311 358
#     4  10  23  42  62  92 126 164 207 255 312 377
#     4  10  20  39  62  88 122 158 203 257 305 367
#     4  11  22  39  65  92 123 158 209 257 311 376
#     4  10  22  37  59  93 123 162 205 254 316 370
#     4  11  22  43  60  92 121 168 209 258 299 374
#     4  10  24  42  62  78 128 168 212 244 308 362
#
# _framework density 19.199539000000001
#
# number of rings (size 3 to 8) (size 9 to 14) (size 15 to 20)
#    0.000    1.538    4.615    0.000    2.154    1.846 
#    5.538    0.000    0.000    0.000    0.000    0.000 
#    0.000    0.000    0.000    0.000    0.000    0.000 
#
# Total GULP energy -144737.552465 kJ/mol
# GULP energy per Si atom -5566.828941 kJ/mol
# Density = 1.915584 g / cm^3
# Si number density = 19.199539 Si / 1000 Ang^3
#
#
#
# Elastic Constant Matrix: (Units=GPa)
#
#
# Indices 1 2 3 4 5 6 
#
# 1 31.1629 12.2521 -1.4970 0.0000 -6.8330 0.0000
# 2 12.2521 110.0084 39.1005 0.0000 3.8656 0.0000
# 3 -1.4970 39.1005 93.8429 0.0000 -13.4631 0.0000
# 4 0.0000 0.0000 0.0000 35.1505 0.0000 -6.0839
# 5 -6.8330 3.8656 -13.4631 0.0000 27.0764 0.0000
# 6 0.0000 0.0000 0.0000 -6.0839 0.0000 9.1755
#
#
#
# Elastic Compliance Matrix: (Units=1/GPa)
#
#
# Indices 1 2 3 4 5 6 
#
# 1 0.037753 -0.006505 0.005182 0.000000 0.013033 0.000000
# 2 -0.006505 0.012214 -0.006115 0.000000 -0.006426 0.000000
# 3 0.005182 -0.006115 0.014644 0.000000 0.009462 0.000000
# 4 0.000000 0.000000 0.000000 0.032137 0.000000 0.021309
# 5 0.013033 -0.006426 0.009462 0.000000 0.045844 0.000000
# 6 0.000000 0.000000 0.000000 0.021309 0.000000 0.123115
#
#
# Mechanical properties :
#
#
# Convention : Reuss Voigt Hill
#
# Bulk Modulus (GPa) = 20.10571 37.19170 28.64870
# Shear Modulus (GPa) = 16.82595 26.62439 21.72517
#
# Velocity S-wave (km/s) = 2.96357 3.72791 3.36750
# Velocity P-wave (km/s) = 4.71222 6.15978 5.48398
#
# Compressibility (1/GPa) = 0.04973713
#
# Stress axis : x y z
#
# Youngs Moduli (GPa) = 26.48765 81.87488 68.28765
#
# Poissons Ratio (x) = 0.53257 -0.35388
# Poissons Ratio (y) = 0.17229 0.41755
# Poissons Ratio (z) = -0.13726 0.50063
#
# Static dielectric constant tensor:
#      x y z
#    x 1.725430 0.000000 -0.021260 
#    y 0.000000 1.649040 0.000000 
#    z -0.021260 0.000000 1.634270 
# 
# From -- ./inp_files/282071.got.cif
#   From: 2010.05.17/outbox.cif.g08.bks.cpg/sg12_142_cif.got.tgz:282071.got - 2010.06.03 13:09:07.
