data_PCOD9203551
_publ_section_title
;
Structure prediction by ZEFSAII (Michael W. Deem and Ramdas Pophale) SiO2 
 PCOD9203551
Probable space group: C 2/M
;
_chemical_formula_sum "Si O2"
_cell_formula_units_Z 40
_cell_length_a 18.588253
_cell_length_b 12.783474
_cell_length_c 7.606295
_cell_angle_alpha 90.000000
_cell_angle_beta 64.280922
_cell_angle_gamma 90.000000
_cell_volume 1628.369360
_symmetry_space_group_name_H-M "C 2/M"
_symmetry_group_IT_number 12
_symmetry_cell_setting 'monoclinic'
loop_
_space_group_symop_operation_xyz
x,y,z
-x,y,-z
-x,-y,-z
x,-y,z
1/2+x,1/2+y,z
1/2-x,1/2+y,-z
1/2-x,1/2-y,-z
1/2+x,1/2-y,z
loop_
_atom_site_type_symbol
_atom_site_label
_atom_site_fract_x
_atom_site_fract_y
_atom_site_fract_z
Si Si1 0.684695 0.835970 0.788281
Si Si2 0.094389 0.881387 0.441758
Si Si3 0.964483 0.726010 0.214952
Si Si4 0.628812 0.819066 0.217262
Si Si5 0.249671 0.887430 0.646229
O O1 0.597113 0.856389 0.800649
O O2 0.741711 0.878166 0.574540
O O3 0.702683 0.711717 0.769347
O O4 0.678810 0.862376 0.998895
O O5 0.086934 0.810742 0.623893
O O6 0.137377 0.805254 0.255468
O O7 0.000000 0.889061 0.500000
O O8 0.123694 0.000000 0.417990
O O9 0.035623 0.678431 0.257916
O O10 0.000000 0.777323 0.000000
O O11 0.663241 0.876221 0.352123
O O12 0.214944 0.000000 0.727379
#
# Coordination Sequence:
#
# PCOD9203551 Si02
#       5
#     8   8   8   8   8
#     4  10  22  41  60  90 122 159 201 250 302 353
#     4   9  17  30  53  87 121 154 190 234 295 359
#     4   9  18  35  62  88 122 159 197 250 302 353
#     4  10  20  39  64  88 123 158 197 253 305 354
#     4  11  24  41  62  88 121 164 207 243 297 363
#
# _framework density 24.564451999999999
#
# number of rings (size 3 to 8) (size 9 to 14) (size 15 to 20)
#    0.000    2.200    2.000    0.600    0.000    2.800 
#    0.000    6.000    0.000    3.600    0.000    0.000 
#    0.000    0.000    0.000    0.000    0.000    0.000 
#
# Total GULP energy -111524.011430 kJ/mol
# GULP energy per Si atom -5576.200571 kJ/mol
# Density = 2.450854 g / cm^3
# Si number density = 24.564452 Si / 1000 Ang^3
#
#
#
# Elastic Constant Matrix: (Units=GPa)
#
#
# Indices 1 2 3 4 5 6 
#
# 1 105.9672 8.2843 16.4202 0.0000 9.5407 0.0000
# 2 8.2843 71.3118 -4.9503 0.0000 6.5493 0.0000
# 3 16.4202 -4.9503 138.7843 0.0000 21.2844 0.0000
# 4 0.0000 0.0000 0.0000 1.9956 0.0000 -0.1942
# 5 9.5407 6.5493 21.2844 0.0000 36.0496 0.0000
# 6 0.0000 0.0000 0.0000 -0.1942 0.0000 18.7579
#
#
#
# Elastic Compliance Matrix: (Units=1/GPa)
#
#
# Indices 1 2 3 4 5 6 
#
# 1 0.009828 -0.001033 -0.000912 0.000000 -0.001875 0.000000
# 2 -0.001033 0.014496 0.001101 0.000000 -0.003010 0.000000
# 3 -0.000912 0.001101 0.008078 0.000000 -0.004728 0.000000
# 4 0.000000 0.000000 0.000000 0.501619 0.000000 0.005195
# 5 -0.001875 -0.003010 -0.004728 0.000000 0.031574 0.000000
# 6 0.000000 0.000000 0.000000 0.005195 0.000000 0.053365
#
#
# Mechanical properties :
#
#
# Convention : Reuss Voigt Hill
#
# Bulk Modulus (GPa) = 32.55925 39.50795 36.03360
# Shear Modulus (GPa) = 7.92538 31.11454 19.51996
#
# Velocity S-wave (km/s) = 1.79816 3.56286 2.82200
# Velocity P-wave (km/s) = 4.19459 5.74836 5.03181
#
# Compressibility (1/GPa) = 0.03071324
#
# Stress axis : x y z
#
# Youngs Moduli (GPa) = 101.75259 68.98552 123.79782
#
# Poissons Ratio (x) = 0.07125 0.11291
# Poissons Ratio (y) = 0.10509 -0.13629
# Poissons Ratio (z) = 0.09281 -0.07595
#
# Static dielectric constant tensor:
#      x y z
#    x 2.072830 0.000000 0.007840 
#    y 0.000000 1.924220 0.000000 
#    z 0.007840 0.000000 1.944450 
# 
# From -- ./inp_files/83377.got.cif
#   From: 2010.05.17/outbox.cif.g08.bks.cpg/sg12_42_cif.got.tgz:83377.got - 2010.06.03 13:09:07.
