data_PCOD9203031
_publ_section_title
;
Structure prediction by ZEFSAII (Michael W. Deem and Ramdas Pophale) SiO2 
 PCOD9203031
Probable space group: C 2/M
;
_chemical_formula_sum "Si O2"
_cell_formula_units_Z 48
_cell_length_a 18.198411
_cell_length_b 23.465258
_cell_length_c 9.772716
_cell_angle_alpha 90.000000
_cell_angle_beta 24.843408
_cell_angle_gamma 90.000000
_cell_volume 1753.346730
_symmetry_space_group_name_H-M "C 2/M"
_symmetry_group_IT_number 12
_symmetry_cell_setting 'monoclinic'
loop_
_space_group_symop_operation_xyz
x,y,z
-x,y,-z
-x,-y,-z
x,-y,z
1/2+x,1/2+y,z
1/2-x,1/2+y,-z
1/2-x,1/2-y,-z
1/2+x,1/2-y,z
loop_
_atom_site_type_symbol
_atom_site_label
_atom_site_fract_x
_atom_site_fract_y
_atom_site_fract_z
Si Si1 0.297152 0.564499 0.721542
Si Si2 0.791981 0.408709 0.834750
Si Si3 0.377843 0.363870 0.337441
Si Si4 0.008845 0.267262 0.829550
Si Si5 0.618107 0.934434 0.615369
Si Si6 0.832012 0.283010 0.702285
O O1 0.330959 0.500000 0.618411
O O2 0.401507 0.607680 0.446747
O O3 0.313477 0.566904 0.859072
O O4 0.087827 0.576930 0.059670
O O5 0.772195 0.429111 0.712478
O O6 0.772964 0.340298 0.875135
O O7 0.000000 0.421385 0.500000
O O8 0.403452 0.295901 0.311648
O O9 0.199127 0.392544 0.589439
O O10 0.500000 0.377022 0.000000
O O11 0.115991 0.302786 0.538706
O O12 0.822991 0.259829 0.068462
O O13 0.000000 0.286311 0.000000
O O14 0.634215 0.000000 0.634116
O O15 0.000000 0.259842 0.500000
#
# Coordination Sequence:
#
# PCOD9203031 Si02
#       6
#     8   8   8   8   8   8
#     4  10  21  39  66  98 133 178 228 276 333 404
#     4   9  19  37  62  96 131 167 216 276 335 393
#     4  11  24  41  61  92 135 176 218 275 336 397
#     4  11  25  45  68  98 137 179 227 282 342 406
#     4  10  20  38  65  95 131 177 228 278 334 404
#     4  11  24  45  72 101 134 178 229 282 341 406
#
# _framework density 27.376217
#
# number of rings (size 3 to 8) (size 9 to 14) (size 15 to 20)
#    0.000    1.667    0.000    4.500    0.000   10.000 
#    0.000    5.833    0.000    5.000    0.000    0.000 
#    0.000    0.000    0.000    0.000    0.000    0.000 
#
# Total GULP energy -134445.183384 kJ/mol
# GULP energy per Si atom -5601.882641 kJ/mol
# Density = 2.731391 g / cm^3
# Si number density = 27.376217 Si / 1000 Ang^3
#
#
#
# Elastic Constant Matrix: (Units=GPa)
#
#
# Indices 1 2 3 4 5 6 
#
# 1 149.5420 43.1812 31.1586 -0.0030 9.6585 0.0001
# 2 43.1812 80.8940 49.8094 -0.0098 15.8590 0.0038
# 3 31.1586 49.8094 135.0048 -0.0247 42.3447 0.0173
# 4 -0.0030 -0.0098 -0.0247 35.4414 0.0201 17.3401
# 5 9.6585 15.8590 42.3447 0.0201 67.2588 -0.0055
# 6 0.0001 0.0038 0.0173 17.3401 -0.0055 15.3995
#
#
#
# Elastic Compliance Matrix: (Units=1/GPa)
#
#
# Indices 1 2 3 4 5 6 
#
# 1 0.007918 -0.004013 -0.000358 -0.000003 0.000034 0.000005
# 2 -0.004013 0.018030 -0.005698 -0.000001 -0.000087 0.000003
# 3 -0.000358 -0.005698 0.011407 0.000036 -0.005787 -0.000054
# 4 -0.000003 -0.000001 0.000036 0.062830 -0.000047 -0.070747
# 5 0.000034 -0.000087 -0.005787 -0.000047 0.018527 0.000066
# 6 0.000005 0.000003 -0.000054 -0.070747 0.000066 0.144600
#
#
# Mechanical properties :
#
#
# Convention : Reuss Voigt Hill
#
# Bulk Modulus (GPa) = 58.08305 68.19326 63.13815
# Shear Modulus (GPa) = 17.28972 39.70606 28.49789
#
# Velocity S-wave (km/s) = 2.51581 3.81252 3.22991
# Velocity P-wave (km/s) = 5.44993 6.65914 6.08465
#
# Compressibility (1/GPa) = 0.01721673
#
# Stress axis : x y z
#
# Youngs Moduli (GPa) = 126.29066 55.46307 87.66465
#
# Poissons Ratio (x) = 0.22259 0.03135
# Poissons Ratio (y) = 0.50684 0.49955
# Poissons Ratio (z) = 0.04516 0.31605
#
# Static dielectric constant tensor:
#      x y z
#    x 2.172380 -0.000010 -0.058720 
#    y -0.000010 2.027080 0.000020 
#    z -0.058720 0.000020 2.166400 
# 
# From -- ./inp_files/80572.got.cif
#   From: 2010.05.17/outbox.cif.g08.bks.cpg/sg12_41_cif.got.tgz:80572.got - 2010.06.03 13:09:07.
