data_PCOD9203996
_publ_section_title
;
Structure prediction by ZEFSAII (Michael W. Deem and Ramdas Pophale) SiO2 
 PCOD9203996
Probable space group: C 2/M
;
_chemical_formula_sum "Si O2"
_cell_formula_units_Z 56
_cell_length_a 26.525676
_cell_length_b 9.268729
_cell_length_c 19.605879
_cell_angle_alpha 90.000000
_cell_angle_beta 143.906481
_cell_angle_gamma 90.000000
_cell_volume 2839.655403
_symmetry_space_group_name_H-M "C 2/M"
_symmetry_group_IT_number 12
_symmetry_cell_setting 'monoclinic'
loop_
_space_group_symop_operation_xyz
x,y,z
-x,y,-z
-x,-y,-z
x,-y,z
1/2+x,1/2+y,z
1/2-x,1/2+y,-z
1/2-x,1/2-y,-z
1/2+x,1/2-y,z
loop_
_atom_site_type_symbol
_atom_site_label
_atom_site_fract_x
_atom_site_fract_y
_atom_site_fract_z
Si Si1 0.428878 0.170514 0.481706
Si Si2 0.890702 0.666069 0.954873
Si Si3 0.833883 0.672061 0.122599
Si Si4 0.509833 0.672430 0.314288
Si Si5 0.783265 0.329698 0.221816
Si Si6 0.080723 0.667042 0.176213
Si Si7 0.167048 0.169220 0.383376
O O1 0.500000 0.179292 0.500000
O O2 0.457280 0.261723 0.577969
O O3 0.341337 0.220912 0.348858
O O4 0.421577 0.000000 0.492359
O O5 0.878501 0.500000 0.962398
O O6 0.808273 0.755664 0.883798
O O7 0.901609 0.669287 0.884919
O O8 0.982932 0.714915 0.082827
O O9 0.833036 0.500000 0.106767
O O10 0.830423 0.689987 0.201085
O O11 0.922180 0.747579 0.196968
O O12 0.750000 0.750000 0.000000
O O13 0.495174 0.500000 0.304146
O O14 0.585459 0.697335 0.342690
O O15 0.771449 0.500000 0.218269
O O16 0.089217 0.500000 0.207896
O O17 0.144084 0.769791 0.284539
O O18 0.250000 0.250000 0.500000
O O19 0.182693 0.000000 0.399140
#
# Coordination Sequence:
#
# PCOD9203996 Si02
#       7
#     8   8   8   8   8   8   8
#     4  10  20  40  63  86 119 159 200 243 297 359
#     4   9  20  38  62  90 121 156 196 248 304 358
#     4  11  24  43  64  91 128 167 206 251 302 365
#     4  11  25  43  63  92 124 160 206 258 308 362
#     4  10  22  38  60  90 123 157 199 248 300 359
#     4   9  20  41  63  87 120 157 201 249 302 363
#     4  11  26  44  63  89 122 160 206 256 306 365
#
# _framework density 19.720701999999999
#
# number of rings (size 3 to 8) (size 9 to 14) (size 15 to 20)
#    0.000    1.857    1.429    2.143    4.000    5.429 
#    0.000    1.429    0.000    0.000    0.000    0.000 
#    0.000    0.000    0.000    0.000    0.000    0.000 
#
# Total GULP energy -156430.420067 kJ/mol
# GULP energy per Si atom -5586.800717 kJ/mol
# Density = 1.967582 g / cm^3
# Si number density = 19.720702 Si / 1000 Ang^3
#
#
#
# Elastic Constant Matrix: (Units=GPa)
#
#
# Indices 1 2 3 4 5 6 
#
# 1 29.5180 36.3824 10.4800 0.0000 13.5664 0.0000
# 2 36.3824 74.4937 57.3498 0.0000 14.6641 0.0000
# 3 10.4800 57.3498 116.0580 0.0000 13.1339 0.0000
# 4 0.0000 0.0000 0.0000 34.6678 0.0000 4.1320
# 5 13.5664 14.6641 13.1339 0.0000 34.1887 0.0000
# 6 0.0000 0.0000 0.0000 4.1320 0.0000 32.0393
#
#
#
# Elastic Compliance Matrix: (Units=1/GPa)
#
#
# Indices 1 2 3 4 5 6 
#
# 1 0.167434 -0.106695 0.041759 0.000000 -0.036718 0.000000
# 2 -0.106695 0.090659 -0.037171 0.000000 0.017732 0.000000
# 3 0.041759 -0.037171 0.024343 0.000000 -0.009978 0.000000
# 4 0.000000 0.000000 0.000000 0.029296 0.000000 -0.003778
# 5 -0.036718 0.017732 -0.009978 0.000000 0.040047 0.000000
# 6 0.000000 0.000000 0.000000 -0.003778 0.000000 0.031699
#
#
# Mechanical properties :
#
#
# Convention : Reuss Voigt Hill
#
# Bulk Modulus (GPa) = 12.78409 47.61045 30.19727
# Shear Modulus (GPa) = 8.14643 27.90300 18.02472
#
# Velocity S-wave (km/s) = 2.03467 3.76561 3.02652
# Velocity P-wave (km/s) = 3.46648 6.56515 5.24965
#
# Compressibility (1/GPa) = 0.07822223
#
# Stress axis : x y z
#
# Youngs Moduli (GPa) = 5.97251 11.03030 41.07974
#
# Poissons Ratio (x) = 1.17687 -1.71545
# Poissons Ratio (y) = 0.63723 1.52699
# Poissons Ratio (z) = -0.24941 0.41001
#
# Static dielectric constant tensor:
#      x y z
#    x 1.697560 0.000000 0.003870 
#    y 0.000000 1.658200 0.000000 
#    z 0.003870 0.000000 1.700160 
# 
# From -- ./inp_files/329674.got.cif
#   From: 2010.05.17/outbox.cif.g08.bks.cpg/sg12_165_cif.got.tgz:329674.got - 2010.06.03 13:09:07.
