data_PCOD9203485
_publ_section_title
;
Structure prediction by ZEFSAII (Michael W. Deem and Ramdas Pophale) SiO2 
 PCOD9203485
Probable space group: C 2/M
;
_chemical_formula_sum "Si O2"
_cell_formula_units_Z 40
_cell_length_a 31.971269
_cell_length_b 11.389060
_cell_length_c 4.918097
_cell_angle_alpha 90.000000
_cell_angle_beta 74.669091
_cell_angle_gamma 90.000000
_cell_volume 1727.065345
_symmetry_space_group_name_H-M "C 2/M"
_symmetry_group_IT_number 12
_symmetry_cell_setting 'monoclinic'
loop_
_space_group_symop_operation_xyz
x,y,z
-x,y,-z
-x,-y,-z
x,-y,z
1/2+x,1/2+y,z
1/2-x,1/2+y,-z
1/2-x,1/2-y,-z
1/2+x,1/2-y,z
loop_
_atom_site_type_symbol
_atom_site_label
_atom_site_fract_x
_atom_site_fract_y
_atom_site_fract_z
Si Si1 0.114609 0.500000 0.251803
Si Si2 0.136533 0.133489 0.188571
Si Si3 0.922443 0.136287 0.210048
Si Si4 0.170321 0.500000 0.670613
Si Si5 0.540872 0.131749 0.628047
Si Si6 0.782140 0.272190 0.194447
O O1 0.156509 0.500000 0.378687
O O2 0.084841 0.610950 0.378118
O O3 0.125945 0.500000 0.918559
O O4 0.094380 0.139617 0.068110
O O5 0.174717 0.205613 0.984847
O O6 0.152593 0.000000 0.159945
O O7 0.119608 0.156201 0.522115
O O8 0.952938 0.248474 0.215314
O O9 0.937686 0.000000 0.239175
O O10 0.197051 0.391997 0.736278
O O11 0.500000 0.143050 0.500000
O O12 0.537320 0.000000 0.768543
O O13 0.750000 0.250000 0.500000
O O14 0.750000 0.250000 0.000000
#
# Coordination Sequence:
#
# PCOD9203485 Si02
#       6
#     4   8   8   4   8   8
#     4  10  21  40  64  86 124 160 206 240 298 368
#     4  10  22  40  64  86 117 159 199 246 300 363
#     4  10  20  39  63  90 118 159 208 242 296 364
#     4  12  24  42  65  88 120 160 204 252 295 366
#     4   9  20  39  63  94 129 161 199 255 305 350
#     4  12  26  39  61  87 119 153 197 251 313 356
#
# _framework density 23.160677
#
# number of rings (size 3 to 8) (size 9 to 14) (size 15 to 20)
#    0.600    1.000    0.000    4.800    2.800    0.400 
#    0.000    5.000    0.000    3.600    0.000    0.000 
#    0.000    0.000    0.000    0.000    0.000    0.000 
#
# Total GULP energy -111523.518014 kJ/mol
# GULP energy per Si atom -5576.175901 kJ/mol
# Density = 2.310796 g / cm^3
# Si number density = 23.160677 Si / 1000 Ang^3
#
#
#
# Elastic Constant Matrix: (Units=GPa)
#
#
# Indices 1 2 3 4 5 6 
#
# 1 110.3113 44.7811 6.8923 0.0000 17.5279 0.0000
# 2 44.7811 121.8421 -6.4555 0.0000 -9.3673 0.0000
# 3 6.8923 -6.4555 98.5354 0.0000 6.5735 0.0000
# 4 0.0000 0.0000 0.0000 -5.6527 0.0000 21.4551
# 5 17.5279 -9.3673 6.5735 0.0000 34.5239 0.0000
# 6 0.0000 0.0000 0.0000 21.4551 0.0000 78.4155
#
#
#
# Elastic Compliance Matrix: (Units=1/GPa)
#
#
# Indices 1 2 3 4 5 6 
#
# 1 0.012417 -0.005184 -0.000703 0.000000 -0.007577 0.000000
# 2 -0.005184 0.010562 0.000697 0.000000 0.005365 0.000000
# 3 -0.000703 0.000697 0.010338 0.000000 -0.001423 0.000000
# 4 0.000000 0.000000 0.000000 -0.086783 0.000000 0.023745
# 5 -0.007577 0.005365 -0.001423 0.000000 0.034539 0.000000
# 6 0.000000 0.000000 0.000000 0.023745 0.000000 0.006256
#
#
# Mechanical properties :
#
#
# Convention : Reuss Voigt Hill
#
# Bulk Modulus (GPa) = 43.59515 46.79163 45.19339
# Shear Modulus (GPa) = 933.81067 40.48875 487.14971
#
# Velocity S-wave (km/s) = 20.10133 4.18565 14.51866
# Velocity P-wave (km/s) = 23.61387 6.60352 17.33813
#
# Compressibility (1/GPa) = 0.02293833
#
# Stress axis : x y z
#
# Youngs Moduli (GPa) = 80.53220 94.68043 96.72729
#
# Poissons Ratio (x) = 0.49078 0.06797
# Poissons Ratio (y) = 0.41744 -0.06738
# Poissons Ratio (z) = 0.05659 -0.06596
#
# Static dielectric constant tensor:
#      x y z
#    x 2.180660 0.000000 -0.365190 
#    y 0.000000 1.942840 0.000000 
#    z -0.365190 0.000000 2.158600 
# 
# From -- ./inp_files/30778.got.cif
#   From: 2010.05.17/outbox.cif.g08.bks.cpg/sg12_16_cif.got.tgz:30778.got - 2010.06.03 13:09:07.
