data_PCOD9203736
_publ_section_title
;
Structure prediction by ZEFSAII (Michael W. Deem and Ramdas Pophale) SiO2 
 PCOD9203736
Probable space group: C 2/M
;
_chemical_formula_sum "Si O2"
_cell_formula_units_Z 48
_cell_length_a 12.735295
_cell_length_b 14.106130
_cell_length_c 24.789366
_cell_angle_alpha 90.000000
_cell_angle_beta 155.854409
_cell_angle_gamma 90.000000
_cell_volume 1821.653638
_symmetry_space_group_name_H-M "C 2/M"
_symmetry_group_IT_number 12
_symmetry_cell_setting 'monoclinic'
loop_
_space_group_symop_operation_xyz
x,y,z
-x,y,-z
-x,-y,-z
x,-y,z
1/2+x,1/2+y,z
1/2-x,1/2+y,-z
1/2-x,1/2-y,-z
1/2+x,1/2-y,z
loop_
_atom_site_type_symbol
_atom_site_label
_atom_site_fract_x
_atom_site_fract_y
_atom_site_fract_z
Si Si1 0.788947 0.349158 0.488324
Si Si2 0.530320 0.614380 0.075945
Si Si3 0.797069 0.246558 0.695783
Si Si4 0.499335 0.113798 0.878697
Si Si5 0.107113 0.604497 0.350133
Si Si6 0.638062 0.391775 0.802587
O O1 0.750000 0.250000 0.500000
O O2 0.585955 0.381287 0.348645
O O3 0.070757 0.330792 0.595334
O O4 0.771838 0.408647 0.534843
O O5 0.527434 0.500000 0.074208
O O6 0.817370 0.639889 0.227104
O O7 0.500000 0.645928 0.000000
O O8 0.291380 0.640313 0.000934
O O9 0.830722 0.318634 0.761130
O O10 0.052075 0.184821 0.805525
O O11 0.775685 0.317212 0.634259
O O12 0.399295 0.127242 0.892421
O O13 0.466099 0.000000 0.851968
O O14 0.097549 0.500000 0.318639
O O15 0.638691 0.500000 0.823271
#
# Coordination Sequence:
#
# PCOD9203736 Si02
#       6
#     8   8   8   8   8   8
#     4  12  24  41  59  88 129 162 204 258 304 361
#     4   9  17  34  63  95 126 157 200 251 309 372
#     4  12  22  39  63  91 124 162 204 256 305 366
#     4  10  20  39  66  95 125 158 202 259 313 366
#     4  11  23  40  65  97 125 161 204 253 311 366
#     4  11  25  43  63  87 123 172 213 249 309 370
#
# _framework density 26.349685000000001
#
# number of rings (size 3 to 8) (size 9 to 14) (size 15 to 20)
#    0.000    1.167    5.000    1.500    0.000    2.000 
#    0.000    5.833    0.000    0.000    0.000    7.000 
#    0.000    0.000    0.000    0.000    0.000    0.000 
#
# Total GULP energy -134362.054706 kJ/mol
# GULP energy per Si atom -5598.418946 kJ/mol
# Density = 2.628971 g / cm^3
# Si number density = 26.349685 Si / 1000 Ang^3
#
#
#
# Elastic Constant Matrix: (Units=GPa)
#
#
# Indices 1 2 3 4 5 6 
#
# 1 123.2670 51.0768 20.9855 -0.0581 16.7343 -0.1056
# 2 51.0768 136.2740 4.9687 -0.0647 9.3237 -0.1186
# 3 20.9855 4.9687 78.4124 -0.1119 15.8451 -0.2087
# 4 -0.0581 -0.0647 -0.1119 -216.1719 0.0148 -461.6224
# 5 16.7343 9.3237 15.8451 0.0148 56.4414 0.0258
# 6 -0.1056 -0.1186 -0.2087 -461.6224 0.0258 -870.6065
#
#
#
# Elastic Compliance Matrix: (Units=1/GPa)
#
#
# Indices 1 2 3 4 5 6 
#
# 1 0.010230 -0.003631 -0.002137 0.000000 -0.001833 -0.000001
# 2 -0.003631 0.008715 0.000523 0.000000 -0.000510 -0.000001
# 3 -0.002137 0.000523 0.013974 0.000001 -0.003376 -0.000004
# 4 0.000000 0.000000 0.000001 0.034972 -0.000001 -0.018543
# 5 -0.001833 -0.000510 -0.003376 -0.000001 0.019293 0.000002
# 6 -0.000001 -0.000001 -0.000004 -0.018543 0.000002 0.008683
#
#
# Mechanical properties :
#
#
# Convention : Reuss Voigt Hill
#
# Bulk Modulus (GPa) = 44.58816 54.66838 49.62827
# Shear Modulus (GPa) = 43.92373 -188.67257 -72.37442
#
# Velocity S-wave (km/s) = 4.08727 -8.47106 -5.24657
# Velocity P-wave (km/s) = 6.26361 8.65368 4.22216
#
# Compressibility (1/GPa) = 0.02242748
#
# Stress axis : x y z
#
# Youngs Moduli (GPa) = 97.75500 114.74665 71.56095
#
# Poissons Ratio (x) = 0.41662 0.15294
# Poissons Ratio (y) = 0.35493 -0.03739
# Poissons Ratio (z) = 0.20893 -0.05996
#
# Static dielectric constant tensor:
#      x y z
#    x 2.074280 0.000000 0.012170 
#    y 0.000000 0.967940 0.000000 
#    z 0.012170 0.000000 2.144140 
# 
# From -- ./inp_files/358506.got.cif
#   From: 2010.05.17/outbox.cif.g08.bks.cpg/sg12_180_cif.got.tgz:358506.got - 2010.06.03 13:09:07.
