data_PCOD9203428
_publ_section_title
;
Structure prediction by ZEFSAII (Michael W. Deem and Ramdas Pophale) SiO2 
 PCOD9203428
Probable space group: C 2/M
;
_chemical_formula_sum "Si O2"
_cell_formula_units_Z 52
_cell_length_a 8.184559
_cell_length_b 26.101102
_cell_length_c 19.315525
_cell_angle_alpha 90.000000
_cell_angle_beta 139.925753
_cell_angle_gamma 90.000000
_cell_volume 2656.427440
_symmetry_space_group_name_H-M "C 2/M"
_symmetry_group_IT_number 12
_symmetry_cell_setting 'monoclinic'
loop_
_space_group_symop_operation_xyz
x,y,z
-x,y,-z
-x,-y,-z
x,-y,z
1/2+x,1/2+y,z
1/2-x,1/2+y,-z
1/2-x,1/2-y,-z
1/2+x,1/2-y,z
loop_
_atom_site_type_symbol
_atom_site_label
_atom_site_fract_x
_atom_site_fract_y
_atom_site_fract_z
Si Si1 0.792205 0.162286 0.534748
Si Si2 0.000000 0.122147 0.000000
Si Si3 0.266025 0.186628 0.323989
Si Si4 0.186012 0.614650 0.776742
Si Si5 0.838482 0.301378 0.733327
Si Si6 0.609057 0.805307 0.957851
Si Si7 0.721853 0.943127 0.443345
O O1 0.576047 0.191324 0.420379
O O2 0.767462 0.172654 0.607524
O O3 0.738475 0.102670 0.503534
O O4 0.078809 0.179238 0.613902
O O5 0.157588 0.091653 0.108957
O O6 0.183658 0.156260 0.009562
O O7 0.176900 0.141275 0.244469
O O8 0.141570 0.240891 0.269987
O O9 0.055337 0.664772 0.768673
O O10 0.981251 0.575864 0.679221
O O11 0.874478 0.308557 0.827453
O O12 0.500000 0.814177 0.000000
O O13 0.750000 0.750000 0.000000
O O14 0.000000 0.944730 0.500000
O O15 0.658829 0.000000 0.448799
#
# Coordination Sequence:
#
# PCOD9203428 Si02
#       7
#     8   4   8   8   8   8   8
#     4  10  21  35  51  82 109 144 192 222 279 343
#     4  10  22  38  55  82 114 150 196 246 281 334
#     4  10  21  32  51  80 116 155 175 229 270 330
#     4  10  21  37  56  82 113 147 190 234 279 337
#     4  11  21  33  54  77 115 155 192 223 272 329
#     4  11  23  35  52  77 112 163 205 237 271 325
#     4  10  20  39  63  84 108 141 185 241 294 347
#
# _framework density 19.575161999999999
#
# number of rings (size 3 to 8) (size 9 to 14) (size 15 to 20)
#    0.000    1.692    2.308    2.308    6.462    3.692 
#    0.000    6.538    0.000    0.000    0.000    0.000 
#    0.000    6.769    0.000    0.000    0.000    0.000 
#
# Total GULP energy -144999.681428 kJ/mol
# GULP energy per Si atom -5576.910824 kJ/mol
# Density = 1.953061 g / cm^3
# Si number density = 19.575162 Si / 1000 Ang^3
#
#
#
# Elastic Constant Matrix: (Units=GPa)
#
#
# Indices 1 2 3 4 5 6 
#
# 1 69.2968 -1.3074 9.6895 0.0000 -15.0797 0.0000
# 2 -1.3074 62.6257 8.9219 0.0000 -0.5444 0.0000
# 3 9.6895 8.9219 100.0441 0.0002 -18.6403 0.0001
# 4 0.0000 0.0000 0.0002 -7.8045 0.0001 -14.2605
# 5 -15.0797 -0.5444 -18.6403 0.0001 34.0961 0.0001
# 6 0.0000 0.0000 0.0001 -14.2605 0.0001 -1.6978
#
#
#
# Elastic Compliance Matrix: (Units=1/GPa)
#
#
# Indices 1 2 3 4 5 6 
#
# 1 0.015985 0.000436 -0.000299 0.000000 0.006913 0.000000
# 2 0.000436 0.016196 -0.001562 0.000000 -0.000402 0.000000
# 3 -0.000299 -0.001562 0.011284 0.000000 0.006012 0.000000
# 4 0.000000 0.000000 0.000000 0.008930 0.000000 -0.075011
# 5 0.006913 -0.000402 0.006012 0.000000 0.035667 0.000000
# 6 0.000000 0.000000 0.000000 -0.075011 0.000000 0.041052
#
#
# Mechanical properties :
#
#
# Convention : Reuss Voigt Hill
#
# Bulk Modulus (GPa) = 24.62040 29.61939 27.11989
# Shear Modulus (GPa) = 34.36387 19.22960 26.79674
#
# Velocity S-wave (km/s) = 4.19439 3.13764 3.70390
# Velocity P-wave (km/s) = 6.00516 5.31887 5.67240
#
# Compressibility (1/GPa) = 0.04061673
#
# Stress axis : x y z
#
# Youngs Moduli (GPa) = 62.55815 61.74376 88.62160
#
# Poissons Ratio (x) = -0.02695 0.02650
# Poissons Ratio (y) = -0.02730 0.13839
# Poissons Ratio (z) = 0.01871 0.09642
#
# Static dielectric constant tensor:
#      x y z
#    x 1.762400 0.000000 0.052170 
#    y 0.000000 1.643240 0.000000 
#    z 0.052170 0.000000 1.775460 
# 
# From -- ./inp_files/302388.got.cif
#   From: 2010.05.17/outbox.cif.g08.bks.cpg/sg12_152_cif.got.tgz:302388.got - 2010.06.03 13:09:07.
