data_PCOD9203582
_publ_section_title
;
Structure prediction by ZEFSAII (Michael W. Deem and Ramdas Pophale) SiO2 
 PCOD9203582
Probable space group: C 2/M
;
_chemical_formula_sum "Si O2"
_cell_formula_units_Z 64
_cell_length_a 15.958689
_cell_length_b 17.855212
_cell_length_c 16.361653
_cell_angle_alpha 90.000000
_cell_angle_beta 139.532365
_cell_angle_gamma 90.000000
_cell_volume 3025.843181
_symmetry_space_group_name_H-M "C 2/M"
_symmetry_group_IT_number 12
_symmetry_cell_setting 'monoclinic'
loop_
_space_group_symop_operation_xyz
x,y,z
-x,y,-z
-x,-y,-z
x,-y,z
1/2+x,1/2+y,z
1/2-x,1/2+y,-z
1/2-x,1/2-y,-z
1/2+x,1/2-y,z
loop_
_atom_site_type_symbol
_atom_site_label
_atom_site_fract_x
_atom_site_fract_y
_atom_site_fract_z
Si Si1 0.434525 0.706161 0.816390
Si Si2 0.404932 0.413642 0.353494
Si Si3 0.301633 0.916039 0.540277
Si Si4 0.279975 0.085255 0.326030
Si Si5 0.632836 0.850456 0.132803
Si Si6 0.573986 0.694093 0.384518
Si Si7 0.287171 0.273337 0.937102
Si Si8 0.541277 0.847001 0.672774
O O1 0.330190 0.646858 0.770599
O O2 0.403961 0.788823 0.826724
O O3 0.429844 0.708087 0.714978
O O4 0.575827 0.685062 0.954140
O O5 0.500000 0.395585 0.500000
O O6 0.424455 0.500000 0.347703
O O7 0.253052 0.398937 0.253484
O O8 0.458649 0.361282 0.322158
O O9 0.296376 0.914899 0.436701
O O10 0.205430 0.851559 0.500594
O O11 0.451143 0.896881 0.664391
O O12 0.265768 0.000000 0.541413
O O13 0.403703 0.110299 0.365144
O O14 0.245999 0.000000 0.277720
O O15 0.686722 0.799138 0.099039
O O16 0.500000 0.886801 0.000000
O O17 0.546108 0.772527 0.409358
O O18 0.168712 0.318750 0.812648
O O19 0.250000 0.250000 0.000000
#
# Coordination Sequence:
#
# PCOD9203582 Si02
#       8
#     8   8   8   8   8   8   8   8
#     4  10  20  39  64  92 121 154 208 254 309 368
#     4  11  24  42  63  91 129 167 208 261 314 368
#     4  10  23  40  59  88 126 160 195 247 312 376
#     4  10  21  38  60  88 126 164 193 243 309 379
#     4  10  21  40  67  94 121 163 208 263 314 370
#     4  11  22  40  64  91 117 163 205 257 307 369
#     4  11  20  38  60  89 124 158 199 262 308 354
#     4  12  21  35  59  90 119 158 205 246 297 367
#
# _framework density 21.151129000000001
#
# number of rings (size 3 to 8) (size 9 to 14) (size 15 to 20)
#    0.000    1.375    3.750    1.500    0.000    5.750 
#    0.000    1.875    0.000    2.250    0.000    0.000 
#    0.000    0.000    0.000    0.000    0.000    0.000 
#
# Total GULP energy -178765.207294 kJ/mol
# GULP energy per Si atom -5586.412728 kJ/mol
# Density = 2.110299 g / cm^3
# Si number density = 21.151129 Si / 1000 Ang^3
#
#
#
# Elastic Constant Matrix: (Units=GPa)
#
#
# Indices 1 2 3 4 5 6 
#
# 1 70.2022 23.3971 8.3198 0.0000 11.8434 0.0000
# 2 23.3971 77.0979 15.1231 0.0000 9.3244 0.0000
# 3 8.3198 15.1231 69.3231 0.0000 28.1818 0.0000
# 4 0.0000 0.0000 0.0000 7.8486 0.0000 -2.1319
# 5 11.8434 9.3244 28.1818 0.0000 41.3222 0.0000
# 6 0.0000 0.0000 0.0000 -2.1319 0.0000 19.0068
#
#
#
# Elastic Compliance Matrix: (Units=1/GPa)
#
#
# Indices 1 2 3 4 5 6 
#
# 1 0.016398 -0.004617 0.000728 0.000000 -0.004155 0.000000
# 2 -0.004617 0.014912 -0.002586 0.000000 -0.000278 0.000000
# 3 0.000728 -0.002586 0.020408 0.000000 -0.013543 0.000000
# 4 0.000000 0.000000 0.000000 0.131414 0.000000 0.014740
# 5 -0.004155 -0.000278 -0.013543 0.000000 0.034690 0.000000
# 6 0.000000 0.000000 0.000000 0.014740 0.000000 0.054266
#
#
# Mechanical properties :
#
#
# Convention : Reuss Voigt Hill
#
# Bulk Modulus (GPa) = 25.79392 34.47813 30.13602
# Shear Modulus (GPa) = 16.78074 24.95441 20.86758
#
# Velocity S-wave (km/s) = 2.81974 3.43857 3.14442
# Velocity P-wave (km/s) = 4.77732 5.66580 5.24042
#
# Compressibility (1/GPa) = 0.03876883
#
# Stress axis : x y z
#
# Youngs Moduli (GPa) = 60.98373 67.05802 49.00114
#
# Poissons Ratio (x) = 0.30958 -0.03568
# Poissons Ratio (y) = 0.28154 0.12672
# Poissons Ratio (z) = -0.04441 0.17342
#
# Static dielectric constant tensor:
#      x y z
#    x 1.778770 0.000000 0.019000 
#    y 0.000000 1.736740 0.000000 
#    z 0.019000 0.000000 1.808430 
# 
# From -- ./inp_files/271751.got.cif
#   From: 2010.05.17/outbox.cif.g08.bks.cpg/sg12_136_cif.got.tgz:271751.got - 2010.06.03 13:09:07.
