data_PCOD9203509
_publ_section_title
;
Structure prediction by ZEFSAII (Michael W. Deem and Ramdas Pophale) SiO2 
 PCOD9203509
Probable space group: C 2/M
;
_chemical_formula_sum "Si O2"
_cell_formula_units_Z 54
_cell_length_a 19.143104
_cell_length_b 22.620430
_cell_length_c 5.347279
_cell_angle_alpha 90.000000
_cell_angle_beta 83.818001
_cell_angle_gamma 90.000000
_cell_volume 2302.041765
_symmetry_space_group_name_H-M "C 2/M"
_symmetry_group_IT_number 12
_symmetry_cell_setting 'monoclinic'
loop_
_space_group_symop_operation_xyz
x,y,z
-x,y,-z
-x,-y,-z
x,-y,z
1/2+x,1/2+y,z
1/2-x,1/2+y,-z
1/2-x,1/2-y,-z
1/2+x,1/2-y,z
loop_
_atom_site_type_symbol
_atom_site_label
_atom_site_fract_x
_atom_site_fract_y
_atom_site_fract_z
Si Si1 0.632994 0.613858 0.195773
Si Si2 0.000000 0.848596 0.000000
Si Si3 0.771483 0.822363 0.219537
Si Si4 0.903067 0.789180 0.424766
Si Si5 0.391021 0.819502 0.749922
Si Si6 0.000000 0.500000 0.000000
Si Si7 0.903853 0.393592 0.236061
Si Si8 0.747084 0.935449 0.584521
O O1 0.603369 0.647171 0.446163
O O2 0.685500 0.563477 0.260631
O O3 0.563562 0.608457 0.059456
O O4 0.685325 0.659943 0.041185
O O5 0.960449 0.802720 0.197072
O O6 0.824809 0.778004 0.340644
O O7 0.692227 0.805302 0.192853
O O8 0.761984 0.882847 0.384031
O O9 0.920937 0.740351 0.621671
O O10 0.405922 0.866134 0.516073
O O11 0.414259 0.845519 0.008629
O O12 0.956292 0.447585 0.169729
O O13 0.823938 0.418055 0.242430
O O14 0.736902 0.000000 0.470475
#
# Coordination Sequence:
#
# PCOD9203509 Si02
#       8
#     8   4   8   8   8   2   8   8
#     4  10  20  39  63  94 128 179 219 271 346 403
#     4  10  22  39  59  94 134 184 210 270 340 422
#     4   9  20  37  62  98 133 175 224 284 348 391
#     4  10  22  38  65  93 140 180 219 279 344 410
#     4  11  24  43  66 108 134 179 237 284 328 418
#     4  12  28  56  68 102 144 198 218 302 344 398
#     4  11  26  45  71  99 138 178 236 282 346 395
#     4  10  20  41  66  96 126 174 229 285 329 403
#
# _framework density 23.457436000000001
#
# number of rings (size 3 to 8) (size 9 to 14) (size 15 to 20)
#    0.000    1.778    2.222    0.889    4.148    3.556 
#    4.000    0.370    0.000   11.556    0.000    0.000 
#    0.000    0.000    0.000    0.000    0.000    0.000 
#
# Total GULP energy -150456.781273 kJ/mol
# GULP energy per Si atom -5572.473380 kJ/mol
# Density = 2.340405 g / cm^3
# Si number density = 23.457436 Si / 1000 Ang^3
#
#
#
# Elastic Constant Matrix: (Units=GPa)
#
#
# Indices 1 2 3 4 5 6 
#
# 1 106.9230 12.3663 21.1528 0.0000 -24.1745 0.0000
# 2 12.3663 55.7736 -1.4755 0.0000 -10.4596 0.0000
# 3 21.1528 -1.4755 93.6890 0.0000 -32.7025 0.0000
# 4 0.0000 0.0000 0.0000 12.3581 0.0000 -0.2516
# 5 -24.1745 -10.4596 -32.7025 0.0000 38.9473 0.0000
# 6 0.0000 0.0000 0.0000 -0.2516 0.0000 8.5269
#
#
#
# Elastic Compliance Matrix: (Units=1/GPa)
#
#
# Indices 1 2 3 4 5 6 
#
# 1 0.010964 -0.001282 -0.000340 0.000000 0.006176 0.000000
# 2 -0.001282 0.019614 0.003054 0.000000 0.007037 0.000000
# 3 -0.000340 0.003054 0.015576 0.000000 0.013688 0.000000
# 4 0.000000 0.000000 0.000000 0.080967 0.000000 0.002389
# 5 0.006176 0.007037 0.013688 0.000000 0.042892 0.000000
# 6 0.000000 0.000000 0.000000 0.002389 0.000000 0.117346
#
#
# Mechanical properties :
#
#
# Convention : Reuss Voigt Hill
#
# Bulk Modulus (GPa) = 20.39971 35.60809 28.00390
# Shear Modulus (GPa) = 16.62040 26.92260 21.77150
#
# Velocity S-wave (km/s) = 2.66472 3.39148 3.04982
# Velocity P-wave (km/s) = 4.26415 5.52712 4.93619
#
# Compressibility (1/GPa) = 0.04902031
#
# Stress axis : x y z
#
# Youngs Moduli (GPa) = 91.20472 50.98325 64.19976
#
# Poissons Ratio (x) = 0.06535 0.02183
# Poissons Ratio (y) = 0.11691 -0.19610
# Poissons Ratio (z) = 0.03101 -0.15573
#
# Static dielectric constant tensor:
#      x y z
#    x 1.981580 0.000000 0.075550 
#    y 0.000000 1.851440 0.000000 
#    z 0.075550 0.000000 1.936450 
# 
# From -- ./inp_files/21645.got.cif
#   From: 2010.05.17/outbox.cif.g08.bks.cpg/sg12_11_cif.got.tgz:21645.got - 2010.06.03 13:09:07.
