data_PCOD9203195
_publ_section_title
;
Structure prediction by ZEFSAII (Michael W. Deem and Ramdas Pophale) SiO2 
 PCOD9203195
Probable space group: C 2/M
;
_chemical_formula_sum "Si O2"
_cell_formula_units_Z 64
_cell_length_a 12.490367
_cell_length_b 29.588172
_cell_length_c 18.687215
_cell_angle_alpha 90.000000
_cell_angle_beta 149.817668
_cell_angle_gamma 90.000000
_cell_volume 3472.105733
_symmetry_space_group_name_H-M "C 2/M"
_symmetry_group_IT_number 12
_symmetry_cell_setting 'monoclinic'
loop_
_space_group_symop_operation_xyz
x,y,z
-x,y,-z
-x,-y,-z
x,-y,z
1/2+x,1/2+y,z
1/2-x,1/2+y,-z
1/2-x,1/2-y,-z
1/2+x,1/2-y,z
loop_
_atom_site_type_symbol
_atom_site_label
_atom_site_fract_x
_atom_site_fract_y
_atom_site_fract_z
Si Si1 0.237698 0.620473 0.165861
Si Si2 0.428182 0.115288 0.626402
Si Si3 0.714099 0.103968 0.666922
Si Si4 0.313073 0.255686 0.720867
Si Si5 0.900097 0.715537 0.546399
Si Si6 0.114461 0.830146 0.880915
Si Si7 0.105503 0.947211 0.356941
Si Si8 0.429892 0.151963 0.784429
O O1 0.337294 0.661143 0.175461
O O2 0.376880 0.576641 0.229021
O O3 0.217049 0.631522 0.237511
O O4 0.000000 0.614073 0.000000
O O5 0.635710 0.097507 0.702850
O O6 0.391532 0.165785 0.574068
O O7 0.245321 0.081495 0.494125
O O8 0.434669 0.122691 0.714950
O O9 0.500000 0.119891 0.500000
O O10 0.793741 0.062679 0.663453
O O11 0.911666 0.138231 0.781463
O O12 0.203190 0.281527 0.591455
O O13 0.537892 0.280450 0.858560
O O14 0.343453 0.202966 0.722592
O O15 0.142645 0.265787 0.684825
O O16 0.750000 0.750000 0.500000
O O17 0.329487 0.843713 0.046189
O O18 0.102872 0.000000 0.370303
#
# Coordination Sequence:
#
# PCOD9203195 Si02
#       8
#     8   8   8   8   8   8   8   8
#     4   9  21  40  61  83 118 157 194 243 298 349
#     4  11  22  38  56  86 122 150 191 242 303 354
#     4   9  18  37  63  85 110 143 188 245 297 347
#     4  11  22  34  56  81 116 159 214 246 278 338
#     4  11  22  36  54  84 118 158 201 241 293 343
#     4  10  20  39  58  80 117 157 208 244 287 334
#     4  10  22  39  67  92 111 146 197 249 296 354
#     4  11  24  36  53  86 121 167 194 240 295 352
#
# _framework density 18.432618000000002
#
# number of rings (size 3 to 8) (size 9 to 14) (size 15 to 20)
#    0.000    1.750    2.500    2.625    5.250    3.500 
#    0.000    1.250    0.000    3.000    0.000   11.375 
#    0.000    0.000    0.000    0.000    0.000    0.000 
#
# Total GULP energy -178374.190043 kJ/mol
# GULP energy per Si atom -5574.193439 kJ/mol
# Density = 1.839067 g / cm^3
# Si number density = 18.432618 Si / 1000 Ang^3
#
#
#
# Elastic Constant Matrix: (Units=GPa)
#
#
# Indices 1 2 3 4 5 6 
#
# 1 138.3105 46.6195 37.3449 0.0003 4.3594 0.0000
# 2 46.6195 95.4819 24.8940 -0.0001 8.8852 -0.0001
# 3 37.3449 24.8940 44.3342 -0.0001 15.7970 0.0000
# 4 0.0003 -0.0001 -0.0001 9.5947 0.0001 4.3295
# 5 4.3594 8.8852 15.7970 0.0001 33.6983 0.0001
# 6 0.0000 -0.0001 0.0000 4.3295 0.0001 13.9899
#
#
#
# Elastic Compliance Matrix: (Units=1/GPa)
#
#
# Indices 1 2 3 4 5 6 
#
# 1 0.010425 -0.003281 -0.008123 -0.000001 0.003325 0.000000
# 2 -0.003281 0.013302 -0.004330 0.000000 -0.001053 0.000000
# 3 -0.008123 -0.004330 0.037275 0.000001 -0.015281 0.000000
# 4 -0.000001 0.000000 0.000001 0.121141 -0.000001 -0.037490
# 5 0.003325 -0.001053 -0.015281 -0.000001 0.036686 0.000000
# 6 0.000000 0.000000 0.000000 -0.037490 0.000000 0.083082
#
#
# Mechanical properties :
#
#
# Convention : Reuss Voigt Hill
#
# Bulk Modulus (GPa) = 33.86114 55.09369 44.47742
# Shear Modulus (GPa) = 14.56771 22.74112 18.65442
#
# Velocity S-wave (km/s) = 2.81432 3.51628 3.18470
# Velocity P-wave (km/s) = 5.38244 6.81467 6.14045
#
# Compressibility (1/GPa) = 0.02953238
#
# Stress axis : x y z
#
# Youngs Moduli (GPa) = 95.92564 75.17519 26.82767
#
# Poissons Ratio (x) = 0.24668 0.21793
# Poissons Ratio (y) = 0.31477 0.11616
# Poissons Ratio (z) = 0.77924 0.32551
#
# Static dielectric constant tensor:
#      x y z
#    x 1.723790 0.000000 -0.006930 
#    y 0.000000 1.620900 0.000000 
#    z -0.006930 0.000000 1.668970 
# 
# From -- ./inp_files/266310.got.cif
#   From: 2010.05.17/outbox.cif.g08.bks.cpg/sg12_134_cif.got.tgz:266310.got - 2010.06.03 13:09:07.
