data_PCOD9203383
_publ_section_title
;
Structure prediction by ZEFSAII (Michael W. Deem and Ramdas Pophale) SiO2 
 PCOD9203383
Probable space group: C 2/M
;
_chemical_formula_sum "Si O2"
_cell_formula_units_Z 56
_cell_length_a 20.856568
_cell_length_b 8.769973
_cell_length_c 30.827456
_cell_angle_alpha 90.000000
_cell_angle_beta 146.336652
_cell_angle_gamma 90.000000
_cell_volume 3125.598277
_symmetry_space_group_name_H-M "C 2/M"
_symmetry_group_IT_number 12
_symmetry_cell_setting 'monoclinic'
loop_
_space_group_symop_operation_xyz
x,y,z
-x,y,-z
-x,-y,-z
x,-y,z
1/2+x,1/2+y,z
1/2-x,1/2+y,-z
1/2-x,1/2-y,-z
1/2+x,1/2-y,z
loop_
_atom_site_type_symbol
_atom_site_label
_atom_site_fract_x
_atom_site_fract_y
_atom_site_fract_z
Si Si1 0.073394 0.319086 0.763728
Si Si2 0.928454 0.818176 0.333095
Si Si3 0.455776 0.815188 0.907808
Si Si4 0.186997 0.181874 0.506737
Si Si5 0.816847 0.315548 0.916581
Si Si6 0.337290 0.318485 0.667709
Si Si7 0.801338 0.684027 0.742105
O O1 0.064328 0.500000 0.762217
O O2 0.075869 0.269510 0.714710
O O3 0.192804 0.259904 0.851636
O O4 0.962043 0.242792 0.722790
O O5 0.819802 0.781525 0.302264
O O6 0.050472 0.787877 0.425005
O O7 0.922586 0.000000 0.319947
O O8 0.371235 0.773491 0.900169
O O9 0.402203 0.765371 0.832207
O O10 0.456133 0.000000 0.907719
O O11 0.585491 0.768525 0.993601
O O12 0.250000 0.250000 0.500000
O O13 0.243739 0.253055 0.581237
O O14 0.204322 0.000000 0.517057
O O15 0.805469 0.500000 0.911007
O O16 0.336565 0.500000 0.665192
O O17 0.311544 0.260970 0.701479
O O18 0.808131 0.500000 0.740822
#
# Coordination Sequence:
#
# PCOD9203383 Si02
#       7
#     8   8   8   8   8   8   8
#     4  12  23  36  58  88 118 153 198 247 291 345
#     4  10  21  38  64  89 117 153 192 238 292 353
#     4   8  15  30  59  89 117 153 192 236 287 349
#     4  11  22  38  62  92 119 152 195 243 292 345
#     4   9  16  32  58  89 118 151 195 238 288 348
#     4  12  26  42  59  82 118 161 198 244 299 349
#     4  10  20  39  62  88 119 155 196 239 290 351
#
# _framework density 17.916568999999999
#
# number of rings (size 3 to 8) (size 9 to 14) (size 15 to 20)
#    0.000    1.714    2.857    3.857    0.000    1.714 
#    0.000    5.714    0.000    0.000    0.000    0.000 
#    0.000    0.000    0.000    0.000    0.000    0.000 
#
# Total GULP energy -156391.009917 kJ/mol
# GULP energy per Si atom -5585.393211 kJ/mol
# Density = 1.787579 g / cm^3
# Si number density = 17.916569 Si / 1000 Ang^3
#
#
#
# Elastic Constant Matrix: (Units=GPa)
#
#
# Indices 1 2 3 4 5 6 
#
# 1 105.0365 57.3946 78.1467 0.0000 -7.2769 -0.0002
# 2 57.3946 76.5621 70.4267 0.0001 2.5331 -0.0004
# 3 78.1467 70.4267 167.2506 0.0000 -4.4147 -0.0001
# 4 0.0000 0.0001 0.0000 26.4803 0.0000 -1.3817
# 5 -7.2769 2.5331 -4.4147 0.0000 30.7021 0.0000
# 6 -0.0002 -0.0004 -0.0001 -1.3817 0.0000 28.6641
#
#
#
# Elastic Compliance Matrix: (Units=1/GPa)
#
#
# Indices 1 2 3 4 5 6 
#
# 1 0.018563 -0.010123 -0.004289 0.000000 0.004618 0.000000
# 2 -0.010123 0.027130 -0.006843 0.000000 -0.005622 0.000000
# 3 -0.004289 -0.006843 0.010894 0.000000 0.001114 0.000000
# 4 0.000000 0.000000 0.000000 0.037859 0.000000 0.001825
# 5 0.004618 -0.005622 0.001114 0.000000 0.034290 0.000000
# 6 0.000000 0.000000 0.000000 0.001825 0.000000 0.034975
#
#
# Mechanical properties :
#
#
# Convention : Reuss Voigt Hill
#
# Bulk Modulus (GPa) = 71.03411 84.53168 77.78290
# Shear Modulus (GPa) = 23.70651 26.69471 25.20061
#
# Velocity S-wave (km/s) = 3.64147 3.86417 3.75447
# Velocity P-wave (km/s) = 7.57718 8.19709 7.89322
#
# Compressibility (1/GPa) = 0.01407774
#
# Stress axis : x y z
#
# Youngs Moduli (GPa) = 53.87089 36.85891 91.79711
#
# Poissons Ratio (x) = 0.37314 0.39369
# Poissons Ratio (y) = 0.54536 0.62812
# Poissons Ratio (z) = 0.23103 0.25221
#
# Static dielectric constant tensor:
#      x y z
#    x 1.574870 0.000000 0.006450 
#    y 0.000000 1.604770 0.000000 
#    z 0.006450 0.000000 1.622970 
# 
# From -- ./inp_files/363248.got.cif
#   From: 2010.05.17/outbox.cif.g08.bks.cpg/sg12_182_cif.got.tgz:363248.got - 2010.06.03 13:09:07.
