data_PCOD9203115
_publ_section_title
;
Structure prediction by ZEFSAII (Michael W. Deem and Ramdas Pophale) SiO2 
 PCOD9203115
Probable space group: C 2/M
;
_chemical_formula_sum "Si O2"
_cell_formula_units_Z 56
_cell_length_a 18.441655
_cell_length_b 28.497554
_cell_length_c 9.355060
_cell_angle_alpha 90.000000
_cell_angle_beta 143.686824
_cell_angle_gamma 90.000000
_cell_volume 2911.530589
_symmetry_space_group_name_H-M "C 2/M"
_symmetry_group_IT_number 12
_symmetry_cell_setting 'monoclinic'
loop_
_space_group_symop_operation_xyz
x,y,z
-x,y,-z
-x,-y,-z
x,-y,z
1/2+x,1/2+y,z
1/2-x,1/2+y,-z
1/2-x,1/2-y,-z
1/2+x,1/2-y,z
loop_
_atom_site_type_symbol
_atom_site_label
_atom_site_fract_x
_atom_site_fract_y
_atom_site_fract_z
Si Si1 0.220582 0.758372 0.118716
Si Si2 0.088133 0.396207 0.915411
Si Si3 0.346858 0.163792 0.481914
Si Si4 0.288237 0.000000 0.194451
Si Si5 0.224413 0.101185 0.051770
Si Si6 0.984710 0.500000 0.245798
Si Si7 0.979953 0.824476 0.306762
Si Si8 0.245825 0.332389 0.349345
O O1 0.329818 0.789268 0.361150
O O2 0.206425 0.711347 0.186903
O O3 0.250000 0.750000 0.000000
O O4 0.096080 0.788726 0.913300
O O5 0.171107 0.394724 0.903892
O O6 0.978740 0.359204 0.717066
O O7 0.039955 0.449241 0.864561
O O8 0.172308 0.377488 0.176563
O O9 0.273383 0.125244 0.273538
O O10 0.287142 0.175144 0.539074
O O11 0.208583 0.953485 0.055784
O O12 0.386659 0.000000 0.220826
O O13 0.377731 0.000000 0.473455
O O14 0.106499 0.129973 0.815436
O O15 0.000000 0.805647 0.500000
O O16 0.109749 0.836853 0.445919
#
# Coordination Sequence:
#
# PCOD9203115 Si02
#       8
#     8   8   8   4   8   4   8   8
#     4  11  24  42  65  88 113 169 213 258 303 367
#     4  11  21  40  66  96 127 164 209 257 316 369
#     4  11  24  40  61  93 126 161 202 258 318 366
#     4   9  16  34  61  99 122 154 213 261 304 353
#     4  10  20  38  67  92 120 169 207 255 306 366
#     4   9  18  34  65  96 129 158 207 268 299 370
#     4  11  22  43  63  87 122 162 210 254 307 370
#     4  12  25  42  61  90 131 163 202 259 314 377
#
# _framework density 19.23387
#
# number of rings (size 3 to 8) (size 9 to 14) (size 15 to 20)
#    0.000    1.286    4.286    2.143    2.000    2.286 
#    5.143    3.214    0.000    0.857    0.000    0.000 
#    0.000    0.000    0.000    0.000    0.000    0.000 
#
# Total GULP energy -156389.080178 kJ/mol
# GULP energy per Si atom -5585.324292 kJ/mol
# Density = 1.919009 g / cm^3
# Si number density = 19.233870 Si / 1000 Ang^3
#
#
#
# Elastic Constant Matrix: (Units=GPa)
#
#
# Indices 1 2 3 4 5 6 
#
# 1 91.5940 40.2711 46.6438 0.0000 -11.8949 0.0000
# 2 40.2711 38.2446 -16.0132 0.0000 14.3935 0.0000
# 3 46.6438 -16.0132 47.6529 0.0000 22.4965 0.0000
# 4 0.0000 0.0000 0.0000 22.6850 0.0000 8.6178
# 5 -11.8949 14.3935 22.4965 0.0000 34.6210 0.0000
# 6 0.0000 0.0000 0.0000 8.6178 0.0000 -0.6857
#
#
#
# Elastic Compliance Matrix: (Units=1/GPa)
#
#
# Indices 1 2 3 4 5 6 
#
# 1 -0.001685 0.011460 0.011572 0.000000 -0.012863 0.000000
# 2 0.011460 0.000262 -0.018662 0.000000 0.015955 0.000000
# 3 0.011572 -0.018662 -0.003105 0.000000 0.013752 0.000000
# 4 0.000000 0.000000 0.000000 0.007634 0.000000 0.095943
# 5 -0.012863 0.015955 0.013752 0.000000 0.008896 0.000000
# 6 0.000000 0.000000 0.000000 0.095943 0.000000 -0.252555
#
#
# Mechanical properties :
#
#
# Convention : Reuss Voigt Hill
#
# Bulk Modulus (GPa) = 237.32422 35.47720 136.40071
# Shear Modulus (GPa) = -20.17016 18.43005 -0.87005
#
# Velocity S-wave (km/s) = -3.24184 3.09885 -0.67330
# Velocity P-wave (km/s) = 10.47109 5.59366 8.39443
#
# Compressibility (1/GPa) = 0.00421365
#
# Stress axis : x y z
#
# Youngs Moduli (GPa) = -593.64386 3819.71465 -322.01011
#
# Poissons Ratio (x) = -43.77448 3.72640
# Poissons Ratio (y) = 6.80324 -6.00920
# Poissons Ratio (z) = 6.86984 71.28174
#
# Static dielectric constant tensor:
#      x y z
#    x 1.653170 0.000000 -0.000090 
#    y 0.000000 1.703920 0.000000 
#    z -0.000090 0.000000 1.665880 
# 
# From -- ./inp_files/80518.got.cif
#   From: 2010.05.17/outbox.cif.g08.bks.cpg/sg12_41_cif.got.tgz:80518.got - 2010.06.03 13:09:07.
