data_PCOD9203826
_publ_section_title
;
Structure prediction by ZEFSAII (Michael W. Deem and Ramdas Pophale) SiO2 
 PCOD9203826
Probable space group: C 2/M
;
_chemical_formula_sum "Si O2"
_cell_formula_units_Z 48
_cell_length_a 11.800539
_cell_length_b 16.223352
_cell_length_c 11.736125
_cell_angle_alpha 90.000000
_cell_angle_beta 104.093170
_cell_angle_gamma 90.000000
_cell_volume 2179.187460
_symmetry_space_group_name_H-M "C 2/M"
_symmetry_group_IT_number 12
_symmetry_cell_setting 'monoclinic'
loop_
_space_group_symop_operation_xyz
x,y,z
-x,y,-z
-x,-y,-z
x,-y,z
1/2+x,1/2+y,z
1/2-x,1/2+y,-z
1/2-x,1/2-y,-z
1/2+x,1/2-y,z
loop_
_atom_site_type_symbol
_atom_site_label
_atom_site_fract_x
_atom_site_fract_y
_atom_site_fract_z
Si Si1 0.014104 0.907800 0.867527
Si Si2 0.136819 0.098124 0.511555
Si Si3 0.277251 0.288754 0.128472
Si Si4 0.226026 0.146490 0.297350
Si Si5 0.166779 0.596256 0.248472
Si Si6 0.480357 0.094417 0.372948
O O1 0.098984 0.835565 0.846038
O O2 0.886635 0.895572 0.784743
O O3 0.058629 0.000000 0.847811
O O4 0.000000 0.903090 0.000000
O O5 0.191423 0.151759 0.422284
O O6 0.218649 0.107021 0.642773
O O7 0.000000 0.116828 0.500000
O O8 0.143282 0.000000 0.481002
O O9 0.258500 0.225880 0.228827
O O10 0.184221 0.359370 0.134133
O O11 0.250000 0.250000 0.000000
O O12 0.343981 0.094178 0.317881
O O13 0.150314 0.500000 0.224599
O O14 0.057524 0.632028 0.292144
O O15 0.500000 0.135910 0.500000
O O16 0.525249 0.000000 0.394120
#
# Coordination Sequence:
#
# PCOD9203826 Si02
#       6
#     8   8   8   8   8   8
#     4  11  24  46  73 100 135 190 246 289 342 417
#     4  10  20  39  69 106 141 176 229 292 353 427
#     4  12  27  46  66  98 143 184 229 296 352 408
#     4  12  24  41  73 104 141 181 229 290 357 419
#     4  10  22  43  69  97 137 183 227 277 347 427
#     4  10  20  40  69 101 139 177 220 279 349 427
#
# _framework density 22.026558000000001
#
# number of rings (size 3 to 8) (size 9 to 14) (size 15 to 20)
#    0.000    1.167    3.333    3.000    2.333    2.000 
#    0.000    0.000    0.000    2.000    0.000    0.000 
#    0.000    0.000    0.000    0.000    0.000    0.000 
#
# Total GULP energy -134101.336826 kJ/mol
# GULP energy per Si atom -5587.555701 kJ/mol
# Density = 2.197642 g / cm^3
# Si number density = 22.026558 Si / 1000 Ang^3
#
#
#
# Elastic Constant Matrix: (Units=GPa)
#
#
# Indices 1 2 3 4 5 6 
#
# 1 158.9027 37.7557 46.0913 0.0000 -14.8311 0.0000
# 2 37.7557 89.7597 44.7484 0.0000 -21.6918 0.0000
# 3 46.0913 44.7484 84.9093 0.0000 -21.8786 0.0000
# 4 0.0000 0.0000 0.0000 24.5264 0.0000 -4.8520
# 5 -14.8311 -21.6918 -21.8786 0.0000 36.5594 0.0000
# 6 0.0000 0.0000 0.0000 -4.8520 0.0000 38.2612
#
#
#
# Elastic Compliance Matrix: (Units=1/GPa)
#
#
# Indices 1 2 3 4 5 6 
#
# 1 0.007627 -0.001516 -0.003281 0.000000 0.000230 0.000000
# 2 -0.001516 0.016216 -0.006387 0.000000 0.005184 0.000000
# 3 -0.003281 -0.006387 0.018450 0.000000 0.005921 0.000000
# 4 0.000000 0.000000 0.000000 0.041822 0.000000 0.005303
# 5 0.000230 0.005184 0.005921 0.000000 0.034065 0.000000
# 6 0.000000 0.000000 0.000000 0.005303 0.000000 0.026809
#
#
# Mechanical properties :
#
#
# Convention : Reuss Voigt Hill
#
# Bulk Modulus (GPa) = 50.19391 65.64028 57.91710
# Shear Modulus (GPa) = 28.73588 33.53449 31.13519
#
# Velocity S-wave (km/s) = 3.61585 3.90610 3.76377
# Velocity P-wave (km/s) = 6.34585 7.08581 6.72601
#
# Compressibility (1/GPa) = 0.01992273
#
# Stress axis : x y z
#
# Youngs Moduli (GPa) = 131.11647 61.66902 54.20018
#
# Poissons Ratio (x) = 0.09352 0.17786
# Poissons Ratio (y) = 0.19883 0.34618
# Poissons Ratio (z) = 0.43026 0.39388
#
# Static dielectric constant tensor:
#      x y z
#    x 1.742740 0.000000 0.028890 
#    y 0.000000 1.877590 0.000000 
#    z 0.028890 0.000000 1.734970 
# 
# From -- ./inp_files/131768.got.cif
#   From: 2010.05.17/outbox.cif.g08.bks.cpg/sg12_66_cif.got.tgz:131768.got - 2010.06.03 13:09:07.
