data_PCOD9203911
_publ_section_title
;
Structure prediction by ZEFSAII (Michael W. Deem and Ramdas Pophale) SiO2 
 PCOD9203911
Probable space group: C 2/M
;
_chemical_formula_sum "Si O2"
_cell_formula_units_Z 54
_cell_length_a 14.310887
_cell_length_b 18.019811
_cell_length_c 9.021968
_cell_angle_alpha 90.000000
_cell_angle_beta 109.670447
_cell_angle_gamma 90.000000
_cell_volume 2190.811161
_symmetry_space_group_name_H-M "C 2/M"
_symmetry_group_IT_number 12
_symmetry_cell_setting 'monoclinic'
loop_
_space_group_symop_operation_xyz
x,y,z
-x,y,-z
-x,-y,-z
x,-y,z
1/2+x,1/2+y,z
1/2-x,1/2+y,-z
1/2-x,1/2-y,-z
1/2+x,1/2-y,z
loop_
_atom_site_type_symbol
_atom_site_label
_atom_site_fract_x
_atom_site_fract_y
_atom_site_fract_z
Si Si1 0.036819 0.871945 0.269413
Si Si2 0.311016 0.000000 0.422532
Si Si3 0.756129 0.581209 0.687354
Si Si4 0.637607 0.912728 0.975701
Si Si5 0.585454 0.867480 0.662716
Si Si6 0.500000 0.500000 0.500000
Si Si7 0.856565 0.089183 0.968423
Si Si8 0.846377 0.223674 0.461519
O O1 0.068702 0.798660 0.375564
O O2 0.027919 0.935815 0.388603
O O3 0.938205 0.872754 0.117400
O O4 0.121730 0.889505 0.190941
O O5 0.290419 0.063286 0.540467
O O6 0.338910 0.064838 0.319643
O O7 0.710000 0.500000 0.712505
O O8 0.681795 0.648934 0.641108
O O9 0.848218 0.599752 0.841834
O O10 0.565068 0.869329 0.827323
O O11 0.614498 0.000000 0.952091
O O12 0.749576 0.894049 0.979747
O O13 0.500000 0.888716 0.500000
O O14 0.624462 0.788988 0.631479
O O15 0.871666 0.000000 0.982973
O O16 0.750000 0.250000 0.500000
#
# Coordination Sequence:
#
# PCOD9203911 Si02
#       8
#     8   4   8   8   8   2   8   8
#     4  11  24  37  63  94 141 176 219 268 334 398
#     4  10  21  45  73  96 128 168 236 282 329 396
#     4   9  22  40  70 104 128 168 223 274 337 398
#     4  10  22  41  69  97 131 174 228 282 336 401
#     4  12  26  45  68 100 133 181 229 275 336 402
#     4  12  24  36  64 104 136 182 216 284 336 398
#     4  10  20  40  60  97 135 177 221 269 334 416
#     4  12  25  44  68  99 140 181 226 276 333 404
#
# _framework density 24.648402999999998
#
# number of rings (size 3 to 8) (size 9 to 14) (size 15 to 20)
#    0.444    0.889    3.704    1.556    4.148    0.593 
#    0.000    4.444    0.000    0.000    0.000    0.000 
#    0.000    0.000    0.000    0.000    0.000    0.000 
#
# Total GULP energy -150310.307022 kJ/mol
# GULP energy per Si atom -5567.048408 kJ/mol
# Density = 2.459230 g / cm^3
# Si number density = 24.648403 Si / 1000 Ang^3
#
#
#
# Elastic Constant Matrix: (Units=GPa)
#
#
# Indices 1 2 3 4 5 6 
#
# 1 73.5531 28.4668 16.3631 0.0000 -3.3326 0.0000
# 2 28.4668 115.7190 53.7071 0.0000 4.9580 0.0000
# 3 16.3631 53.7071 132.5984 0.0000 13.3199 0.0000
# 4 0.0000 0.0000 0.0000 13.7805 0.0000 12.2174
# 5 -3.3326 4.9580 13.3199 0.0000 36.7316 0.0000
# 6 0.0000 0.0000 0.0000 12.2174 0.0000 3.6619
#
#
#
# Elastic Compliance Matrix: (Units=1/GPa)
#
#
# Indices 1 2 3 4 5 6 
#
# 1 0.015201 -0.003523 -0.000659 0.000000 0.002094 0.000000
# 2 -0.003523 0.011459 -0.004171 0.000000 -0.000354 0.000000
# 3 -0.000659 -0.004171 0.009612 0.000000 -0.002982 0.000000
# 4 0.000000 0.000000 0.000000 -0.037064 0.000000 0.123657
# 5 0.002094 -0.000354 -0.002982 0.000000 0.028544 0.000000
# 6 0.000000 0.000000 0.000000 0.123657 0.000000 -0.139477
#
#
# Mechanical properties :
#
#
# Convention : Reuss Voigt Hill
#
# Bulk Modulus (GPa) = 51.11130 57.66050 54.38590
# Shear Modulus (GPa) = -56.49917 25.72370 -15.38774
#
# Velocity S-wave (km/s) = -4.79289 3.23402 -2.50129
# Velocity P-wave (km/s) = 3.13814 6.11467 3.71088
#
# Compressibility (1/GPa) = 0.01956515
#
# Stress axis : x y z
#
# Youngs Moduli (GPa) = 65.78667 87.26492 104.03711
#
# Poissons Ratio (x) = 0.30745 0.06858
# Poissons Ratio (y) = 0.23178 0.43395
# Poissons Ratio (z) = 0.04336 0.36399
#
# Static dielectric constant tensor:
#      x y z
#    x 2.130740 0.000000 0.067140 
#    y 0.000000 1.900540 0.000000 
#    z 0.067140 0.000000 2.054660 
# 
# From -- ./inp_files/76035.got.cif
#   From: 2010.05.17/outbox.cif.g08.bks.cpg/sg12_39_cif.got.tgz:76035.got - 2010.06.03 13:09:07.
