data_PCOD9203084
_publ_section_title
;
Structure prediction by ZEFSAII (Michael W. Deem and Ramdas Pophale) SiO2 
 PCOD9203084
Probable space group: C 2/M
;
_chemical_formula_sum "Si O2"
_cell_formula_units_Z 56
_cell_length_a 14.555630
_cell_length_b 23.488788
_cell_length_c 9.099695
_cell_angle_alpha 90.000000
_cell_angle_beta 128.281556
_cell_angle_gamma 90.000000
_cell_volume 2442.163539
_symmetry_space_group_name_H-M "C 2/M"
_symmetry_group_IT_number 12
_symmetry_cell_setting 'monoclinic'
loop_
_space_group_symop_operation_xyz
x,y,z
-x,y,-z
-x,-y,-z
x,-y,z
1/2+x,1/2+y,z
1/2-x,1/2+y,-z
1/2-x,1/2-y,-z
1/2+x,1/2-y,z
loop_
_atom_site_type_symbol
_atom_site_label
_atom_site_fract_x
_atom_site_fract_y
_atom_site_fract_z
Si Si1 0.882862 0.350727 0.688781
Si Si2 0.227998 0.700420 0.173268
Si Si3 0.685715 0.321478 0.034872
Si Si4 0.632841 0.372949 0.290039
Si Si5 0.143282 0.500000 0.682293
Si Si6 0.395517 0.500000 0.775900
Si Si7 0.917311 0.384282 0.277438
Si Si8 0.574676 0.732136 0.424005
O O1 0.853176 0.345252 0.829913
O O2 0.767096 0.368034 0.481731
O O3 0.928266 0.290020 0.670468
O O4 0.990562 0.391104 0.760742
O O5 0.162869 0.755064 0.043049
O O6 0.295621 0.726041 0.380121
O O7 0.317454 0.673037 0.145132
O O8 0.632433 0.358714 0.114207
O O9 0.825999 0.333124 0.187023
O O10 0.591298 0.437092 0.282489
O O11 0.562538 0.322888 0.305325
O O12 0.256574 0.500000 0.686776
O O13 0.156703 0.441469 0.781740
O O14 0.000000 0.500000 0.500000
O O15 0.500000 0.500000 0.000000
O O16 0.000000 0.376992 0.500000
O O17 0.500000 0.733426 0.500000
#
# Coordination Sequence:
#
# PCOD9203084 Si02
#       8
#     8   8   8   8   4   4   8   8
#     4  11  19  36  64  94 128 164 207 271 339 401
#     4  10  21  33  54  89 130 163 202 261 331 404
#     4  11  19  35  57  87 127 165 205 265 329 393
#     4  11  21  41  63  86 123 172 223 268 325 399
#     4  10  20  38  66  96 121 165 227 276 322 395
#     4  12  26  42  65  99 134 178 234 297 342 381
#     4  11  19  33  61  90 118 157 209 263 317 389
#     4  11  21  37  61  91 123 171 215 266 332 404
#
# _framework density 22.930488
#
# number of rings (size 3 to 8) (size 9 to 14) (size 15 to 20)
#    0.000    1.143    5.714    3.000    0.000    1.714 
#    0.000    0.357    0.000    9.429    0.000    0.000 
#    0.000    0.000    0.000    0.000    0.000    0.000 
#
# Total GULP energy -156212.092374 kJ/mol
# GULP energy per Si atom -5579.003299 kJ/mol
# Density = 2.287830 g / cm^3
# Si number density = 22.930488 Si / 1000 Ang^3
#
#
#
# Elastic Constant Matrix: (Units=GPa)
#
#
# Indices 1 2 3 4 5 6 
#
# 1 106.3119 6.1457 11.2834 0.0000 -18.8738 0.0000
# 2 6.1457 119.9938 17.3387 0.0000 -10.2044 0.0000
# 3 11.2834 17.3387 61.2433 0.0000 -7.3241 0.0000
# 4 0.0000 0.0000 0.0000 19.3130 0.0000 -0.7832
# 5 -18.8738 -10.2044 -7.3241 0.0000 43.9746 0.0000
# 6 0.0000 0.0000 0.0000 -0.7832 0.0000 30.2953
#
#
#
# Elastic Compliance Matrix: (Units=1/GPa)
#
#
# Indices 1 2 3 4 5 6 
#
# 1 0.010298 0.000032 -0.001405 0.000000 0.004193 0.000000
# 2 0.000032 0.008807 -0.002299 0.000000 0.001675 0.000000
# 3 -0.001405 -0.002299 0.017450 0.000000 0.001770 0.000000
# 4 0.000000 0.000000 0.000000 0.051833 0.000000 0.001340
# 5 0.004193 0.001675 0.001770 0.000000 0.025223 0.000000
# 6 0.000000 0.000000 0.000000 0.001340 0.000000 0.033043
#
#
# Mechanical properties :
#
#
# Convention : Reuss Voigt Hill
#
# Bulk Modulus (GPa) = 34.23369 39.67606 36.95487
# Shear Modulus (GPa) = 30.53728 35.56867 33.05297
#
# Velocity S-wave (km/s) = 3.65325 3.94274 3.80075
# Velocity P-wave (km/s) = 5.72335 6.16987 5.95080
#
# Compressibility (1/GPa) = 0.02921099
#
# Stress axis : x y z
#
# Youngs Moduli (GPa) = 97.10634 113.54983 57.30772
#
# Poissons Ratio (x) = -0.00365 0.08051
# Poissons Ratio (y) = -0.00312 0.13175
# Poissons Ratio (z) = 0.13643 0.26105
#
# Static dielectric constant tensor:
#      x y z
#    x 1.953760 0.000000 0.024510 
#    y 0.000000 1.866740 0.000000 
#    z 0.024510 0.000000 1.975940 
# 
# From -- ./inp_files/67091.got.cif
#   From: 2010.05.17/outbox.cif.g08.bks.cpg/sg12_34_cif.got.tgz:67091.got - 2010.06.03 13:09:07.
