data_PCOD9203880
_publ_section_title
;
Structure prediction by ZEFSAII (Michael W. Deem and Ramdas Pophale) SiO2 
 PCOD9203880
Probable space group: C 2/M
;
_chemical_formula_sum "Si O2"
_cell_formula_units_Z 48
_cell_length_a 13.655952
_cell_length_b 29.287778
_cell_length_c 5.619695
_cell_angle_alpha 90.000000
_cell_angle_beta 91.868091
_cell_angle_gamma 90.000000
_cell_volume 2246.416464
_symmetry_space_group_name_H-M "C 2/M"
_symmetry_group_IT_number 12
_symmetry_cell_setting 'monoclinic'
loop_
_space_group_symop_operation_xyz
x,y,z
-x,y,-z
-x,-y,-z
x,-y,z
1/2+x,1/2+y,z
1/2-x,1/2+y,-z
1/2-x,1/2-y,-z
1/2+x,1/2-y,z
loop_
_atom_site_type_symbol
_atom_site_label
_atom_site_fract_x
_atom_site_fract_y
_atom_site_fract_z
Si Si1 0.760278 0.698961 0.247812
Si Si2 0.403101 0.730805 0.117875
Si Si3 0.444863 0.373210 0.245031
Si Si4 0.256222 0.112917 0.572061
Si Si5 0.399401 0.052777 0.332860
Si Si6 0.395656 0.865582 0.964027
O O1 0.842619 0.737933 0.301403
O O2 0.730168 0.659753 0.430660
O O3 0.814549 0.667640 0.059092
O O4 0.670107 0.722031 0.109189
O O5 0.431314 0.681608 0.226238
O O6 0.500000 0.749454 0.000000
O O7 0.500000 0.383920 0.500000
O O8 0.335550 0.394516 0.261183
O O9 0.500000 0.386098 0.000000
O O10 0.294232 0.068063 0.438820
O O11 0.359882 0.125356 0.699362
O O12 0.500000 0.057299 0.500000
O O13 0.403518 0.087925 0.114512
O O14 0.395949 0.000000 0.260633
O O15 0.500000 0.843814 0.000000
#
# Coordination Sequence:
#
# PCOD9203880 Si02
#       6
#     8   8   8   8   8   8
#     4  10  22  38  59  86 127 169 213 265 320 384
#     4  10  20  40  59  87 125 169 220 268 317 371
#     4  11  24  43  67  93 123 169 224 275 320 374
#     4  11  22  40  63  90 126 165 210 262 322 391
#     4  10  22  39  62  95 129 165 208 256 321 399
#     4  11  21  37  58  91 127 168 204 256 323 390
#
# _framework density 21.367363999999998
#
# number of rings (size 3 to 8) (size 9 to 14) (size 15 to 20)
#    0.000    1.500    3.333    2.500    2.333    1.667 
#    9.000    0.000    0.000    1.000    0.000    0.000 
#    0.000    0.000    0.000    0.000    0.000    0.000 
#
# Total GULP energy -133707.643114 kJ/mol
# GULP energy per Si atom -5571.151796 kJ/mol
# Density = 2.131873 g / cm^3
# Si number density = 21.367364 Si / 1000 Ang^3
#
#
#
# Elastic Constant Matrix: (Units=GPa)
#
#
# Indices 1 2 3 4 5 6 
#
# 1 137.9262 32.6496 23.8575 0.0000 -18.1708 0.0000
# 2 32.6496 97.9821 5.5170 0.0000 -5.3027 0.0000
# 3 23.8575 5.5170 38.3868 0.0000 -1.0147 0.0000
# 4 0.0000 0.0000 0.0000 -6.0601 0.0000 1.9094
# 5 -18.1708 -5.3027 -1.0147 0.0000 38.2434 0.0000
# 6 0.0000 0.0000 0.0000 1.9094 0.0000 27.6022
#
#
#
# Elastic Compliance Matrix: (Units=1/GPa)
#
#
# Indices 1 2 3 4 5 6 
#
# 1 0.009296 -0.002587 -0.005302 0.000000 0.003917 0.000000
# 2 -0.002587 0.011083 0.000023 0.000000 0.000308 0.000000
# 3 -0.005302 0.000023 0.029297 0.000000 -0.001739 0.000000
# 4 0.000000 0.000000 0.000000 -0.161494 0.000000 0.011171
# 5 0.003917 0.000308 -0.001739 0.000000 0.028006 0.000000
# 6 0.000000 0.000000 0.000000 0.011171 0.000000 0.035456
#
#
# Mechanical properties :
#
#
# Convention : Reuss Voigt Hill
#
# Bulk Modulus (GPa) = 29.46043 44.26039 36.86041
# Shear Modulus (GPa) = -234.64516 26.10850 -104.26833
#
# Velocity S-wave (km/s) = -10.49062 3.49934 -6.99313
# Velocity P-wave (km/s) = 11.52909 6.08984 6.92220
#
# Compressibility (1/GPa) = 0.03394383
#
# Stress axis : x y z
#
# Youngs Moduli (GPa) = 107.57489 90.22527 34.13363
#
# Poissons Ratio (x) = 0.23341 0.18098
# Poissons Ratio (y) = 0.27830 -0.00079
# Poissons Ratio (z) = 0.57037 -0.00208
#
# Static dielectric constant tensor:
#      x y z
#    x 1.773130 0.000000 -0.147140 
#    y 0.000000 1.760220 0.000000 
#    z -0.147140 0.000000 2.046930 
# 
# From -- ./inp_files/12355.got.cif
#   From: 2010.05.17/outbox.cif.g08.bks.cpg/sg12_7_cif.got.tgz:12355.got - 2010.06.03 13:09:07.
