data_PCOD9203227
_publ_section_title
;
Structure prediction by ZEFSAII (Michael W. Deem and Ramdas Pophale) SiO2 
 PCOD9203227
Probable space group: C 2/M
;
_chemical_formula_sum "Si O2"
_cell_formula_units_Z 64
_cell_length_a 20.530184
_cell_length_b 27.094748
_cell_length_c 16.950828
_cell_angle_alpha 90.000000
_cell_angle_beta 160.501976
_cell_angle_gamma 90.000000
_cell_volume 3147.181815
_symmetry_space_group_name_H-M "C 2/M"
_symmetry_group_IT_number 12
_symmetry_cell_setting 'monoclinic'
loop_
_space_group_symop_operation_xyz
x,y,z
-x,y,-z
-x,-y,-z
x,-y,z
1/2+x,1/2+y,z
1/2-x,1/2+y,-z
1/2-x,1/2-y,-z
1/2+x,1/2-y,z
loop_
_atom_site_type_symbol
_atom_site_label
_atom_site_fract_x
_atom_site_fract_y
_atom_site_fract_z
Si Si1 0.475620 0.179888 0.386528
Si Si2 0.813918 0.110596 0.734153
Si Si3 0.979964 0.096785 0.667487
Si Si4 0.377623 0.116433 0.035756
Si Si5 0.283987 0.442451 0.291481
Si Si6 0.486567 0.676744 0.171494
Si Si7 0.940000 0.722685 0.181384
Si Si8 0.725696 0.052939 0.494196
O O1 0.500000 0.205837 0.500000
O O2 0.624896 0.133968 0.559964
O O3 0.537280 0.206998 0.375436
O O4 0.245297 0.168849 0.110819
O O5 0.754426 0.062178 0.618618
O O6 0.893504 0.149070 0.758790
O O7 0.000000 0.101783 0.000000
O O8 0.825913 0.081746 0.424273
O O9 0.929892 0.060502 0.682199
O O10 0.963486 0.150630 0.688162
O O11 0.195798 0.094669 0.878289
O O12 0.389047 0.174668 0.070234
O O13 0.577645 0.094014 0.295118
O O14 0.339757 0.094637 0.904962
O O15 0.500000 0.444702 0.500000
O O16 0.215467 0.500000 0.217232
O O17 0.531062 0.734513 0.231582
O O18 0.750000 0.750000 0.000000
O O19 0.641733 0.000000 0.378976
#
# Coordination Sequence:
#
# PCOD9203227 Si02
#       8
#     8   8   8   8   8   8   8   8
#     4  11  20  38  63  89 116 161 202 245 297 367
#     4  11  22  39  63  87 120 160 201 254 307 364
#     4  10  20  39  59  86 121 162 202 250 301 373
#     4  11  20  40  62  85 127 161 201 254 307 369
#     4   9  19  34  58  88 118 157 202 247 302 361
#     4  10  21  39  60  89 125 159 205 247 306 359
#     4  10  20  39  62  92 121 158 205 247 298 369
#     4  11  24  39  63  90 115 161 208 251 315 369
#
# _framework density 20.335654999999999
#
# number of rings (size 3 to 8) (size 9 to 14) (size 15 to 20)
#    0.000    1.625    5.000    0.750    0.000    2.750 
#    4.500    1.250    0.000    0.375    0.000    0.000 
#    0.000    0.000    0.000    0.000    0.000    0.000 
#
# Total GULP energy -178270.616274 kJ/mol
# GULP energy per Si atom -5570.956759 kJ/mol
# Density = 2.028937 g / cm^3
# Si number density = 20.335655 Si / 1000 Ang^3
#
#
#
# Elastic Constant Matrix: (Units=GPa)
#
#
# Indices 1 2 3 4 5 6 
#
# 1 66.4926 19.7680 31.1048 -0.0001 -18.8587 0.0000
# 2 19.7680 108.4482 34.2423 -0.0002 -15.1426 -0.0001
# 3 31.1048 34.2423 85.1341 0.0000 -6.4959 0.0000
# 4 -0.0001 -0.0002 0.0000 6.8496 0.0001 -7.4110
# 5 -18.8587 -15.1426 -6.4959 0.0001 44.3720 0.0001
# 6 0.0000 -0.0001 0.0000 -7.4110 0.0001 8.2713
#
#
#
# Elastic Compliance Matrix: (Units=1/GPa)
#
#
# Indices 1 2 3 4 5 6 
#
# 1 0.020465 -0.000573 -0.006673 0.000003 0.007526 0.000003
# 2 -0.000573 0.010993 -0.003989 0.000016 0.002924 0.000014
# 3 -0.006673 -0.003989 0.015643 -0.000007 -0.001907 -0.000006
# 4 0.000003 0.000016 -0.000007 4.775064 -0.000011 4.278432
# 5 0.007526 0.002924 -0.001907 -0.000011 0.026454 -0.000010
# 6 0.000003 0.000014 -0.000006 4.278432 -0.000010 3.954353
#
#
# Mechanical properties :
#
#
# Convention : Reuss Voigt Hill
#
# Bulk Modulus (GPa) = 40.59690 47.81167 44.20428
# Shear Modulus (GPa) = 0.56602 23.56257 12.06429
#
# Velocity S-wave (km/s) = 0.52815 3.40764 2.43833
# Velocity P-wave (km/s) = 4.51427 6.24859 5.45085
#
# Compressibility (1/GPa) = 0.02463242
#
# Stress axis : x y z
#
# Youngs Moduli (GPa) = 48.86282 90.96444 63.92566
#
# Poissons Ratio (x) = 0.05210 0.42656
# Poissons Ratio (y) = 0.02799 0.25502
# Poissons Ratio (z) = 0.32605 0.36288
#
# Static dielectric constant tensor:
#      x y z
#    x 1.774580 0.000000 0.000910 
#    y 0.000000 1.746980 0.000000 
#    z 0.000910 0.000000 1.736040 
# 
# From -- ./inp_files/286785.got.cif
#   From: 2010.05.17/outbox.cif.g08.bks.cpg/sg12_144_cif.got.tgz:286785.got - 2010.06.03 13:09:07.
