data_PCOD9203664
_publ_section_title
;
Structure prediction by ZEFSAII (Michael W. Deem and Ramdas Pophale) SiO2 
 PCOD9203664
Probable space group: C 2/M
;
_chemical_formula_sum "Si O2"
_cell_formula_units_Z 64
_cell_length_a 9.298498
_cell_length_b 28.580824
_cell_length_c 17.954941
_cell_angle_alpha 90.000000
_cell_angle_beta 40.893335
_cell_angle_gamma 90.000000
_cell_volume 3123.795646
_symmetry_space_group_name_H-M "C 2/M"
_symmetry_group_IT_number 12
_symmetry_cell_setting 'monoclinic'
loop_
_space_group_symop_operation_xyz
x,y,z
-x,y,-z
-x,-y,-z
x,-y,z
1/2+x,1/2+y,z
1/2-x,1/2+y,-z
1/2-x,1/2-y,-z
1/2+x,1/2-y,z
loop_
_atom_site_type_symbol
_atom_site_label
_atom_site_fract_x
_atom_site_fract_y
_atom_site_fract_z
Si Si1 0.703772 0.191519 0.554965
Si Si2 0.990931 0.387796 0.092006
Si Si3 0.526475 0.220673 0.078713
Si Si4 0.866523 0.595495 0.481251
Si Si5 0.949228 0.943325 0.726044
Si Si6 0.741932 0.051497 0.101663
Si Si7 0.258709 0.446288 0.252841
Si Si8 0.856539 0.234777 0.653629
O O1 0.668618 0.136265 0.565145
O O2 0.745470 0.215967 0.619907
O O3 0.492978 0.216538 0.599882
O O4 0.930971 0.200530 0.420127
O O5 0.763122 0.411939 0.205998
O O6 0.031537 0.334199 0.098080
O O7 0.173339 0.419017 0.058639
O O8 0.000000 0.390846 0.000000
O O9 0.322937 0.237983 0.210147
O O10 0.500000 0.222045 0.000000
O O11 0.750000 0.250000 0.000000
O O12 0.641832 0.571773 0.594647
O O13 0.000000 0.616508 0.500000
O O14 0.035863 0.556962 0.386137
O O15 0.047184 0.929702 0.769414
O O16 0.913276 0.000000 0.738713
O O17 0.703728 0.076689 0.195503
O O18 0.633892 0.000000 0.140627
O O19 0.000000 0.046230 0.000000
O O20 0.312931 0.500000 0.214060
#
# Coordination Sequence:
#
# PCOD9203664 Si02
#       8
#     8   8   8   8   8   8   8   8
#     4  10  22  38  64  93 120 164 210 266 321 370
#     4  11  24  40  62  93 122 163 211 260 311 376
#     4  11  25  46  65  91 127 169 211 264 322 379
#     4  10  21  36  59  94 124 160 207 252 309 383
#     4  10  20  39  65  91 127 166 203 257 314 374
#     4  10  21  38  60  88 122 160 208 261 306 368
#     4   9  19  37  60  89 124 164 205 251 310 373
#     4  10  22  41  63  88 121 162 211 265 319 381
#
# _framework density 20.487895999999999
#
# number of rings (size 3 to 8) (size 9 to 14) (size 15 to 20)
#    0.000    1.875    0.000    3.000    5.250    4.000 
#   11.250    0.000    0.000    2.250    0.000    0.000 
#    0.000    0.000    0.000    0.000    0.000    0.000 
#
# Total GULP energy -178220.518570 kJ/mol
# GULP energy per Si atom -5569.391205 kJ/mol
# Density = 2.044126 g / cm^3
# Si number density = 20.487896 Si / 1000 Ang^3
#
#
#
# Elastic Constant Matrix: (Units=GPa)
#
#
# Indices 1 2 3 4 5 6 
#
# 1 70.9833 51.2687 29.3282 0.0000 -4.2445 0.0000
# 2 51.2687 95.1374 30.1474 0.0000 -12.1778 0.0000
# 3 29.3282 30.1474 125.7284 0.0000 -13.7865 0.0000
# 4 0.0000 0.0000 0.0000 -17.8720 0.0000 17.9475
# 5 -4.2445 -12.1778 -13.7865 0.0000 31.1257 0.0000
# 6 0.0000 0.0000 0.0000 17.9475 0.0000 4.3925
#
#
#
# Elastic Compliance Matrix: (Units=1/GPa)
#
#
# Indices 1 2 3 4 5 6 
#
# 1 0.024113 -0.012425 -0.002962 0.000000 -0.002885 0.000000
# 2 -0.012425 0.018133 -0.000901 0.000000 0.005001 0.000000
# 3 -0.002962 -0.000901 0.009226 0.000000 0.003330 0.000000
# 4 0.000000 0.000000 0.000000 -0.010965 0.000000 0.044800
# 5 -0.002885 0.005001 0.003330 0.000000 0.035166 0.000000
# 6 0.000000 0.000000 0.000000 0.044800 0.000000 0.044611
#
#
# Mechanical properties :
#
#
# Convention : Reuss Voigt Hill
#
# Bulk Modulus (GPa) = 52.92303 57.03754 54.98028
# Shear Modulus (GPa) = 31.41508 15.60289 23.50899
#
# Velocity S-wave (km/s) = 3.92005 2.76264 3.39109
# Velocity P-wave (km/s) = 6.81003 6.17060 6.49818
#
# Compressibility (1/GPa) = 0.01889537
#
# Stress axis : x y z
#
# Youngs Moduli (GPa) = 41.47089 55.14930 108.39212
#
# Poissons Ratio (x) = 0.68524 0.32104
# Poissons Ratio (y) = 0.51528 0.09768
# Poissons Ratio (z) = 0.12283 0.04970
#
# Static dielectric constant tensor:
#      x y z
#    x 1.797420 0.000000 0.054910 
#    y 0.000000 1.763580 0.000000 
#    z 0.054910 0.000000 1.754620 
# 
# From -- ./inp_files/260339.got.cif
#   From: 2010.05.17/outbox.cif.g08.bks.cpg/sg12_131_cif.got.tgz:260339.got - 2010.06.03 13:09:07.
