data_PCOD9203748
_publ_section_title
;
Structure prediction by ZEFSAII (Michael W. Deem and Ramdas Pophale) SiO2 
 PCOD9203748
Probable space group: C 2/M
;
_chemical_formula_sum "Si O2"
_cell_formula_units_Z 36
_cell_length_a 15.238004
_cell_length_b 19.159062
_cell_length_c 11.893896
_cell_angle_alpha 90.000000
_cell_angle_beta 151.237143
_cell_angle_gamma 90.000000
_cell_volume 1670.855864
_symmetry_space_group_name_H-M "C 2/M"
_symmetry_group_IT_number 12
_symmetry_cell_setting 'monoclinic'
loop_
_space_group_symop_operation_xyz
x,y,z
-x,y,-z
-x,-y,-z
x,-y,z
1/2+x,1/2+y,z
1/2-x,1/2+y,-z
1/2-x,1/2-y,-z
1/2+x,1/2-y,z
loop_
_atom_site_type_symbol
_atom_site_label
_atom_site_fract_x
_atom_site_fract_y
_atom_site_fract_z
Si Si1 0.652561 0.147962 0.249659
Si Si2 0.500000 0.112851 0.500000
Si Si3 0.923361 0.577680 0.167456
Si Si4 0.773839 0.769992 0.840105
Si Si5 0.938709 0.835197 0.238169
O O1 0.551200 0.136526 0.253871
O O2 0.674294 0.219844 0.204131
O O3 0.865353 0.132529 0.511197
O O4 0.500000 0.108732 0.000000
O O5 0.471031 0.074071 0.351811
O O6 0.325517 0.162492 0.317823
O O7 0.946996 0.500000 0.145585
O O8 0.717730 0.606168 0.927791
O O9 0.629701 0.725138 0.753095
O O10 0.923186 0.798759 0.097527
#
# Coordination Sequence:
#
# PCOD9203748 Si02
#       5
#     8   4   8   8   8
#     4  12  24  39  67 101 132 172 214 277 332 389
#     4  10  21  44  74  92 129 174 218 282 324 388
#     4  11  26  45  66  95 132 183 226 259 324 396
#     4  10  20  39  66  97 136 164 213 266 343 388
#     4  10  22  43  62  97 138 174 210 270 325 394
#
# _framework density 21.545843000000001
#
# number of rings (size 3 to 8) (size 9 to 14) (size 15 to 20)
#    0.000    1.333    4.444    0.333    0.000    4.889 
#    0.000    4.444    0.000    6.667    0.000    0.000 
#    0.000    0.000    0.000    0.000    0.000    0.000 
#
# Total GULP energy -100233.588203 kJ/mol
# GULP energy per Si atom -5568.532678 kJ/mol
# Density = 2.149680 g / cm^3
# Si number density = 21.545843 Si / 1000 Ang^3
#
#
#
# Elastic Constant Matrix: (Units=GPa)
#
#
# Indices 1 2 3 4 5 6 
#
# 1 96.3822 46.0544 46.1720 0.0000 11.0635 0.0000
# 2 46.0544 91.7856 33.2659 0.0000 -2.1228 0.0000
# 3 46.1720 33.2659 172.0727 0.0000 19.2918 0.0000
# 4 0.0000 0.0000 0.0000 -34.9498 0.0000 3.4883
# 5 11.0635 -2.1228 19.2918 0.0000 30.6758 0.0000
# 6 0.0000 0.0000 0.0000 3.4883 0.0000 18.8326
#
#
#
# Elastic Compliance Matrix: (Units=1/GPa)
#
#
# Indices 1 2 3 4 5 6 
#
# 1 0.015311 -0.006975 -0.002245 0.000000 -0.004593 0.000000
# 2 -0.006975 0.015061 -0.001548 0.000000 0.004531 0.000000
# 3 -0.002245 -0.001548 0.007138 0.000000 -0.003786 0.000000
# 4 0.000000 0.000000 0.000000 -0.028093 0.000000 0.005204
# 5 -0.004593 0.004531 -0.003786 0.000000 0.036950 0.000000
# 6 0.000000 0.000000 0.000000 0.005204 0.000000 0.052136
#
#
# Mechanical properties :
#
#
# Convention : Reuss Voigt Hill
#
# Bulk Modulus (GPa) = 62.60508 67.91390 65.25949
# Shear Modulus (GPa) = 39.88449 18.56161 29.22305
#
# Velocity S-wave (km/s) = 4.30716 2.93831 3.68682
# Velocity P-wave (km/s) = 7.33862 6.56510 6.96261
#
# Compressibility (1/GPa) = 0.01597314
#
# Stress axis : x y z
#
# Youngs Moduli (GPa) = 65.31307 66.39852 140.10197
#
# Poissons Ratio (x) = 0.46313 0.31453
# Poissons Ratio (y) = 0.45556 0.21688
# Poissons Ratio (z) = 0.14663 0.10279
#
# Static dielectric constant tensor:
#      x y z
#    x 1.845910 0.000000 -0.003800 
#    y 0.000000 1.775340 0.000000 
#    z -0.003800 0.000000 1.849250 
# 
# From -- ./inp_files/147859.got.cif
#   From: 2010.05.17/outbox.cif.g08.bks.cpg/sg12_74_cif.got.tgz:147859.got - 2010.06.03 13:09:07.
