data_PCOD9203571
_publ_section_title
;
Structure prediction by ZEFSAII (Michael W. Deem and Ramdas Pophale) SiO2 
 PCOD9203571
Probable space group: C 2/M
;
_chemical_formula_sum "Si O2"
_cell_formula_units_Z 56
_cell_length_a 11.799613
_cell_length_b 31.205084
_cell_length_c 9.329404
_cell_angle_alpha 90.000000
_cell_angle_beta 61.166361
_cell_angle_gamma 90.000000
_cell_volume 3009.281870
_symmetry_space_group_name_H-M "C 2/M"
_symmetry_group_IT_number 12
_symmetry_cell_setting 'monoclinic'
loop_
_space_group_symop_operation_xyz
x,y,z
-x,y,-z
-x,-y,-z
x,-y,z
1/2+x,1/2+y,z
1/2-x,1/2+y,-z
1/2-x,1/2-y,-z
1/2+x,1/2-y,z
loop_
_atom_site_type_symbol
_atom_site_label
_atom_site_fract_x
_atom_site_fract_y
_atom_site_fract_z
Si Si1 0.019819 0.217766 0.816434
Si Si2 0.847998 0.450572 0.054682
Si Si3 0.227397 0.855324 0.608517
Si Si4 0.309812 0.331646 0.817732
Si Si5 0.329747 0.873434 0.853382
Si Si6 0.085974 0.315886 0.733457
Si Si7 0.860394 0.910435 0.599757
O O1 0.892537 0.210186 0.796433
O O2 0.115006 0.178520 0.717755
O O3 0.064257 0.265390 0.751447
O O4 0.000000 0.216781 0.000000
O O5 0.816675 0.500000 0.043578
O O6 0.753172 0.434253 0.241288
O O7 0.834497 0.419445 0.926762
O O8 0.000000 0.447777 0.000000
O O9 0.293731 0.873680 0.709956
O O10 0.330627 0.828349 0.454999
O O11 0.184454 0.893506 0.527968
O O12 0.174535 0.326029 0.818134
O O13 0.383243 0.367120 0.679187
O O14 0.283259 0.349579 0.991123
O O15 0.459009 0.845606 0.804216
O O16 0.000000 0.932980 0.500000
#
# Coordination Sequence:
#
# PCOD9203571 Si02
#       7
#     8   8   8   8   8   8   8
#     4  12  23  37  57  84 120 164 219 257 297 356
#     4  10  22  42  70  97 122 159 207 253 311 395
#     4  11  23  39  58  89 120 165 203 256 316 355
#     4  10  21  38  59  80 115 165 211 246 303 367
#     4  11  21  41  63  88 122 157 204 254 315 367
#     4  11  25  37  57  84 122 165 210 263 306 359
#     4  10  20  39  64  90 124 164 203 252 315 375
#
# _framework density 18.609092
#
# number of rings (size 3 to 8) (size 9 to 14) (size 15 to 20)
#    0.000    1.286    2.857    4.714    2.000    1.429 
#    5.143    0.714    0.000    4.286    0.000    0.000 
#    0.000    0.000    0.000    0.000    0.000    0.000 
#
# Total GULP energy -156217.467443 kJ/mol
# GULP energy per Si atom -5579.195266 kJ/mol
# Density = 1.856674 g / cm^3
# Si number density = 18.609092 Si / 1000 Ang^3
#
#
#
# Elastic Constant Matrix: (Units=GPa)
#
#
# Indices 1 2 3 4 5 6 
#
# 1 95.6624 48.0869 61.8861 0.0000 7.9659 0.0000
# 2 48.0869 106.4872 37.5092 0.0000 6.9666 0.0000
# 3 61.8861 37.5092 118.4798 0.0000 14.1255 0.0000
# 4 0.0000 0.0000 0.0000 25.7955 0.0000 -18.3494
# 5 7.9659 6.9666 14.1255 0.0000 30.7392 0.0000
# 6 0.0000 0.0000 0.0000 -18.3494 0.0000 55.8470
#
#
#
# Elastic Compliance Matrix: (Units=1/GPa)
#
#
# Indices 1 2 3 4 5 6 
#
# 1 0.018263 -0.005503 -0.007810 0.000000 0.000103 0.000000
# 2 -0.005503 0.012252 -0.000892 0.000000 -0.000941 0.000000
# 3 -0.007810 -0.000892 0.013263 0.000000 -0.003869 0.000000
# 4 0.000000 0.000000 0.000000 0.050590 0.000000 0.016622
# 5 0.000103 -0.000941 -0.003869 0.000000 0.034496 0.000000
# 6 0.000000 0.000000 0.000000 0.016622 0.000000 0.023368
#
#
# Mechanical properties :
#
#
# Convention : Reuss Voigt Hill
#
# Bulk Modulus (GPa) = 65.06851 68.39933 66.73392
# Shear Modulus (GPa) = 26.91576 34.01949 30.46762
#
# Velocity S-wave (km/s) = 3.80725 4.28028 4.05068
# Velocity P-wave (km/s) = 7.37352 7.82709 7.60369
#
# Compressibility (1/GPa) = 0.01536842
#
# Stress axis : x y z
#
# Youngs Moduli (GPa) = 54.75442 81.62167 75.39661
#
# Poissons Ratio (x) = 0.44917 0.58882
# Poissons Ratio (y) = 0.30132 0.06726
# Poissons Ratio (z) = 0.42761 0.07281
#
# Static dielectric constant tensor:
#      x y z
#    x 1.685510 0.000000 -0.040920 
#    y 0.000000 1.612650 0.000000 
#    z -0.040920 0.000000 1.661870 
# 
# From -- ./inp_files/54605.got.cif
#   From: 2010.05.17/outbox.cif.g08.bks.cpg/sg12_28_cif.got.tgz:54605.got - 2010.06.03 13:09:07.
