data_PCOD9203450
_publ_section_title
;
Structure prediction by ZEFSAII (Michael W. Deem and Ramdas Pophale) SiO2 
 PCOD9203450
Probable space group: C 2/M
;
_chemical_formula_sum "Si O2"
_cell_formula_units_Z 48
_cell_length_a 15.557361
_cell_length_b 8.536533
_cell_length_c 30.470896
_cell_angle_alpha 90.000000
_cell_angle_beta 140.176673
_cell_angle_gamma 90.000000
_cell_volume 2591.607444
_symmetry_space_group_name_H-M "C 2/M"
_symmetry_group_IT_number 12
_symmetry_cell_setting 'monoclinic'
loop_
_space_group_symop_operation_xyz
x,y,z
-x,y,-z
-x,-y,-z
x,-y,z
1/2+x,1/2+y,z
1/2-x,1/2+y,-z
1/2-x,1/2-y,-z
1/2+x,1/2-y,z
loop_
_atom_site_type_symbol
_atom_site_label
_atom_site_fract_x
_atom_site_fract_y
_atom_site_fract_z
Si Si1 0.857060 0.309251 0.423823
Si Si2 0.363502 0.810548 0.826268
Si Si3 0.163272 0.811676 0.425031
Si Si4 0.645586 0.810737 0.075983
Si Si5 0.333084 0.187649 0.074220
Si Si6 0.367933 0.812064 0.327679
O O1 0.858467 0.500000 0.424199
O O2 0.738517 0.260534 0.409973
O O3 0.843537 0.257743 0.368318
O O4 0.000000 0.258559 0.500000
O O5 0.342808 0.762260 0.868818
O O6 0.512291 0.760747 0.869437
O O7 0.248917 0.745423 0.749991
O O8 0.359235 0.000000 0.823456
O O9 0.250000 0.750000 0.500000
O O10 0.012613 0.750036 0.369414
O O11 0.162846 0.000000 0.426183
O O12 0.760857 0.745426 0.089866
O O13 0.650191 0.000000 0.076016
O O14 0.500000 0.762514 0.000000
O O15 0.330926 0.000000 0.071871
O O16 0.250000 0.250000 0.000000
O O17 0.371722 0.000000 0.329273
#
# Coordination Sequence:
#
# PCOD9203450 Si02
#       6
#     8   8   8   8   8   8
#     4   9  18  36  60  84 115 154 194 235 286 351
#     4  10  23  42  60  84 124 160 190 242 306 358
#     4  11  21  37  62  89 118 154 198 243 296 351
#     4  10  20  39  63  87 118 159 201 243 299 361
#     4  11  22  38  62  91 121 156 202 250 298 354
#     4  11  23  40  61  87 119 155 198 245 293 352
#
# _framework density 18.521322999999999
#
# number of rings (size 3 to 8) (size 9 to 14) (size 15 to 20)
#    0.000    1.667    3.333    1.500    0.000    3.667 
#    0.000    9.167    0.000    0.000    0.000    0.000 
#    0.000    0.000    0.000    0.000    0.000    0.000 
#
# Total GULP energy -134082.727204 kJ/mol
# GULP energy per Si atom -5586.780300 kJ/mol
# Density = 1.847917 g / cm^3
# Si number density = 18.521323 Si / 1000 Ang^3
#
#
#
# Elastic Constant Matrix: (Units=GPa)
#
#
# Indices 1 2 3 4 5 6 
#
# 1 230.7997 41.7600 126.8795 0.0000 -1.7210 0.0000
# 2 41.7600 28.7702 38.4160 0.0000 0.3670 0.0000
# 3 126.8795 38.4160 196.0024 0.0000 0.7775 0.0000
# 4 0.0000 0.0000 0.0000 34.3522 0.0000 0.3917
# 5 -1.7210 0.3670 0.7775 0.0000 35.0892 0.0000
# 6 0.0000 0.0000 0.0000 0.3917 0.0000 31.0744
#
#
#
# Elastic Compliance Matrix: (Units=1/GPa)
#
#
# Indices 1 2 3 4 5 6 
#
# 1 0.007404 -0.005893 -0.003640 0.000000 0.000505 0.000000
# 2 -0.005893 0.051773 -0.006330 0.000000 -0.000690 0.000000
# 3 -0.003640 -0.006330 0.008700 0.000000 -0.000305 0.000000
# 4 0.000000 0.000000 0.000000 0.029114 0.000000 -0.000367
# 5 0.000505 -0.000690 -0.000305 0.000000 0.028538 0.000000
# 6 0.000000 0.000000 0.000000 -0.000367 0.000000 0.032185
#
#
# Mechanical properties :
#
#
# Convention : Reuss Voigt Hill
#
# Bulk Modulus (GPa) = 27.66148 96.63148 62.14648
# Shear Modulus (GPa) = 24.81524 36.67094 30.74309
#
# Velocity S-wave (km/s) = 3.66433 4.45447 4.07858
# Velocity P-wave (km/s) = 5.73327 8.87371 7.47038
#
# Compressibility (1/GPa) = 0.03615135
#
# Stress axis : x y z
#
# Youngs Moduli (GPa) = 135.06913 19.31519 114.94376
#
# Poissons Ratio (x) = 0.11382 0.41835
# Poissons Ratio (y) = 0.79595 0.72758
# Poissons Ratio (z) = 0.49160 0.12226
#
# Static dielectric constant tensor:
#      x y z
#    x 1.630980 0.000000 -0.007460 
#    y 0.000000 1.638510 0.000000 
#    z -0.007460 0.000000 1.599590 
# 
# From -- ./inp_files/308310.got.cif
#   From: 2010.05.17/outbox.cif.g08.bks.cpg/sg12_155_cif.got.tgz:308310.got - 2010.06.03 13:09:07.
