data_PCOD9203596
_publ_section_title
;
Structure prediction by ZEFSAII (Michael W. Deem and Ramdas Pophale) SiO2 
 PCOD9203596
Probable space group: C 2/M
;
_chemical_formula_sum "Si O2"
_cell_formula_units_Z 36
_cell_length_a 14.009106
_cell_length_b 11.376509
_cell_length_c 19.613319
_cell_angle_alpha 90.000000
_cell_angle_beta 149.374083
_cell_angle_gamma 90.000000
_cell_volume 1592.412761
_symmetry_space_group_name_H-M "C 2/M"
_symmetry_group_IT_number 12
_symmetry_cell_setting 'monoclinic'
loop_
_space_group_symop_operation_xyz
x,y,z
-x,y,-z
-x,-y,-z
x,-y,z
1/2+x,1/2+y,z
1/2-x,1/2+y,-z
1/2-x,1/2-y,-z
1/2+x,1/2-y,z
loop_
_atom_site_type_symbol
_atom_site_label
_atom_site_fract_x
_atom_site_fract_y
_atom_site_fract_z
Si Si1 0.788846 0.500000 0.340438
Si Si2 0.795905 0.756626 0.340780
Si Si3 0.913736 0.000000 0.371517
Si Si4 0.827895 0.304284 0.945907
Si Si5 0.049585 0.635498 0.824210
Si Si6 0.516967 0.500000 0.728614
O O1 0.758527 0.627498 0.286210
O O2 0.645196 0.500000 0.315625
O O3 0.000000 0.500000 0.500000
O O4 0.802468 0.876315 0.300375
O O5 0.636847 0.786031 0.298866
O O6 0.000000 0.748821 0.500000
O O7 0.000000 0.000000 0.500000
O O8 0.051464 0.000000 0.391823
O O9 0.726267 0.178670 0.889587
O O10 0.658390 0.391663 0.824902
O O11 0.895947 0.340855 0.063327
O O12 0.000000 0.309552 0.000000
O O13 0.006502 0.500000 0.786626
#
# Coordination Sequence:
#
# PCOD9203596 Si02
#       6
#     4   8   4   8   8   4
#     4  10  22  41  67  94 133 176 220 263 334 403
#     4  10  20  39  64  93 128 174 216 269 332 385
#     4  10  22  39  69  96 126 164 222 279 317 383
#     4  11  24  39  63  99 127 174 223 272 331 395
#     4  11  22  39  66  95 135 169 222 283 326 385
#     4  12  21  42  70  96 125 176 226 258 333 417
#
# _framework density 22.607202999999998
#
# number of rings (size 3 to 8) (size 9 to 14) (size 15 to 20)
#    0.000    1.333    4.444    1.667    0.000    0.444 
#    0.000   10.000    7.333    0.000    0.000    0.000 
#    0.000    0.000    0.000    0.000    0.000    0.000 
#
# Total GULP energy -100414.864069 kJ/mol
# GULP energy per Si atom -5578.603559 kJ/mol
# Density = 2.255575 g / cm^3
# Si number density = 22.607203 Si / 1000 Ang^3
#
#
#
# Elastic Constant Matrix: (Units=GPa)
#
#
# Indices 1 2 3 4 5 6 
#
# 1 128.8490 22.9986 49.0490 0.0000 27.7847 0.0001
# 2 22.9986 203.3628 11.2108 0.0001 17.0627 0.0001
# 3 49.0490 11.2108 87.2345 0.0003 19.3031 0.0001
# 4 0.0000 0.0001 0.0003 7.2676 0.0001 30.7802
# 5 27.7847 17.0627 19.3031 0.0001 33.1591 0.0001
# 6 0.0001 0.0001 0.0001 30.7802 0.0001 -1.0947
#
#
#
# Elastic Compliance Matrix: (Units=1/GPa)
#
#
# Indices 1 2 3 4 5 6 
#
# 1 0.010988 -0.000460 -0.004746 0.000000 -0.006208 0.000000
# 2 -0.000460 0.005159 0.000112 0.000000 -0.002334 0.000000
# 3 -0.004746 0.000112 0.015209 0.000000 -0.004935 0.000000
# 4 0.000000 0.000000 0.000000 0.001146 0.000000 0.032218
# 5 -0.006208 -0.002334 -0.004935 0.000000 0.039434 0.000000
# 6 0.000000 0.000000 0.000000 0.032218 0.000000 -0.007607
#
#
# Mechanical properties :
#
#
# Convention : Reuss Voigt Hill
#
# Bulk Modulus (GPa) = 47.23717 65.10700 56.17208
# Shear Modulus (GPa) = 61.29518 30.27892 45.78705
#
# Velocity S-wave (km/s) = 5.21268 3.66368 4.50525
# Velocity P-wave (km/s) = 7.56105 6.83802 7.20860
#
# Compressibility (1/GPa) = 0.02116977
#
# Stress axis : x y z
#
# Youngs Moduli (GPa) = 91.00573 193.83442 65.74951
#
# Poissons Ratio (x) = 0.08920 0.31202
# Poissons Ratio (y) = 0.04188 -0.00739
# Poissons Ratio (z) = 0.43187 -0.02177
#
# Static dielectric constant tensor:
#      x y z
#    x 1.830100 0.000000 -0.009780 
#    y 0.000000 1.931850 0.000000 
#    z -0.009780 0.000000 1.858490 
# 
# From -- ./inp_files/175479.got.cif
#   From: 2010.05.17/outbox.cif.g08.bks.cpg/sg12_88_cif.got.tgz:175479.got - 2010.06.03 13:09:07.
