data_PCOD9203268
_publ_section_title
;
Structure prediction by ZEFSAII (Michael W. Deem and Ramdas Pophale) SiO2 
 PCOD9203268
Probable space group: C 2/M
;
_chemical_formula_sum "Si O2"
_cell_formula_units_Z 40
_cell_length_a 12.490282
_cell_length_b 18.132234
_cell_length_c 11.105589
_cell_angle_alpha 90.000000
_cell_angle_beta 124.132455
_cell_angle_gamma 90.000000
_cell_volume 2081.902939
_symmetry_space_group_name_H-M "C 2/M"
_symmetry_group_IT_number 12
_symmetry_cell_setting 'monoclinic'
loop_
_space_group_symop_operation_xyz
x,y,z
-x,y,-z
-x,-y,-z
x,-y,z
1/2+x,1/2+y,z
1/2-x,1/2+y,-z
1/2-x,1/2-y,-z
1/2+x,1/2-y,z
loop_
_atom_site_type_symbol
_atom_site_label
_atom_site_fract_x
_atom_site_fract_y
_atom_site_fract_z
Si Si1 0.761768 0.265855 0.149703
Si Si2 0.114942 0.625914 0.158156
Si Si3 0.175819 0.000000 0.700167
Si Si4 0.285563 0.652456 0.658585
Si Si5 0.559196 0.209200 0.356947
Si Si6 0.400096 0.500000 0.628679
O O1 0.674414 0.201770 0.148761
O O2 0.712368 0.336971 0.194959
O O3 0.912628 0.264089 0.280354
O O4 0.750000 0.250000 0.000000
O O5 0.232528 0.570064 0.229053
O O6 0.060968 0.646053 0.255250
O O7 0.000000 0.600457 0.000000
O O8 0.133205 0.000000 0.534097
O O9 0.056784 0.000000 0.718753
O O10 0.368670 0.717424 0.646787
O O11 0.142312 0.672396 0.516619
O O12 0.339996 0.573607 0.650622
#
# Coordination Sequence:
#
# PCOD9203268 Si02
#       6
#     8   8   4   8   8   4
#     4  11  22  38  63  91 124 164 205 257 322 374
#     4  11  21  38  62  90 124 164 212 263 310 381
#     4  11  23  38  64  91 127 167 216 256 323 382
#     4  10  22  38  64  90 127 162 214 264 311 379
#     4  10  20  39  60  93 120 161 213 265 314 367
#     4  11  22  42  61  92 129 171 207 268 324 374
#
# _framework density 19.213190999999998
#
# number of rings (size 3 to 8) (size 9 to 14) (size 15 to 20)
#    0.000    1.400    4.000    2.100    0.000    0.000 
#    0.000    4.000    0.000    2.400    0.000    0.000 
#    0.000    0.000    0.000    0.000    0.000    0.000 
#
# Total GULP energy -111403.934991 kJ/mol
# GULP energy per Si atom -5570.196750 kJ/mol
# Density = 1.916946 g / cm^3
# Si number density = 19.213191 Si / 1000 Ang^3
#
#
#
# Elastic Constant Matrix: (Units=GPa)
#
#
# Indices 1 2 3 4 5 6 
#
# 1 53.6989 2.5777 34.9604 0.0000 -3.5044 0.0000
# 2 2.5777 72.6668 29.9118 0.0000 -12.4490 0.0000
# 3 34.9604 29.9118 91.0293 0.0000 -13.0516 0.0000
# 4 0.0000 0.0000 0.0000 3.0901 0.0000 35.8118
# 5 -3.5044 -12.4490 -13.0516 0.0000 39.5900 0.0000
# 6 0.0000 0.0000 0.0000 35.8118 0.0000 18.1409
#
#
#
# Elastic Compliance Matrix: (Units=1/GPa)
#
#
# Indices 1 2 3 4 5 6 
#
# 1 0.025638 0.003603 -0.011066 0.000000 -0.000246 0.000000
# 2 0.003603 0.016880 -0.006428 0.000000 0.003508 0.000000
# 3 -0.011066 -0.006428 0.017756 0.000000 0.002853 0.000000
# 4 0.000000 0.000000 0.000000 -0.014792 0.000000 0.029200
# 5 -0.000246 0.003508 0.002853 0.000000 0.027281 0.000000
# 6 0.000000 0.000000 0.000000 0.029200 0.000000 -0.002520
#
#
# Mechanical properties :
#
#
# Convention : Reuss Voigt Hill
#
# Bulk Modulus (GPa) = 30.77433 39.14388 34.95911
# Shear Modulus (GPa) = 45.93252 22.16055 34.04653
#
# Velocity S-wave (km/s) = 4.89476 3.39986 4.21413
# Velocity P-wave (km/s) = 6.92798 5.98580 6.47405
#
# Compressibility (1/GPa) = 0.03249461
#
# Stress axis : x y z
#
# Youngs Moduli (GPa) = 39.00531 59.24011 56.31748
#
# Poissons Ratio (x) = -0.21347 0.62318
# Poissons Ratio (y) = -0.14055 0.36200
# Poissons Ratio (z) = 0.43161 0.38078
#
# Static dielectric constant tensor:
#      x y z
#    x 1.721590 0.000000 -0.018020 
#    y 0.000000 1.644480 0.000000 
#    z -0.018020 0.000000 1.730470 
# 
# From -- ./inp_files/130892.got.cif
#   From: 2010.05.17/outbox.cif.g08.bks.cpg/sg12_66_cif.got.tgz:130892.got - 2010.06.03 13:09:07.
