data_PCOD9203116
_publ_section_title
;
Structure prediction by ZEFSAII (Michael W. Deem and Ramdas Pophale) SiO2 
 PCOD9203116
Probable space group: C 2/M
;
_chemical_formula_sum "Si O2"
_cell_formula_units_Z 44
_cell_length_a 24.340310
_cell_length_b 13.337416
_cell_length_c 9.646594
_cell_angle_alpha 90.000000
_cell_angle_beta 45.814137
_cell_angle_gamma 90.000000
_cell_volume 2245.644413
_symmetry_space_group_name_H-M "C 2/M"
_symmetry_group_IT_number 12
_symmetry_cell_setting 'monoclinic'
loop_
_space_group_symop_operation_xyz
x,y,z
-x,y,-z
-x,-y,-z
x,-y,z
1/2+x,1/2+y,z
1/2-x,1/2+y,-z
1/2-x,1/2-y,-z
1/2+x,1/2-y,z
loop_
_atom_site_type_symbol
_atom_site_label
_atom_site_fract_x
_atom_site_fract_y
_atom_site_fract_z
Si Si1 0.082729 0.386434 0.925863
Si Si2 0.820741 0.000000 0.300347
Si Si3 0.069548 0.224859 0.187480
Si Si4 0.876506 0.000000 0.503940
Si Si5 0.207191 0.669697 0.481725
Si Si6 0.444565 0.500000 0.877759
Si Si7 0.610405 0.279138 0.420228
O O1 0.085637 0.500000 0.980020
O O2 0.144414 0.378481 0.694444
O O3 0.093063 0.298859 0.021600
O O4 0.000000 0.372145 0.000000
O O5 0.773493 0.906934 0.326642
O O6 0.822439 0.000000 0.464082
O O7 0.907148 0.000000 0.094834
O O8 0.081904 0.105948 0.140427
O O9 0.110188 0.251910 0.260415
O O10 0.977366 0.234206 0.372195
O O11 0.868428 0.103190 0.601497
O O12 0.964161 0.000000 0.295363
O O13 0.250000 0.750000 0.500000
O O14 0.165409 0.717396 0.423890
#
# Coordination Sequence:
#
# PCOD9203116 Si02
#       7
#     8   4   8   4   8   4   8
#     4  11  23  42  64  91 123 168 213 258 301 364
#     4  12  23  38  59  93 124 166 206 256 309 367
#     4  10  21  40  67  95 127 157 211 263 312 369
#     4  10  20  38  67  92 128 160 205 260 315 373
#     4  12  23  40  63  88 127 163 209 257 312 372
#     4  10  22  38  65 100 123 158 207 264 316 372
#     4  10  21  39  64  97 123 165 204 258 318 371
#
# _framework density 19.593485999999999
#
# number of rings (size 3 to 8) (size 9 to 14) (size 15 to 20)
#    0.000    1.273    4.545    1.909    0.000    2.182 
#    1.636    4.545    0.000    0.000    0.000    0.000 
#    0.000    0.000    0.000    0.000    0.000    0.000 
#
# Total GULP energy -122814.786028 kJ/mol
# GULP energy per Si atom -5582.490274 kJ/mol
# Density = 1.954889 g / cm^3
# Si number density = 19.593486 Si / 1000 Ang^3
#
#
#
# Elastic Constant Matrix: (Units=GPa)
#
#
# Indices 1 2 3 4 5 6 
#
# 1 120.6256 54.7341 16.6965 0.0000 22.8631 0.0000
# 2 54.7341 128.3894 24.7940 0.0000 18.4645 0.0000
# 3 16.6965 24.7940 46.7504 0.0000 6.8924 0.0000
# 4 0.0000 0.0000 0.0000 28.4991 0.0000 -1.9336
# 5 22.8631 18.4645 6.8924 0.0000 31.0742 0.0000
# 6 0.0000 0.0000 0.0000 -1.9336 0.0000 11.5340
#
#
#
# Elastic Compliance Matrix: (Units=1/GPa)
#
#
# Indices 1 2 3 4 5 6 
#
# 1 0.011246 -0.003733 -0.001183 0.000000 -0.005794 0.000000
# 2 -0.003733 0.010503 -0.003848 0.000000 -0.002641 0.000000
# 3 -0.001183 -0.003848 0.024179 0.000000 -0.002206 0.000000
# 4 0.000000 0.000000 0.000000 0.035492 0.000000 0.005950
# 5 -0.005794 -0.002641 -0.002206 0.000000 0.038503 0.000000
# 6 0.000000 0.000000 0.000000 0.005950 0.000000 0.087697
#
#
# Mechanical properties :
#
#
# Convention : Reuss Voigt Hill
#
# Bulk Modulus (GPa) = 35.20960 54.24607 44.72784
# Shear Modulus (GPa) = 21.31175 27.52419 24.41797
#
# Velocity S-wave (km/s) = 3.30160 3.75208 3.53403
# Velocity P-wave (km/s) = 5.70466 6.82032 6.28728
#
# Compressibility (1/GPa) = 0.02840134
#
# Stress axis : x y z
#
# Youngs Moduli (GPa) = 88.92377 95.21126 41.35901
#
# Poissons Ratio (x) = 0.35538 0.04891
# Poissons Ratio (y) = 0.33191 0.15914
# Poissons Ratio (z) = 0.10515 0.36635
#
# Static dielectric constant tensor:
#      x y z
#    x 1.651530 0.000000 -0.014520 
#    y 0.000000 1.681960 0.000000 
#    z -0.014520 0.000000 1.712140 
# 
# From -- ./inp_files/96160.got.cif
#   From: 2010.05.17/outbox.cif.g08.bks.cpg/sg12_49_cif.got.tgz:96160.got - 2010.06.03 13:09:07.
