data_PCOD9203073
_publ_section_title
;
Structure prediction by ZEFSAII (Michael W. Deem and Ramdas Pophale) SiO2 
 PCOD9203073
Probable space group: C 2/M
;
_chemical_formula_sum "Si O2"
_cell_formula_units_Z 56
_cell_length_a 9.477480
_cell_length_b 25.735868
_cell_length_c 22.441298
_cell_angle_alpha 90.000000
_cell_angle_beta 30.717852
_cell_angle_gamma 90.000000
_cell_volume 2796.016584
_symmetry_space_group_name_H-M "C 2/M"
_symmetry_group_IT_number 12
_symmetry_cell_setting 'monoclinic'
loop_
_space_group_symop_operation_xyz
x,y,z
-x,y,-z
-x,-y,-z
x,-y,z
1/2+x,1/2+y,z
1/2-x,1/2+y,-z
1/2-x,1/2-y,-z
1/2+x,1/2-y,z
loop_
_atom_site_type_symbol
_atom_site_label
_atom_site_fract_x
_atom_site_fract_y
_atom_site_fract_z
Si Si1 0.750454 0.211458 0.252870
Si Si2 0.634107 0.656863 0.017059
Si Si3 0.184610 0.632667 0.634822
Si Si4 0.871558 0.441295 0.663545
Si Si5 0.238244 0.348584 0.375446
Si Si6 0.274446 0.167232 0.247069
Si Si7 0.222184 0.940685 0.065264
O O1 0.468105 0.182791 0.337247
O O2 0.837757 0.185357 0.283299
O O3 0.707239 0.271952 0.279039
O O4 0.969516 0.195010 0.121890
O O5 0.956387 0.668620 0.891981
O O6 0.500000 0.658993 0.000000
O O7 0.637088 0.599691 0.045142
O O8 0.500000 0.630723 0.500000
O O9 0.159474 0.639391 0.714640
O O10 0.025013 0.583298 0.665086
O O11 0.962241 0.500000 0.618664
O O12 0.907849 0.399816 0.598047
O O13 0.543361 0.441329 0.795314
O O14 0.508560 0.359804 0.315362
O O15 0.000000 0.320643 0.500000
O O16 0.265391 0.000000 0.027977
O O17 0.500000 0.924919 0.000000
#
# Coordination Sequence:
#
# PCOD9203073 Si02
#       7
#     8   8   8   8   8   8   8
#     4  11  24  43  60  92 131 175 213 262 329 372
#     4  12  23  41  62  93 132 164 214 270 316 391
#     4  11  23  43  65  92 130 168 218 269 315 381
#     4  10  21  43  67  91 131 170 209 265 331 387
#     4  11  24  41  64  96 127 168 219 267 315 377
#     4  12  24  39  66  93 129 170 219 266 315 385
#     4  10  20  38  66  94 125 169 210 262 332 387
#
# _framework density 20.028493999999998
#
# number of rings (size 3 to 8) (size 9 to 14) (size 15 to 20)
#    0.000    1.000    4.286    3.857    0.000    4.286 
#    0.000    1.429    0.000    0.000    0.000    0.000 
#    0.000    0.000    0.000    0.000    0.000    0.000 
#
# Total GULP energy -156371.012884 kJ/mol
# GULP energy per Si atom -5584.679032 kJ/mol
# Density = 1.998291 g / cm^3
# Si number density = 20.028494 Si / 1000 Ang^3
#
#
#
# Elastic Constant Matrix: (Units=GPa)
#
#
# Indices 1 2 3 4 5 6 
#
# 1 83.7473 22.7611 14.2281 0.0009 0.4355 -0.0003
# 2 22.7611 72.5203 0.1949 -0.0059 15.2171 0.0017
# 3 14.2281 0.1949 96.7957 -0.0189 -13.6988 -0.0003
# 4 0.0009 -0.0059 -0.0189 4.7853 -0.0003 -4.1444
# 5 0.4355 15.2171 -13.6988 -0.0003 36.5169 -0.0014
# 6 -0.0003 0.0017 -0.0003 -4.1444 -0.0014 5.8603
#
#
#
# Elastic Compliance Matrix: (Units=1/GPa)
#
#
# Indices 1 2 3 4 5 6 
#
# 1 0.013449 -0.004426 -0.001827 -0.000034 0.000999 -0.000022
# 2 -0.004426 0.016654 -0.000378 0.000034 -0.007029 0.000017
# 3 -0.001827 -0.000378 0.011221 0.000118 0.004389 0.000085
# 4 -0.000034 0.000034 0.000118 0.539258 0.000049 0.381364
# 5 0.000999 -0.007029 0.004389 0.000049 0.031948 0.000045
# 6 -0.000022 0.000017 0.000085 0.381364 0.000045 0.440342
#
#
# Mechanical properties :
#
#
# Convention : Reuss Voigt Hill
#
# Bulk Modulus (GPa) = 35.63244 36.38127 36.00686
# Shear Modulus (GPa) = 4.64906 23.82445 14.23676
#
# Velocity S-wave (km/s) = 1.52521 3.45270 2.66902
# Velocity P-wave (km/s) = 4.57506 5.83943 5.24548
#
# Compressibility (1/GPa) = 0.02806431
#
# Stress axis : x y z
#
# Youngs Moduli (GPa) = 74.35711 60.04508 89.11531
#
# Poissons Ratio (x) = 0.26573 0.16278
# Poissons Ratio (y) = 0.32907 0.03366
# Poissons Ratio (z) = 0.13582 0.02268
#
# Static dielectric constant tensor:
#      x y z
#    x 1.720280 0.000000 0.017350 
#    y 0.000000 1.714450 0.000000 
#    z 0.017350 0.000000 1.724580 
# 
# From -- ./inp_files/302997.got.cif
#   From: 2010.05.17/outbox.cif.g08.bks.cpg/sg12_152_cif.got.tgz:302997.got - 2010.06.03 13:09:07.
