data_PCOD9203699
_publ_section_title
;
Structure prediction by ZEFSAII (Michael W. Deem and Ramdas Pophale) SiO2 
 PCOD9203699
Probable space group: C 2/M
;
_chemical_formula_sum "Si O2"
_cell_formula_units_Z 56
_cell_length_a 21.800862
_cell_length_b 16.964003
_cell_length_c 6.793710
_cell_angle_alpha 90.000000
_cell_angle_beta 116.612857
_cell_angle_gamma 90.000000
_cell_volume 2246.325227
_symmetry_space_group_name_H-M "C 2/M"
_symmetry_group_IT_number 12
_symmetry_cell_setting 'monoclinic'
loop_
_space_group_symop_operation_xyz
x,y,z
-x,y,-z
-x,-y,-z
x,-y,z
1/2+x,1/2+y,z
1/2-x,1/2+y,-z
1/2-x,1/2-y,-z
1/2+x,1/2-y,z
loop_
_atom_site_type_symbol
_atom_site_label
_atom_site_fract_x
_atom_site_fract_y
_atom_site_fract_z
Si Si1 0.112452 0.413925 0.035180
Si Si2 0.581095 0.086859 0.560355
Si Si3 0.052588 0.239842 0.444386
Si Si4 0.792038 0.813615 0.930137
Si Si5 0.260459 0.087826 0.488106
Si Si6 0.554902 0.748490 0.959777
Si Si7 0.855454 0.088193 0.354713
O O1 0.081591 0.500000 0.024446
O O2 0.176994 0.403586 0.269705
O O3 0.062076 0.342593 0.989458
O O4 0.127578 0.412169 0.823376
O O5 0.500000 0.085759 0.500000
O O6 0.588983 0.173762 0.479732
O O7 0.592104 0.000000 0.480954
O O8 0.036199 0.226261 0.172133
O O9 0.090659 0.156947 0.531500
O O10 0.034657 0.245120 0.680583
O O11 0.747156 0.845346 0.685252
O O12 0.865792 0.783222 0.952258
O O13 0.750000 0.750000 0.000000
O O14 0.811963 0.885551 0.102579
O O15 0.193579 0.089056 0.527930
O O16 0.263808 0.000000 0.403029
O O17 0.884099 0.000000 0.369936
#
# Coordination Sequence:
#
# PCOD9203699 Si02
#       7
#     8   8   8   8   8   8   8
#     4  10  20  39  65  96 136 185 234 292 371 449
#     4   9  16  32  64  96 133 185 242 302 370 447
#     4  11  20  40  63  96 142 180 242 305 371 441
#     4  12  26  47  75 106 141 194 253 311 380 451
#     4  10  24  47  72 106 147 188 246 312 372 450
#     4  12  25  42  66 100 144 186 239 308 374 446
#     4  11  24  44  73 105 145 197 250 308 381 454
#
# _framework density 24.929604000000001
#
# number of rings (size 3 to 8) (size 9 to 14) (size 15 to 20)
#    0.000    1.286    4.286    2.143    0.000    4.000 
#    0.000    0.714    0.000   10.714    0.000    2.000 
#    0.000    0.000    0.000    0.000    0.000    0.000 
#
# Total GULP energy -156416.822807 kJ/mol
# GULP energy per Si atom -5586.315100 kJ/mol
# Density = 2.487286 g / cm^3
# Si number density = 24.929604 Si / 1000 Ang^3
#
#
#
# Elastic Constant Matrix: (Units=GPa)
#
#
# Indices 1 2 3 4 5 6 
#
# 1 142.3167 78.9046 57.6512 0.0000 -12.7984 0.0000
# 2 78.9046 207.6216 78.8062 0.0000 15.5550 0.0000
# 3 57.6512 78.8062 198.9922 0.0000 15.5537 0.0000
# 4 0.0000 0.0000 0.0000 34.4396 0.0000 8.3847
# 5 -12.7984 15.5550 15.5537 0.0000 54.0124 0.0000
# 6 0.0000 0.0000 0.0000 8.3847 0.0000 23.3607
#
#
#
# Elastic Compliance Matrix: (Units=1/GPa)
#
#
# Indices 1 2 3 4 5 6 
#
# 1 0.010008 -0.003388 -0.001861 0.000000 0.003883 0.000000
# 2 -0.003388 0.006870 -0.001557 0.000000 -0.002333 0.000000
# 3 -0.001861 -0.001557 0.006323 0.000000 -0.001813 0.000000
# 4 0.000000 0.000000 0.000000 0.031817 0.000000 -0.011420
# 5 0.003883 -0.002333 -0.001813 0.000000 0.020628 0.000000
# 6 0.000000 0.000000 0.000000 -0.011420 0.000000 0.046906
#
#
# Mechanical properties :
#
#
# Convention : Reuss Voigt Hill
#
# Bulk Modulus (GPa) = 104.28896 108.85049 106.56973
# Shear Modulus (GPa) = 35.87842 44.60044 40.23943
#
# Velocity S-wave (km/s) = 3.79778 4.23431 4.02197
# Velocity P-wave (km/s) = 7.82017 8.22580 8.02555
#
# Compressibility (1/GPa) = 0.00958874
#
# Stress axis : x y z
#
# Youngs Moduli (GPa) = 99.91835 145.56780 158.15741
#
# Poissons Ratio (x) = 0.49317 0.29438
# Poissons Ratio (y) = 0.33852 0.24620
# Poissons Ratio (z) = 0.18598 0.22660
#
# Static dielectric constant tensor:
#      x y z
#    x 2.065390 0.000000 -0.069590 
#    y 0.000000 1.882100 0.000000 
#    z -0.069590 0.000000 2.121070 
# 
# From -- ./inp_files/31923.got.cif
#   From: 2010.05.17/outbox.cif.g08.bks.cpg/sg12_16_cif.got.tgz:31923.got - 2010.06.03 13:09:07.
