data_PCOD9203525
_publ_section_title
;
Structure prediction by ZEFSAII (Michael W. Deem and Ramdas Pophale) SiO2 
 PCOD9203525
Probable space group: C 2/M
;
_chemical_formula_sum "Si O2"
_cell_formula_units_Z 64
_cell_length_a 31.336086
_cell_length_b 8.555785
_cell_length_c 12.519533
_cell_angle_alpha 90.000000
_cell_angle_beta 89.497202
_cell_angle_gamma 90.000000
_cell_volume 3356.417832
_symmetry_space_group_name_H-M "C 2/M"
_symmetry_group_IT_number 12
_symmetry_cell_setting 'monoclinic'
loop_
_space_group_symop_operation_xyz
x,y,z
-x,y,-z
-x,-y,-z
x,-y,z
1/2+x,1/2+y,z
1/2-x,1/2+y,-z
1/2-x,1/2-y,-z
1/2+x,1/2-y,z
loop_
_atom_site_type_symbol
_atom_site_label
_atom_site_fract_x
_atom_site_fract_y
_atom_site_fract_z
Si Si1 0.797387 0.184194 0.987507
Si Si2 0.796271 0.311837 0.530088
Si Si3 0.575097 0.819671 0.244455
Si Si4 0.323289 0.820290 0.763531
Si Si5 0.950264 0.689109 0.986513
Si Si6 0.049180 0.311095 0.474528
Si Si7 0.374952 0.689149 0.136092
Si Si8 0.126041 0.812445 0.615730
O O1 0.811996 0.222537 0.867423
O O2 0.795222 0.000000 0.004322
O O3 0.750000 0.250000 0.000000
O O4 0.833461 0.245408 0.069552
O O5 0.797353 0.500000 0.528325
O O6 0.750000 0.250000 0.500000
O O7 0.805027 0.261520 0.652006
O O8 0.833420 0.251286 0.451143
O O9 0.625912 0.823089 0.249768
O O10 0.562586 0.750313 0.130881
O O11 0.558526 0.749463 0.354944
O O12 0.559156 0.000000 0.242619
O O13 0.308637 0.000000 0.781078
O O14 0.945660 0.500000 0.989051
O O15 0.917695 0.754665 0.075080
O O16 0.000000 0.726411 0.000000
O O17 0.055302 0.500000 0.474889
O O18 0.083017 0.242751 0.557260
O O19 0.000000 0.278363 0.500000
O O20 0.374821 0.500000 0.134389
O O21 0.373309 0.739183 0.260076
O O22 0.127799 0.000000 0.614145
#
# Coordination Sequence:
#
# PCOD9203525 Si02
#       8
#     8   8   8   8   8   8   8   8
#     4  11  24  41  62  89 119 155 203 247 299 359
#     4  11  24  42  64  91 122 157 201 249 304 362
#     4   9  17  35  58  86 119 150 189 243 300 345
#     4  10  20  39  64  86 118 156 193 246 303 352
#     4  10  21  36  61  92 118 150 197 246 290 349
#     4  10  21  38  63  91 121 159 201 248 304 358
#     4  10  24  43  59  82 122 163 196 243 301 353
#     4  11  24  42  61  85 123 164 203 247 300 358
#
# _framework density 19.067948999999999
#
# number of rings (size 3 to 8) (size 9 to 14) (size 15 to 20)
#    0.000    1.750    2.500    1.125    3.500    3.000 
#    0.000    0.625    0.000    0.000    0.000    0.000 
#    0.000    0.000    0.000    0.000    0.000    0.000 
#
# Total GULP energy -178637.576474 kJ/mol
# GULP energy per Si atom -5582.424265 kJ/mol
# Density = 1.902455 g / cm^3
# Si number density = 19.067949 Si / 1000 Ang^3
#
#
#
# Elastic Constant Matrix: (Units=GPa)
#
#
# Indices 1 2 3 4 5 6 
#
# 1 122.8116 25.4498 70.9077 0.0000 4.4829 0.0000
# 2 25.4498 22.3638 21.6438 0.0000 -2.0824 0.0000
# 3 70.9077 21.6438 160.9019 0.0000 7.7706 0.0000
# 4 0.0000 0.0000 0.0000 24.5572 0.0000 2.6339
# 5 4.4829 -2.0824 7.7706 0.0000 34.7069 0.0000
# 6 0.0000 0.0000 0.0000 2.6339 0.0000 25.8375
#
#
#
# Elastic Compliance Matrix: (Units=1/GPa)
#
#
# Indices 1 2 3 4 5 6 
#
# 1 0.012794 -0.010685 -0.004135 0.000000 -0.001368 0.000000
# 2 -0.010685 0.061096 -0.003794 0.000000 0.005895 0.000000
# 3 -0.004135 -0.003794 0.008626 0.000000 -0.001625 0.000000
# 4 0.000000 0.000000 0.000000 0.041171 0.000000 -0.004197
# 5 -0.001368 0.005895 -0.001625 0.000000 0.029707 0.000000
# 6 0.000000 0.000000 0.000000 -0.004197 0.000000 0.039131
#
#
# Mechanical properties :
#
#
# Convention : Reuss Voigt Hill
#
# Bulk Modulus (GPa) = 22.08121 60.23110 41.15616
# Shear Modulus (GPa) = 20.42071 29.55872 24.98971
#
# Velocity S-wave (km/s) = 3.27608 3.94150 3.62409
# Velocity P-wave (km/s) = 5.09074 7.23672 6.25643
#
# Compressibility (1/GPa) = 0.04528736
#
# Stress axis : x y z
#
# Youngs Moduli (GPa) = 78.16128 16.36776 115.92876
#
# Poissons Ratio (x) = 0.17489 0.47934
# Poissons Ratio (y) = 0.83517 0.43986
# Poissons Ratio (z) = 0.32318 0.06210
#
# Static dielectric constant tensor:
#      x y z
#    x 1.646780 0.000000 0.015330 
#    y 0.000000 1.672020 0.000000 
#    z 0.015330 0.000000 1.611730 
# 
# From -- ./inp_files/187467.got.cif
#   From: 2010.05.17/outbox.cif.g08.bks.cpg/sg12_94_cif.got.tgz:187467.got - 2010.06.03 13:09:07.
