data_PCOD9203327
_publ_section_title
;
Structure prediction by ZEFSAII (Michael W. Deem and Ramdas Pophale) SiO2 
 PCOD9203327
Probable space group: C 2/M
;
_chemical_formula_sum "Si O2"
_cell_formula_units_Z 64
_cell_length_a 11.314721
_cell_length_b 24.224305
_cell_length_c 10.744892
_cell_angle_alpha 90.000000
_cell_angle_beta 70.409743
_cell_angle_gamma 90.000000
_cell_volume 2774.603372
_symmetry_space_group_name_H-M "C 2/M"
_symmetry_group_IT_number 12
_symmetry_cell_setting 'monoclinic'
loop_
_space_group_symop_operation_xyz
x,y,z
-x,y,-z
-x,-y,-z
x,-y,z
1/2+x,1/2+y,z
1/2-x,1/2+y,-z
1/2-x,1/2-y,-z
1/2+x,1/2-y,z
loop_
_atom_site_type_symbol
_atom_site_label
_atom_site_fract_x
_atom_site_fract_y
_atom_site_fract_z
Si Si1 0.653308 0.242454 0.149601
Si Si2 0.308124 0.566244 0.327012
Si Si3 0.353760 0.741722 0.571013
Si Si4 0.960684 0.566045 0.657536
Si Si5 0.532037 0.143697 0.854742
Si Si6 0.639527 0.608281 0.435152
Si Si7 0.197217 0.857215 0.169608
Si Si8 0.937763 0.061618 0.889019
O O1 0.690826 0.231740 0.281463
O O2 0.557102 0.195311 0.143897
O O3 0.604379 0.305555 0.184544
O O4 0.750000 0.250000 0.000000
O O5 0.314702 0.500000 0.328498
O O6 0.188270 0.579705 0.285483
O O7 0.283934 0.588024 0.474664
O O8 0.445334 0.585224 0.233970
O O9 0.500000 0.760811 0.500000
O O10 0.250000 0.750000 0.500000
O O11 0.361846 0.674879 0.570821
O O12 0.978771 0.500000 0.670932
O O13 0.027213 0.602427 0.739915
O O14 0.000000 0.577466 0.500000
O O15 0.670100 0.166582 0.836776
O O16 0.500000 0.116619 0.000000
O O17 0.500000 0.586211 0.500000
O O18 0.678586 0.595934 0.281757
O O19 0.176631 0.895502 0.058792
O O20 0.901864 0.000000 0.861593
O O21 0.000000 0.056519 0.000000
#
# Coordination Sequence:
#
# PCOD9203327 Si02
#       8
#     8   8   8   8   8   8   8   8
#     4  11  26  48  69  99 146 189 243 301 359 442
#     4  10  21  39  67  98 136 182 231 282 345 430
#     4  10  25  43  68 101 136 181 235 297 365 426
#     4  10  24  47  73 106 147 192 239 295 367 442
#     4  12  27  45  72 108 140 186 248 301 361 438
#     4  10  20  39  61  96 133 165 221 283 340 415
#     4  11  24  46  69  99 140 181 234 295 358 432
#     4  10  23  42  67 102 139 184 237 291 358 429
#
# _framework density 23.06636
#
# number of rings (size 3 to 8) (size 9 to 14) (size 15 to 20)
#    0.000    1.500    2.500    0.750    7.000    2.500 
#    2.250    0.000    0.000    0.000    0.000    0.000 
#    0.000    0.000    0.000    0.000    0.000    0.000 
#
# Total GULP energy -178214.994667 kJ/mol
# GULP energy per Si atom -5569.218583 kJ/mol
# Density = 2.301386 g / cm^3
# Si number density = 23.066360 Si / 1000 Ang^3
#
#
#
# Elastic Constant Matrix: (Units=GPa)
#
#
# Indices 1 2 3 4 5 6 
#
# 1 118.7378 50.2436 43.4917 0.0000 20.0799 0.0000
# 2 50.2436 81.8035 23.1890 0.0000 18.7382 0.0000
# 3 43.4917 23.1890 118.6094 0.0000 16.9766 0.0000
# 4 0.0000 0.0000 0.0000 26.4915 0.0000 2.4215
# 5 20.0799 18.7382 16.9766 0.0000 32.0536 0.0000
# 6 0.0000 0.0000 0.0000 2.4215 0.0000 20.4434
#
#
#
# Elastic Compliance Matrix: (Units=1/GPa)
#
#
# Indices 1 2 3 4 5 6 
#
# 1 0.012643 -0.006305 -0.003027 0.000000 -0.002632 0.000000
# 2 -0.006305 0.017586 -0.000238 0.000000 -0.006205 0.000000
# 3 -0.003027 -0.000238 0.010059 0.000000 -0.003292 0.000000
# 4 0.000000 0.000000 0.000000 0.038161 0.000000 -0.004520
# 5 -0.002632 -0.006205 -0.003292 0.000000 0.038217 0.000000
# 6 0.000000 0.000000 0.000000 -0.004520 0.000000 0.049451
#
#
# Mechanical properties :
#
#
# Convention : Reuss Voigt Hill
#
# Bulk Modulus (GPa) = 47.28554 61.44438 54.36496
# Shear Modulus (GPa) = 26.00025 29.27945 27.63985
#
# Velocity S-wave (km/s) = 3.36101 3.56667 3.46537
# Velocity P-wave (km/s) = 5.96709 6.60738 6.29538
#
# Compressibility (1/GPa) = 0.02114811
#
# Stress axis : x y z
#
# Youngs Moduli (GPa) = 79.09213 56.86482 99.41673
#
# Poissons Ratio (x) = 0.35852 0.30092
# Poissons Ratio (y) = 0.49866 0.02368
# Poissons Ratio (z) = 0.23940 0.01355
#
# Static dielectric constant tensor:
#      x y z
#    x 2.015850 0.000000 -0.036760 
#    y 0.000000 1.839370 0.000000 
#    z -0.036760 0.000000 2.110910 
# 
# From -- ./inp_files/135944.got.cif
#   From: 2010.05.17/outbox.cif.g08.bks.cpg/sg12_68_cif.got.tgz:135944.got - 2010.06.03 13:09:07.
