data_PCOD9203200
_publ_section_title
;
Structure prediction by ZEFSAII (Michael W. Deem and Ramdas Pophale) SiO2 
 PCOD9203200
Probable space group: C 2/M
;
_chemical_formula_sum "Si O2"
_cell_formula_units_Z 56
_cell_length_a 16.651596
_cell_length_b 16.920628
_cell_length_c 23.157134
_cell_angle_alpha 90.000000
_cell_angle_beta 152.342444
_cell_angle_gamma 90.000000
_cell_volume 3028.650904
_symmetry_space_group_name_H-M "C 2/M"
_symmetry_group_IT_number 12
_symmetry_cell_setting 'monoclinic'
loop_
_space_group_symop_operation_xyz
x,y,z
-x,y,-z
-x,-y,-z
x,-y,z
1/2+x,1/2+y,z
1/2-x,1/2+y,-z
1/2-x,1/2-y,-z
1/2+x,1/2-y,z
loop_
_atom_site_type_symbol
_atom_site_label
_atom_site_fract_x
_atom_site_fract_y
_atom_site_fract_z
Si Si1 0.620980 0.591836 0.124939
Si Si2 0.487137 0.907241 0.624655
Si Si3 0.506738 0.325077 0.854411
Si Si4 0.112729 0.656864 0.938921
Si Si5 0.622023 0.864961 0.316707
Si Si6 0.800149 0.000000 0.355952
Si Si7 0.830968 0.709752 0.432951
Si Si8 0.031524 0.500000 0.089768
O O1 0.645793 0.500000 0.126075
O O2 0.516609 0.603218 0.116890
O O3 0.814830 0.623170 0.252994
O O4 0.500000 0.630084 0.000000
O O5 0.427178 0.898749 0.652582
O O6 0.378848 0.852385 0.512923
O O7 0.478523 0.000000 0.602271
O O8 0.528491 0.241305 0.902340
O O9 0.330116 0.322012 0.706610
O O10 0.680708 0.335434 0.928635
O O11 0.048980 0.652198 0.831014
O O12 0.052262 0.580028 0.936033
O O13 0.720261 0.925208 0.337666
O O14 0.750226 0.790842 0.405949
O O15 0.000000 0.000000 0.500000
O O16 0.726680 0.000000 0.243012
O O17 0.000000 0.722325 0.500000
O O18 0.000000 0.500000 0.000000
#
# Coordination Sequence:
#
# PCOD9203200 Si02
#       8
#     8   8   8   8   8   4   8   4
#     4  10  21  34  57  87 115 149 195 242 291 353
#     4  11  22  38  57  88 122 154 195 249 302 347
#     4  10  20  39  58  84 116 155 199 235 298 363
#     4   9  21  38  63  84 113 158 196 246 298 348
#     4  10  20  39  63  84 115 151 208 246 288 357
#     4  10  20  40  66  89 116 165 201 248 299 358
#     4  11  22  38  58  85 121 158 192 241 305 362
#     4  10  22  42  62  95 126 155 199 254 311 356
#
# _framework density 18.490081
#
# number of rings (size 3 to 8) (size 9 to 14) (size 15 to 20)
#    0.000    1.857    2.143    1.714    1.000    1.429 
#    2.571    0.000    0.000    0.000    0.000    0.000 
#    0.000    0.000    0.000    0.000    0.000    0.000 
#
# Total GULP energy -155939.971494 kJ/mol
# GULP energy per Si atom -5569.284696 kJ/mol
# Density = 1.844800 g / cm^3
# Si number density = 18.490081 Si / 1000 Ang^3
#
#
#
# Elastic Constant Matrix: (Units=GPa)
#
#
# Indices 1 2 3 4 5 6 
#
# 1 60.4987 17.0048 42.6303 0.0016 -8.1180 -0.0003
# 2 17.0048 72.1274 37.8910 -0.0065 -9.2604 0.0011
# 3 42.6303 37.8910 143.7739 -0.0054 9.6920 0.0046
# 4 0.0016 -0.0065 -0.0054 21.4480 0.0007 0.6659
# 5 -8.1180 -9.2604 9.6920 0.0007 19.9612 0.0012
# 6 -0.0003 0.0011 0.0046 0.6659 0.0012 29.0097
#
#
#
# Elastic Compliance Matrix: (Units=1/GPa)
#
#
# Indices 1 2 3 4 5 6 
#
# 1 0.024048 0.000419 -0.008181 -0.000004 0.013946 0.000001
# 2 0.000419 0.018218 -0.005693 0.000004 0.011386 0.000000
# 3 -0.008181 -0.005693 0.011666 0.000002 -0.011632 -0.000001
# 4 -0.000004 0.000004 0.000002 0.046658 -0.000003 -0.001071
# 5 0.013946 0.011386 -0.011632 -0.000003 0.066699 -0.000001
# 6 0.000001 0.000000 -0.000001 -0.001071 -0.000001 0.034496
#
#
# Mechanical properties :
#
#
# Convention : Reuss Voigt Hill
#
# Bulk Modulus (GPa) = 37.00810 52.38359 44.69585
# Shear Modulus (GPa) = 21.03478 26.00870 23.52174
#
# Velocity S-wave (km/s) = 3.37653 3.75457 3.57056
# Velocity P-wave (km/s) = 5.93800 6.86935 6.42058
#
# Compressibility (1/GPa) = 0.02702111
#
# Stress axis : x y z
#
# Youngs Moduli (GPa) = 41.58429 54.88987 85.72223
#
# Poissons Ratio (x) = -0.02298 0.70128
# Poissons Ratio (y) = -0.01741 0.48802
# Poissons Ratio (z) = 0.34019 0.31249
#
# Static dielectric constant tensor:
#      x y z
#    x 1.614340 0.000000 -0.007690 
#    y 0.000000 1.669540 0.000000 
#    z -0.007690 0.000000 1.673410 
# 
# From -- ./inp_files/234688.got.cif
#   From: 2010.05.17/outbox.cif.g08.bks.cpg/sg12_118_cif.got.tgz:234688.got - 2010.06.03 13:09:07.
