data_PCOD9203230
_publ_section_title
;
Structure prediction by ZEFSAII (Michael W. Deem and Ramdas Pophale) SiO2 
 PCOD9203230
Probable space group: C 2/M
;
_chemical_formula_sum "Si O2"
_cell_formula_units_Z 64
_cell_length_a 19.773763
_cell_length_b 9.319099
_cell_length_c 26.933854
_cell_angle_alpha 90.000000
_cell_angle_beta 133.497918
_cell_angle_gamma 90.000000
_cell_volume 3600.302018
_symmetry_space_group_name_H-M "C 2/M"
_symmetry_group_IT_number 12
_symmetry_cell_setting 'monoclinic'
loop_
_space_group_symop_operation_xyz
x,y,z
-x,y,-z
-x,-y,-z
x,-y,z
1/2+x,1/2+y,z
1/2-x,1/2+y,-z
1/2-x,1/2-y,-z
1/2+x,1/2-y,z
loop_
_atom_site_type_symbol
_atom_site_label
_atom_site_fract_x
_atom_site_fract_y
_atom_site_fract_z
Si Si1 0.893300 0.835372 0.583846
Si Si2 0.694153 0.328275 0.014638
Si Si3 0.194902 0.671127 0.830087
Si Si4 0.198039 0.335127 0.546906
Si Si5 0.017297 0.670332 0.283142
Si Si6 0.296539 0.828564 0.682346
Si Si7 0.014146 0.829560 0.066006
Si Si8 0.195977 0.328195 0.198006
O O1 0.875299 0.750436 0.523932
O O2 0.794331 0.835552 0.563459
O O3 0.962925 0.755749 0.656309
O O4 0.919820 0.000000 0.588364
O O5 0.703658 0.500000 0.014385
O O6 0.738540 0.289769 0.090365
O O7 0.750000 0.250000 0.000000
O O8 0.584644 0.294148 0.958838
O O9 0.205651 0.500000 0.826695
O O10 0.086899 0.699034 0.788181
O O11 0.226330 0.757612 0.797742
O O12 0.170665 0.500000 0.540828
O O13 0.224449 0.255414 0.611037
O O14 0.024930 0.500000 0.297162
O O15 0.099357 0.705907 0.285660
O O16 0.289363 0.793649 0.736620
O O17 0.283373 0.000000 0.669348
O O18 0.098224 0.738128 0.130238
O O19 0.033544 0.000000 0.082156
O O20 0.000000 0.805811 0.000000
O O21 0.195101 0.500000 0.192277
#
# Coordination Sequence:
#
# PCOD9203230 Si02
#       8
#     8   8   8   8   8   8   8   8
#     4   9  16  27  46  74 108 140 169 214 267 310
#     4  10  22  38  58  82 108 140 176 221 271 319
#     4  10  21  39  58  75 106 148 181 214 266 326
#     4   9  16  27  47  75 105 138 177 215 255 311
#     4   9  18  33  54  76 102 140 181 217 258 317
#     4   9  19  34  51  77 108 138 174 219 269 312
#     4  10  20  39  60  77 104 142 182 219 263 322
#     4  11  23  36  56  82 108 140 179 226 270 314
#
# _framework density 17.776288000000001
#
# number of rings (size 3 to 8) (size 9 to 14) (size 15 to 20)
#    0.000    2.375    1.250    1.125    1.750    5.750 
#    0.000    0.000    0.000    0.750    0.000    5.250 
#    0.000    0.000    0.000    0.000    0.000    0.000 
#
# Total GULP energy -178531.413274 kJ/mol
# GULP energy per Si atom -5579.106665 kJ/mol
# Density = 1.773583 g / cm^3
# Si number density = 17.776288 Si / 1000 Ang^3
#
#
#
# Elastic Constant Matrix: (Units=GPa)
#
#
# Indices 1 2 3 4 5 6 
#
# 1 54.3972 17.1653 4.9621 0.0000 -19.9000 0.0000
# 2 17.1653 37.3537 21.5233 0.0000 -16.5495 0.0000
# 3 4.9621 21.5233 49.9423 0.0000 -23.3721 0.0000
# 4 0.0000 0.0000 0.0000 31.5645 0.0000 -3.3085
# 5 -19.9000 -16.5495 -23.3721 0.0000 25.7106 0.0000
# 6 0.0000 0.0000 0.0000 -3.3085 0.0000 25.8115
#
#
#
# Elastic Compliance Matrix: (Units=1/GPa)
#
#
# Indices 1 2 3 4 5 6 
#
# 1 0.032398 -0.009397 0.016943 0.000000 0.034430 0.000000
# 2 -0.009397 0.042348 -0.013860 0.000000 0.007386 0.000000
# 3 0.016943 -0.013860 0.045729 0.000000 0.045762 0.000000
# 4 0.000000 0.000000 0.000000 0.032113 0.000000 0.004116
# 5 0.034430 0.007386 0.045762 0.000000 0.111897 0.000000
# 6 0.000000 0.000000 0.000000 0.004116 0.000000 0.039270
#
#
# Mechanical properties :
#
#
# Convention : Reuss Voigt Hill
#
# Bulk Modulus (GPa) = 9.27236 25.44385 17.35810
# Shear Modulus (GPa) = 14.19120 23.15351 18.67236
#
# Velocity S-wave (km/s) = 2.82852 3.61292 3.24452
# Velocity P-wave (km/s) = 3.98684 5.63460 4.88076
#
# Compressibility (1/GPa) = 0.10784740
#
# Stress axis : x y z
#
# Youngs Moduli (GPa) = 30.86583 23.61395 21.86810
#
# Poissons Ratio (x) = 0.22189 -0.37052
# Poissons Ratio (y) = 0.29004 0.30310
# Poissons Ratio (z) = -0.52297 0.32729
#
# Static dielectric constant tensor:
#      x y z
#    x 1.597390 0.000000 0.004920 
#    y 0.000000 1.593950 0.000000 
#    z 0.004920 0.000000 1.583000 
# 
# From -- ./inp_files/346129.got.cif
#   From: 2010.05.17/outbox.cif.g08.bks.cpg/sg12_174_cif.got.tgz:346129.got - 2010.06.03 13:09:07.
