data_PCOD9203957
_publ_section_title
;
Structure prediction by ZEFSAII (Michael W. Deem and Ramdas Pophale) SiO2 
 PCOD9203957
Probable space group: C 2/M
;
_chemical_formula_sum "Si O2"
_cell_formula_units_Z 56
_cell_length_a 11.845095
_cell_length_b 29.204802
_cell_length_c 9.191590
_cell_angle_alpha 90.000000
_cell_angle_beta 121.967084
_cell_angle_gamma 90.000000
_cell_volume 2697.489398
_symmetry_space_group_name_H-M "C 2/M"
_symmetry_group_IT_number 12
_symmetry_cell_setting 'monoclinic'
loop_
_space_group_symop_operation_xyz
x,y,z
-x,y,-z
-x,-y,-z
x,-y,z
1/2+x,1/2+y,z
1/2-x,1/2+y,-z
1/2-x,1/2-y,-z
1/2+x,1/2-y,z
loop_
_atom_site_type_symbol
_atom_site_label
_atom_site_fract_x
_atom_site_fract_y
_atom_site_fract_z
Si Si1 0.352609 0.000000 0.464138
Si Si2 0.269612 0.595119 0.301094
Si Si3 0.790449 0.664343 0.223367
Si Si4 0.902676 0.770010 0.792655
Si Si5 0.937436 0.142117 0.168042
Si Si6 0.313669 0.411523 0.656811
Si Si7 0.858331 0.500000 0.821293
Si Si8 0.952691 0.669296 0.799549
O O1 0.500000 0.000000 0.500000
O O2 0.264901 0.043174 0.355518
O O3 0.370045 0.000000 0.652369
O O4 0.360630 0.624686 0.256969
O O5 0.337723 0.584728 0.500701
O O6 0.219155 0.547379 0.197070
O O7 0.146135 0.626733 0.265473
O O8 0.741227 0.712897 0.251848
O O9 0.781043 0.629137 0.349803
O O10 0.926024 0.662850 0.228238
O O11 0.674472 0.651449 0.028844
O O12 0.893470 0.719371 0.722412
O O13 0.973608 0.811486 0.751870
O O14 0.000000 0.766907 0.000000
O O15 0.041079 0.103091 0.189205
O O16 0.000000 0.500000 0.000000
O O17 0.000000 0.671404 0.000000
#
# Coordination Sequence:
#
# PCOD9203957 Si02
#       8
#     4   8   8   8   8   8   4   8
#     4  10  24  41  64  88 119 162 199 249 309 366
#     4  11  23  38  63  89 122 159 198 250 313 358
#     4  10  21  38  61  87 125 157 205 251 297 359
#     4   8  19  34  57  89 118 159 198 250 297 351
#     4  10  20  40  62  88 120 159 200 250 296 361
#     4  10  23  41  61  85 121 159 199 245 305 366
#     4  10  24  41  59  92 121 151 203 251 299 353
#     4  11  21  34  62  93 118 158 209 252 301 359
#
# _framework density 20.760043
#
# number of rings (size 3 to 8) (size 9 to 14) (size 15 to 20)
#    0.000    2.000    1.429    2.143    6.000    2.286 
#    0.000    6.429    6.286    0.000    0.000    0.000 
#    0.000    0.000    0.000    0.000    0.000    0.000 
#
# Total GULP energy -156164.328267 kJ/mol
# GULP energy per Si atom -5577.297438 kJ/mol
# Density = 2.071279 g / cm^3
# Si number density = 20.760043 Si / 1000 Ang^3
#
#
#
# Elastic Constant Matrix: (Units=GPa)
#
#
# Indices 1 2 3 4 5 6 
#
# 1 122.2997 30.1812 9.9781 0.0000 3.0539 0.0000
# 2 30.1812 110.5137 20.5030 0.0000 18.1497 0.0000
# 3 9.9781 20.5030 26.9122 0.0000 0.1285 0.0000
# 4 0.0000 0.0000 0.0000 81.5757 0.0000 44.0682
# 5 3.0539 18.1497 0.1285 0.0000 26.8309 0.0000
# 6 0.0000 0.0000 0.0000 44.0682 0.0000 45.6537
#
#
#
# Elastic Compliance Matrix: (Units=1/GPa)
#
#
# Indices 1 2 3 4 5 6 
#
# 1 0.008837 -0.002195 -0.001606 0.000000 0.000487 0.000000
# 2 -0.002195 0.012630 -0.008769 0.000000 -0.008252 0.000000
# 3 -0.001606 -0.008769 0.044406 0.000000 0.005902 0.000000
# 4 0.000000 0.000000 0.000000 0.025616 0.000000 -0.024727
# 5 0.000487 -0.008252 0.005902 0.000000 0.042769 0.000000
# 6 0.000000 0.000000 0.000000 -0.024727 0.000000 0.045772
#
#
# Mechanical properties :
#
#
# Convention : Reuss Voigt Hill
#
# Bulk Modulus (GPa) = 24.55070 42.33890 33.44480
# Shear Modulus (GPa) = 22.85726 44.08294 33.47010
#
# Velocity S-wave (km/s) = 3.32176 4.61309 4.01962
# Velocity P-wave (km/s) = 5.15401 6.98662 6.13908
#
# Compressibility (1/GPa) = 0.04073203
#
# Stress axis : x y z
#
# Youngs Moduli (GPa) = 113.15644 79.17479 22.51961
#
# Poissons Ratio (x) = 0.17382 0.03617
# Poissons Ratio (y) = 0.24843 0.19747
# Poissons Ratio (z) = 0.18176 0.69428
#
# Static dielectric constant tensor:
#      x y z
#    x 1.726480 0.000000 0.005690 
#    y 0.000000 1.777080 0.000000 
#    z 0.005690 0.000000 1.780760 
# 
# From -- ./inp_files/54850.got.cif
#   From: 2010.05.17/outbox.cif.g08.bks.cpg/sg12_28_cif.got.tgz:54850.got - 2010.06.03 13:09:07.
