data_PCOD9203965
_publ_section_title
;
Structure prediction by ZEFSAII (Michael W. Deem and Ramdas Pophale) SiO2 
 PCOD9203965
Probable space group: C 2/M
;
_chemical_formula_sum "Si O2"
_cell_formula_units_Z 40
_cell_length_a 15.792542
_cell_length_b 15.845609
_cell_length_c 9.151417
_cell_angle_alpha 90.000000
_cell_angle_beta 114.897423
_cell_angle_gamma 90.000000
_cell_volume 2077.240346
_symmetry_space_group_name_H-M "C 2/M"
_symmetry_group_IT_number 12
_symmetry_cell_setting 'monoclinic'
loop_
_space_group_symop_operation_xyz
x,y,z
-x,y,-z
-x,-y,-z
x,-y,z
1/2+x,1/2+y,z
1/2-x,1/2+y,-z
1/2-x,1/2-y,-z
1/2+x,1/2-y,z
loop_
_atom_site_type_symbol
_atom_site_label
_atom_site_fract_x
_atom_site_fract_y
_atom_site_fract_z
Si Si1 0.798416 0.191882 0.157922
Si Si2 0.277928 0.161272 0.344845
Si Si3 0.520117 0.000000 0.182152
Si Si4 0.899117 0.500000 0.349921
Si Si5 0.606257 0.398948 0.028298
Si Si6 0.801363 0.404308 0.668772
O O1 0.826471 0.257846 0.305382
O O2 0.728303 0.130761 0.195609
O O3 0.750000 0.250000 0.000000
O O4 0.872176 0.138200 0.117578
O O5 0.341020 0.081125 0.350255
O O6 0.178175 0.145347 0.193759
O O7 0.270159 0.155307 0.513983
O O8 0.424989 0.000000 0.199732
O O9 0.587444 0.079677 0.263751
O O10 0.500000 0.000000 0.000000
O O11 0.000000 0.500000 0.500000
O O12 0.623603 0.500000 0.042131
O O13 0.500000 0.383951 0.000000
O O14 0.762241 0.500000 0.621354
#
# Coordination Sequence:
#
# PCOD9203965 Si02
#       6
#     8   8   4   4   8   8
#     4  10  23  38  60  92 124 161 199 260 314 352
#     4  11  21  40  64  88 128 159 201 258 309 363
#     4  10  24  34  64  97 120 156 209 251 299 379
#     4  12  20  42  63  95 122 161 203 247 323 375
#     4  10  21  41  65  88 120 167 214 248 299 365
#     4  10  20  40  62  90 120 161 204 246 308 374
#
# _framework density 19.256318
#
# number of rings (size 3 to 8) (size 9 to 14) (size 15 to 20)
#    0.600    1.000    4.000    1.200    5.600    0.000 
#    7.200    1.000    0.000    3.600    0.000    0.000 
#    0.000    0.000    0.000    0.000    0.000    0.000 
#
# Total GULP energy -111421.545460 kJ/mol
# GULP energy per Si atom -5571.077273 kJ/mol
# Density = 1.921249 g / cm^3
# Si number density = 19.256318 Si / 1000 Ang^3
#
#
#
# Elastic Constant Matrix: (Units=GPa)
#
#
# Indices 1 2 3 4 5 6 
#
# 1 92.1624 14.1433 31.5719 0.0000 -21.9035 0.0000
# 2 14.1433 51.3515 14.6969 0.0000 -11.9118 0.0000
# 3 31.5719 14.6969 112.2873 0.0000 -25.7704 0.0000
# 4 0.0000 0.0000 0.0000 32.0608 0.0000 -21.2816
# 5 -21.9035 -11.9118 -25.7704 0.0000 44.0636 0.0000
# 6 0.0000 0.0000 0.0000 -21.2816 0.0000 16.6949
#
#
#
# Elastic Compliance Matrix: (Units=1/GPa)
#
#
# Indices 1 2 3 4 5 6 
#
# 1 0.013038 -0.001847 -0.002369 0.000000 0.004596 0.000000
# 2 -0.001847 0.021307 -0.001338 0.000000 0.004059 0.000000
# 3 -0.002369 -0.001338 0.010850 0.000000 0.004806 0.000000
# 4 0.000000 0.000000 0.000000 0.202744 0.000000 0.258446
# 5 0.004596 0.004059 0.004806 0.000000 0.028887 0.000000
# 6 0.000000 0.000000 0.000000 0.258446 0.000000 0.389349
#
#
# Mechanical properties :
#
#
# Convention : Reuss Voigt Hill
#
# Bulk Modulus (GPa) = 29.33678 41.84728 35.59203
# Shear Modulus (GPa) = 7.26063 31.58979 19.42521
#
# Velocity S-wave (km/s) = 1.94389 4.05469 3.17956
# Velocity P-wave (km/s) = 4.50624 6.61057 5.65711
#
# Compressibility (1/GPa) = 0.03408691
#
# Stress axis : x y z
#
# Youngs Moduli (GPa) = 76.70024 46.93339 92.16541
#
# Poissons Ratio (x) = 0.08667 0.21837
# Poissons Ratio (y) = 0.14164 0.12331
# Poissons Ratio (z) = 0.18173 0.06279
#
# Static dielectric constant tensor:
#      x y z
#    x 1.676360 0.000000 -0.033130 
#    y 0.000000 1.747470 0.000000 
#    z -0.033130 0.000000 1.738120 
# 
# From -- ./inp_files/60399.got.cif
#   From: 2010.05.17/outbox.cif.g08.bks.cpg/sg12_31_cif.got.tgz:60399.got - 2010.06.03 13:09:07.
