data_PCOD9203397
_publ_section_title
;
Structure prediction by ZEFSAII (Michael W. Deem and Ramdas Pophale) SiO2 
 PCOD9203397
Probable space group: C 2/M
;
_chemical_formula_sum "Si O2"
_cell_formula_units_Z 40
_cell_length_a 12.260587
_cell_length_b 14.583180
_cell_length_c 16.612874
_cell_angle_alpha 90.000000
_cell_angle_beta 142.704200
_cell_angle_gamma 90.000000
_cell_volume 1799.827109
_symmetry_space_group_name_H-M "C 2/M"
_symmetry_group_IT_number 12
_symmetry_cell_setting 'monoclinic'
loop_
_space_group_symop_operation_xyz
x,y,z
-x,y,-z
-x,-y,-z
x,-y,z
1/2+x,1/2+y,z
1/2-x,1/2+y,-z
1/2-x,1/2-y,-z
1/2+x,1/2-y,z
loop_
_atom_site_type_symbol
_atom_site_label
_atom_site_fract_x
_atom_site_fract_y
_atom_site_fract_z
Si Si1 0.203411 0.847493 0.010853
Si Si2 0.793108 0.743250 0.220605
Si Si3 0.016213 0.105040 0.258395
Si Si4 0.555110 0.100507 0.127494
Si Si5 0.576007 0.101450 0.455770
O O1 0.195856 0.825397 0.100667
O O2 0.379964 0.900944 0.082337
O O3 0.250000 0.750000 0.000000
O O4 0.025787 0.884610 0.861667
O O5 0.666543 0.804348 0.205497
O O6 0.883927 0.825656 0.224067
O O7 0.955366 0.681688 0.348839
O O8 0.215423 0.124684 0.407243
O O9 0.975288 0.000000 0.254521
O O10 0.645505 0.000000 0.191780
O O11 0.500000 0.105558 0.000000
O O12 0.500000 0.090557 0.500000
O O13 0.562474 0.000000 0.407281
#
# Coordination Sequence:
#
# PCOD9203397 Si02
#       5
#     8   8   8   8   8
#     4  10  21  35  61  97 126 160 206 253 313 369
#     4  11  23  38  67  94 126 162 214 260 313 373
#     4  10  20  39  62  89 123 163 204 250 313 376
#     4  11  21  37  63  97 132 165 203 260 321 377
#     4  10  24  42  61  84 122 169 212 255 311 374
#
# _framework density 22.224357999999999
#
# number of rings (size 3 to 8) (size 9 to 14) (size 15 to 20)
#    0.000    1.600    4.000    1.800    5.600    1.600 
#    0.000    0.000    0.000    5.400    0.000    0.000 
#    0.000    0.000    0.000    0.000    0.000    0.000 
#
# Total GULP energy -111454.489424 kJ/mol
# GULP energy per Si atom -5572.724471 kJ/mol
# Density = 2.217377 g / cm^3
# Si number density = 22.224358 Si / 1000 Ang^3
#
#
#
# Elastic Constant Matrix: (Units=GPa)
#
#
# Indices 1 2 3 4 5 6 
#
# 1 54.2824 30.7760 27.9295 0.0000 13.2941 0.0000
# 2 30.7760 147.6885 88.6658 0.0002 6.2417 0.0000
# 3 27.9295 88.6658 135.6448 0.0005 8.8787 0.0001
# 4 0.0000 0.0002 0.0005 43.5375 0.0002 5.5413
# 5 13.2941 6.2417 8.8787 0.0002 23.2025 0.0000
# 6 0.0000 0.0000 0.0001 5.5413 0.0000 25.7835
#
#
#
# Elastic Compliance Matrix: (Units=1/GPa)
#
#
# Indices 1 2 3 4 5 6 
#
# 1 0.024370 -0.003340 -0.002030 0.000000 -0.012287 0.000000
# 2 -0.003340 0.011603 -0.006993 0.000000 0.001468 0.000000
# 3 -0.002030 -0.006993 0.012474 0.000000 -0.001729 0.000000
# 4 0.000000 0.000000 0.000000 0.023615 0.000000 -0.005075
# 5 -0.012287 0.001468 -0.001729 0.000000 0.050406 0.000000
# 6 0.000000 0.000000 0.000000 -0.005075 0.000000 0.039875
#
#
# Mechanical properties :
#
#
# Convention : Reuss Voigt Hill
#
# Bulk Modulus (GPa) = 42.15697 70.26203 56.20950
# Shear Modulus (GPa) = 25.64409 31.18765 28.41587
#
# Velocity S-wave (km/s) = 3.40056 3.75014 3.57962
# Velocity P-wave (km/s) = 5.86757 7.10175 6.51396
#
# Compressibility (1/GPa) = 0.02372087
#
# Stress axis : x y z
#
# Youngs Moduli (GPa) = 41.03443 86.18263 80.16403
#
# Poissons Ratio (x) = 0.28786 0.16275
# Poissons Ratio (y) = 0.13706 0.56058
# Poissons Ratio (z) = 0.08331 0.60267
#
# Static dielectric constant tensor:
#      x y z
#    x 1.910370 0.000000 0.013530 
#    y 0.000000 1.889700 0.000000 
#    z 0.013530 0.000000 1.336760 
# 
# From -- ./inp_files/310625.got.cif
#   From: 2010.05.17/outbox.cif.g08.bks.cpg/sg12_156_cif.got.tgz:310625.got - 2010.06.03 13:09:07.
