data_PCOD9203365
_publ_section_title
;
Structure prediction by ZEFSAII (Michael W. Deem and Ramdas Pophale) SiO2 
 PCOD9203365
Probable space group: C 2/M
;
_chemical_formula_sum "Si O2"
_cell_formula_units_Z 58
_cell_length_a 18.241510
_cell_length_b 7.400995
_cell_length_c 17.847855
_cell_angle_alpha 90.000000
_cell_angle_beta 96.806552
_cell_angle_gamma 90.000000
_cell_volume 2392.572813
_symmetry_space_group_name_H-M "C 2/M"
_symmetry_group_IT_number 12
_symmetry_cell_setting 'monoclinic'
loop_
_space_group_symop_operation_xyz
x,y,z
-x,y,-z
-x,-y,-z
x,-y,z
1/2+x,1/2+y,z
1/2-x,1/2+y,-z
1/2-x,1/2-y,-z
1/2+x,1/2-y,z
loop_
_atom_site_type_symbol
_atom_site_label
_atom_site_fract_x
_atom_site_fract_y
_atom_site_fract_z
Si Si1 0.091985 0.789425 0.453729
Si Si2 0.156776 0.791251 0.617324
Si Si3 0.685630 0.782468 0.317287
Si Si4 0.430832 0.778384 0.818405
Si Si5 0.918316 0.282078 0.243609
Si Si6 0.302622 0.219792 0.106349
Si Si7 0.637718 0.792983 0.043001
Si Si8 0.000000 0.500000 0.500000
O O1 0.133025 0.714888 0.534041
O O2 0.142277 0.765333 0.387654
O O3 0.022969 0.658370 0.442368
O O4 0.073379 0.000000 0.460071
O O5 0.231481 0.712395 0.661760
O O6 0.096041 0.782955 0.674482
O O7 0.172687 0.000000 0.601764
O O8 0.638086 0.718449 0.241030
O O9 0.688425 0.000000 0.310654
O O10 0.506260 0.722591 0.787123
O O11 0.417963 0.716055 0.902100
O O12 0.430912 0.000000 0.820252
O O13 0.919550 0.500000 0.245328
O O14 0.848559 0.225777 0.184348
O O15 0.219238 0.289196 0.090776
O O16 0.298495 0.000000 0.103212
O O17 0.347021 0.283493 0.037554
O O18 0.614656 0.000000 0.027451
#
# Coordination Sequence:
#
# PCOD9203365 Si02
#       8
#     8   8   8   8   8   8   8   2
#     4  11  25  42  66  97 125 165 213 252 307 373
#     4  10  23  40  61  88 119 156 206 254 298 365
#     4  10  20  39  62  86 119 160 204 256 309 360
#     4   9  19  33  55  82 110 153 199 237 296 367
#     4  10  21  34  53  82 116 152 192 243 305 364
#     4   9  18  32  52  81 112 144 189 242 294 355
#     4   9  17  33  56  78 106 148 194 240 292 356
#     4  12  26  44  68  94 132 168 194 268 312 366
#
# _framework density 24.241686000000001
#
# number of rings (size 3 to 8) (size 9 to 14) (size 15 to 20)
#    0.000    2.207    0.690    1.448    2.897    2.759 
#    0.000    4.138    0.000    0.000    0.000    4.828 
#    0.000    0.000    0.000    0.000    0.000    0.000 
#
# Total GULP energy -161918.054344 kJ/mol
# GULP energy per Si atom -5583.381184 kJ/mol
# Density = 2.418651 g / cm^3
# Si number density = 24.241686 Si / 1000 Ang^3
#
#
#
# Elastic Constant Matrix: (Units=GPa)
#
#
# Indices 1 2 3 4 5 6 
#
# 1 28.8996 -4.1431 -1.0685 0.0000 -19.7492 0.0000
# 2 -4.1431 104.8001 -14.0165 0.0000 4.4103 0.0000
# 3 -1.0685 -14.0165 96.4733 0.0000 -15.7255 0.0000
# 4 0.0000 0.0000 0.0000 2.0680 0.0000 -6.3618
# 5 -19.7492 4.4103 -15.7255 0.0000 52.3602 0.0000
# 6 0.0000 0.0000 0.0000 -6.3618 0.0000 -15.9915
#
#
#
# Elastic Compliance Matrix: (Units=1/GPa)
#
#
# Indices 1 2 3 4 5 6 
#
# 1 0.048075 0.001614 0.003891 0.000000 0.019166 0.000000
# 2 0.001614 0.009794 0.001478 0.000000 0.000228 0.000000
# 3 0.003891 0.001478 0.011400 0.000000 0.004767 0.000000
# 4 0.000000 0.000000 0.000000 0.217447 0.000000 -0.086506
# 5 0.019166 0.000228 0.004767 0.000000 0.027740 0.000000
# 6 0.000000 0.000000 0.000000 -0.086506 0.000000 -0.028119
#
#
# Mechanical properties :
#
#
# Convention : Reuss Voigt Hill
#
# Bulk Modulus (GPa) = 12.01395 21.30186 16.65790
# Shear Modulus (GPa) = 16.66025 24.31407 20.48716
#
# Velocity S-wave (km/s) = 2.62440 3.17043 2.91025
# Velocity P-wave (km/s) = 3.76164 4.71259 4.26371
#
# Compressibility (1/GPa) = 0.08323660
#
# Stress axis : x y z
#
# Youngs Moduli (GPa) = 20.80073 102.10454 87.71591
#
# Poissons Ratio (x) = -0.16484 -0.34131
# Poissons Ratio (y) = -0.03358 -0.12964
# Poissons Ratio (z) = -0.08094 -0.15091
#
# Static dielectric constant tensor:
#      x y z
#    x 1.988990 0.000000 0.035700 
#    y 0.000000 1.893780 0.000000 
#    z 0.035700 0.000000 1.911250 
# 
# From -- ./inp_files/275414.got.cif
#   From: 2010.05.17/outbox.cif.g08.bks.cpg/sg12_138_cif.got.tgz:275414.got - 2010.06.03 13:09:07.
