data_PCOD9203497
_publ_section_title
;
Structure prediction by ZEFSAII (Michael W. Deem and Ramdas Pophale) SiO2 
 PCOD9203497
Probable space group: C 2/M
;
_chemical_formula_sum "Si O2"
_cell_formula_units_Z 42
_cell_length_a 19.690481
_cell_length_b 13.425420
_cell_length_c 24.022295
_cell_angle_alpha 90.000000
_cell_angle_beta 16.937393
_cell_angle_gamma 90.000000
_cell_volume 1850.030164
_symmetry_space_group_name_H-M "C 2/M"
_symmetry_group_IT_number 12
_symmetry_cell_setting 'monoclinic'
loop_
_space_group_symop_operation_xyz
x,y,z
-x,y,-z
-x,-y,-z
x,-y,z
1/2+x,1/2+y,z
1/2-x,1/2+y,-z
1/2-x,1/2-y,-z
1/2+x,1/2-y,z
loop_
_atom_site_type_symbol
_atom_site_label
_atom_site_fract_x
_atom_site_fract_y
_atom_site_fract_z
Si Si1 0.032540 0.814550 0.548276
Si Si2 0.131919 0.000000 0.797372
Si Si3 0.531240 0.000000 0.574011
Si Si4 0.275943 0.386349 0.863519
Si Si5 0.067287 0.789434 0.882625
Si Si6 0.000000 0.000000 0.500000
Si Si7 0.789160 0.822088 0.416915
O O1 0.903462 0.856924 0.705316
O O2 0.838126 0.743637 0.671912
O O3 0.098260 0.911747 0.463412
O O4 0.253308 0.748404 0.392088
O O5 0.011310 0.107419 0.895547
O O6 0.290345 0.000000 0.729692
O O7 0.283880 0.000000 0.622044
O O8 0.586647 0.903968 0.567913
O O9 0.189275 0.500000 0.927504
O O10 0.467545 0.375367 0.761844
O O11 0.076079 0.305073 0.026679
O O12 0.000000 0.803412 0.000000
O O13 0.750000 0.750000 0.500000
#
# Coordination Sequence:
#
# PCOD9203497 Si02
#       7
#     8   4   4   8   8   2   8
#     4  10  22  37  60  94 120 163 206 257 304 361
#     4  11  23  40  63  97 125 154 210 262 318 370
#     4  11  22  39  67  92 121 163 196 267 321 356
#     4  10  20  39  63  91 124 162 209 252 308 367
#     4  10  22  38  62  91 123 164 209 255 305 372
#     4  12  24  34  62  92 136 154 206 260 306 376
#     4  10  21  39  64  91 120 159 214 250 299 371
#
# _framework density 22.702332999999999
#
# number of rings (size 3 to 8) (size 9 to 14) (size 15 to 20)
#    0.000    1.714    3.810    0.286    4.000    1.143 
#    0.000    1.905    4.190    0.000    0.000    0.000 
#    0.000    0.000    0.000    0.000    0.000    0.000 
#
# Total GULP energy -117089.042052 kJ/mol
# GULP energy per Si atom -5575.668669 kJ/mol
# Density = 2.265066 g / cm^3
# Si number density = 22.702333 Si / 1000 Ang^3
#
#
#
# Elastic Constant Matrix: (Units=GPa)
#
#
# Indices 1 2 3 4 5 6 
#
# 1 56.9318 38.4364 10.7329 -0.0254 -16.8348 0.0004
# 2 38.4364 205.3487 23.3007 0.0342 -1.2614 0.0064
# 3 10.7329 23.3007 40.4486 -0.1162 2.8112 0.0238
# 4 -0.0254 0.0342 -0.1162 23.6231 0.0148 -8.5691
# 5 -16.8348 -1.2614 2.8112 0.0148 24.0920 -0.0080
# 6 0.0004 0.0064 0.0238 -8.5691 -0.0080 53.5838
#
#
#
# Elastic Compliance Matrix: (Units=1/GPa)
#
#
# Indices 1 2 3 4 5 6 
#
# 1 0.027465 -0.004320 -0.006167 -0.000005 0.019685 0.000005
# 2 -0.004320 0.005899 -0.002081 -0.000023 -0.002467 -0.000004
# 3 -0.006167 -0.002081 0.028093 0.000143 -0.007697 0.000009
# 4 -0.000005 -0.000023 0.000143 0.044939 -0.000047 0.007187
# 5 0.019685 -0.002467 -0.007697 -0.000047 0.056032 0.000005
# 6 0.000005 -0.000004 0.000009 0.007187 0.000005 0.019812
#
#
# Mechanical properties :
#
#
# Convention : Reuss Voigt Hill
#
# Bulk Modulus (GPa) = 27.53189 49.74099 38.63644
# Shear Modulus (GPa) = 22.78073 35.61039 29.19556
#
# Velocity S-wave (km/s) = 3.17117 3.96483 3.59000
# Velocity P-wave (km/s) = 5.05590 6.55114 5.85147
#
# Compressibility (1/GPa) = 0.03632151
#
# Stress axis : x y z
#
# Youngs Moduli (GPa) = 36.40973 169.51106 35.59590
#
# Poissons Ratio (x) = 0.73231 0.21953
# Poissons Ratio (y) = 0.15729 0.07406
# Poissons Ratio (z) = 0.22455 0.35269
#
# Static dielectric constant tensor:
#      x y z
#    x 1.890340 -0.000030 0.024030 
#    y -0.000030 1.837370 0.000060 
#    z 0.024030 0.000060 1.873790 
# 
# From -- ./inp_files/84008.got.cif
#   From: 2010.05.17/outbox.cif.g08.bks.cpg/sg12_43_cif.got.tgz:84008.got - 2010.06.03 13:09:07.
