data_PCOD9203233
_publ_section_title
;
Structure prediction by ZEFSAII (Michael W. Deem and Ramdas Pophale) SiO2 
 PCOD9203233
Probable space group: C 2/M
;
_chemical_formula_sum "Si O2"
_cell_formula_units_Z 48
_cell_length_a 24.664695
_cell_length_b 11.574051
_cell_length_c 28.901795
_cell_angle_alpha 90.000000
_cell_angle_beta 161.929855
_cell_angle_gamma 90.000000
_cell_volume 2559.182721
_symmetry_space_group_name_H-M "C 2/M"
_symmetry_group_IT_number 12
_symmetry_cell_setting 'monoclinic'
loop_
_space_group_symop_operation_xyz
x,y,z
-x,y,-z
-x,-y,-z
x,-y,z
1/2+x,1/2+y,z
1/2-x,1/2+y,-z
1/2-x,1/2-y,-z
1/2+x,1/2-y,z
loop_
_atom_site_type_symbol
_atom_site_label
_atom_site_fract_x
_atom_site_fract_y
_atom_site_fract_z
Si Si1 0.463445 0.500000 0.026436
Si Si2 0.667550 0.694548 0.316971
Si Si3 0.446472 0.365693 0.577137
Si Si4 0.980594 0.132543 0.257156
Si Si5 0.164434 0.637508 0.106392
Si Si6 0.656536 0.723769 0.013506
Si Si7 0.688369 0.000000 0.630260
O O1 0.655810 0.500000 0.205708
O O2 0.500000 0.500000 0.000000
O O3 0.363172 0.612031 0.968058
O O4 0.787438 0.804162 0.423671
O O5 0.613321 0.643391 0.322550
O O6 0.780849 0.608758 0.377834
O O7 0.489685 0.713726 0.144110
O O8 0.446010 0.500000 0.564841
O O9 0.434201 0.356059 0.622957
O O10 0.641572 0.317782 0.723936
O O11 0.841967 0.238630 0.141827
O O12 0.906412 0.000000 0.195199
O O13 0.169966 0.500000 0.117623
O O14 0.127503 0.667503 0.023546
O O15 0.000000 0.687684 0.000000
O O16 0.500000 0.000000 0.500000
#
# Coordination Sequence:
#
# PCOD9203233 Si02
#       7
#     4   8   8   8   8   8   4
#     4  10  22  40  58  84 126 152 195 244 277 342
#     4  11  21  38  57  82 118 149 189 242 291 344
#     4   9  20  35  55  84 113 146 190 235 283 344
#     4  10  20  39  60  80 113 153 193 238 289 347
#     4   9  18  36  59  81 109 147 189 234 287 343
#     4  10  21  35  57  85 113 151 193 234 289 339
#     4  10  24  40  58  84 114 158 195 232 299 348
#
# _framework density 18.755987999999999
#
# number of rings (size 3 to 8) (size 9 to 14) (size 15 to 20)
#    0.000    2.167    0.833    3.000    0.000    6.667 
#    1.500    0.000    0.000    3.500    0.000    0.000 
#    0.000    0.000    0.000    0.000    0.000    0.000 
#
# Total GULP energy -133628.791556 kJ/mol
# GULP energy per Si atom -5567.866315 kJ/mol
# Density = 1.871330 g / cm^3
# Si number density = 18.755988 Si / 1000 Ang^3
#
#
#
# Elastic Constant Matrix: (Units=GPa)
#
#
# Indices 1 2 3 4 5 6 
#
# 1 103.8726 28.6876 33.1265 0.0036 19.6488 0.0037
# 2 28.6876 72.9856 55.2675 -0.0061 1.7031 0.0009
# 3 33.1265 55.2675 29.2783 0.0216 -5.5903 0.0155
# 4 0.0036 -0.0061 0.0216 33.1603 0.0088 6.7467
# 5 19.6488 1.7031 -5.5903 0.0088 18.8794 0.0040
# 6 0.0037 0.0009 0.0155 6.7467 0.0040 23.1491
#
#
#
# Elastic Compliance Matrix: (Units=1/GPa)
#
#
# Indices 1 2 3 4 5 6 
#
# 1 0.010443 -0.013578 0.012692 -0.000009 -0.005885 -0.000006
# 2 -0.013578 -0.007487 0.034260 -0.000025 0.024952 -0.000017
# 3 0.012692 0.034260 -0.050865 0.000042 -0.031362 0.000024
# 4 -0.000009 -0.000025 0.000042 0.032057 0.000011 -0.009343
# 5 -0.005885 0.024952 -0.031362 0.000011 0.047555 0.000010
# 6 -0.000006 -0.000017 0.000024 -0.009343 0.000010 0.045921
#
#
# Mechanical properties :
#
#
# Convention : Reuss Voigt Hill
#
# Bulk Modulus (GPa) = 53.08227 48.92218 51.00222
# Shear Modulus (GPa) = 291.45216 20.97474 156.21345
#
# Velocity S-wave (km/s) = 12.47914 3.34772 9.13609
# Velocity P-wave (km/s) = 15.36234 6.40961 11.77040
#
# Compressibility (1/GPa) = 0.01883868
#
# Stress axis : x y z
#
# Youngs Moduli (GPa) = 95.76005 -133.56411 -19.65972
#
# Poissons Ratio (x) = -1.81358 0.24953
# Poissons Ratio (y) = 1.30026 0.67355
# Poissons Ratio (z) = -1.21541 4.57595
#
# Static dielectric constant tensor:
#      x y z
#    x 1.699540 0.000000 0.046790 
#    y 0.000000 1.696760 0.000000 
#    z 0.046790 0.000000 1.649610 
# 
# From -- ./inp_files/367961.got.cif
#   From: 2010.05.17/outbox.cif.g08.bks.cpg/sg12_184_cif.got.tgz:367961.got - 2010.06.03 13:09:07.
