data_PCOD9203441
_publ_section_title
;
Structure prediction by ZEFSAII (Michael W. Deem and Ramdas Pophale) SiO2 
 PCOD9203441
Probable space group: C 2/M
;
_chemical_formula_sum "Si O2"
_cell_formula_units_Z 56
_cell_length_a 16.009218
_cell_length_b 8.768006
_cell_length_c 25.754828
_cell_angle_alpha 90.000000
_cell_angle_beta 48.927998
_cell_angle_gamma 90.000000
_cell_volume 2725.426311
_symmetry_space_group_name_H-M "C 2/M"
_symmetry_group_IT_number 12
_symmetry_cell_setting 'monoclinic'
loop_
_space_group_symop_operation_xyz
x,y,z
-x,y,-z
-x,-y,-z
x,-y,z
1/2+x,1/2+y,z
1/2-x,1/2+y,-z
1/2-x,1/2-y,-z
1/2+x,1/2-y,z
loop_
_atom_site_type_symbol
_atom_site_label
_atom_site_fract_x
_atom_site_fract_y
_atom_site_fract_z
Si Si1 0.694018 0.183223 0.192957
Si Si2 0.365978 0.328776 0.961939
Si Si3 0.410483 0.315532 0.659270
Si Si4 0.152484 0.684444 0.575271
Si Si5 0.988647 0.682332 0.821666
Si Si6 0.294321 0.814799 0.327346
Si Si7 0.629363 0.168554 0.940425
O O1 0.638865 0.244975 0.267735
O O2 0.610927 0.218276 0.178344
O O3 0.807534 0.274680 0.136133
O O4 0.708355 0.000000 0.189600
O O5 0.369700 0.500000 0.943027
O O6 0.457701 0.241778 0.891150
O O7 0.250000 0.250000 0.000000
O O8 0.364445 0.312920 0.024020
O O9 0.413365 0.500000 0.661154
O O10 0.534759 0.251278 0.604669
O O11 0.324825 0.271715 0.648001
O O12 0.148927 0.500000 0.574588
O O13 0.250000 0.750000 0.500000
O O14 0.178413 0.730004 0.624640
O O15 0.994163 0.500000 0.822281
O O16 0.104798 0.739065 0.750743
O O17 0.297238 0.000000 0.325618
O O18 0.678033 0.000000 0.934652
O O19 0.500000 0.144027 0.000000
#
# Coordination Sequence:
#
# PCOD9203441 Si02
#       7
#     8   8   8   8   8   8   8
#     4  11  22  39  64  90 123 167 212 269 329 385
#     4  12  24  38  57  84 115 155 206 265 322 381
#     4  11  23  41  67  99 130 171 220 265 314 383
#     4  11  23  45  71 100 135 173 213 261 319 382
#     4  10  20  39  63  86 116 163 211 258 317 387
#     4   9  21  42  67  92 128 173 213 250 311 390
#     4  11  25  42  59  82 118 166 217 270 328 392
#
# _framework density 20.547243999999999
#
# number of rings (size 3 to 8) (size 9 to 14) (size 15 to 20)
#    0.000    1.286    2.857    3.000    2.000    2.286 
#    0.000    6.429    0.000    0.000    0.000    0.000 
#    0.000    0.000    0.000    0.000    0.000    0.000 
#
# Total GULP energy -156130.652215 kJ/mol
# GULP energy per Si atom -5576.094722 kJ/mol
# Density = 2.050048 g / cm^3
# Si number density = 20.547244 Si / 1000 Ang^3
#
#
#
# Elastic Constant Matrix: (Units=GPa)
#
#
# Indices 1 2 3 4 5 6 
#
# 1 75.8410 30.9622 42.6370 0.0000 -28.6231 0.0000
# 2 30.9622 71.8579 28.7004 0.0000 -12.8401 0.0000
# 3 42.6370 28.7004 154.2909 0.0000 -26.7880 0.0000
# 4 0.0000 0.0000 0.0000 41.5769 0.0000 -1.2186
# 5 -28.6231 -12.8401 -26.7880 0.0000 27.4649 0.0000
# 6 0.0000 0.0000 0.0000 -1.2186 0.0000 22.8925
#
#
#
# Elastic Compliance Matrix: (Units=1/GPa)
#
#
# Indices 1 2 3 4 5 6 
#
# 1 0.024724 -0.006092 -0.002071 0.000000 0.020899 0.000000
# 2 -0.006092 0.017172 -0.001468 0.000000 0.000248 0.000000
# 3 -0.002071 -0.001468 0.008226 0.000000 0.005179 0.000000
# 4 0.000000 0.000000 0.000000 0.024089 0.000000 0.001282
# 5 0.020899 0.000248 0.005179 0.000000 0.063358 0.000000
# 6 0.000000 0.000000 0.000000 0.001282 0.000000 0.043751
#
#
# Mechanical properties :
#
#
# Convention : Reuss Voigt Hill
#
# Bulk Modulus (GPa) = 32.40320 56.28767 44.34544
# Shear Modulus (GPa) = 23.71173 31.69956 27.70564
#
# Velocity S-wave (km/s) = 3.40076 3.93207 3.67602
# Velocity P-wave (km/s) = 5.58789 6.93315 6.29655
#
# Compressibility (1/GPa) = 0.03086115
#
# Stress axis : x y z
#
# Youngs Moduli (GPa) = 40.44648 58.23555 121.57122
#
# Poissons Ratio (x) = 0.35475 0.25173
# Poissons Ratio (y) = 0.24639 0.17844
# Poissons Ratio (z) = 0.08375 0.08548
#
# Static dielectric constant tensor:
#      x y z
#    x 1.781040 0.000000 -0.024020 
#    y 0.000000 1.643610 0.000000 
#    z -0.024020 0.000000 1.688760 
# 
# From -- ./inp_files/362916.got.cif
#   From: 2010.05.17/outbox.cif.g08.bks.cpg/sg12_182_cif.got.tgz:362916.got - 2010.06.03 13:09:07.
