data_PCOD9203684
_publ_section_title
;
Structure prediction by ZEFSAII (Michael W. Deem and Ramdas Pophale) SiO2 
 PCOD9203684
Probable space group: C 2/M
;
_chemical_formula_sum "Si O2"
_cell_formula_units_Z 64
_cell_length_a 23.232130
_cell_length_b 16.086164
_cell_length_c 15.588445
_cell_angle_alpha 90.000000
_cell_angle_beta 152.793169
_cell_angle_gamma 90.000000
_cell_volume 2663.509821
_symmetry_space_group_name_H-M "C 2/M"
_symmetry_group_IT_number 12
_symmetry_cell_setting 'monoclinic'
loop_
_space_group_symop_operation_xyz
x,y,z
-x,y,-z
-x,-y,-z
x,-y,z
1/2+x,1/2+y,z
1/2-x,1/2+y,-z
1/2-x,1/2-y,-z
1/2+x,1/2-y,z
loop_
_atom_site_type_symbol
_atom_site_label
_atom_site_fract_x
_atom_site_fract_y
_atom_site_fract_z
Si Si1 0.837237 0.901380 0.326181
Si Si2 0.089036 0.799488 0.973225
Si Si3 0.458734 0.113916 0.042165
Si Si4 0.301582 0.412163 0.750374
Si Si5 0.373900 0.685964 0.557353
Si Si6 0.332574 0.751979 0.194762
Si Si7 0.492769 0.909303 0.591626
Si Si8 0.318351 0.134458 0.564242
O O1 0.879355 0.850669 0.468470
O O2 0.866343 0.837971 0.283746
O O3 0.878251 0.000000 0.377423
O O4 0.685446 0.907070 0.131212
O O5 0.109915 0.848804 0.086898
O O6 0.231969 0.789534 0.128403
O O7 0.033989 0.712456 0.931594
O O8 0.999495 0.833945 0.779104
O O9 0.555296 0.086266 0.244558
O O10 0.500000 0.092991 0.000000
O O11 0.346229 0.500000 0.842025
O O12 0.292082 0.407333 0.636291
O O13 0.153285 0.405486 0.577236
O O14 0.350758 0.783260 0.550898
O O15 0.246771 0.650264 0.430880
O O16 0.439524 0.819133 0.309059
O O17 0.250000 0.750000 0.000000
O O18 0.500000 0.917576 0.500000
O O19 0.543222 0.000000 0.693361
#
# Coordination Sequence:
#
# PCOD9203684 Si02
#       8
#     8   8   8   8   8   8   8   8
#     4  11  25  44  66  98 141 185 230 283 343 417
#     4  10  23  39  64  95 130 175 230 280 332 402
#     4  10  20  39  65  94 127 176 234 282 331 390
#     4  11  24  40  63 100 137 167 213 284 348 404
#     4  10  22  40  66  93 132 185 229 273 333 404
#     4  11  25  43  67 100 130 174 222 286 350 409
#     4  10  22  42  70  98 125 164 220 286 349 402
#     4  10  21  38  65  99 131 177 232 283 334 403
#
# _framework density 24.028445000000001
#
# number of rings (size 3 to 8) (size 9 to 14) (size 15 to 20)
#    0.000    1.625    2.500    1.500    8.750    2.250 
#    0.000    0.625    0.000    2.625    0.000    0.000 
#    0.000    0.000    0.000    0.000    0.000    0.000 
#
# Total GULP energy -178346.708299 kJ/mol
# GULP energy per Si atom -5573.334634 kJ/mol
# Density = 2.397376 g / cm^3
# Si number density = 24.028445 Si / 1000 Ang^3
#
#
#
# Elastic Constant Matrix: (Units=GPa)
#
#
# Indices 1 2 3 4 5 6 
#
# 1 105.8810 41.2196 12.7833 0.0000 -0.5449 0.0000
# 2 41.2196 177.6890 70.5475 0.0000 -17.8266 0.0000
# 3 12.7833 70.5475 116.5860 0.0000 -21.7502 0.0000
# 4 0.0000 0.0000 0.0000 -46.5932 0.0000 -42.3210
# 5 -0.5449 -17.8266 -21.7502 0.0000 42.6691 0.0000
# 6 0.0000 0.0000 0.0000 -42.3210 0.0000 34.4949
#
#
#
# Elastic Compliance Matrix: (Units=1/GPa)
#
#
# Indices 1 2 3 4 5 6 
#
# 1 0.010423 -0.002613 0.000287 0.000000 -0.000812 0.000000
# 2 -0.002613 0.008094 -0.004405 0.000000 0.001102 0.000000
# 3 0.000287 -0.004405 0.012011 0.000000 0.004286 0.000000
# 4 0.000000 0.000000 0.000000 -0.010151 0.000000 -0.012454
# 5 -0.000812 0.001102 0.004286 0.000000 0.026071 0.000000
# 6 0.000000 0.000000 0.000000 -0.012454 0.000000 0.013711
#
#
# Mechanical properties :
#
#
# Convention : Reuss Voigt Hill
#
# Bulk Modulus (GPa) = 58.60139 72.13964 65.37052
# Shear Modulus (GPa) = 63.04310 24.48788 43.76549
#
# Velocity S-wave (km/s) = 5.12775 3.19583 4.27242
# Velocity P-wave (km/s) = 7.71361 6.61102 7.18350
#
# Compressibility (1/GPa) = 0.01706444
#
# Stress axis : x y z
#
# Youngs Moduli (GPa) = 95.94055 123.55292 83.25581
#
# Poissons Ratio (x) = 0.32289 -0.02389
# Poissons Ratio (y) = 0.25073 0.36677
# Poissons Ratio (z) = -0.02753 0.54430
#
# Static dielectric constant tensor:
#      x y z
#    x 1.848930 0.000000 0.008150 
#    y 0.000000 2.050290 0.000000 
#    z 0.008150 0.000000 1.911310 
# 
# From -- ./inp_files/241515.got.cif
#   From: 2010.05.17/outbox.cif.g08.bks.cpg/sg12_121_cif.got.tgz:241515.got - 2010.06.03 13:09:07.
