data_PCOD9203480
_publ_section_title
;
Structure prediction by ZEFSAII (Michael W. Deem and Ramdas Pophale) SiO2 
 PCOD9203480
Probable space group: C 2/M
;
_chemical_formula_sum "Si O2"
_cell_formula_units_Z 58
_cell_length_a 22.054720
_cell_length_b 20.480676
_cell_length_c 8.360783
_cell_angle_alpha 90.000000
_cell_angle_beta 39.227415
_cell_angle_gamma 90.000000
_cell_volume 2388.276841
_symmetry_space_group_name_H-M "C 2/M"
_symmetry_group_IT_number 12
_symmetry_cell_setting 'monoclinic'
loop_
_space_group_symop_operation_xyz
x,y,z
-x,y,-z
-x,-y,-z
x,-y,z
1/2+x,1/2+y,z
1/2-x,1/2+y,-z
1/2-x,1/2-y,-z
1/2+x,1/2-y,z
loop_
_atom_site_type_symbol
_atom_site_label
_atom_site_fract_x
_atom_site_fract_y
_atom_site_fract_z
Si Si1 0.390054 0.208607 0.731220
Si Si2 0.618096 0.306593 0.507153
Si Si3 0.648869 0.928315 0.088006
Si Si4 0.087804 0.244209 0.967257
Si Si5 0.871732 0.071087 0.720925
Si Si6 0.199205 0.363068 0.670573
Si Si7 0.000000 0.000000 0.000000
Si Si8 0.848042 0.097061 0.146477
O O1 0.500000 0.229069 0.500000
O O2 0.341019 0.251501 0.696457
O O3 0.384388 0.130854 0.731214
O O4 0.369818 0.227355 0.953019
O O5 0.583569 0.367963 0.466286
O O6 0.704597 0.335334 0.435741
O O7 0.526028 0.274094 0.783545
O O8 0.608276 0.000000 0.199999
O O9 0.762356 0.930816 0.887860
O O10 0.641620 0.906654 0.917587
O O11 0.132086 0.301218 0.763529
O O12 0.131821 0.173160 0.874254
O O13 0.914052 0.000000 0.587589
O O14 0.864992 0.079073 0.926002
O O15 0.240837 0.406677 0.439931
O O16 0.077447 0.943781 0.900483
#
# Coordination Sequence:
#
# PCOD9203480 Si02
#       8
#     8   8   8   8   8   8   2   8
#     4   9  18  33  60  88 117 154 201 269 323 366
#     4  10  20  39  63  89 126 160 211 277 319 383
#     4   9  20  36  58  89 119 155 211 255 319 391
#     4  10  21  39  60  91 119 163 221 260 323 382
#     4  10  21  38  61  88 124 170 209 256 323 395
#     4  10  23  38  66  87 125 171 213 272 325 380
#     4  12  28  40  60  90 136 186 210 254 336 398
#     4  12  23  41  58  85 127 170 212 257 313 395
#
# _framework density 24.285294
#
# number of rings (size 3 to 8) (size 9 to 14) (size 15 to 20)
#    0.000    1.931    2.069    1.241    2.897    1.931 
#    6.207    0.690    0.000    0.000    0.000    0.000 
#    0.000    9.931    0.000    0.000    0.000    0.000 
#
# Total GULP energy -161608.434636 kJ/mol
# GULP energy per Si atom -5572.704643 kJ/mol
# Density = 2.423002 g / cm^3
# Si number density = 24.285294 Si / 1000 Ang^3
#
#
#
# Elastic Constant Matrix: (Units=GPa)
#
#
# Indices 1 2 3 4 5 6 
#
# 1 46.9986 33.1116 26.6537 0.0000 -1.3704 0.0000
# 2 33.1116 180.8041 29.1912 0.0000 17.3108 0.0000
# 3 26.6537 29.1912 78.1804 0.0000 4.5174 0.0000
# 4 0.0000 0.0000 0.0000 -3.2751 0.0000 -16.9153
# 5 -1.3704 17.3108 4.5174 0.0000 24.9052 0.0000
# 6 0.0000 0.0000 0.0000 -16.9153 0.0000 28.1519
#
#
#
# Elastic Compliance Matrix: (Units=1/GPa)
#
#
# Indices 1 2 3 4 5 6 
#
# 1 0.029709 -0.004643 -0.008768 0.000000 0.006452 0.000000
# 2 -0.004643 0.006976 -0.000734 0.000000 -0.004971 0.000000
# 3 -0.008768 -0.000734 0.016223 0.000000 -0.002914 0.000000
# 4 0.000000 0.000000 0.000000 -0.074411 0.000000 -0.044711
# 5 0.006452 -0.004971 -0.002914 0.000000 0.044491 0.000000
# 6 0.000000 0.000000 0.000000 -0.044711 0.000000 0.008657
#
#
# Mechanical properties :
#
#
# Convention : Reuss Voigt Hill
#
# Bulk Modulus (GPa) = 40.62247 53.76622 47.19434
# Shear Modulus (GPa) = 73.37946 24.42483 48.90215
#
# Velocity S-wave (km/s) = 5.50283 3.17479 4.49224
# Velocity P-wave (km/s) = 7.55900 5.96880 6.81047
#
# Compressibility (1/GPa) = 0.02461692
#
# Stress axis : x y z
#
# Youngs Moduli (GPa) = 33.66016 143.35624 61.64198
#
# Poissons Ratio (x) = 0.66559 0.54046
# Poissons Ratio (y) = 0.15628 0.04527
# Poissons Ratio (z) = 0.29512 0.10529
#
# Static dielectric constant tensor:
#      x y z
#    x 2.013880 0.000000 0.101670 
#    y 0.000000 1.960250 0.000000 
#    z 0.101670 0.000000 2.068100 
# 
# From -- ./inp_files/99240.got.cif
#   From: 2010.05.17/outbox.cif.g08.bks.cpg/sg12_50_cif.got.tgz:99240.got - 2010.06.03 13:09:07.
