data_PCOD9203508
_publ_section_title
;
Structure prediction by ZEFSAII (Michael W. Deem and Ramdas Pophale) SiO2 
 PCOD9203508
Probable space group: C 2/M
;
_chemical_formula_sum "Si O2"
_cell_formula_units_Z 36
_cell_length_a 10.435707
_cell_length_b 22.981109
_cell_length_c 7.503533
_cell_angle_alpha 90.000000
_cell_angle_beta 119.189647
_cell_angle_gamma 90.000000
_cell_volume 1571.006502
_symmetry_space_group_name_H-M "C 2/M"
_symmetry_group_IT_number 12
_symmetry_cell_setting 'monoclinic'
loop_
_space_group_symop_operation_xyz
x,y,z
-x,y,-z
-x,-y,-z
x,-y,z
1/2+x,1/2+y,z
1/2-x,1/2+y,-z
1/2-x,1/2-y,-z
1/2+x,1/2-y,z
loop_
_atom_site_type_symbol
_atom_site_label
_atom_site_fract_x
_atom_site_fract_y
_atom_site_fract_z
Si Si1 0.748850 0.874267 0.359956
Si Si2 0.333757 0.116408 0.301870
Si Si3 0.176472 0.000000 0.158274
Si Si4 0.172025 0.000000 0.580920
Si Si5 0.516406 0.205472 0.823902
Si Si6 0.000000 0.209995 0.500000
O O1 0.762431 0.871539 0.585608
O O2 0.763337 0.939959 0.306774
O O3 0.593497 0.847459 0.215016
O O4 0.868788 0.832240 0.357616
O O5 0.500000 0.105872 0.500000
O O6 0.262895 0.059194 0.162910
O O7 0.347259 0.171840 0.178166
O O8 0.194189 0.000000 0.384207
O O9 0.000000 0.000000 0.000000
O O10 0.000000 0.000000 0.500000
O O11 0.457605 0.248012 0.632064
O O12 0.500000 0.238413 0.000000
#
# Coordination Sequence:
#
# PCOD9203508 Si02
#       6
#     8   8   4   4   8   4
#     4  10  21  41  67  91 128 169 214 268 326 386
#     4   9  19  41  62  88 130 177 219 260 330 398
#     4  10  21  35  63  96 134 166 213 280 329 377
#     4  10  20  39  63  94 121 171 206 254 336 390
#     4  11  24  40  64  97 125 173 223 261 322 385
#     4  12  22  43  66  91 136 166 218 274 318 384
#
# _framework density 22.915243
#
# number of rings (size 3 to 8) (size 9 to 14) (size 15 to 20)
#    0.000    1.778    4.444    1.000    0.000    5.333 
#    0.000    2.222    0.000    0.000    0.000    0.000 
#    0.000    0.000    0.000    0.000    0.000    0.000 
#
# Total GULP energy -100358.532227 kJ/mol
# GULP energy per Si atom -5575.474013 kJ/mol
# Density = 2.286309 g / cm^3
# Si number density = 22.915243 Si / 1000 Ang^3
#
#
#
# Elastic Constant Matrix: (Units=GPa)
#
#
# Indices 1 2 3 4 5 6 
#
# 1 50.5530 21.3925 3.5079 0.0000 1.6428 0.0000
# 2 21.3925 122.8653 21.2948 0.0000 9.8784 0.0000
# 3 3.5079 21.2948 76.7633 0.0000 -14.3947 0.0000
# 4 0.0000 0.0000 0.0000 30.9129 0.0000 6.6539
# 5 1.6428 9.8784 -14.3947 0.0000 25.3979 0.0000
# 6 0.0000 0.0000 0.0000 6.6539 0.0000 42.6738
#
#
#
# Elastic Compliance Matrix: (Units=1/GPa)
#
#
# Indices 1 2 3 4 5 6 
#
# 1 0.021355 -0.003743 0.000085 0.000000 0.000123 0.000000
# 2 -0.003743 0.009874 -0.003629 0.000000 -0.005655 0.000000
# 3 0.000085 -0.003629 0.015993 0.000000 0.010470 0.000000
# 4 0.000000 0.000000 0.000000 0.033472 0.000000 -0.005219
# 5 0.000123 -0.005655 0.010470 0.000000 0.047499 0.000000
# 6 0.000000 0.000000 0.000000 -0.005219 0.000000 0.024247
#
#
# Mechanical properties :
#
#
# Convention : Reuss Voigt Hill
#
# Bulk Modulus (GPa) = 30.62741 38.06356 34.34549
# Shear Modulus (GPa) = 28.10617 33.39601 30.75109
#
# Velocity S-wave (km/s) = 3.50598 3.82169 3.66724
# Velocity P-wave (km/s) = 5.45745 6.01003 5.74039
#
# Compressibility (1/GPa) = 0.03265049
#
# Stress axis : x y z
#
# Youngs Moduli (GPa) = 46.82704 101.27352 62.52694
#
# Poissons Ratio (x) = 0.37906 -0.00534
# Poissons Ratio (y) = 0.17527 0.22688
# Poissons Ratio (z) = -0.00400 0.36748
#
# Static dielectric constant tensor:
#      x y z
#    x 1.440740 0.000000 0.037670 
#    y 0.000000 1.856680 0.000000 
#    z 0.037670 0.000000 1.913590 
# 
# From -- ./inp_files/49021.got.cif
#   From: 2010.05.17/outbox.cif.g08.bks.cpg/sg12_25_cif.got.tgz:49021.got - 2010.06.03 13:09:07.
