data_PCOD9203279
_publ_section_title
;
Structure prediction by ZEFSAII (Michael W. Deem and Ramdas Pophale) SiO2 
 PCOD9203279
Probable space group: C 2/M
;
_chemical_formula_sum "Si O2"
_cell_formula_units_Z 56
_cell_length_a 14.703095
_cell_length_b 27.795686
_cell_length_c 8.894882
_cell_angle_alpha 90.000000
_cell_angle_beta 128.144038
_cell_angle_gamma 90.000000
_cell_volume 2858.928430
_symmetry_space_group_name_H-M "C 2/M"
_symmetry_group_IT_number 12
_symmetry_cell_setting 'monoclinic'
loop_
_space_group_symop_operation_xyz
x,y,z
-x,y,-z
-x,-y,-z
x,-y,z
1/2+x,1/2+y,z
1/2-x,1/2+y,-z
1/2-x,1/2-y,-z
1/2+x,1/2-y,z
loop_
_atom_site_type_symbol
_atom_site_label
_atom_site_fract_x
_atom_site_fract_y
_atom_site_fract_z
Si Si1 0.867993 0.859801 0.349718
Si Si2 0.789036 0.604539 0.572015
Si Si3 0.266956 0.144834 0.083199
Si Si4 0.614362 0.661350 0.180722
Si Si5 0.137867 0.554181 0.634109
Si Si6 0.375133 0.733080 0.567958
Si Si7 0.996018 0.319401 0.816782
O O1 0.777162 0.895665 0.337799
O O2 0.862029 0.805546 0.419227
O O3 0.000000 0.875272 0.500000
O O4 0.831808 0.859641 0.141212
O O5 0.690724 0.630342 0.371596
O O6 0.825763 0.560810 0.503502
O O7 0.901948 0.637723 0.709323
O O8 0.207323 0.177268 0.150908
O O9 0.301961 0.095206 0.203018
O O10 0.378540 0.164682 0.111806
O O11 0.568490 0.704075 0.236099
O O12 0.500000 0.636194 0.000000
O O13 0.164036 0.500000 0.711477
O O14 0.000000 0.561929 0.500000
O O15 0.250000 0.750000 0.500000
O O16 0.451881 0.780703 0.647563
O O17 0.000000 0.305488 0.000000
#
# Coordination Sequence:
#
# PCOD9203279 Si02
#       7
#     8   8   8   8   8   8   8
#     4  11  23  40  60  86 122 171 208 251 298 355
#     4  10  20  39  61  82 124 155 194 245 313 358
#     4  11  22  38  66  90 120 163 201 251 317 361
#     4  10  21  37  56  77 115 165 204 247 294 344
#     4  10  21  39  67  98 122 147 192 252 319 390
#     4  11  21  38  54  79 125 162 209 256 288 340
#     4  12  21  37  59  87 121 165 203 252 301 352
#
# _framework density 19.587758999999998
#
# number of rings (size 3 to 8) (size 9 to 14) (size 15 to 20)
#    0.000    1.286    5.714    2.143    0.000    1.143 
#    0.000    3.571    0.000   18.857    0.000    0.000 
#    0.000    0.000    0.000    0.000    0.000    0.000 
#
# Total GULP energy -155960.320690 kJ/mol
# GULP energy per Si atom -5570.011453 kJ/mol
# Density = 1.954318 g / cm^3
# Si number density = 19.587759 Si / 1000 Ang^3
#
#
#
# Elastic Constant Matrix: (Units=GPa)
#
#
# Indices 1 2 3 4 5 6 
#
# 1 52.8554 11.5904 -12.8451 0.0000 6.7530 0.0000
# 2 11.5904 47.3431 13.8135 0.0000 -3.2927 0.0000
# 3 -12.8451 13.8135 72.8336 0.0000 6.2820 0.0000
# 4 0.0000 0.0000 0.0000 -239.7559 0.0000 -202.9618
# 5 6.7530 -3.2927 6.2820 0.0000 41.7566 0.0000
# 6 0.0000 0.0000 0.0000 -202.9618 0.0000 -146.2010
#
#
#
# Elastic Compliance Matrix: (Units=1/GPa)
#
#
# Indices 1 2 3 4 5 6 
#
# 1 0.022684 -0.007631 0.005893 0.000000 -0.005157 0.000000
# 2 -0.007631 0.025174 -0.006482 0.000000 0.004194 0.000000
# 3 0.005893 -0.006482 0.016337 0.000000 -0.003922 0.000000
# 4 0.000000 0.000000 0.000000 0.023808 0.000000 -0.033051
# 5 -0.005157 0.004194 -0.003922 0.000000 0.025703 0.000000
# 6 0.000000 0.000000 0.000000 -0.033051 0.000000 0.039042
#
#
# Mechanical properties :
#
#
# Convention : Reuss Voigt Hill
#
# Bulk Modulus (GPa) = 20.94110 22.01662 21.47886
# Shear Modulus (GPa) = 27.01147 -58.14183 -15.56518
#
# Velocity S-wave (km/s) = 3.71751 -5.45410 -2.82199
# Velocity P-wave (km/s) = 5.39821 5.32903 0.60916
#
# Compressibility (1/GPa) = 0.04775299
#
# Stress axis : x y z
#
# Youngs Moduli (GPa) = 44.08404 39.72393 61.21143
#
# Poissons Ratio (x) = 0.30315 -0.36070
# Poissons Ratio (y) = 0.33642 0.39678
# Poissons Ratio (z) = -0.25978 0.25749
#
# Static dielectric constant tensor:
#      x y z
#    x 1.778610 0.000000 -0.025090 
#    y 0.000000 1.714190 0.000000 
#    z -0.025090 0.000000 1.715190 
# 
# From -- ./inp_files/68156.got.cif
#   From: 2010.05.17/outbox.cif.g08.bks.cpg/sg12_35_cif.got.tgz:68156.got - 2010.06.03 13:09:07.
