data_PCOD9203714
_publ_section_title
;
Structure prediction by ZEFSAII (Michael W. Deem and Ramdas Pophale) SiO2 
 PCOD9203714
Probable space group: C 2/M
;
_chemical_formula_sum "Si O2"
_cell_formula_units_Z 56
_cell_length_a 20.408027
_cell_length_b 8.494519
_cell_length_c 16.542112
_cell_angle_alpha 90.000000
_cell_angle_beta 87.707000
_cell_angle_gamma 90.000000
_cell_volume 2865.384361
_symmetry_space_group_name_H-M "C 2/M"
_symmetry_group_IT_number 12
_symmetry_cell_setting 'monoclinic'
loop_
_space_group_symop_operation_xyz
x,y,z
-x,y,-z
-x,-y,-z
x,-y,z
1/2+x,1/2+y,z
1/2-x,1/2+y,-z
1/2-x,1/2-y,-z
1/2+x,1/2-y,z
loop_
_atom_site_type_symbol
_atom_site_label
_atom_site_fract_x
_atom_site_fract_y
_atom_site_fract_z
Si Si1 0.074793 0.691346 0.978906
Si Si2 0.702620 0.314107 0.432881
Si Si3 0.876978 0.309471 0.853134
Si Si4 0.742698 0.811591 0.255443
Si Si5 0.560451 0.186887 0.440443
Si Si6 0.614940 0.811346 0.797514
Si Si7 0.485515 0.686168 0.727969
O O1 0.073691 0.500000 0.977045
O O2 0.100536 0.742683 0.890384
O O3 0.119235 0.737771 0.053194
O O4 0.000000 0.742752 0.000000
O O5 0.711170 0.500000 0.424450
O O6 0.750000 0.250000 0.500000
O O7 0.718775 0.235780 0.345809
O O8 0.627675 0.273700 0.457873
O O9 0.881632 0.500000 0.848864
O O10 0.812216 0.261456 0.807322
O O11 0.939948 0.239767 0.804563
O O12 0.812491 0.735406 0.232636
O O13 0.748710 0.000000 0.251128
O O14 0.500000 0.234903 0.500000
O O15 0.541100 0.226129 0.349708
O O16 0.570806 0.000000 0.448888
O O17 0.559722 0.734575 0.743871
O O18 0.607267 0.000000 0.794319
O O19 0.479981 0.500000 0.716230
#
# Coordination Sequence:
#
# PCOD9203714 Si02
#       7
#     8   8   8   8   8   8   8
#     4   9  17  34  62  93 121 163 215 263 316 377
#     4  12  26  45  69  96 131 169 213 260 315 375
#     4  10  20  39  66  90 123 169 214 258 317 380
#     4  11  24  42  64  92 130 169 213 262 318 379
#     4  11  25  45  69  97 129 165 211 260 316 377
#     4  11  23  40  64  91 127 169 217 265 318 378
#     4  12  24  39  63  94 129 165 212 262 316 377
#
# _framework density 19.543626
#
# number of rings (size 3 to 8) (size 9 to 14) (size 15 to 20)
#    0.000    1.143    2.857    3.857    2.000    2.286 
#    0.000    2.143    0.000    0.000    0.000    0.000 
#    0.000    0.000    0.000    0.000    0.000    0.000 
#
# Total GULP energy -156591.089721 kJ/mol
# GULP energy per Si atom -5592.538919 kJ/mol
# Density = 1.949914 g / cm^3
# Si number density = 19.543626 Si / 1000 Ang^3
#
#
#
# Elastic Constant Matrix: (Units=GPa)
#
#
# Indices 1 2 3 4 5 6 
#
# 1 103.8571 -8.4449 16.9396 0.0000 10.1788 0.0000
# 2 -8.4449 11.1267 -10.1736 0.0000 -2.1216 0.0000
# 3 16.9396 -10.1736 66.6587 0.0000 15.3947 0.0000
# 4 0.0000 0.0000 0.0000 12.8777 0.0000 -4.3313
# 5 10.1788 -2.1216 15.3947 0.0000 39.2306 0.0000
# 6 0.0000 0.0000 0.0000 -4.3313 0.0000 31.8199
#
#
#
# Elastic Compliance Matrix: (Units=1/GPa)
#
#
# Indices 1 2 3 4 5 6 
#
# 1 0.010547 0.006500 -0.001251 0.000000 -0.001894 0.000000
# 2 0.006500 0.108472 0.015327 0.000000 -0.001835 0.000000
# 3 -0.001251 0.015327 0.019126 0.000000 -0.006352 0.000000
# 4 0.000000 0.000000 0.000000 0.081379 0.000000 0.011077
# 5 -0.001894 -0.001835 -0.006352 0.000000 0.028375 0.000000
# 6 0.000000 0.000000 0.000000 0.011077 0.000000 0.032935
#
#
# Mechanical properties :
#
#
# Convention : Reuss Voigt Hill
#
# Bulk Modulus (GPa) = 5.57732 19.80940 12.69336
# Shear Modulus (GPa) = 16.69748 29.00707 22.85228
#
# Velocity S-wave (km/s) = 2.92613 3.85674 3.42321
# Velocity P-wave (km/s) = 3.77840 5.47637 4.70462
#
# Compressibility (1/GPa) = 0.17929760
#
# Stress axis : x y z
#
# Youngs Moduli (GPa) = 94.81561 9.21898 52.28527
#
# Poissons Ratio (x) = -0.05992 0.06539
# Poissons Ratio (y) = -0.61631 -0.80138
# Poissons Ratio (z) = 0.11858 -0.14130
#
# Static dielectric constant tensor:
#      x y z
#    x 1.656160 0.000000 0.006270 
#    y 0.000000 1.665940 0.000000 
#    z 0.006270 0.000000 1.676360 
# 
# From -- ./inp_files/230853.got.cif
#   From: 2010.05.17/outbox.cif.g08.bks.cpg/sg12_116_cif.got.tgz:230853.got - 2010.06.03 13:09:07.
