data_PCOD9203742
_publ_section_title
;
Structure prediction by ZEFSAII (Michael W. Deem and Ramdas Pophale) SiO2 
 PCOD9203742
Probable space group: C 2/M
;
_chemical_formula_sum "Si O2"
_cell_formula_units_Z 48
_cell_length_a 13.735320
_cell_length_b 14.200144
_cell_length_c 11.039468
_cell_angle_alpha 90.000000
_cell_angle_beta 93.622229
_cell_angle_gamma 90.000000
_cell_volume 2148.875301
_symmetry_space_group_name_H-M "C 2/M"
_symmetry_group_IT_number 12
_symmetry_cell_setting 'monoclinic'
loop_
_space_group_symop_operation_xyz
x,y,z
-x,y,-z
-x,-y,-z
x,-y,z
1/2+x,1/2+y,z
1/2-x,1/2+y,-z
1/2-x,1/2-y,-z
1/2+x,1/2-y,z
loop_
_atom_site_type_symbol
_atom_site_label
_atom_site_fract_x
_atom_site_fract_y
_atom_site_fract_z
Si Si1 0.368601 0.601718 0.664137
Si Si2 0.521287 0.238228 0.645211
Si Si3 0.709743 0.331743 0.583687
Si Si4 0.388244 0.108058 0.763207
Si Si5 0.235652 0.389065 0.879047
Si Si6 0.886791 0.746488 0.988990
O O1 0.411049 0.500000 0.700067
O O2 0.444854 0.684680 0.689014
O O3 0.340344 0.602286 0.520601
O O4 0.275856 0.616050 0.744559
O O5 0.500000 0.227845 0.500000
O O6 0.627269 0.284786 0.660619
O O7 0.487235 0.142116 0.704667
O O8 0.750000 0.250000 0.500000
O O9 0.797896 0.376985 0.664079
O O10 0.370164 0.176664 0.874274
O O11 0.394672 0.000000 0.801130
O O12 0.219470 0.500000 0.905288
O O13 0.321196 0.339307 0.965918
O O14 0.146373 0.319612 0.902085
O O15 0.000000 0.770889 0.000000
#
# Coordination Sequence:
#
# PCOD9203742 Si02
#       6
#     8   8   8   8   8   8
#     4  10  20  39  66  96 128 165 210 258 324 387
#     4  10  21  40  63  92 133 168 207 260 316 382
#     4  11  21  40  64  92 132 172 208 262 320 381
#     4  12  25  43  65  97 130 171 221 263 320 387
#     4  10  22  44  71  99 128 165 218 269 322 389
#     4  11  25  46  68  93 131 173 215 274 327 377
#
# _framework density 22.337266
#
# number of rings (size 3 to 8) (size 9 to 14) (size 15 to 20)
#    0.000    1.333    5.000    1.000    0.000    9.667 
#    0.000    1.667    0.000    0.000    0.000    0.000 
#    0.000    0.000    0.000    0.000    0.000    0.000 
#
# Total GULP energy -134147.127993 kJ/mol
# GULP energy per Si atom -5589.463666 kJ/mol
# Density = 2.228643 g / cm^3
# Si number density = 22.337266 Si / 1000 Ang^3
#
#
#
# Elastic Constant Matrix: (Units=GPa)
#
#
# Indices 1 2 3 4 5 6 
#
# 1 92.1867 2.9032 10.6672 0.0000 -9.3213 0.0000
# 2 2.9032 86.9054 20.6530 0.0000 -1.6439 0.0000
# 3 10.6672 20.6530 79.8859 0.0000 -13.1280 0.0000
# 4 0.0000 0.0000 0.0000 19.1563 0.0000 -4.2481
# 5 -9.3213 -1.6439 -13.1280 0.0000 35.9133 0.0000
# 6 0.0000 0.0000 0.0000 -4.2481 0.0000 16.4126
#
#
#
# Elastic Compliance Matrix: (Units=1/GPa)
#
#
# Indices 1 2 3 4 5 6 
#
# 1 0.011228 -0.000074 -0.001066 0.000000 0.002521 0.000000
# 2 -0.000074 0.012274 -0.003271 0.000000 -0.000653 0.000000
# 3 -0.001066 -0.003271 0.014294 0.000000 0.004799 0.000000
# 4 0.000000 0.000000 0.000000 0.055381 0.000000 0.014334
# 5 0.002521 -0.000653 0.004799 0.000000 0.030224 0.000000
# 6 0.000000 0.000000 0.000000 0.014334 0.000000 0.064639
#
#
# Mechanical properties :
#
#
# Convention : Reuss Voigt Hill
#
# Bulk Modulus (GPa) = 34.51192 36.38055 35.44624
# Shear Modulus (GPa) = 24.21075 29.28009 26.74542
#
# Velocity S-wave (km/s) = 3.29579 3.62445 3.46402
# Velocity P-wave (km/s) = 5.47421 5.81703 5.64822
#
# Compressibility (1/GPa) = 0.02897549
#
# Stress axis : x y z
#
# Youngs Moduli (GPa) = 89.06193 81.47195 69.95761
#
# Poissons Ratio (x) = 0.00604 0.07456
# Poissons Ratio (y) = 0.00660 0.22881
# Poissons Ratio (z) = 0.09492 0.26647
#
# Static dielectric constant tensor:
#      x y z
#    x 1.850870 0.000000 0.004070 
#    y 0.000000 1.817670 0.000000 
#    z 0.004070 0.000000 1.868600 
# 
# From -- ./inp_files/142901.got.cif
#   From: 2010.05.17/outbox.cif.g08.bks.cpg/sg12_72_cif.got.tgz:142901.got - 2010.06.03 13:09:07.
