data_PCOD9203544
_publ_section_title
;
Structure prediction by ZEFSAII (Michael W. Deem and Ramdas Pophale) SiO2 
 PCOD9203544
Probable space group: C 2/M
;
_chemical_formula_sum "Si O2"
_cell_formula_units_Z 48
_cell_length_a 30.289231
_cell_length_b 8.605388
_cell_length_c 15.457088
_cell_angle_alpha 90.000000
_cell_angle_beta 40.094768
_cell_angle_gamma 90.000000
_cell_volume 2594.827640
_symmetry_space_group_name_H-M "C 2/M"
_symmetry_group_IT_number 12
_symmetry_cell_setting 'monoclinic'
loop_
_space_group_symop_operation_xyz
x,y,z
-x,y,-z
-x,-y,-z
x,-y,z
1/2+x,1/2+y,z
1/2-x,1/2+y,-z
1/2-x,1/2-y,-z
1/2+x,1/2-y,z
loop_
_atom_site_type_symbol
_atom_site_label
_atom_site_fract_x
_atom_site_fract_y
_atom_site_fract_z
Si Si1 0.420663 0.686881 0.368776
Si Si2 0.171945 0.313668 0.338916
Si Si3 0.324725 0.185059 0.362389
Si Si4 0.823599 0.186929 0.859141
Si Si5 0.325854 0.687761 0.170460
Si Si6 0.078403 0.189119 0.131889
O O1 0.419021 0.500000 0.370723
O O2 0.381649 0.747129 0.512131
O O3 0.379786 0.748483 0.346996
O O4 0.499698 0.739520 0.249277
O O5 0.167828 0.500000 0.343525
O O6 0.161038 0.248347 0.259458
O O7 0.248918 0.271834 0.254913
O O8 0.250000 0.250000 0.500000
O O9 0.339932 0.237784 0.242009
O O10 0.323117 0.000000 0.371308
O O11 0.880217 0.237351 0.844562
O O12 0.821232 0.000000 0.861944
O O13 0.750000 0.250000 0.000000
O O14 0.328812 0.500000 0.174297
O O15 0.379284 0.737314 0.016481
O O16 0.078569 0.000000 0.131366
#
# Coordination Sequence:
#
# PCOD9203544 Si02
#       6
#     8   8   8   8   8   8
#     4  11  23  41  64  89 120 160 204 248 302 359
#     4  11  22  38  62  91 124 159 201 251 302 358
#     4  12  24  39  61  91 123 157 201 249 301 361
#     4  11  21  38  63  92 123 159 207 253 300 357
#     4  10  20  39  64  88 119 159 204 248 294 355
#     4   9  21  41  63  88 121 161 202 247 298 361
#
# _framework density 18.498338
#
# number of rings (size 3 to 8) (size 9 to 14) (size 15 to 20)
#    0.000    1.333    3.333    3.000    0.000    2.000 
#    0.000   11.667    0.000    0.000    0.000    0.000 
#    0.000    0.000    0.000    0.000    0.000    0.000 
#
# Total GULP energy -134168.426023 kJ/mol
# GULP energy per Si atom -5590.351084 kJ/mol
# Density = 1.845624 g / cm^3
# Si number density = 18.498338 Si / 1000 Ang^3
#
#
#
# Elastic Constant Matrix: (Units=GPa)
#
#
# Indices 1 2 3 4 5 6 
#
# 1 200.8882 53.2264 126.5639 0.0000 7.8701 0.0000
# 2 53.2264 62.4968 52.0190 0.0001 1.9450 -0.0001
# 3 126.5639 52.0190 192.6124 0.0001 2.6387 -0.0001
# 4 0.0000 0.0001 0.0001 31.2467 -0.0001 5.1194
# 5 7.8701 1.9450 2.6387 -0.0001 42.8402 0.0000
# 6 0.0000 -0.0001 -0.0001 5.1194 0.0000 31.2937
#
#
#
# Elastic Compliance Matrix: (Units=1/GPa)
#
#
# Indices 1 2 3 4 5 6 
#
# 1 0.009133 -0.003560 -0.005023 0.000000 -0.001207 0.000000
# 2 -0.003560 0.022043 -0.003613 0.000000 -0.000124 0.000000
# 3 -0.005023 -0.003613 0.009461 0.000000 0.000504 0.000000
# 4 0.000000 0.000000 0.000000 0.032885 0.000000 -0.005380
# 5 -0.001207 -0.000124 0.000504 0.000000 0.023539 0.000000
# 6 0.000000 0.000000 0.000000 -0.005380 0.000000 0.032835
#
#
# Mechanical properties :
#
#
# Convention : Reuss Voigt Hill
#
# Bulk Modulus (GPa) = 61.55156 102.17953 81.86555
# Shear Modulus (GPa) = 31.30804 36.02200 33.66502
#
# Velocity S-wave (km/s) = 4.11844 4.41762 4.27065
# Velocity P-wave (km/s) = 7.48076 9.02095 8.28671
#
# Compressibility (1/GPa) = 0.01624654
#
# Stress axis : x y z
#
# Youngs Moduli (GPa) = 109.49060 45.36556 105.69282
#
# Poissons Ratio (x) = 0.16148 0.53094
# Poissons Ratio (y) = 0.38974 0.38182
# Poissons Ratio (z) = 0.55002 0.16388
#
# Static dielectric constant tensor:
#      x y z
#    x 1.608890 0.000000 0.002100 
#    y 0.000000 1.631780 0.000000 
#    z 0.002100 0.000000 1.600150 
# 
# From -- ./inp_files/244656.got.cif
#   From: 2010.05.17/outbox.cif.g08.bks.cpg/sg12_123_cif.got.tgz:244656.got - 2010.06.03 13:09:07.
