data_PCOD9203198
_publ_section_title
;
Structure prediction by ZEFSAII (Michael W. Deem and Ramdas Pophale) SiO2 
 PCOD9203198
Probable space group: C 2/M
;
_chemical_formula_sum "Si O2"
_cell_formula_units_Z 50
_cell_length_a 10.072305
_cell_length_b 14.469083
_cell_length_c 21.401822
_cell_angle_alpha 90.000000
_cell_angle_beta 141.795354
_cell_angle_gamma 90.000000
_cell_volume 1929.037848
_symmetry_space_group_name_H-M "C 2/M"
_symmetry_group_IT_number 12
_symmetry_cell_setting 'monoclinic'
loop_
_space_group_symop_operation_xyz
x,y,z
-x,y,-z
-x,-y,-z
x,-y,z
1/2+x,1/2+y,z
1/2-x,1/2+y,-z
1/2-x,1/2-y,-z
1/2+x,1/2-y,z
loop_
_atom_site_type_symbol
_atom_site_label
_atom_site_fract_x
_atom_site_fract_y
_atom_site_fract_z
Si Si1 0.500000 0.500000 0.500000
Si Si2 0.292907 0.147759 0.576540
Si Si3 0.698572 0.599605 0.788283
Si Si4 0.260976 0.864408 0.426313
Si Si5 0.760239 0.685549 0.220023
Si Si6 0.768372 0.858237 0.059961
Si Si7 0.233220 0.144692 0.072634
O O1 0.680261 0.580404 0.582343
O O2 0.207388 0.111530 0.478274
O O3 0.236432 0.252755 0.571583
O O4 0.550632 0.149640 0.666429
O O5 0.754269 0.500000 0.779266
O O6 0.436850 0.604760 0.689075
O O7 0.758555 0.702059 0.783936
O O8 0.773313 0.598902 0.888175
O O9 0.500000 0.896930 0.500000
O O10 0.527299 0.644540 0.147196
O O11 0.838946 0.653742 0.179599
O O12 0.697554 0.752112 0.041546
O O13 0.679140 0.894517 0.960442
O O14 0.000000 0.102775 0.000000
#
# Coordination Sequence:
#
# PCOD9203198 Si02
#       7
#     2   8   8   8   8   8   8
#     4  12  24  44  62  88 116 162 206 262 294 356
#     4  10  22  38  62  86 119 158 200 252 304 356
#     4  10  21  34  53  86 115 147 190 245 296 343
#     4  10  20  39  58  83 116 158 197 242 308 369
#     4   9  18  36  56  84 113 154 201 235 292 361
#     4   9  16  32  57  84 115 153 188 241 286 353
#     4   8  15  29  58  85 107 148 204 228 279 357
#
# _framework density 25.919657000000001
#
# number of rings (size 3 to 8) (size 9 to 14) (size 15 to 20)
#    0.000    2.560    0.800    0.960    1.120    0.320 
#    7.200    0.000    1.760   49.440    0.000    0.000 
#    0.000    0.000    0.000    0.000    0.000    0.000 
#
# Total GULP energy -139330.752336 kJ/mol
# GULP energy per Si atom -5573.230093 kJ/mol
# Density = 2.586066 g / cm^3
# Si number density = 25.919657 Si / 1000 Ang^3
#
#
#
# Elastic Constant Matrix: (Units=GPa)
#
#
# Indices 1 2 3 4 5 6 
#
# 1 92.1181 3.8045 15.7087 0.0000 2.7509 0.0000
# 2 3.8045 116.8949 13.4391 0.0000 -0.7137 0.0000
# 3 15.7087 13.4391 95.6880 0.0000 0.2124 0.0000
# 4 0.0000 0.0000 0.0000 -8.7705 0.0000 2.9662
# 5 2.7509 -0.7137 0.2124 0.0000 50.6288 0.0000
# 6 0.0000 0.0000 0.0000 2.9662 0.0000 1.6691
#
#
#
# Elastic Compliance Matrix: (Units=1/GPa)
#
#
# Indices 1 2 3 4 5 6 
#
# 1 0.011189 -0.000159 -0.001813 0.000000 -0.000603 0.000000
# 2 -0.000159 0.008698 -0.001196 0.000000 0.000136 0.000000
# 3 -0.001813 -0.001196 0.010916 0.000000 0.000036 0.000000
# 4 0.000000 0.000000 0.000000 -0.071216 0.000000 0.126559
# 5 -0.000603 0.000136 0.000036 0.000000 0.019786 0.000000
# 6 0.000000 0.000000 0.000000 0.126559 0.000000 0.374218
#
#
# Mechanical properties :
#
#
# Convention : Reuss Voigt Hill
#
# Bulk Modulus (GPa) = 40.87131 41.17839 41.02485
# Shear Modulus (GPa) = 13.58388 26.82205 20.20296
#
# Velocity S-wave (km/s) = 2.29175 3.22034 2.79488
# Velocity P-wave (km/s) = 4.77552 5.45426 5.12613
#
# Compressibility (1/GPa) = 0.02446704
#
# Stress axis : x y z
#
# Youngs Moduli (GPa) = 89.37027 114.96645 91.60733
#
# Poissons Ratio (x) = 0.01832 0.16610
# Poissons Ratio (y) = 0.01424 0.10954
# Poissons Ratio (z) = 0.16205 0.13747
#
# Static dielectric constant tensor:
#      x y z
#    x 2.182810 0.000000 -0.011170 
#    y 0.000000 2.082720 0.000000 
#    z -0.011170 0.000000 2.050410 
# 
# From -- ./inp_files/262780.got.cif
#   From: 2010.05.17/outbox.cif.g08.bks.cpg/sg12_132_cif.got.tgz:262780.got - 2010.06.03 13:09:07.
