data_PCOD9203103
_publ_section_title
;
Structure prediction by ZEFSAII (Michael W. Deem and Ramdas Pophale) SiO2 
 PCOD9203103
Probable space group: C 2/M
;
_chemical_formula_sum "Si O2"
_cell_formula_units_Z 56
_cell_length_a 19.667937
_cell_length_b 8.693856
_cell_length_c 26.054165
_cell_angle_alpha 90.000000
_cell_angle_beta 141.189160
_cell_angle_gamma 90.000000
_cell_volume 2792.181313
_symmetry_space_group_name_H-M "C 2/M"
_symmetry_group_IT_number 12
_symmetry_cell_setting 'monoclinic'
loop_
_space_group_symop_operation_xyz
x,y,z
-x,y,-z
-x,-y,-z
x,-y,z
1/2+x,1/2+y,z
1/2-x,1/2+y,-z
1/2-x,1/2-y,-z
1/2+x,1/2-y,z
loop_
_atom_site_type_symbol
_atom_site_label
_atom_site_fract_x
_atom_site_fract_y
_atom_site_fract_z
Si Si1 0.634663 0.319723 0.915283
Si Si2 0.755712 0.828478 0.423845
Si Si3 0.505525 0.820398 0.925659
Si Si4 0.435966 0.249882 0.611597
Si Si5 0.459780 0.000000 0.395912
Si Si6 0.658464 0.675999 0.099128
Si Si7 0.369121 0.666813 0.207782
Si Si8 0.316365 0.000000 0.408156
O O1 0.633046 0.500000 0.928162
O O2 0.542628 0.230157 0.891730
O O3 0.617031 0.306031 0.844448
O O4 0.750000 0.250000 0.000000
O O5 0.651817 0.822965 0.400743
O O6 0.860190 0.824964 0.523379
O O7 0.761760 0.664946 0.394755
O O8 0.755416 0.000000 0.397714
O O9 0.404480 0.724562 0.886964
O O10 0.483481 0.000000 0.916170
O O11 0.604949 0.777277 0.022354
O O12 0.517490 0.337716 0.696669
O O13 0.518888 0.143262 0.628623
O O14 0.353952 0.000000 0.370265
O O15 0.568259 0.000000 0.494817
O O16 0.636634 0.500000 0.073616
O O17 0.784810 0.707897 0.177709
O O18 0.314668 0.500000 0.182304
#
# Coordination Sequence:
#
# PCOD9203103 Si02
#       8
#     8   8   8   8   4   8   8   4
#     4  11  22  38  59  86 120 155 200 253 312 366
#     4  10  20  38  66  99 128 169 217 265 314 386
#     4  11  21  38  60  83 115 152 197 250 308 370
#     4  10  21  37  64  92 126 168 217 258 315 377
#     4   9  18  40  58  94 129 167 204 266 309 382
#     4  11  22  36  60  86 112 151 203 252 305 369
#     4  11  24  39  59  89 124 160 203 256 310 366
#     4   9  20  36  66  92 133 166 209 261 330 368
#
# _framework density 20.056004000000001
#
# number of rings (size 3 to 8) (size 9 to 14) (size 15 to 20)
#    0.000    1.571    2.143    4.286    5.000    0.571 
#    0.000    7.857    0.000    0.000    0.000    0.000 
#    0.000    0.000    0.000    0.000    0.000    0.000 
#
# Total GULP energy -156037.990392 kJ/mol
# GULP energy per Si atom -5572.785371 kJ/mol
# Density = 2.001036 g / cm^3
# Si number density = 20.056004 Si / 1000 Ang^3
#
#
#
# Elastic Constant Matrix: (Units=GPa)
#
#
# Indices 1 2 3 4 5 6 
#
# 1 92.0969 44.6672 13.5769 0.0000 -0.9798 0.0000
# 2 44.6672 104.8101 21.6180 0.0000 -3.5147 0.0000
# 3 13.5769 21.6180 47.5313 0.0000 -1.1193 0.0000
# 4 0.0000 0.0000 0.0000 3.8431 0.0000 2.0166
# 5 -0.9798 -3.5147 -1.1193 0.0000 15.1320 0.0000
# 6 0.0000 0.0000 0.0000 2.0166 0.0000 -11.8231
#
#
#
# Elastic Compliance Matrix: (Units=1/GPa)
#
#
# Indices 1 2 3 4 5 6 
#
# 1 0.013774 -0.005599 -0.001400 0.000000 -0.000512 0.000000
# 2 -0.005599 0.012871 -0.004200 0.000000 0.002316 0.000000
# 3 -0.001400 -0.004200 0.023365 0.000000 0.000662 0.000000
# 4 0.000000 0.000000 0.000000 0.238831 0.000000 0.040736
# 5 -0.000512 0.002316 0.000662 0.000000 0.066639 0.000000
# 6 0.000000 0.000000 0.000000 0.040736 0.000000 -0.077633
#
#
# Mechanical properties :
#
#
# Convention : Reuss Voigt Hill
#
# Bulk Modulus (GPa) = 36.21623 44.90695 40.56159
# Shear Modulus (GPa) = 16.15774 12.40217 14.27995
#
# Velocity S-wave (km/s) = 2.84144 2.48942 2.67123
# Velocity P-wave (km/s) = 5.37232 5.54097 5.45729
#
# Compressibility (1/GPa) = 0.02761193
#
# Stress axis : x y z
#
# Youngs Moduli (GPa) = 72.59813 77.69363 42.79970
#
# Poissons Ratio (x) = 0.43498 0.05993
# Poissons Ratio (y) = 0.40645 0.17977
# Poissons Ratio (z) = 0.10166 0.32633
#
# Static dielectric constant tensor:
#      x y z
#    x 1.700070 0.000000 0.003630 
#    y 0.000000 1.762290 0.000000 
#    z 0.003630 0.000000 1.698260 
# 
# From -- ./inp_files/363262.got.cif
#   From: 2010.05.17/outbox.cif.g08.bks.cpg/sg12_182_cif.got.tgz:363262.got - 2010.06.03 13:09:07.
