data_PCOD9203229
_publ_section_title
;
Structure prediction by ZEFSAII (Michael W. Deem and Ramdas Pophale) SiO2 
 PCOD9203229
Probable space group: C 2/M
;
_chemical_formula_sum "Si O2"
_cell_formula_units_Z 48
_cell_length_a 13.467420
_cell_length_b 25.745777
_cell_length_c 7.842892
_cell_angle_alpha 90.000000
_cell_angle_beta 67.581937
_cell_angle_gamma 90.000000
_cell_volume 2513.846321
_symmetry_space_group_name_H-M "C 2/M"
_symmetry_group_IT_number 12
_symmetry_cell_setting 'monoclinic'
loop_
_space_group_symop_operation_xyz
x,y,z
-x,y,-z
-x,-y,-z
x,-y,z
1/2+x,1/2+y,z
1/2-x,1/2+y,-z
1/2-x,1/2-y,-z
1/2+x,1/2-y,z
loop_
_atom_site_type_symbol
_atom_site_label
_atom_site_fract_x
_atom_site_fract_y
_atom_site_fract_z
Si Si1 0.886957 0.605572 0.622339
Si Si2 0.849505 0.196831 0.747598
Si Si3 0.243958 0.696990 0.187135
Si Si4 0.681579 0.000000 0.780054
Si Si5 0.442347 0.000000 0.780135
Si Si6 0.786550 0.099826 0.559335
Si Si7 0.054139 0.147667 0.779814
O O1 0.826116 0.645261 0.781604
O O2 0.911182 0.550862 0.694169
O O3 0.812987 0.601572 0.505246
O O4 0.000000 0.629562 0.500000
O O5 0.826074 0.254956 0.696554
O O6 0.798776 0.151492 0.665597
O O7 0.969044 0.178239 0.718918
O O8 0.792462 0.201675 0.967916
O O9 0.345543 0.684855 0.241271
O O10 0.756693 0.049871 0.692350
O O11 0.570443 0.000000 0.739352
O O12 0.629919 0.000000 0.001960
O O13 0.892623 0.101252 0.367034
O O14 0.000000 0.133483 0.000000
#
# Coordination Sequence:
#
# PCOD9203229 Si02
#       7
#     8   8   8   4   4   8   8
#     4  11  21  36  57  88 123 157 194 247 313 371
#     4  10  20  39  59  88 122 161 206 259 299 356
#     4   9  21  37  60  87 122 162 207 247 310 367
#     4  11  23  40  63  91 116 163 210 253 308 371
#     4  11  22  41  62  86 130 158 195 263 320 360
#     4  11  22  37  62  88 117 161 206 250 304 368
#     4   9  20  39  59  83 122 163 196 257 315 354
#
# _framework density 19.094245999999998
#
# number of rings (size 3 to 8) (size 9 to 14) (size 15 to 20)
#    0.000    1.833    1.667    2.250    0.000    5.333 
#    0.000    3.750    0.000    2.000    0.000    0.000 
#    0.000    0.000    0.000    0.000    0.000    0.000 
#
# Total GULP energy -133669.560340 kJ/mol
# GULP energy per Si atom -5569.565014 kJ/mol
# Density = 1.905079 g / cm^3
# Si number density = 19.094246 Si / 1000 Ang^3
#
#
#
# Elastic Constant Matrix: (Units=GPa)
#
#
# Indices 1 2 3 4 5 6 
#
# 1 104.6297 50.9046 47.3031 0.0000 -6.3862 0.0000
# 2 50.9046 110.1343 35.2928 0.0000 -3.3954 0.0000
# 3 47.3031 35.2928 74.7333 0.0000 -8.7811 0.0000
# 4 0.0000 0.0000 0.0000 42.8909 0.0000 18.7163
# 5 -6.3862 -3.3954 -8.7811 0.0000 31.2184 0.0000
# 6 0.0000 0.0000 0.0000 18.7163 0.0000 -120.8009
#
#
#
# Elastic Compliance Matrix: (Units=1/GPa)
#
#
# Indices 1 2 3 4 5 6 
#
# 1 0.015170 -0.004640 -0.007348 0.000000 0.000532 0.000000
# 2 -0.004640 0.012121 -0.002837 0.000000 -0.000429 0.000000
# 3 -0.007348 -0.002837 0.019814 0.000000 0.003762 0.000000
# 4 0.000000 0.000000 0.000000 0.021838 0.000000 0.003384
# 5 0.000532 -0.000429 0.003762 0.000000 0.033153 0.000000
# 6 0.000000 0.000000 0.000000 0.003384 0.000000 -0.007754
#
#
# Mechanical properties :
#
#
# Convention : Reuss Voigt Hill
#
# Bulk Modulus (GPa) = 57.29679 61.83313 59.56496
# Shear Modulus (GPa) = 38.51800 1.06146 19.78973
#
# Velocity S-wave (km/s) = 4.49626 0.74640 3.22285
# Velocity P-wave (km/s) = 7.55167 5.76162 6.71654
#
# Compressibility (1/GPa) = 0.01745298
#
# Stress axis : x y z
#
# Youngs Moduli (GPa) = 65.92137 82.50418 50.47034
#
# Poissons Ratio (x) = 0.38286 0.37085
# Poissons Ratio (y) = 0.30590 0.14319
# Poissons Ratio (z) = 0.48438 0.23408
#
# Static dielectric constant tensor:
#      x y z
#    x 1.665550 0.000000 0.007160 
#    y 0.000000 1.674950 0.000000 
#    z 0.007160 0.000000 1.711340 
# 
# From -- ./inp_files/51367.got.cif
#   From: 2010.05.17/outbox.cif.g08.bks.cpg/sg12_26_cif.got.tgz:51367.got - 2010.06.03 13:09:07.
