data_PCOD9203882
_publ_section_title
;
Structure prediction by ZEFSAII (Michael W. Deem and Ramdas Pophale) SiO2 
 PCOD9203882
Probable space group: C 2/M
;
_chemical_formula_sum "Si O2"
_cell_formula_units_Z 64
_cell_length_a 13.878143
_cell_length_b 23.834406
_cell_length_c 9.768503
_cell_angle_alpha 90.000000
_cell_angle_beta 92.347862
_cell_angle_gamma 90.000000
_cell_volume 3228.486477
_symmetry_space_group_name_H-M "C 2/M"
_symmetry_group_IT_number 12
_symmetry_cell_setting 'monoclinic'
loop_
_space_group_symop_operation_xyz
x,y,z
-x,y,-z
-x,-y,-z
x,-y,z
1/2+x,1/2+y,z
1/2-x,1/2+y,-z
1/2-x,1/2-y,-z
1/2+x,1/2-y,z
loop_
_atom_site_type_symbol
_atom_site_label
_atom_site_fract_x
_atom_site_fract_y
_atom_site_fract_z
Si Si1 0.217561 0.562196 0.816478
Si Si2 0.122850 0.152250 0.121891
Si Si3 0.293889 0.265002 0.673261
Si Si4 0.609694 0.066560 0.538540
Si Si5 0.593858 0.749403 0.582315
Si Si6 0.715835 0.129822 0.312726
Si Si7 0.587351 0.347291 0.801698
Si Si8 0.596327 0.064275 0.081781
O O1 0.256348 0.500000 0.787333
O O2 0.299362 0.608012 0.823083
O O3 0.135473 0.573434 0.699233
O O4 0.173346 0.561351 0.964695
O O5 0.152886 0.209942 0.194821
O O6 0.019591 0.130818 0.171382
O O7 0.124691 0.162313 0.958942
O O8 0.352176 0.281886 0.540497
O O9 0.182772 0.284897 0.649443
O O10 0.294167 0.197309 0.682484
O O11 0.500000 0.083737 0.500000
O O12 0.685683 0.101262 0.452853
O O13 0.617671 0.000000 0.506021
O O14 0.500000 0.774389 0.500000
O O15 0.569246 0.706763 0.703093
O O16 0.826260 0.119409 0.269205
O O17 0.640215 0.103177 0.200997
O O18 0.578066 0.000000 0.131360
O O19 0.500000 0.084667 0.000000
#
# Coordination Sequence:
#
# PCOD9203882 Si02
#       8
#     8   8   8   8   8   8   8   8
#     4  10  22  40  63  90 122 162 211 259 309 373
#     4  11  22  45  62  90 123 174 202 266 315 368
#     4  10  24  38  62  91 127 163 208 257 315 367
#     4  10  22  41  64  91 128 168 203 256 320 374
#     4  10  20  40  59  89 119 167 205 251 304 377
#     4  11  22  40  58 100 121 160 213 257 299 382
#     4  10  23  40  66  86 124 167 212 246 323 361
#     4  10  20  40  64  88 125 166 205 256 316 370
#
# _framework density 19.823530000000002
#
# number of rings (size 3 to 8) (size 9 to 14) (size 15 to 20)
#    0.000    1.750    2.500    1.125    5.250    4.500 
#    4.500    2.500    0.000    1.500    0.000    0.000 
#    0.000    0.000    0.000    0.000    0.000    0.000 
#
# Total GULP energy -178395.425837 kJ/mol
# GULP energy per Si atom -5574.857057 kJ/mol
# Density = 1.977841 g / cm^3
# Si number density = 19.823530 Si / 1000 Ang^3
#
#
#
# Elastic Constant Matrix: (Units=GPa)
#
#
# Indices 1 2 3 4 5 6 
#
# 1 88.0674 14.0264 10.0418 0.0000 6.8440 0.0000
# 2 14.0264 61.3634 19.8147 0.0000 9.3169 0.0000
# 3 10.0418 19.8147 78.5534 0.0000 10.6575 0.0000
# 4 0.0000 0.0000 0.0000 16.1244 0.0000 4.1630
# 5 6.8440 9.3169 10.6575 0.0000 40.8673 0.0000
# 6 0.0000 0.0000 0.0000 4.1630 0.0000 22.3641
#
#
#
# Elastic Compliance Matrix: (Units=1/GPa)
#
#
# Indices 1 2 3 4 5 6 
#
# 1 0.011905 -0.002278 -0.000775 0.000000 -0.001272 0.000000
# 2 -0.002278 0.018535 -0.004004 0.000000 -0.002800 0.000000
# 3 -0.000775 -0.004004 0.014200 0.000000 -0.002661 0.000000
# 4 0.000000 0.000000 0.000000 0.065149 0.000000 -0.012127
# 5 -0.001272 -0.002800 -0.002661 0.000000 0.026015 0.000000
# 6 0.000000 0.000000 0.000000 -0.012127 0.000000 0.046972
#
#
# Mechanical properties :
#
#
# Convention : Reuss Voigt Hill
#
# Bulk Modulus (GPa) = 32.75831 35.08335 33.92083
# Shear Modulus (GPa) = 24.14701 28.14459 26.14580
#
# Velocity S-wave (km/s) = 3.49391 3.77205 3.63564
# Velocity P-wave (km/s) = 5.73039 6.05867 5.89681
#
# Compressibility (1/GPa) = 0.03052660
#
# Stress axis : x y z
#
# Youngs Moduli (GPa) = 83.99867 53.95142 70.42126
#
# Poissons Ratio (x) = 0.12290 0.05455
# Poissons Ratio (y) = 0.19134 0.28199
# Poissons Ratio (z) = 0.06507 0.21604
#
# Static dielectric constant tensor:
#      x y z
#    x 1.740260 0.000000 -0.002200 
#    y 0.000000 1.729030 0.000000 
#    z -0.002200 0.000000 1.694100 
# 
# From -- ./inp_files/65898.got.cif
#   From: 2010.05.17/outbox.cif.g08.bks.cpg/sg12_33_cif.got.tgz:65898.got - 2010.06.03 13:09:07.
