data_PCOD9203710
_publ_section_title
;
Structure prediction by ZEFSAII (Michael W. Deem and Ramdas Pophale) SiO2 
 PCOD9203710
Probable space group: C 2/M
;
_chemical_formula_sum "Si O2"
_cell_formula_units_Z 56
_cell_length_a 20.520869
_cell_length_b 8.679483
_cell_length_c 26.829549
_cell_angle_alpha 90.000000
_cell_angle_beta 142.072279
_cell_angle_gamma 90.000000
_cell_volume 2937.262817
_symmetry_space_group_name_H-M "C 2/M"
_symmetry_group_IT_number 12
_symmetry_cell_setting 'monoclinic'
loop_
_space_group_symop_operation_xyz
x,y,z
-x,y,-z
-x,-y,-z
x,-y,z
1/2+x,1/2+y,z
1/2-x,1/2+y,-z
1/2-x,1/2-y,-z
1/2+x,1/2-y,z
loop_
_atom_site_type_symbol
_atom_site_label
_atom_site_fract_x
_atom_site_fract_y
_atom_site_fract_z
Si Si1 0.489333 0.313639 0.935773
Si Si2 0.237475 0.815139 0.362972
Si Si3 0.009837 0.183655 0.770147
Si Si4 0.938305 0.314676 0.304321
Si Si5 0.156621 0.816727 0.478605
Si Si6 0.633652 0.183180 0.938667
Si Si7 0.264473 0.687442 0.753342
O O1 0.494115 0.500000 0.935420
O O2 0.582682 0.245105 0.958804
O O3 0.376538 0.263259 0.844432
O O4 0.500000 0.270701 0.000000
O O5 0.116263 0.786107 0.306620
O O6 0.314419 0.730620 0.447644
O O7 0.247448 0.765536 0.311461
O O8 0.255452 0.000000 0.376753
O O9 0.061834 0.249822 0.751673
O O10 0.059643 0.259032 0.848994
O O11 0.024315 0.000000 0.781503
O O12 0.940500 0.500000 0.303971
O O13 0.834961 0.264977 0.273058
O O14 0.045073 0.254277 0.394663
O O15 0.250000 0.750000 0.500000
O O16 0.153439 0.000000 0.470716
O O17 0.637720 0.000000 0.941694
O O18 0.750000 0.250000 0.000000
O O19 0.266411 0.500000 0.754198
#
# Coordination Sequence:
#
# PCOD9203710 Si02
#       7
#     8   8   8   8   8   8   8
#     4  10  21  41  68  95 128 168 208 256 316 382
#     4  10  20  39  66  89 120 162 207 252 307 374
#     4  11  22  40  66  93 126 165 207 258 315 371
#     4  11  23  39  63  94 127 165 211 254 306 376
#     4  12  24  39  60  89 125 162 209 263 315 368
#     4  12  26  43  65  95 130 167 214 265 315 373
#     4   9  20  40  63  91 124 165 207 247 304 379
#
# _framework density 19.065370000000001
#
# number of rings (size 3 to 8) (size 9 to 14) (size 15 to 20)
#    0.000    1.286    2.857    3.429    2.000    1.429 
#    0.000    5.714    0.000    0.000    0.000    0.000 
#    0.000    0.000    0.000    0.000    0.000    0.000 
#
# Total GULP energy -156575.233623 kJ/mol
# GULP energy per Si atom -5591.972629 kJ/mol
# Density = 1.902198 g / cm^3
# Si number density = 19.065370 Si / 1000 Ang^3
#
#
#
# Elastic Constant Matrix: (Units=GPa)
#
#
# Indices 1 2 3 4 5 6 
#
# 1 175.1034 48.0019 57.1569 0.0000 -6.5035 0.0000
# 2 48.0019 57.1889 32.0049 0.0000 -0.5094 0.0001
# 3 57.1569 32.0049 85.3455 0.0000 -9.5227 0.0000
# 4 0.0000 0.0000 0.0000 29.1450 0.0000 -3.0169
# 5 -6.5035 -0.5094 -9.5227 0.0000 39.9859 0.0000
# 6 0.0000 0.0001 0.0000 -3.0169 0.0000 28.1944
#
#
#
# Elastic Compliance Matrix: (Units=1/GPa)
#
#
# Indices 1 2 3 4 5 6 
#
# 1 0.008257 -0.004883 -0.003653 0.000000 0.000411 0.000000
# 2 -0.004883 0.025136 -0.006379 0.000000 -0.001993 0.000000
# 3 -0.003653 -0.006379 0.016930 0.000000 0.003357 0.000000
# 4 0.000000 0.000000 0.000000 0.034696 0.000000 0.003713
# 5 0.000411 -0.001993 0.003357 0.000000 0.025850 0.000000
# 6 0.000000 0.000000 0.000000 0.003713 0.000000 0.035865
#
#
# Mechanical properties :
#
#
# Convention : Reuss Voigt Hill
#
# Bulk Modulus (GPa) = 48.79284 65.77392 57.28338
# Shear Modulus (GPa) = 27.26376 31.49666 29.38021
#
# Velocity S-wave (km/s) = 3.78566 4.06893 3.92985
# Velocity P-wave (km/s) = 6.69001 7.52655 7.12058
#
# Compressibility (1/GPa) = 0.02049481
#
# Stress axis : x y z
#
# Youngs Moduli (GPa) = 121.10828 39.78348 59.06661
#
# Poissons Ratio (x) = 0.19425 0.21577
# Poissons Ratio (y) = 0.59133 0.37676
# Poissons Ratio (z) = 0.44241 0.25376
#
# Static dielectric constant tensor:
#      x y z
#    x 1.643030 0.000000 -0.004650 
#    y 0.000000 1.641550 0.000000 
#    z -0.004650 0.000000 1.642770 
# 
# From -- ./inp_files/363159.got.cif
#   From: 2010.05.17/outbox.cif.g08.bks.cpg/sg12_182_cif.got.tgz:363159.got - 2010.06.03 13:09:07.
