data_PCOD9203853
_publ_section_title
;
Structure prediction by ZEFSAII (Michael W. Deem and Ramdas Pophale) SiO2 
 PCOD9203853
Probable space group: C 2/M
;
_chemical_formula_sum "Si O2"
_cell_formula_units_Z 64
_cell_length_a 9.097458
_cell_length_b 22.669433
_cell_length_c 19.511119
_cell_angle_alpha 90.000000
_cell_angle_beta 46.591573
_cell_angle_gamma 90.000000
_cell_volume 2923.228309
_symmetry_space_group_name_H-M "C 2/M"
_symmetry_group_IT_number 12
_symmetry_cell_setting 'monoclinic'
loop_
_space_group_symop_operation_xyz
x,y,z
-x,y,-z
-x,-y,-z
x,-y,z
1/2+x,1/2+y,z
1/2-x,1/2+y,-z
1/2-x,1/2-y,-z
1/2+x,1/2-y,z
loop_
_atom_site_type_symbol
_atom_site_label
_atom_site_fract_x
_atom_site_fract_y
_atom_site_fract_z
Si Si1 0.591392 0.731479 0.287210
Si Si2 0.259449 0.216202 0.088203
Si Si3 0.542440 0.069119 0.191630
Si Si4 0.836454 0.564709 0.698163
Si Si5 0.168765 0.673237 0.673740
Si Si6 0.290347 0.654997 0.028234
Si Si7 0.695230 0.409839 0.475189
Si Si8 0.735985 0.142308 0.406616
O O1 0.700251 0.706169 0.185051
O O2 0.722388 0.719322 0.311905
O O3 0.540219 0.798846 0.285909
O O4 0.378502 0.698701 0.365230
O O5 0.195914 0.282823 0.086537
O O6 0.500000 0.214062 0.000000
O O7 0.170701 0.169026 0.063693
O O8 0.688290 0.072925 0.212340
O O9 0.363261 0.113643 0.271618
O O10 0.648846 0.100447 0.093223
O O11 0.492129 0.000000 0.198519
O O12 0.757603 0.500000 0.704624
O O13 0.755928 0.612248 0.670447
O O14 0.082548 0.563532 0.609781
O O15 0.283334 0.653877 0.568813
O O16 0.500000 0.647126 0.000000
O O17 0.500000 0.436548 0.500000
O O18 0.680103 0.401586 0.561126
O O19 0.500000 0.153888 0.500000
#
# Coordination Sequence:
#
# PCOD9203853 Si02
#       8
#     8   8   8   8   8   8   8   8
#     4  12  25  39  67  94 131 174 210 267 329 392
#     4  10  22  38  61  95 129 165 209 270 316 384
#     4  10  21  42  67  92 132 171 215 269 323 389
#     4   9  21  39  64  91 123 171 225 274 320 378
#     4  11  25  39  64  96 127 172 218 263 332 386
#     4  10  21  36  61  93 128 160 215 264 318 383
#     4  10  20  40  55  88 132 164 216 265 324 392
#     4  10  23  39  61  90 130 172 213 265 324 389
#
# _framework density 21.893602999999999
#
# number of rings (size 3 to 8) (size 9 to 14) (size 15 to 20)
#    0.000    1.750    2.500    0.750   10.500    3.750 
#    0.000    0.625    0.000    3.375    0.000    0.000 
#    0.000    0.000    0.000    0.000    0.000    0.000 
#
# Total GULP energy -178621.756504 kJ/mol
# GULP energy per Si atom -5581.929891 kJ/mol
# Density = 2.184377 g / cm^3
# Si number density = 21.893603 Si / 1000 Ang^3
#
#
#
# Elastic Constant Matrix: (Units=GPa)
#
#
# Indices 1 2 3 4 5 6 
#
# 1 95.2354 24.6168 9.8549 0.0000 10.3751 0.0000
# 2 24.6168 85.3713 8.4340 0.0000 1.8238 0.0000
# 3 9.8549 8.4340 36.6298 0.0000 10.5065 0.0000
# 4 0.0000 0.0000 0.0000 3.3677 0.0000 -1.8796
# 5 10.3751 1.8238 10.5065 0.0000 31.9072 0.0000
# 6 0.0000 0.0000 0.0000 -1.8796 0.0000 -1.8622
#
#
#
# Elastic Compliance Matrix: (Units=1/GPa)
#
#
# Indices 1 2 3 4 5 6 
#
# 1 0.011829 -0.003191 -0.001542 0.000000 -0.003156 0.000000
# 2 -0.003191 0.012849 -0.002415 0.000000 0.001098 0.000000
# 3 -0.001542 -0.002415 0.031017 0.000000 -0.009574 0.000000
# 4 0.000000 0.000000 0.000000 0.189935 0.000000 -0.191714
# 5 -0.003156 0.001098 -0.009574 0.000000 0.035457 0.000000
# 6 0.000000 0.000000 0.000000 -0.191714 0.000000 -0.343491
#
#
# Mechanical properties :
#
#
# Convention : Reuss Voigt Hill
#
# Bulk Modulus (GPa) = 24.15584 33.67200 28.91392
# Shear Modulus (GPa) = -145.73544 18.30460 -63.71542
#
# Velocity S-wave (km/s) = -8.16761 2.89463 -5.40051
# Velocity P-wave (km/s) = 8.82548 5.15607 5.06479
#
# Compressibility (1/GPa) = 0.04139786
#
# Stress axis : x y z
#
# Youngs Moduli (GPa) = 84.54139 77.82850 32.24008
#
# Poissons Ratio (x) = 0.24835 0.04973
# Poissons Ratio (y) = 0.26977 0.07786
# Poissons Ratio (z) = 0.13040 0.18795
#
# Static dielectric constant tensor:
#      x y z
#    x 1.825480 0.000000 -0.001320 
#    y 0.000000 1.825510 0.000000 
#    z -0.001320 0.000000 1.833540 
# 
# From -- ./inp_files/302291.got.cif
#   From: 2010.05.17/outbox.cif.g08.bks.cpg/sg12_152_cif.got.tgz:302291.got - 2010.06.03 13:09:07.
