data_PCOD9203416
_publ_section_title
;
Structure prediction by ZEFSAII (Michael W. Deem and Ramdas Pophale) SiO2 
 PCOD9203416
Probable space group: C 2/M
;
_chemical_formula_sum "Si O2"
_cell_formula_units_Z 64
_cell_length_a 13.280491
_cell_length_b 19.338669
_cell_length_c 20.458098
_cell_angle_alpha 90.000000
_cell_angle_beta 31.706748
_cell_angle_gamma 90.000000
_cell_volume 2761.455595
_symmetry_space_group_name_H-M "C 2/M"
_symmetry_group_IT_number 12
_symmetry_cell_setting 'monoclinic'
loop_
_space_group_symop_operation_xyz
x,y,z
-x,y,-z
-x,-y,-z
x,-y,z
1/2+x,1/2+y,z
1/2-x,1/2+y,-z
1/2-x,1/2-y,-z
1/2+x,1/2-y,z
loop_
_atom_site_type_symbol
_atom_site_label
_atom_site_fract_x
_atom_site_fract_y
_atom_site_fract_z
Si Si1 0.000135 0.579248 0.252425
Si Si2 0.048033 0.280338 0.045455
Si Si3 0.907609 0.120833 0.984325
Si Si4 0.069596 0.074688 0.759110
Si Si5 0.538726 0.234547 0.591712
Si Si6 0.539888 0.286813 0.229781
Si Si7 0.018910 0.577913 0.399087
Si Si8 0.266563 0.815218 0.312136
O O1 0.998125 0.500000 0.231069
O O2 0.034905 0.578177 0.311107
O O3 0.809523 0.619609 0.334780
O O4 0.181487 0.618867 0.121589
O O5 0.914049 0.320363 0.169519
O O6 0.007967 0.198059 0.069575
O O7 0.278772 0.284544 0.919119
O O8 0.000000 0.306953 0.000000
O O9 0.000000 0.090359 0.000000
O O10 0.955642 0.083630 0.890363
O O11 0.287293 0.078130 0.665256
O O12 0.015376 0.133088 0.737087
O O13 0.028534 0.000000 0.753788
O O14 0.750000 0.250000 0.500000
O O15 0.418569 0.245901 0.726109
O O16 0.547192 0.157916 0.556599
O O17 0.439518 0.291674 0.600412
O O18 0.356942 0.250073 0.299578
O O19 0.931506 0.500000 0.460372
#
# Coordination Sequence:
#
# PCOD9203416 Si02
#       8
#     8   8   8   8   8   8   8   8
#     4  11  22  35  57  90 129 167 204 257 316 368
#     4  11  20  34  61  91 127 163 202 252 314 368
#     4  11  18  28  52  92 131 167 206 257 309 368
#     4  11  22  35  57  90 129 167 204 257 316 368
#     4  12  26  45  67  94 121 164 210 262 312 368
#     4  12  22  40  64  91 125 161 210 254 305 379
#     4  10  20  39  62  93 127 151 197 270 324 352
#     4  12  22  40  64  91 125 161 210 254 305 379
#
# _framework density 23.176183000000002
#
# number of rings (size 3 to 8) (size 9 to 14) (size 15 to 20)
#    0.000    0.750    7.500    1.500    0.000    1.000 
#    0.000    1.875    0.000    3.750    0.000    0.000 
#    0.000    0.000    0.000    0.000    0.000    0.000 
#
# Total GULP energy -178718.132082 kJ/mol
# GULP energy per Si atom -5584.941628 kJ/mol
# Density = 2.312343 g / cm^3
# Si number density = 23.176183 Si / 1000 Ang^3
#
#
#
# Elastic Constant Matrix: (Units=GPa)
#
#
# Indices 1 2 3 4 5 6 
#
# 1 88.5146 33.3575 31.9558 0.0012 -7.3441 0.0016
# 2 33.3575 130.1177 15.1759 0.0066 -6.3802 -0.0013
# 3 31.9558 15.1759 73.2931 0.0125 -1.7407 0.0000
# 4 0.0012 0.0066 0.0125 12.8277 -0.0052 -5.2501
# 5 -7.3441 -6.3802 -1.7407 -0.0052 49.1586 -0.0016
# 6 0.0016 -0.0013 0.0000 -5.2501 -0.0016 34.3162
#
#
#
# Elastic Compliance Matrix: (Units=1/GPa)
#
#
# Indices 1 2 3 4 5 6 
#
# 1 0.014626 -0.003005 -0.005717 0.000007 0.001593 0.000000
# 2 -0.003005 0.008539 -0.000443 -0.000003 0.000644 0.000000
# 3 -0.005717 -0.000443 0.016220 -0.000016 -0.000337 -0.000002
# 4 0.000007 -0.000003 -0.000016 0.083164 0.000009 0.012723
# 5 0.001593 0.000644 -0.000337 0.000009 0.020652 0.000002
# 6 0.000000 0.000000 -0.000002 0.012723 0.000002 0.031087
#
#
# Mechanical properties :
#
#
# Convention : Reuss Voigt Hill
#
# Bulk Modulus (GPa) = 47.49189 50.32263 48.90726
# Shear Modulus (GPa) = 25.04563 33.35623 29.20093
#
# Velocity S-wave (km/s) = 3.29091 3.79786 3.55343
# Velocity P-wave (km/s) = 5.91407 6.40249 6.16312
#
# Compressibility (1/GPa) = 0.02105623
#
# Stress axis : x y z
#
# Youngs Moduli (GPa) = 68.37133 117.11187 61.65188
#
# Poissons Ratio (x) = 0.35189 0.35246
# Poissons Ratio (y) = 0.20544 0.02729
# Poissons Ratio (z) = 0.39088 0.05184
#
# Static dielectric constant tensor:
#      x y z
#    x 1.896360 0.000000 0.045730 
#    y 0.000000 1.869640 0.000010 
#    z 0.045730 0.000010 2.009630 
# 
# From -- ./inp_files/340796.got.cif
#   From: 2010.05.17/outbox.cif.g08.bks.cpg/sg12_171_cif.got.tgz:340796.got - 2010.06.03 13:09:07.
