data_PCOD9203389
_publ_section_title
;
Structure prediction by ZEFSAII (Michael W. Deem and Ramdas Pophale) SiO2 
 PCOD9203389
Probable space group: C 2/M
;
_chemical_formula_sum "Si O2"
_cell_formula_units_Z 56
_cell_length_a 30.843003
_cell_length_b 8.992985
_cell_length_c 11.916441
_cell_angle_alpha 90.000000
_cell_angle_beta 61.863425
_cell_angle_gamma 90.000000
_cell_volume 2914.674078
_symmetry_space_group_name_H-M "C 2/M"
_symmetry_group_IT_number 12
_symmetry_cell_setting 'monoclinic'
loop_
_space_group_symop_operation_xyz
x,y,z
-x,y,-z
-x,-y,-z
x,-y,z
1/2+x,1/2+y,z
1/2-x,1/2+y,-z
1/2-x,1/2-y,-z
1/2+x,1/2-y,z
loop_
_atom_site_type_symbol
_atom_site_label
_atom_site_fract_x
_atom_site_fract_y
_atom_site_fract_z
Si Si1 0.610280 0.671197 0.035423
Si Si2 0.345932 0.670365 0.254597
Si Si3 0.090075 0.676116 0.639386
Si Si4 0.662008 0.825849 0.364888
Si Si5 0.249397 0.675373 0.622673
Si Si6 0.695790 0.174642 0.069117
Si Si7 0.502911 0.680226 0.128287
O O1 0.613731 0.500000 0.070299
O O2 0.655451 0.758590 0.033934
O O3 0.554908 0.728201 0.119512
O O4 0.615979 0.668570 0.893601
O O5 0.336872 0.500000 0.301658
O O6 0.366634 0.766675 0.331100
O O7 0.296979 0.743834 0.265177
O O8 0.083477 0.500000 0.660603
O O9 0.109741 0.704908 0.488866
O O10 0.041907 0.758583 0.743271
O O11 0.701603 0.719060 0.373316
O O12 0.670121 0.808991 0.222756
O O13 0.673434 0.000000 0.378331
O O14 0.242496 0.500000 0.624512
O O15 0.250000 0.750000 0.500000
O O16 0.703020 0.000000 0.037992
O O17 0.750000 0.250000 0.000000
O O18 0.501539 0.500000 0.130195
O O19 0.500000 0.726943 0.000000
#
# Coordination Sequence:
#
# PCOD9203389 Si02
#       7
#     8   8   8   8   8   8   8
#     4  10  22  40  63  89 121 160 203 252 305 364
#     4  11  21  36  57  84 120 159 196 243 304 362
#     4  11  22  36  58  88 120 155 199 248 301 363
#     4  10  23  42  59  82 121 163 200 250 310 362
#     4  12  23  34  53  84 118 154 196 244 299 365
#     4  11  24  43  66  90 121 161 206 255 305 363
#     4  10  20  39  62  88 124 164 201 246 310 367
#
# _framework density 19.213127
#
# number of rings (size 3 to 8) (size 9 to 14) (size 15 to 20)
#    0.000    1.286    2.857    3.429    0.000    7.143 
#    0.000    0.714    0.000    4.286    0.000    0.000 
#    0.000    0.000    0.000    0.000    0.000    0.000 
#
# Total GULP energy -156283.677555 kJ/mol
# GULP energy per Si atom -5581.559913 kJ/mol
# Density = 1.916940 g / cm^3
# Si number density = 19.213127 Si / 1000 Ang^3
#
#
#
# Elastic Constant Matrix: (Units=GPa)
#
#
# Indices 1 2 3 4 5 6 
#
# 1 98.2109 34.4603 40.1426 0.0000 -19.9653 0.0000
# 2 34.4603 60.8225 34.7826 0.0000 -4.2842 0.0000
# 3 40.1426 34.7826 96.4448 0.0000 -22.8504 0.0000
# 4 0.0000 0.0000 0.0000 24.4730 0.0000 -6.1247
# 5 -19.9653 -4.2842 -22.8504 0.0000 34.7872 0.0000
# 6 0.0000 0.0000 0.0000 -6.1247 0.0000 31.4637
#
#
#
# Elastic Compliance Matrix: (Units=1/GPa)
#
#
# Indices 1 2 3 4 5 6 
#
# 1 0.014663 -0.006570 -0.002288 0.000000 0.006104 0.000000
# 2 -0.006570 0.023888 -0.007197 0.000000 -0.005556 0.000000
# 3 -0.002288 -0.007197 0.015864 0.000000 0.008221 0.000000
# 4 0.000000 0.000000 0.000000 0.042954 0.000000 0.008361
# 5 0.006104 -0.005556 0.008221 0.000000 0.036965 0.000000
# 6 0.000000 0.000000 0.000000 0.008361 0.000000 0.033410
#
#
# Mechanical properties :
#
#
# Convention : Reuss Voigt Hill
#
# Bulk Modulus (GPa) = 44.82963 52.69435 48.76199
# Shear Modulus (GPa) = 24.12089 27.88429 26.00259
#
# Velocity S-wave (km/s) = 3.54706 3.81375 3.68282
# Velocity P-wave (km/s) = 6.33711 6.84680 6.59688
#
# Compressibility (1/GPa) = 0.02230668
#
# Stress axis : x y z
#
# Youngs Moduli (GPa) = 68.19790 41.86232 63.03465
#
# Poissons Ratio (x) = 0.27502 0.14421
# Poissons Ratio (y) = 0.44803 0.45367
# Poissons Ratio (z) = 0.15602 0.30129
#
# Static dielectric constant tensor:
#      x y z
#    x 1.672390 0.000000 -0.048910 
#    y 0.000000 1.652370 0.000000 
#    z -0.048910 0.000000 1.764730 
# 
# From -- ./inp_files/186372.got.cif
#   From: 2010.05.17/outbox.cif.g08.bks.cpg/sg12_94_cif.got.tgz:186372.got - 2010.06.03 13:09:07.
