data_PCOD9203294
_publ_section_title
;
Structure prediction by ZEFSAII (Michael W. Deem and Ramdas Pophale) SiO2 
 PCOD9203294
Probable space group: C 2/M
;
_chemical_formula_sum "Si O2"
_cell_formula_units_Z 56
_cell_length_a 23.057602
_cell_length_b 12.633506
_cell_length_c 9.812997
_cell_angle_alpha 90.000000
_cell_angle_beta 60.213169
_cell_angle_gamma 90.000000
_cell_volume 2480.842560
_symmetry_space_group_name_H-M "C 2/M"
_symmetry_group_IT_number 12
_symmetry_cell_setting 'monoclinic'
loop_
_space_group_symop_operation_xyz
x,y,z
-x,y,-z
-x,-y,-z
x,-y,z
1/2+x,1/2+y,z
1/2-x,1/2+y,-z
1/2-x,1/2-y,-z
1/2+x,1/2-y,z
loop_
_atom_site_type_symbol
_atom_site_label
_atom_site_fract_x
_atom_site_fract_y
_atom_site_fract_z
Si Si1 0.608681 0.838114 0.181746
Si Si2 0.727120 0.834652 0.839904
Si Si3 0.520381 0.180504 0.818956
Si Si4 0.593863 0.375514 0.635237
Si Si5 0.830655 0.674751 0.386546
Si Si6 0.621804 0.385841 0.284498
Si Si7 0.714590 0.886075 0.266807
O O1 0.536450 0.867981 0.210799
O O2 0.605218 0.711893 0.208758
O O3 0.641102 0.879168 0.283611
O O4 0.665246 0.866183 0.005240
O O5 0.707333 0.851390 0.706786
O O6 0.741651 0.709364 0.842229
O O7 0.702147 0.613974 0.208571
O O8 0.533471 0.305248 0.766698
O O9 0.593605 0.132395 0.710850
O O10 0.500000 0.171277 0.000000
O O11 0.596545 0.500000 0.668056
O O12 0.656359 0.302234 0.611901
O O13 0.593606 0.368249 0.470681
O O14 0.796064 0.632978 0.561653
O O15 0.598129 0.500000 0.262803
O O16 0.744416 0.000000 0.202926
#
# Coordination Sequence:
#
# PCOD9203294 Si02
#       7
#     8   8   8   8   8   8   8
#     4  11  21  39  63  86 121 158 192 241 296 351
#     4  11  21  38  62  88 122 160 193 238 298 350
#     4  10  20  39  61  85 119 157 190 240 296 355
#     4   9  19  35  58  87 118 151 191 235 291 355
#     4  10  21  40  60  87 120 155 197 241 295 343
#     4  10  21  36  58  89 119 153 197 241 291 349
#     4  11  24  40  61  90 118 155 204 247 288 341
#
# _framework density 22.572976000000001
#
# number of rings (size 3 to 8) (size 9 to 14) (size 15 to 20)
#    0.857    0.857    4.286    2.143    0.000    6.571 
#    0.000    4.286    0.000    0.857    0.000    0.000 
#    0.000    0.000    0.000    0.000    0.000    0.000 
#
# Total GULP energy -156370.235929 kJ/mol
# GULP energy per Si atom -5584.651283 kJ/mol
# Density = 2.252160 g / cm^3
# Si number density = 22.572976 Si / 1000 Ang^3
#
#
#
# Elastic Constant Matrix: (Units=GPa)
#
#
# Indices 1 2 3 4 5 6 
#
# 1 109.4752 -10.7026 15.6314 0.0000 7.3951 0.0000
# 2 -10.7026 93.4666 -4.7601 0.0000 6.3527 0.0000
# 3 15.6314 -4.7601 59.7414 0.0000 11.3249 0.0000
# 4 0.0000 0.0000 0.0000 -26.9533 0.0000 -7.9585
# 5 7.3951 6.3527 11.3249 0.0000 28.2519 0.0000
# 6 0.0000 0.0000 0.0000 -7.9585 0.0000 -9.4691
#
#
#
# Elastic Compliance Matrix: (Units=1/GPa)
#
#
# Indices 1 2 3 4 5 6 
#
# 1 0.009673 0.001135 -0.002069 0.000000 -0.001958 0.000000
# 2 0.001135 0.011114 0.001211 0.000000 -0.003281 0.000000
# 3 -0.002069 0.001211 0.018750 0.000000 -0.007247 0.000000
# 4 0.000000 0.000000 0.000000 -0.049348 0.000000 0.041475
# 5 -0.001958 -0.003281 -0.007247 0.000000 0.039551 0.000000
# 6 0.000000 0.000000 0.000000 0.041475 0.000000 -0.140466
#
#
# Mechanical properties :
#
#
# Convention : Reuss Voigt Hill
#
# Bulk Modulus (GPa) = 24.94376 29.22451 27.08414
# Shear Modulus (GPa) = -51.06488 15.86689 -17.59899
#
# Velocity S-wave (km/s) = -4.76143 2.65413 -2.79525
# Velocity P-wave (km/s) = 4.37653 4.72941 1.26753
#
# Compressibility (1/GPa) = 0.04009018
#
# Stress axis : x y z
#
# Youngs Moduli (GPa) = 103.37828 89.97912 53.33206
#
# Poissons Ratio (x) = -0.10216 0.11037
# Poissons Ratio (y) = -0.11737 -0.06456
# Poissons Ratio (z) = 0.21393 -0.10892
#
# Static dielectric constant tensor:
#      x y z
#    x 1.831500 0.000000 -0.005670 
#    y 0.000000 1.884720 0.000000 
#    z -0.005670 0.000000 1.789310 
# 
# From -- ./inp_files/104463.got.cif
#   From: 2010.05.17/outbox.cif.g08.bks.cpg/sg12_53_cif.got.tgz:104463.got - 2010.06.03 13:09:07.
