data_PCOD9203926
_publ_section_title
;
Structure prediction by ZEFSAII (Michael W. Deem and Ramdas Pophale) SiO2 
 PCOD9203926
Probable space group: C 2/M
;
_chemical_formula_sum "Si O2"
_cell_formula_units_Z 64
_cell_length_a 28.378208
_cell_length_b 14.548728
_cell_length_c 20.746109
_cell_angle_alpha 90.000000
_cell_angle_beta 159.313016
_cell_angle_gamma 90.000000
_cell_volume 3025.826164
_symmetry_space_group_name_H-M "C 2/M"
_symmetry_group_IT_number 12
_symmetry_cell_setting 'monoclinic'
loop_
_space_group_symop_operation_xyz
x,y,z
-x,y,-z
-x,-y,-z
x,-y,z
1/2+x,1/2+y,z
1/2-x,1/2+y,-z
1/2-x,1/2-y,-z
1/2+x,1/2-y,z
loop_
_atom_site_type_symbol
_atom_site_label
_atom_site_fract_x
_atom_site_fract_y
_atom_site_fract_z
Si Si1 0.560806 0.707384 0.420062
Si Si2 0.431603 0.104566 0.247471
Si Si3 0.261362 0.342914 0.473716
Si Si4 0.974365 0.901081 0.841950
Si Si5 0.725412 0.897747 0.818992
Si Si6 0.683434 0.608126 0.845341
Si Si7 0.300404 0.297196 0.268868
Si Si8 0.002343 0.301718 0.078370
O O1 0.541971 0.817067 0.392213
O O2 0.651209 0.673481 0.477936
O O3 0.414569 0.663001 0.232820
O O4 0.625136 0.679187 0.570276
O O5 0.336523 0.111055 0.189047
O O6 0.482620 0.000000 0.309723
O O7 0.334782 0.122094 0.062794
O O8 0.250000 0.250000 0.500000
O O9 0.349066 0.403830 0.633529
O O10 0.112138 0.360708 0.257547
O O11 0.964064 0.807791 0.870388
O O12 0.981859 0.000000 0.886368
O O13 0.113276 0.892643 0.979215
O O14 0.674952 0.810838 0.714111
O O15 0.687356 0.000000 0.746025
O O16 0.655122 0.500000 0.812734
O O17 0.661385 0.646741 0.745655
O O18 0.143933 0.312889 0.079970
O O19 0.000000 0.324291 0.000000
#
# Coordination Sequence:
#
# PCOD9203926 Si02
#       8
#     8   8   8   8   8   8   8   8
#     4  12  23  38  64  93 122 164 208 252 311 365
#     4  10  22  38  60  91 126 158 198 249 308 370
#     4  10  22  38  62  88 118 161 206 254 295 357
#     4   9  19  35  60  90 116 152 201 252 303 355
#     4   9  18  35  59  91 126 159 196 242 306 377
#     4  11  25  42  63  93 126 165 209 257 307 364
#     4  11  23  38  63  90 127 169 200 251 314 371
#     4  10  20  40  61  85 120 160 204 246 306 373
#
# _framework density 21.151247999999999
#
# number of rings (size 3 to 8) (size 9 to 14) (size 15 to 20)
#    0.000    1.750    2.500    1.500    5.250    3.250 
#    0.000    4.375    0.000    0.750    0.000    0.000 
#    0.000    0.000    0.000    0.000    0.000    0.000 
#
# Total GULP energy -178688.497062 kJ/mol
# GULP energy per Si atom -5584.015533 kJ/mol
# Density = 2.110311 g / cm^3
# Si number density = 21.151248 Si / 1000 Ang^3
#
#
#
# Elastic Constant Matrix: (Units=GPa)
#
#
# Indices 1 2 3 4 5 6 
#
# 1 53.0043 -4.6752 -1.5149 0.0000 -6.6029 0.0000
# 2 -4.6752 37.7004 -7.5088 0.0000 6.7094 0.0000
# 3 -1.5149 -7.5088 47.7731 -0.0001 2.6935 -0.0001
# 4 0.0000 0.0000 -0.0001 -0.2247 0.0000 -5.3682
# 5 -6.6029 6.7094 2.6935 0.0000 25.5614 0.0000
# 6 0.0000 0.0000 -0.0001 -5.3682 0.0000 1.2069
#
#
#
# Elastic Compliance Matrix: (Units=1/GPa)
#
#
# Indices 1 2 3 4 5 6 
#
# 1 0.019604 0.001751 0.000641 0.000000 0.004537 0.000000
# 2 0.001751 0.029127 0.005069 0.000000 -0.007727 0.000000
# 3 0.000641 0.005069 0.021945 0.000000 -0.003477 0.000000
# 4 0.000000 0.000000 0.000000 -0.041491 0.000000 -0.184547
# 5 0.004537 -0.007727 -0.003477 0.000000 0.042688 0.000000
# 6 0.000000 0.000000 0.000000 -0.184547 0.000000 0.007725
#
#
# Mechanical properties :
#
#
# Convention : Reuss Voigt Hill
#
# Bulk Modulus (GPa) = 11.68220 12.34223 12.01222
# Shear Modulus (GPa) = 53.64352 15.45382 34.54867
#
# Velocity S-wave (km/s) = 5.04152 2.70596 4.04593
# Velocity P-wave (km/s) = 6.27889 3.95105 5.24572
#
# Compressibility (1/GPa) = 0.08560032
#
# Stress axis : x y z
#
# Youngs Moduli (GPa) = 51.00904 34.33249 45.56756
#
# Poissons Ratio (x) = -0.06013 -0.02921
# Poissons Ratio (y) = -0.08934 -0.23099
# Poissons Ratio (z) = -0.03270 -0.17404
#
# Static dielectric constant tensor:
#      x y z
#    x 1.712800 0.000000 -0.014150 
#    y 0.000000 1.754550 0.000000 
#    z -0.014150 0.000000 1.722090 
# 
# From -- ./inp_files/189415.got.cif
#   From: 2010.05.17/outbox.cif.g08.bks.cpg/sg12_95_cif.got.tgz:189415.got - 2010.06.03 13:09:07.
