data_PCOD9203612
_publ_section_title
;
Structure prediction by ZEFSAII (Michael W. Deem and Ramdas Pophale) SiO2 
 PCOD9203612
Probable space group: C 2/M
;
_chemical_formula_sum "Si O2"
_cell_formula_units_Z 34
_cell_length_a 14.339292
_cell_length_b 7.768385
_cell_length_c 12.162375
_cell_angle_alpha 90.000000
_cell_angle_beta 110.144566
_cell_angle_gamma 90.000000
_cell_volume 1271.927198
_symmetry_space_group_name_H-M "C 2/M"
_symmetry_group_IT_number 12
_symmetry_cell_setting 'monoclinic'
loop_
_space_group_symop_operation_xyz
x,y,z
-x,y,-z
-x,-y,-z
x,-y,z
1/2+x,1/2+y,z
1/2-x,1/2+y,-z
1/2-x,1/2-y,-z
1/2+x,1/2-y,z
loop_
_atom_site_type_symbol
_atom_site_label
_atom_site_fract_x
_atom_site_fract_y
_atom_site_fract_z
Si Si1 0.642499 0.813130 0.567723
Si Si2 0.116301 0.298735 0.010807
Si Si3 0.843311 0.706451 0.736979
Si Si4 0.500000 0.500000 0.500000
Si Si5 0.934769 0.805191 0.240234
O O1 0.759519 0.779871 0.624354
O O2 0.580475 0.654273 0.497408
O O3 0.608913 0.811270 0.682649
O O4 0.620688 0.000000 0.508712
O O5 0.139023 0.500000 0.001123
O O6 0.124809 0.202491 0.898749
O O7 0.170881 0.233303 0.142054
O O8 0.000000 0.290950 0.000000
O O9 0.834111 0.500000 0.736855
O O10 0.953961 0.755085 0.746894
O O11 0.933705 0.000000 0.289049
#
# Coordination Sequence:
#
# PCOD9203612 Si02
#       5
#     8   8   8   2   8
#     4  12  25  45  72  93 126 169 208 273 329 378
#     4   8  16  31  55  90 132 175 211 252 304 371
#     4  10  20  39  64  95 135 172 214 261 311 381
#     4  12  26  52  68  94 124 158 218 280 328 388
#     4  11  21  37  62  96 136 173 214 259 311 381
#
# _framework density 26.731089000000001
#
# number of rings (size 3 to 8) (size 9 to 14) (size 15 to 20)
#    0.000    1.647    2.353    4.588    0.000    6.118 
#    0.000    1.176    0.000    0.000    0.000    0.000 
#    0.000    0.000    0.000    0.000    0.000    0.000 
#
# Total GULP energy -95118.684798 kJ/mol
# GULP energy per Si atom -5595.216753 kJ/mol
# Density = 2.667025 g / cm^3
# Si number density = 26.731089 Si / 1000 Ang^3
#
#
#
# Elastic Constant Matrix: (Units=GPa)
#
#
# Indices 1 2 3 4 5 6 
#
# 1 98.9191 2.8400 35.6701 0.0000 1.4183 0.0000
# 2 2.8400 174.3796 27.5003 0.0000 12.8173 0.0000
# 3 35.6701 27.5003 148.7543 0.0000 -0.2968 0.0000
# 4 0.0000 0.0000 0.0000 36.0002 0.0000 2.8645
# 5 1.4183 12.8173 -0.2968 0.0000 41.9996 0.0000
# 6 0.0000 0.0000 0.0000 2.8645 0.0000 25.3196
#
#
#
# Elastic Compliance Matrix: (Units=1/GPa)
#
#
# Indices 1 2 3 4 5 6 
#
# 1 0.011086 0.000282 -0.002711 0.000000 -0.000480 0.000000
# 2 0.000282 0.006055 -0.001191 0.000000 -0.001866 0.000000
# 3 -0.002711 -0.001191 0.007594 0.000000 0.000509 0.000000
# 4 0.000000 0.000000 0.000000 0.028030 0.000000 -0.003171
# 5 -0.000480 -0.001866 0.000509 0.000000 0.024399 0.000000
# 6 0.000000 0.000000 0.000000 -0.003171 0.000000 0.039854
#
#
# Mechanical properties :
#
#
# Convention : Reuss Voigt Hill
#
# Bulk Modulus (GPa) = 57.16008 61.56376 59.36192
# Shear Modulus (GPa) = 38.43531 44.40004 41.41768
#
# Velocity S-wave (km/s) = 3.79601 4.07994 3.94054
# Velocity P-wave (km/s) = 6.37517 6.72870 6.55432
#
# Compressibility (1/GPa) = 0.01749473
#
# Stress axis : x y z
#
# Youngs Moduli (GPa) = 90.20559 165.15413 131.68576
#
# Poissons Ratio (x) = -0.04662 0.35706
# Poissons Ratio (y) = -0.02547 0.15681
# Poissons Ratio (z) = 0.24459 0.19667
#
# Static dielectric constant tensor:
#      x y z
#    x 2.009010 0.000000 -0.199300 
#    y 0.000000 1.985910 0.000000 
#    z -0.199300 0.000000 1.306170 
# 
# From -- ./inp_files/210949.got.cif
#   From: 2010.05.17/outbox.cif.g08.bks.cpg/sg12_106_cif.got.tgz:210949.got - 2010.06.03 13:09:07.
