data_PCOD9203601
_publ_section_title
;
Structure prediction by ZEFSAII (Michael W. Deem and Ramdas Pophale) SiO2 
 PCOD9203601
Probable space group: C 2/M
;
_chemical_formula_sum "Si O2"
_cell_formula_units_Z 42
_cell_length_a 32.144445
_cell_length_b 12.711895
_cell_length_c 5.073878
_cell_angle_alpha 90.000000
_cell_angle_beta 95.729372
_cell_angle_gamma 90.000000
_cell_volume 2062.914862
_symmetry_space_group_name_H-M "C 2/M"
_symmetry_group_IT_number 12
_symmetry_cell_setting 'monoclinic'
loop_
_space_group_symop_operation_xyz
x,y,z
-x,y,-z
-x,-y,-z
x,-y,z
1/2+x,1/2+y,z
1/2-x,1/2+y,-z
1/2-x,1/2-y,-z
1/2+x,1/2-y,z
loop_
_atom_site_type_symbol
_atom_site_label
_atom_site_fract_x
_atom_site_fract_y
_atom_site_fract_z
Si Si1 0.119580 0.382584 0.828386
Si Si2 0.500000 0.000000 0.000000
Si Si3 0.066827 0.657865 0.300964
Si Si4 0.530349 0.615631 0.269149
Si Si5 0.194999 0.756595 0.687261
Si Si6 0.222225 0.124195 0.216161
O O1 0.137529 0.500000 0.815153
O O2 0.080409 0.374680 0.603267
O O3 0.152694 0.297085 0.756267
O O4 0.103318 0.367850 0.114294
O O5 0.527128 0.091898 0.176020
O O6 0.059072 0.782437 0.288847
O O7 0.500000 0.621459 0.500000
O O8 0.551394 0.500000 0.283088
O O9 0.500000 0.620764 0.000000
O O10 0.193207 0.814083 0.406067
O O11 0.231092 0.667586 0.697943
O O12 0.210144 0.839965 0.915373
O O13 0.219752 0.000000 0.246945
#
# Coordination Sequence:
#
# PCOD9203601 Si02
#       6
#     8   2   8   8   8   8
#     4  12  24  42  58  91 125 163 192 255 316 373
#     4  12  24  42  62  98 116 170 204 276 296 398
#     4  12  25  39  64  90 123 155 210 252 320 363
#     4  10  21  39  61  82 109 148 195 248 295 358
#     4  10  22  38  63  90 126 161 207 246 304 367
#     4  10  20  39  64  94 120 165 208 252 292 361
#
# _framework density 20.359542999999999
#
# number of rings (size 3 to 8) (size 9 to 14) (size 15 to 20)
#    0.000    1.143    2.857    3.429    0.000    0.762 
#    0.000   11.429    0.000    0.000    0.000    0.000 
#    0.000    0.000    0.000    0.000    0.000    0.000 
#
# Total GULP energy -117151.492826 kJ/mol
# GULP energy per Si atom -5578.642516 kJ/mol
# Density = 2.031320 g / cm^3
# Si number density = 20.359543 Si / 1000 Ang^3
#
#
#
# Elastic Constant Matrix: (Units=GPa)
#
#
# Indices 1 2 3 4 5 6 
#
# 1 28.0863 16.1615 -9.9207 0.0000 -0.7138 0.0000
# 2 16.1615 150.5648 -3.5288 0.0000 -1.8728 0.0000
# 3 -9.9207 -3.5288 66.4234 0.0000 -16.0957 0.0000
# 4 0.0000 0.0000 0.0000 17.5298 0.0000 -0.5934
# 5 -0.7138 -1.8728 -16.0957 0.0000 22.2102 0.0000
# 6 0.0000 0.0000 0.0000 -0.5934 0.0000 17.3105
#
#
#
# Elastic Compliance Matrix: (Units=1/GPa)
#
#
# Indices 1 2 3 4 5 6 
#
# 1 0.040751 -0.004122 0.007400 0.000000 0.006325 0.000000
# 2 -0.004122 0.007085 -0.000154 0.000000 0.000354 0.000000
# 3 0.007400 -0.000154 0.019659 0.000000 0.014472 0.000000
# 4 0.000000 0.000000 0.000000 0.057112 0.000000 0.001958
# 5 0.006325 0.000354 0.014472 0.000000 0.055745 0.000000
# 6 0.000000 0.000000 0.000000 0.001958 0.000000 0.057836
#
#
# Mechanical properties :
#
#
# Convention : Reuss Voigt Hill
#
# Bulk Modulus (GPa) = 13.56049 27.83315 20.69682
# Shear Modulus (GPa) = 19.49168 27.56759 23.52963
#
# Velocity S-wave (km/s) = 3.09750 3.68372 3.40325
# Velocity P-wave (km/s) = 4.41222 5.63857 5.06267
#
# Compressibility (1/GPa) = 0.07374365
#
# Stress axis : x y z
#
# Youngs Moduli (GPa) = 24.53924 141.14497 50.86790
#
# Poissons Ratio (x) = 0.58181 -0.37643
# Poissons Ratio (y) = 0.10115 0.00781
# Poissons Ratio (z) = -0.18159 0.02167
#
# Static dielectric constant tensor:
#      x y z
#    x 1.721160 0.000000 -0.005170 
#    y 0.000000 1.711370 0.000000 
#    z -0.005170 0.000000 1.694280 
# 
# From -- ./inp_files/30893.got.cif
#   From: 2010.05.17/outbox.cif.g08.bks.cpg/sg12_16_cif.got.tgz:30893.got - 2010.06.03 13:09:07.
