data_PCOD9203511
_publ_section_title
;
Structure prediction by ZEFSAII (Michael W. Deem and Ramdas Pophale) SiO2 
 PCOD9203511
Probable space group: C 2/M
;
_chemical_formula_sum "Si O2"
_cell_formula_units_Z 60
_cell_length_a 8.492653
_cell_length_b 20.194054
_cell_length_c 15.242574
_cell_angle_alpha 90.000000
_cell_angle_beta 111.362738
_cell_angle_gamma 90.000000
_cell_volume 2434.509670
_symmetry_space_group_name_H-M "C 2/M"
_symmetry_group_IT_number 12
_symmetry_cell_setting 'monoclinic'
loop_
_space_group_symop_operation_xyz
x,y,z
-x,y,-z
-x,-y,-z
x,-y,z
1/2+x,1/2+y,z
1/2-x,1/2+y,-z
1/2-x,1/2-y,-z
1/2+x,1/2-y,z
loop_
_atom_site_type_symbol
_atom_site_label
_atom_site_fract_x
_atom_site_fract_y
_atom_site_fract_z
Si Si1 0.363519 0.227079 0.306671
Si Si2 0.801733 0.927933 0.931156
Si Si3 0.187258 0.077519 0.481804
Si Si4 0.000000 0.337540 0.500000
Si Si5 0.847625 0.893756 0.326424
Si Si6 0.431047 0.628039 0.787140
Si Si7 0.399703 0.173860 0.793708
Si Si8 0.258645 0.182465 0.950653
O O1 0.483114 0.208826 0.410872
O O2 0.191188 0.185044 0.276252
O O3 0.456394 0.205653 0.235656
O O4 0.292691 0.303724 0.290947
O O5 0.813647 0.911372 0.830987
O O6 0.732417 0.000000 0.934135
O O7 0.706549 0.873921 0.970328
O O8 0.000000 0.927406 0.000000
O O9 0.343696 0.113396 0.468948
O O10 0.223225 0.079574 0.592839
O O11 0.030860 0.121161 0.416240
O O12 0.158604 0.000000 0.452616
O O13 0.654275 0.899309 0.237313
O O14 0.959753 0.912663 0.259966
O O15 0.575008 0.665232 0.873503
O O16 0.379069 0.191019 0.890381
O O17 0.250000 0.250000 0.000000
#
# Coordination Sequence:
#
# PCOD9203511 Si02
#       8
#     8   8   8   4   8   8   8   8
#     4  12  25  43  64  97 131 178 215 279 339 401
#     4   9  19  37  64  99 134 170 217 274 341 408
#     4  11  23  41  65  92 127 174 232 281 328 398
#     4  12  25  44  66  90 140 174 219 276 338 402
#     4  10  20  39  63  95 127 169 221 271 331 391
#     4  10  21  39  65  98 140 171 228 274 339 414
#     4  11  24  41  66  95 134 167 222 277 338 410
#     4  10  21  41  71 102 135 177 225 286 342 417
#
# _framework density 24.645619
#
# number of rings (size 3 to 8) (size 9 to 14) (size 15 to 20)
#    0.000    1.467    2.667    3.400    0.000    4.800 
#    0.000    8.000    0.000    0.800    0.000    0.000 
#    0.000    0.000    0.000    0.000    0.000    0.000 
#
# Total GULP energy -167004.847156 kJ/mol
# GULP energy per Si atom -5566.828239 kJ/mol
# Density = 2.458952 g / cm^3
# Si number density = 24.645619 Si / 1000 Ang^3
#
#
#
# Elastic Constant Matrix: (Units=GPa)
#
#
# Indices 1 2 3 4 5 6 
#
# 1 78.5985 28.3795 5.4709 0.0000 -20.2780 0.0000
# 2 28.3795 118.6412 34.0858 0.0000 -20.7540 0.0000
# 3 5.4709 34.0858 98.4713 0.0000 -37.8494 0.0000
# 4 0.0000 0.0000 0.0000 20.7077 0.0000 -4.9302
# 5 -20.2780 -20.7540 -37.8494 0.0000 41.3416 0.0000
# 6 0.0000 0.0000 0.0000 -4.9302 0.0000 25.4910
#
#
#
# Elastic Compliance Matrix: (Units=1/GPa)
#
#
# Indices 1 2 3 4 5 6 
#
# 1 0.016225 -0.003301 0.004109 0.000000 0.010063 0.000000
# 2 -0.003301 0.010227 -0.003095 0.000000 0.000681 0.000000
# 3 0.004109 -0.003095 0.017244 0.000000 0.016249 0.000000
# 4 0.000000 0.000000 0.000000 0.050622 0.000000 0.009791
# 5 0.010063 0.000681 0.016249 0.000000 0.044344 0.000000
# 6 0.000000 0.000000 0.000000 0.009791 0.000000 0.041123
#
#
# Mechanical properties :
#
#
# Convention : Reuss Voigt Hill
#
# Bulk Modulus (GPa) = 25.56076 47.95372 36.75724
# Shear Modulus (GPa) = 25.32940 32.69304 29.01122
#
# Velocity S-wave (km/s) = 3.20932 3.64610 3.43466
# Velocity P-wave (km/s) = 4.91191 6.10122 5.53858
#
# Compressibility (1/GPa) = 0.03912247
#
# Stress axis : x y z
#
# Youngs Moduli (GPa) = 61.63271 97.78251 57.99155
#
# Poissons Ratio (x) = 0.32282 -0.23831
# Poissons Ratio (y) = 0.20347 0.17946
# Poissons Ratio (z) = -0.25327 0.30260
#
# Static dielectric constant tensor:
#      x y z
#    x 2.079540 0.000000 0.077720 
#    y 0.000000 2.116010 0.000000 
#    z 0.077720 0.000000 2.099560 
# 
# From -- ./inp_files/198910.got.cif
#   From: 2010.05.17/outbox.cif.g08.bks.cpg/sg12_100_cif.got.tgz:198910.got - 2010.06.03 13:09:07.
