data_PCOD9203681
_publ_section_title
;
Structure prediction by ZEFSAII (Michael W. Deem and Ramdas Pophale) SiO2 
 PCOD9203681
Probable space group: C 2/M
;
_chemical_formula_sum "Si O2"
_cell_formula_units_Z 64
_cell_length_a 9.002683
_cell_length_b 28.903104
_cell_length_c 14.460485
_cell_angle_alpha 90.000000
_cell_angle_beta 67.945955
_cell_angle_gamma 90.000000
_cell_volume 3487.381246
_symmetry_space_group_name_H-M "C 2/M"
_symmetry_group_IT_number 12
_symmetry_cell_setting 'monoclinic'
loop_
_space_group_symop_operation_xyz
x,y,z
-x,y,-z
-x,-y,-z
x,-y,z
1/2+x,1/2+y,z
1/2-x,1/2+y,-z
1/2-x,1/2-y,-z
1/2+x,1/2-y,z
loop_
_atom_site_type_symbol
_atom_site_label
_atom_site_fract_x
_atom_site_fract_y
_atom_site_fract_z
Si Si1 0.677935 0.621943 0.203088
Si Si2 0.312715 0.053293 0.806180
Si Si3 0.925479 0.630015 0.302745
Si Si4 0.191065 0.552634 0.974836
Si Si5 0.844250 0.107229 0.486273
Si Si6 0.441087 0.691706 0.336249
Si Si7 0.084471 0.053493 0.693324
Si Si8 0.422395 0.213363 0.620435
O O1 0.827574 0.637216 0.230618
O O2 0.733165 0.595755 0.097691
O O3 0.550207 0.663959 0.236486
O O4 0.580727 0.580872 0.276699
O O5 0.445745 0.090026 0.745643
O O6 0.158202 0.060836 0.777727
O O7 0.366042 0.000000 0.777806
O O8 0.279232 0.057493 0.922901
O O9 0.796790 0.614555 0.409370
O O10 0.006907 0.675692 0.325315
O O11 0.246704 0.500000 0.933857
O O12 0.000000 0.553483 0.000000
O O13 0.902246 0.155644 0.427880
O O14 0.798108 0.075757 0.409865
O O15 0.000000 0.086423 0.500000
O O16 0.532239 0.735656 0.355731
O O17 0.268213 0.707042 0.340106
O O18 0.063644 0.000000 0.681666
O O19 0.500000 0.206234 0.500000
#
# Coordination Sequence:
#
# PCOD9203681 Si02
#       8
#     8   8   8   8   8   8   8   8
#     4  11  22  38  61  86 122 154 201 256 308 361
#     4  10  23  40  60  88 121 156 207 258 306 360
#     4  12  22  36  58  87 119 163 197 249 299 355
#     4  10  20  39  65  94 119 155 207 260 309 360
#     4  11  21  37  54  83 125 160 206 243 293 363
#     4  11  23  39  58  92 121 157 203 251 298 361
#     4  10  22  37  53  82 122 162 201 246 297 362
#     4  12  24  37  63  88 126 164 204 248 296 357
#
# _framework density 18.351880000000001
#
# number of rings (size 3 to 8) (size 9 to 14) (size 15 to 20)
#    0.000    1.125    5.000    3.375    0.000    1.750 
#    0.000    3.125    0.000    0.750    0.000    0.000 
#    0.000    0.000    0.000    0.000    0.000    0.000 
#
# Total GULP energy -178611.434056 kJ/mol
# GULP energy per Si atom -5581.607314 kJ/mol
# Density = 1.831011 g / cm^3
# Si number density = 18.351880 Si / 1000 Ang^3
#
#
#
# Elastic Constant Matrix: (Units=GPa)
#
#
# Indices 1 2 3 4 5 6 
#
# 1 84.2215 56.2913 24.3450 0.0000 7.2227 0.0000
# 2 56.2913 119.2476 54.4722 0.0000 3.1997 0.0000
# 3 24.3450 54.4722 80.3942 0.0000 9.8472 0.0000
# 4 0.0000 0.0000 0.0000 24.5844 0.0000 15.1780
# 5 7.2227 3.1997 9.8472 0.0000 28.0918 0.0000
# 6 0.0000 0.0000 0.0000 15.1780 0.0000 15.8775
#
#
#
# Elastic Compliance Matrix: (Units=1/GPa)
#
#
# Indices 1 2 3 4 5 6 
#
# 1 0.017760 -0.008750 0.001032 0.000000 -0.003931 0.000000
# 2 -0.008750 0.016522 -0.008976 0.000000 0.003514 0.000000
# 3 0.001032 -0.008976 0.018928 0.000000 -0.005878 0.000000
# 4 0.000000 0.000000 0.000000 0.099254 0.000000 -0.094881
# 5 -0.003931 0.003514 -0.005878 0.000000 0.038269 0.000000
# 6 0.000000 0.000000 0.000000 -0.094881 0.000000 0.153683
#
#
# Mechanical properties :
#
#
# Convention : Reuss Voigt Hill
#
# Bulk Modulus (GPa) = 50.44576 61.56447 56.00511
# Shear Modulus (GPa) = 13.00693 23.62773 18.31733
#
# Velocity S-wave (km/s) = 2.66513 3.59204 3.16273
# Velocity P-wave (km/s) = 6.08426 7.12904 6.62727
#
# Compressibility (1/GPa) = 0.01982327
#
# Stress axis : x y z
#
# Youngs Moduli (GPa) = 56.30495 60.52543 52.83266
#
# Poissons Ratio (x) = 0.52958 -0.05452
# Poissons Ratio (y) = 0.49265 0.47420
# Poissons Ratio (z) = -0.05810 0.54325
#
# Static dielectric constant tensor:
#      x y z
#    x 1.656980 0.000000 0.008080 
#    y 0.000000 1.624180 0.000000 
#    z 0.008080 0.000000 1.649090 
# 
# From -- ./inp_files/199771.got.cif
#   From: 2010.05.17/outbox.cif.g08.bks.cpg/sg12_100_cif.got.tgz:199771.got - 2010.06.03 13:09:07.
