data_PCOD9203524
_publ_section_title
;
Structure prediction by ZEFSAII (Michael W. Deem and Ramdas Pophale) SiO2 
 PCOD9203524
Probable space group: C 2/M
;
_chemical_formula_sum "Si O2"
_cell_formula_units_Z 56
_cell_length_a 17.011618
_cell_length_b 12.833649
_cell_length_c 12.951371
_cell_angle_alpha 90.000000
_cell_angle_beta 54.341317
_cell_angle_gamma 90.000000
_cell_volume 2297.402524
_symmetry_space_group_name_H-M "C 2/M"
_symmetry_group_IT_number 12
_symmetry_cell_setting 'monoclinic'
loop_
_space_group_symop_operation_xyz
x,y,z
-x,y,-z
-x,-y,-z
x,-y,z
1/2+x,1/2+y,z
1/2-x,1/2+y,-z
1/2-x,1/2-y,-z
1/2+x,1/2-y,z
loop_
_atom_site_type_symbol
_atom_site_label
_atom_site_fract_x
_atom_site_fract_y
_atom_site_fract_z
Si Si1 0.757324 0.381160 0.467487
Si Si2 0.693998 0.188670 0.956532
Si Si3 0.946358 0.169680 0.262118
Si Si4 0.351625 0.613926 0.130469
Si Si5 0.684629 0.784400 0.381104
Si Si6 0.999355 0.612504 0.875047
Si Si7 0.113142 0.881808 0.296480
O O1 0.764245 0.500000 0.435136
O O2 0.649809 0.360966 0.599182
O O3 0.755982 0.306382 0.370137
O O4 0.832003 0.349233 0.501223
O O5 0.635216 0.282467 0.945891
O O6 0.776068 0.131855 0.827362
O O7 0.750000 0.250000 0.000000
O O8 0.614357 0.113729 0.063130
O O9 0.927517 0.114692 0.166476
O O10 0.958565 0.290319 0.219630
O O11 0.038043 0.135304 0.260141
O O12 0.351923 0.500000 0.079941
O O13 0.245302 0.639035 0.261100
O O14 0.605557 0.715336 0.382435
O O15 0.043057 0.500000 0.815554
O O16 0.000000 0.620580 0.000000
O O17 0.099962 0.000000 0.347531
#
# Coordination Sequence:
#
# PCOD9203524 Si02
#       7
#     8   8   8   8   8   8   8
#     4  10  20  39  64  86 116 156 193 244 294 340
#     4  11  22  40  57  87 118 152 201 244 285 355
#     4  11  21  39  59  87 121 148 200 242 289 355
#     4  10  21  39  62  87 119 157 194 246 296 341
#     4   9  20  37  57  88 119 146 192 234 290 359
#     4  11  23  42  61  80 117 162 199 241 291 343
#     4  11  22  36  59  89 119 150 189 245 297 343
#
# _framework density 24.375354000000002
#
# number of rings (size 3 to 8) (size 9 to 14) (size 15 to 20)
#    0.000    1.571    2.857    3.429    0.000    1.714 
#    0.000   10.000    0.000    0.000    0.000   18.000 
#    0.000    0.000    0.000    0.000    0.000    0.000 
#
# Total GULP energy -156352.741705 kJ/mol
# GULP energy per Si atom -5584.026489 kJ/mol
# Density = 2.431988 g / cm^3
# Si number density = 24.375354 Si / 1000 Ang^3
#
#
#
# Elastic Constant Matrix: (Units=GPa)
#
#
# Indices 1 2 3 4 5 6 
#
# 1 117.3246 30.7633 22.4812 0.0000 2.0385 0.0000
# 2 30.7633 170.2650 8.2418 0.0000 -8.8374 0.0000
# 3 22.4812 8.2418 60.5188 0.0000 -22.2941 0.0000
# 4 0.0000 0.0000 0.0000 18.2078 0.0000 4.3361
# 5 2.0385 -8.8374 -22.2941 0.0000 35.0211 0.0000
# 6 0.0000 0.0000 0.0000 4.3361 0.0000 12.9480
#
#
#
# Elastic Compliance Matrix: (Units=1/GPa)
#
#
# Indices 1 2 3 4 5 6 
#
# 1 0.010034 -0.001789 -0.005049 0.000000 -0.004250 0.000000
# 2 -0.001789 0.006275 0.000564 0.000000 0.002047 0.000000
# 3 -0.005049 0.000564 0.024146 0.000000 0.015807 0.000000
# 4 0.000000 0.000000 0.000000 0.059681 0.000000 -0.019986
# 5 -0.004250 0.002047 0.015807 0.000000 0.039381 0.000000
# 6 0.000000 0.000000 0.000000 -0.019986 0.000000 0.083925
#
#
# Mechanical properties :
#
#
# Convention : Reuss Voigt Hill
#
# Bulk Modulus (GPa) = 35.83423 52.34234 44.08829
# Shear Modulus (GPa) = 20.38380 32.34352 26.36366
#
# Velocity S-wave (km/s) = 2.89493 3.64661 3.29229
# Velocity P-wave (km/s) = 5.08990 6.26502 5.70778
#
# Compressibility (1/GPa) = 0.02790628
#
# Stress axis : x y z
#
# Youngs Moduli (GPa) = 99.66298 159.35295 41.41515
#
# Poissons Ratio (x) = 0.28509 0.20911
# Poissons Ratio (y) = 0.17830 -0.02336
# Poissons Ratio (z) = 0.50322 -0.08987
#
# Static dielectric constant tensor:
#      x y z
#    x 2.008520 0.000000 0.006020 
#    y 0.000000 1.856900 0.000000 
#    z 0.006020 0.000000 2.019760 
# 
# From -- ./inp_files/223123.got.cif
#   From: 2010.05.17/outbox.cif.g08.bks.cpg/sg12_112_cif.got.tgz:223123.got - 2010.06.03 13:09:07.
