data_PCOD9203168
_publ_section_title
;
Structure prediction by ZEFSAII (Michael W. Deem and Ramdas Pophale) SiO2 
 PCOD9203168
Probable space group: C 2/M
;
_chemical_formula_sum "Si O2"
_cell_formula_units_Z 52
_cell_length_a 13.431753
_cell_length_b 13.937005
_cell_length_c 17.035320
_cell_angle_alpha 90.000000
_cell_angle_beta 39.770319
_cell_angle_gamma 90.000000
_cell_volume 2040.030626
_symmetry_space_group_name_H-M "C 2/M"
_symmetry_group_IT_number 12
_symmetry_cell_setting 'monoclinic'
loop_
_space_group_symop_operation_xyz
x,y,z
-x,y,-z
-x,-y,-z
x,-y,z
1/2+x,1/2+y,z
1/2-x,1/2+y,-z
1/2-x,1/2-y,-z
1/2+x,1/2-y,z
loop_
_atom_site_type_symbol
_atom_site_label
_atom_site_fract_x
_atom_site_fract_y
_atom_site_fract_z
Si Si1 0.915913 0.682457 0.629298
Si Si2 0.869712 0.161209 0.443700
Si Si3 0.886641 0.000000 0.993121
Si Si4 0.989518 0.000000 0.750831
Si Si5 0.163802 0.500000 0.855495
Si Si6 0.925227 0.601547 0.310016
Si Si7 0.811327 0.696219 0.890064
Si Si8 0.847458 0.284159 0.150933
O O1 0.728640 0.702301 0.744856
O O2 0.000000 0.643479 0.500000
O O3 0.991920 0.787885 0.594678
O O4 0.982319 0.619340 0.662484
O O5 0.750000 0.250000 0.500000
O O6 0.756272 0.102433 0.568475
O O7 0.922647 0.092931 0.340461
O O8 0.781292 0.096360 0.062147
O O9 0.972303 0.000000 0.855846
O O10 0.000000 0.000000 0.000000
O O11 0.814072 0.000000 0.821530
O O12 0.162497 0.394775 0.816112
O O13 0.000000 0.500000 0.000000
O O14 0.973723 0.500000 0.248221
O O15 0.005485 0.681913 0.209855
O O16 0.782856 0.767451 0.836715
O O17 0.750000 0.750000 0.000000
O O18 0.000000 0.268068 0.000000
#
# Coordination Sequence:
#
# PCOD9203168 Si02
#       8
#     8   8   4   4   4   8   8   8
#     4  10  22  40  64  96 137 183 229 298 361 432
#     4  10  22  41  67  99 131 181 242 286 358 451
#     4  12  28  47  70 113 151 197 257 308 382 468
#     4  12  22  45  75  97 147 199 239 312 380 436
#     4  10  20  38  71 103 136 192 256 302 366 458
#     4  10  21  43  65  96 133 177 242 296 350 438
#     4  11  24  43  69  97 140 190 238 306 374 442
#     4  10  21  40  62  92 136 178 231 297 365 435
#
# _framework density 25.489815
#
# number of rings (size 3 to 8) (size 9 to 14) (size 15 to 20)
#    0.000    1.538    3.077    1.385    4.308    1.538 
#   13.846    1.538    3.385    0.000    0.000    0.000 
#    0.000    0.000    0.000    0.000    0.000    0.000 
#
# Total GULP energy -144934.199399 kJ/mol
# GULP energy per Si atom -5574.392285 kJ/mol
# Density = 2.543180 g / cm^3
# Si number density = 25.489815 Si / 1000 Ang^3
#
#
#
# Elastic Constant Matrix: (Units=GPa)
#
#
# Indices 1 2 3 4 5 6 
#
# 1 79.0900 22.0255 30.4841 -0.0001 -5.9888 0.0000
# 2 22.0255 96.5662 19.6858 -0.0001 -4.8165 0.0000
# 3 30.4841 19.6858 169.3536 -0.0002 -13.4107 0.0001
# 4 -0.0001 -0.0001 -0.0002 42.6068 0.0001 5.3490
# 5 -5.9888 -4.8165 -13.4107 0.0001 37.8632 -0.0001
# 6 0.0000 0.0000 0.0001 5.3490 -0.0001 28.0148
#
#
#
# Elastic Compliance Matrix: (Units=1/GPa)
#
#
# Indices 1 2 3 4 5 6 
#
# 1 0.014338 -0.002771 -0.002168 0.000000 0.001147 0.000000
# 2 -0.002771 0.011175 -0.000743 0.000000 0.000720 0.000000
# 3 -0.002168 -0.000743 0.006530 0.000000 0.001875 0.000000
# 4 0.000000 0.000000 0.000000 0.024047 0.000000 -0.004591
# 5 0.001147 0.000720 0.001875 0.000000 0.027348 0.000000
# 6 0.000000 0.000000 0.000000 -0.004591 0.000000 0.036572
#
#
# Mechanical properties :
#
#
# Convention : Reuss Voigt Hill
#
# Bulk Modulus (GPa) = 48.35914 54.37783 51.36848
# Shear Modulus (GPa) = 36.16179 39.88458 38.02319
#
# Velocity S-wave (km/s) = 3.77062 3.95995 3.86644
# Velocity P-wave (km/s) = 6.16197 6.50291 6.33473
#
# Compressibility (1/GPa) = 0.02067862
#
# Stress axis : x y z
#
# Youngs Moduli (GPa) = 69.74463 89.48489 153.14108
#
# Poissons Ratio (x) = 0.24797 0.33199
# Poissons Ratio (y) = 0.19327 0.11381
# Poissons Ratio (z) = 0.15120 0.06650
#
# Static dielectric constant tensor:
#      x y z
#    x 2.015620 0.000000 -0.059780 
#    y 0.000000 2.049190 0.000000 
#    z -0.059780 0.000000 2.184090 
# 
# From -- ./inp_files/270609.got.cif
#   From: 2010.05.17/outbox.cif.g08.bks.cpg/sg12_136_cif.got.tgz:270609.got - 2010.06.03 13:09:07.
