data_PCOD9203816
_publ_section_title
;
Structure prediction by ZEFSAII (Michael W. Deem and Ramdas Pophale) SiO2 
 PCOD9203816
Probable space group: C 2/M
;
_chemical_formula_sum "Si O2"
_cell_formula_units_Z 64
_cell_length_a 18.374310
_cell_length_b 15.422281
_cell_length_c 16.200266
_cell_angle_alpha 90.000000
_cell_angle_beta 143.362968
_cell_angle_gamma 90.000000
_cell_volume 2739.489199
_symmetry_space_group_name_H-M "C 2/M"
_symmetry_group_IT_number 12
_symmetry_cell_setting 'monoclinic'
loop_
_space_group_symop_operation_xyz
x,y,z
-x,y,-z
-x,-y,-z
x,-y,z
1/2+x,1/2+y,z
1/2-x,1/2+y,-z
1/2-x,1/2-y,-z
1/2+x,1/2-y,z
loop_
_atom_site_type_symbol
_atom_site_label
_atom_site_fract_x
_atom_site_fract_y
_atom_site_fract_z
Si Si1 0.224668 0.597709 0.076378
Si Si2 0.470341 0.157831 0.821552
Si Si3 0.108182 0.172798 0.889055
Si Si4 0.570106 0.596637 0.407255
Si Si5 0.638848 0.105827 0.606141
Si Si6 0.373276 0.399357 0.919466
Si Si7 0.297437 0.153052 0.521073
Si Si8 0.266759 0.394712 0.300068
O O1 0.261220 0.500000 0.086115
O O2 0.262152 0.665339 0.039747
O O3 0.280138 0.621167 0.215641
O O4 0.079125 0.599025 0.953118
O O5 0.535263 0.249528 0.866050
O O6 0.417061 0.132554 0.683551
O O7 0.354014 0.151988 0.775230
O O8 0.024322 0.146769 0.734912
O O9 0.121928 0.107350 0.977880
O O10 0.524389 0.500000 0.382256
O O11 0.690163 0.593886 0.458913
O O12 0.620319 0.632985 0.539471
O O13 0.500000 0.133352 0.500000
O O14 0.745557 0.135937 0.766593
O O15 0.678229 0.139616 0.552265
O O16 0.637350 0.000000 0.603259
O O17 0.373792 0.500000 0.894297
O O18 0.500000 0.360155 0.000000
O O19 0.250000 0.250000 0.500000
O O20 0.252630 0.500000 0.298006
#
# Coordination Sequence:
#
# PCOD9203816 Si02
#       8
#     8   8   8   8   8   8   8   8
#     4  11  24  43  67  95 132 173 220 274 328 395
#     4  11  24  41  64  94 133 171 218 271 330 400
#     4  12  24  41  63  99 136 171 213 274 341 397
#     4  10  20  39  68  95 127 175 225 271 322 395
#     4  10  23  43  69 100 135 175 225 283 338 397
#     4  10  22  40  64  95 132 179 231 274 326 403
#     4  11  22  42  65  94 131 172 219 274 324 396
#     4   9  21  42  68  97 125 171 228 272 324 391
#
# _framework density 23.362020000000001
#
# number of rings (size 3 to 8) (size 9 to 14) (size 15 to 20)
#    0.000    1.500    1.250    3.375    1.750    5.000 
#    2.250    1.875    0.000    0.000    0.000    0.000 
#    0.000    0.000    0.000    0.000    0.000    0.000 
#
# Total GULP energy -178736.276260 kJ/mol
# GULP energy per Si atom -5585.508633 kJ/mol
# Density = 2.330885 g / cm^3
# Si number density = 23.362020 Si / 1000 Ang^3
#
#
#
# Elastic Constant Matrix: (Units=GPa)
#
#
# Indices 1 2 3 4 5 6 
#
# 1 115.0830 18.2798 55.2653 0.0000 -13.7784 0.0000
# 2 18.2798 53.3526 8.3947 0.0000 -6.2621 0.0000
# 3 55.2653 8.3947 123.1109 0.0000 6.0722 0.0000
# 4 0.0000 0.0000 0.0000 11.4404 0.0000 0.8874
# 5 -13.7784 -6.2621 6.0722 0.0000 35.8828 0.0000
# 6 0.0000 0.0000 0.0000 0.8874 0.0000 6.7282
#
#
#
# Elastic Compliance Matrix: (Units=1/GPa)
#
#
# Indices 1 2 3 4 5 6 
#
# 1 0.012486 -0.002766 -0.005676 0.000000 0.005272 0.000000
# 2 -0.002766 0.020020 -0.000245 0.000000 0.002473 0.000000
# 3 -0.005676 -0.000245 0.010888 0.000000 -0.004065 0.000000
# 4 0.000000 0.000000 0.000000 0.088313 0.000000 -0.011648
# 5 0.005272 0.002473 -0.004065 0.000000 0.031013 0.000000
# 6 0.000000 0.000000 0.000000 -0.011648 0.000000 0.150165
#
#
# Mechanical properties :
#
#
# Convention : Reuss Voigt Hill
#
# Bulk Modulus (GPa) = 38.43464 50.60289 44.51877
# Shear Modulus (GPa) = 14.75218 24.78404 19.76811
#
# Velocity S-wave (km/s) = 2.51561 3.26063 2.91205
# Velocity P-wave (km/s) = 4.99252 5.99024 5.51399
#
# Compressibility (1/GPa) = 0.02601819
#
# Stress axis : x y z
#
# Youngs Moduli (GPa) = 80.09029 49.95051 91.84267
#
# Poissons Ratio (x) = 0.13816 0.52134
# Poissons Ratio (y) = 0.22153 0.02254
# Poissons Ratio (z) = 0.45463 0.01226
#
# Static dielectric constant tensor:
#      x y z
#    x 1.851670 0.000000 0.053610 
#    y 0.000000 1.871330 0.000000 
#    z 0.053610 0.000000 1.884960 
# 
# From -- ./inp_files/226872.got.cif
#   From: 2010.05.17/outbox.cif.g08.bks.cpg/sg12_114_cif.got.tgz:226872.got - 2010.06.03 13:09:07.
