data_PCOD9203907
_publ_section_title
;
Structure prediction by ZEFSAII (Michael W. Deem and Ramdas Pophale) SiO2 
 PCOD9203907
Probable space group: C 2/M
;
_chemical_formula_sum "Si O2"
_cell_formula_units_Z 52
_cell_length_a 8.272224
_cell_length_b 23.879365
_cell_length_c 17.543653
_cell_angle_alpha 90.000000
_cell_angle_beta 134.091379
_cell_angle_gamma 90.000000
_cell_volume 2489.024862
_symmetry_space_group_name_H-M "C 2/M"
_symmetry_group_IT_number 12
_symmetry_cell_setting 'monoclinic'
loop_
_space_group_symop_operation_xyz
x,y,z
-x,y,-z
-x,-y,-z
x,-y,z
1/2+x,1/2+y,z
1/2-x,1/2+y,-z
1/2-x,1/2-y,-z
1/2+x,1/2-y,z
loop_
_atom_site_type_symbol
_atom_site_label
_atom_site_fract_x
_atom_site_fract_y
_atom_site_fract_z
Si Si1 0.500000 0.835250 0.000000
Si Si2 0.816586 0.720952 0.783805
Si Si3 0.847467 0.561343 0.301577
Si Si4 0.000000 0.613742 0.500000
Si Si5 0.616517 0.690937 0.452976
Si Si6 0.834765 0.332529 0.214138
Si Si7 0.000000 0.100454 0.000000
Si Si8 0.825237 0.060800 0.085775
O O1 0.424701 0.798252 0.901343
O O2 0.298335 0.881017 0.938156
O O3 0.582604 0.694511 0.676137
O O4 0.780251 0.787745 0.768604
O O5 0.996603 0.703000 0.780599
O O6 0.931869 0.500000 0.306614
O O7 0.949960 0.614109 0.290583
O O8 0.581293 0.563283 0.198053
O O9 0.881744 0.574244 0.400222
O O10 0.191401 0.649230 0.517463
O O11 0.500000 0.681089 0.500000
O O12 0.750000 0.750000 0.500000
O O13 0.648784 0.359142 0.099417
O O14 0.158238 0.062545 0.000245
O O15 0.737048 0.000000 0.083280
#
# Coordination Sequence:
#
# PCOD9203907 Si02
#       8
#     4   8   8   4   8   8   4   8
#     4  12  24  40  62  98 141 174 211 278 346 412
#     4  12  26  42  65 101 140 176 221 278 346 412
#     4  10  23  44  70  96 128 176 232 280 334 406
#     4  12  23  42  70 100 132 180 233 288 356 398
#     4  12  25  43  68 102 142 185 233 286 340 416
#     4  11  25  41  65  98 134 176 218 275 336 409
#     4  10  20  40  60  90 126 174 222 258 324 392
#     4  10  21  39  62  91 127 173 223 265 321 400
#
# _framework density 20.891714
#
# number of rings (size 3 to 8) (size 9 to 14) (size 15 to 20)
#    0.000    0.923    2.308    4.846    6.462    1.846 
#    0.000    0.000    0.000   10.154    0.000    0.000 
#    0.000    0.000    0.000    0.000    0.000    0.000 
#
# Total GULP energy -144905.644707 kJ/mol
# GULP energy per Si atom -5573.294027 kJ/mol
# Density = 2.084416 g / cm^3
# Si number density = 20.891714 Si / 1000 Ang^3
#
#
#
# Elastic Constant Matrix: (Units=GPa)
#
#
# Indices 1 2 3 4 5 6 
#
# 1 70.6120 37.5471 22.8406 -0.0003 -6.2933 -0.0002
# 2 37.5471 140.9318 31.7314 0.0000 -11.2396 0.0000
# 3 22.8406 31.7314 94.8540 -0.0004 -6.4833 -0.0002
# 4 -0.0003 0.0000 -0.0004 -270.8797 -0.0003 -167.9328
# 5 -6.2933 -11.2396 -6.4833 -0.0003 26.3062 -0.0002
# 6 -0.0002 0.0000 -0.0002 -167.9328 -0.0002 -86.3005
#
#
#
# Elastic Compliance Matrix: (Units=1/GPa)
#
#
# Indices 1 2 3 4 5 6 
#
# 1 0.017250 -0.003833 -0.002748 0.000000 0.001812 0.000000
# 2 -0.003833 0.008717 -0.001832 0.000000 0.002356 0.000000
# 3 -0.002748 -0.001832 0.011919 0.000000 0.001497 0.000000
# 4 0.000000 0.000000 0.000000 0.017888 0.000000 -0.034809
# 5 0.001812 0.002356 0.001497 0.000000 0.039823 0.000000
# 6 0.000000 0.000000 0.000000 -0.034809 0.000000 0.056148
#
#
# Mechanical properties :
#
#
# Convention : Reuss Voigt Hill
#
# Bulk Modulus (GPa) = 47.47998 54.51509 50.99754
# Shear Modulus (GPa) = 28.47503 -51.88957 -11.70727
#
# Velocity S-wave (km/s) = 3.69586 -4.98912 -2.36980
# Velocity P-wave (km/s) = 6.40223 2.65286 4.12013
#
# Compressibility (1/GPa) = 0.02106151
#
# Stress axis : x y z
#
# Youngs Moduli (GPa) = 57.97051 114.71644 83.89634
#
# Poissons Ratio (x) = 0.43966 0.23053
# Poissons Ratio (y) = 0.22218 0.15372
# Poissons Ratio (z) = 0.15929 0.21019
#
# Static dielectric constant tensor:
#      x y z
#    x 1.821430 0.000000 -0.033600 
#    y 0.000000 1.833550 0.000000 
#    z -0.033600 0.000000 1.856260 
# 
# From -- ./inp_files/258585.got.cif
#   From: 2010.05.17/outbox.cif.g08.bks.cpg/sg12_130_cif.got.tgz:258585.got - 2010.06.03 13:09:07.
