data_PCOD9203038
_publ_section_title
;
Structure prediction by ZEFSAII (Michael W. Deem and Ramdas Pophale) SiO2 
 PCOD9203038
Probable space group: C 2/M
;
_chemical_formula_sum "Si O2"
_cell_formula_units_Z 58
_cell_length_a 25.139698
_cell_length_b 7.801734
_cell_length_c 22.141810
_cell_angle_alpha 90.000000
_cell_angle_beta 142.510458
_cell_angle_gamma 90.000000
_cell_volume 2643.066659
_symmetry_space_group_name_H-M "C 2/M"
_symmetry_group_IT_number 12
_symmetry_cell_setting 'monoclinic'
loop_
_space_group_symop_operation_xyz
x,y,z
-x,y,-z
-x,-y,-z
x,-y,z
1/2+x,1/2+y,z
1/2-x,1/2+y,-z
1/2-x,1/2-y,-z
1/2+x,1/2-y,z
loop_
_atom_site_type_symbol
_atom_site_label
_atom_site_fract_x
_atom_site_fract_y
_atom_site_fract_z
Si Si1 0.843693 0.703724 0.111799
Si Si2 0.371671 0.704654 0.275673
Si Si3 0.093301 0.812167 0.139330
Si Si4 0.148046 0.795029 0.404101
Si Si5 0.000000 0.500000 0.000000
Si Si6 0.008039 0.700096 0.181203
Si Si7 0.067468 0.790917 0.459915
Si Si8 0.218089 0.207854 0.687152
O O1 0.852655 0.500000 0.119874
O O2 0.850827 0.761681 0.187350
O O3 0.925038 0.767744 0.144331
O O4 0.750000 0.750000 0.000000
O O5 0.375393 0.500000 0.286601
O O6 0.468628 0.771440 0.378400
O O7 0.302026 0.764074 0.262335
O O8 0.027799 0.795398 0.136910
O O9 0.191048 0.785147 0.252272
O O10 0.088096 0.000000 0.106696
O O11 0.072612 0.652794 0.077761
O O12 0.250000 0.750000 0.500000
O O13 0.093163 0.712819 0.300439
O O14 0.102511 0.741294 0.425678
O O15 0.139685 0.000000 0.390451
O O16 0.993374 0.500000 0.151232
O O17 0.136437 0.737904 0.572528
O O18 0.065354 0.000000 0.459635
O O19 0.224156 0.000000 0.688945
#
# Coordination Sequence:
#
# PCOD9203038 Si02
#       8
#     8   8   8   8   2   8   8   8
#     4  11  25  43  67  94 130 176 225 282 350 404
#     4  10  20  38  65  96 135 180 230 279 334 409
#     4  12  26  46  75 104 134 181 231 283 348 413
#     4  11  21  34  59  94 133 176 226 278 338 410
#     4  12  26  52  72  98 142 172 226 290 344 400
#     4  11  23  44  67  94 136 178 223 288 347 405
#     4   9  18  34  60  94 133 182 230 273 333 408
#     4  10  20  39  66  98 141 183 225 283 342 406
#
# _framework density 21.944208
#
# number of rings (size 3 to 8) (size 9 to 14) (size 15 to 20)
#    0.000    1.379    2.759    2.690    0.000    6.069 
#    0.000    1.379    0.000    1.655    0.000    0.000 
#    0.000    0.000    0.000    0.000    0.000    0.000 
#
# Total GULP energy -161899.300945 kJ/mol
# GULP energy per Si atom -5582.734515 kJ/mol
# Density = 2.189426 g / cm^3
# Si number density = 21.944208 Si / 1000 Ang^3
#
#
#
# Elastic Constant Matrix: (Units=GPa)
#
#
# Indices 1 2 3 4 5 6 
#
# 1 88.1293 12.0515 9.9187 0.0000 1.8949 0.0000
# 2 12.0515 89.5125 7.2728 -0.0001 -1.8014 0.0000
# 3 9.9187 7.2728 104.6126 0.0000 14.4827 0.0000
# 4 0.0000 -0.0001 0.0000 1.6842 0.0000 7.3598
# 5 1.8949 -1.8014 14.4827 0.0000 18.5304 0.0000
# 6 0.0000 0.0000 0.0000 7.3598 0.0000 11.7032
#
#
#
# Elastic Compliance Matrix: (Units=1/GPa)
#
#
# Indices 1 2 3 4 5 6 
#
# 1 0.011670 -0.001509 -0.000915 0.000000 -0.000625 0.000000
# 2 -0.001509 0.011491 -0.000933 0.000000 0.002000 0.000000
# 3 -0.000915 -0.000933 0.010888 0.000000 -0.008507 0.000000
# 4 0.000000 0.000000 0.000000 -0.339653 0.000000 0.213598
# 5 -0.000625 0.002000 -0.008507 0.000000 0.060873 0.000000
# 6 0.000000 0.000000 0.000000 0.213598 0.000000 -0.048879
#
#
# Mechanical properties :
#
#
# Convention : Reuss Voigt Hill
#
# Bulk Modulus (GPa) = 36.58324 37.86004 37.22164
# Shear Modulus (GPa) = -17.99957 23.25097 2.62570
#
# Velocity S-wave (km/s) = -2.86709 3.25860 1.09505
# Velocity P-wave (km/s) = 2.39727 5.60788 4.31249
#
# Compressibility (1/GPa) = 0.02733492
#
# Stress axis : x y z
#
# Youngs Moduli (GPa) = 85.69134 87.02553 91.84079
#
# Poissons Ratio (x) = 0.13136 0.08403
# Poissons Ratio (y) = 0.12934 0.08566
# Poissons Ratio (z) = 0.07841 0.08117
#
# Static dielectric constant tensor:
#      x y z
#    x 1.820090 0.000000 0.009630 
#    y 0.000000 1.829510 0.000000 
#    z 0.009630 0.000000 1.796030 
# 
# From -- ./inp_files/324647.got.cif
#   From: 2010.05.17/outbox.cif.g08.bks.cpg/sg12_163_cif.got.tgz:324647.got - 2010.06.03 13:09:07.
