data_PCOD9203370
_publ_section_title
;
Structure prediction by ZEFSAII (Michael W. Deem and Ramdas Pophale) SiO2 
 PCOD9203370
Probable space group: C 2/M
;
_chemical_formula_sum "Si O2"
_cell_formula_units_Z 44
_cell_length_a 13.761739
_cell_length_b 25.760677
_cell_length_c 8.278328
_cell_angle_alpha 90.000000
_cell_angle_beta 49.234730
_cell_angle_gamma 90.000000
_cell_volume 2222.763993
_symmetry_space_group_name_H-M "C 2/M"
_symmetry_group_IT_number 12
_symmetry_cell_setting 'monoclinic'
loop_
_space_group_symop_operation_xyz
x,y,z
-x,y,-z
-x,-y,-z
x,-y,z
1/2+x,1/2+y,z
1/2-x,1/2+y,-z
1/2-x,1/2-y,-z
1/2+x,1/2-y,z
loop_
_atom_site_type_symbol
_atom_site_label
_atom_site_fract_x
_atom_site_fract_y
_atom_site_fract_z
Si Si1 0.414106 0.500000 0.855288
Si Si2 0.500000 0.581650 0.500000
Si Si3 0.500000 0.154992 0.000000
Si Si4 0.500000 0.755070 0.500000
Si Si5 0.298042 0.500000 0.325515
Si Si6 0.749930 0.895321 0.569410
Si Si7 0.745265 0.705201 0.640667
Si Si8 0.390851 0.748753 0.926694
O O1 0.424146 0.548274 0.720349
O O2 0.552980 0.500000 0.787279
O O3 0.308109 0.500000 0.115921
O O4 0.621619 0.606751 0.459656
O O5 0.620063 0.120788 0.807370
O O6 0.447054 0.195005 0.918861
O O7 0.622136 0.789959 0.405890
O O8 0.474600 0.724389 0.692316
O O9 0.241383 0.449303 0.478710
O O10 0.766910 0.850087 0.422322
O O11 0.750000 0.750000 0.500000
O O12 0.632261 0.717989 0.885370
O O13 0.250000 0.750000 0.000000
#
# Coordination Sequence:
#
# PCOD9203370 Si02
#       8
#     4   4   4   4   4   8   8   8
#     4   8  16  42  71  92 138 165 222 283 317 382
#     4   9  20  41  70 103 124 175 222 272 330 394
#     4  12  22  45  64  96 140 177 212 286 326 396
#     4  10  20  39  62  86 132 170 216 273 326 384
#     4   9  20  41  69  99 132 176 218 273 335 396
#     4  11  23  42  70  97 136 173 220 277 336 395
#     4  11  21  39  63  92 127 176 217 268 328 397
#     4  10  21  39  63  88 125 183 215 261 331 395
#
# _framework density 19.795172999999998
#
# number of rings (size 3 to 8) (size 9 to 14) (size 15 to 20)
#    0.000    1.818    3.636    0.545    0.000    1.091 
#    9.818    7.273    0.000    1.636    0.000    0.000 
#    0.000    0.000    0.000    0.000    0.000    0.000 
#
# Total GULP energy -122484.071429 kJ/mol
# GULP energy per Si atom -5567.457792 kJ/mol
# Density = 1.975012 g / cm^3
# Si number density = 19.795173 Si / 1000 Ang^3
#
#
#
# Elastic Constant Matrix: (Units=GPa)
#
#
# Indices 1 2 3 4 5 6 
#
# 1 124.9577 42.7021 52.1457 0.0000 -11.2521 0.0000
# 2 42.7021 119.7694 69.8620 0.0000 3.5780 0.0000
# 3 52.1457 69.8620 203.1786 0.0000 12.7148 0.0000
# 4 0.0000 0.0000 0.0000 40.0678 0.0000 14.4296
# 5 -11.2521 3.5780 12.7148 0.0000 40.3138 0.0000
# 6 0.0000 0.0000 0.0000 14.4296 0.0000 41.4150
#
#
#
# Elastic Compliance Matrix: (Units=1/GPa)
#
#
# Indices 1 2 3 4 5 6 
#
# 1 0.010002 -0.002558 -0.001914 0.000000 0.003622 0.000000
# 2 -0.002558 0.011100 -0.003115 0.000000 -0.000716 0.000000
# 3 -0.001914 -0.003115 0.006631 0.000000 -0.002349 0.000000
# 4 0.000000 0.000000 0.000000 0.028539 0.000000 -0.009943
# 5 0.003622 -0.000716 -0.002349 0.000000 0.026621 0.000000
# 6 0.000000 0.000000 0.000000 -0.009943 0.000000 0.027610
#
#
# Mechanical properties :
#
#
# Convention : Reuss Voigt Hill
#
# Bulk Modulus (GPa) = 79.62761 86.36947 82.99854
# Shear Modulus (GPa) = 38.50203 43.23905 40.87054
#
# Velocity S-wave (km/s) = 4.41502 4.67874 4.54880
# Velocity P-wave (km/s) = 8.14267 8.53896 8.34317
#
# Compressibility (1/GPa) = 0.01255846
#
# Stress axis : x y z
#
# Youngs Moduli (GPa) = 99.98280 90.09092 150.80039
#
# Poissons Ratio (x) = 0.23042 0.28866
# Poissons Ratio (y) = 0.25572 0.46980
# Poissons Ratio (z) = 0.19139 0.28067
#
# Static dielectric constant tensor:
#      x y z
#    x 1.776160 0.000000 0.014630 
#    y 0.000000 1.752650 0.000000 
#    z 0.014630 0.000000 1.775930 
# 
# From -- ./inp_files/65211.got.cif
#   From: 2010.05.17/outbox.cif.g08.bks.cpg/sg12_33_cif.got.tgz:65211.got - 2010.06.03 13:09:07.
