data_PCOD9203330
_publ_section_title
;
Structure prediction by ZEFSAII (Michael W. Deem and Ramdas Pophale) SiO2 
 PCOD9203330
Probable space group: C 2/M
;
_chemical_formula_sum "Si O2"
_cell_formula_units_Z 56
_cell_length_a 14.796161
_cell_length_b 29.404965
_cell_length_c 9.660608
_cell_angle_alpha 90.000000
_cell_angle_beta 131.565964
_cell_angle_gamma 90.000000
_cell_volume 3144.759537
_symmetry_space_group_name_H-M "C 2/M"
_symmetry_group_IT_number 12
_symmetry_cell_setting 'monoclinic'
loop_
_space_group_symop_operation_xyz
x,y,z
-x,y,-z
-x,-y,-z
x,-y,z
1/2+x,1/2+y,z
1/2-x,1/2+y,-z
1/2-x,1/2-y,-z
1/2+x,1/2-y,z
loop_
_atom_site_type_symbol
_atom_site_label
_atom_site_fract_x
_atom_site_fract_y
_atom_site_fract_z
Si Si1 0.859782 0.863335 0.393430
Si Si2 0.755445 0.610834 0.451559
Si Si3 0.269614 0.128127 0.018235
Si Si4 0.642805 0.682331 0.120793
Si Si5 0.141927 0.553218 0.676757
Si Si6 0.213022 0.727459 0.317537
Si Si7 0.980692 0.344660 0.827770
O O1 0.830385 0.892043 0.501938
O O2 0.803388 0.813064 0.365912
O O3 0.000000 0.860771 0.500000
O O4 0.788426 0.882730 0.188615
O O5 0.702218 0.650522 0.299686
O O6 0.780446 0.568069 0.378881
O O7 0.884967 0.626794 0.642274
O O8 0.176401 0.158064 0.011913
O O9 0.311316 0.084827 0.150645
O O10 0.390992 0.157075 0.114742
O O11 0.699351 0.732331 0.193676
O O12 0.500000 0.684628 0.000000
O O13 0.154733 0.500000 0.719764
O O14 0.000000 0.562346 0.500000
O O15 0.250000 0.750000 0.500000
O O16 0.084681 0.703135 0.212510
O O17 0.000000 0.365633 0.000000
#
# Coordination Sequence:
#
# PCOD9203330 Si02
#       7
#     8   8   8   8   8   8   8
#     4  11  23  40  59  84 116 164 205 241 290 351
#     4  10  20  39  62  82 121 157 187 241 300 355
#     4  11  23  37  63  87 114 161 191 243 302 353
#     4  11  23  38  56  81 117 162 206 245 289 336
#     4  10  21  38  65  98 121 140 184 246 305 369
#     4  11  22  37  55  80 120 159 204 259 281 331
#     4  11  19  37  57  83 118 156 196 237 300 349
#
# _framework density 17.807403000000001
#
# number of rings (size 3 to 8) (size 9 to 14) (size 15 to 20)
#    0.000    1.286    7.143    1.286    0.000    1.714 
#    0.000    0.714    0.000   18.857    0.000    0.000 
#    0.000    0.000    0.000    0.000    0.000    0.000 
#
# Total GULP energy -156230.502825 kJ/mol
# GULP energy per Si atom -5579.660815 kJ/mol
# Density = 1.776687 g / cm^3
# Si number density = 17.807403 Si / 1000 Ang^3
#
#
#
# Elastic Constant Matrix: (Units=GPa)
#
#
# Indices 1 2 3 4 5 6 
#
# 1 130.7185 31.8998 27.7319 0.0000 1.9916 0.0000
# 2 31.8998 77.6195 20.6071 0.0000 -3.9694 0.0000
# 3 27.7319 20.6071 82.2132 0.0000 -4.1106 0.0000
# 4 0.0000 0.0000 0.0000 11.4754 0.0000 -6.1802
# 5 1.9916 -3.9694 -4.1106 0.0000 36.1887 0.0000
# 6 0.0000 0.0000 0.0000 -6.1802 0.0000 3.2847
#
#
#
# Elastic Compliance Matrix: (Units=1/GPa)
#
#
# Indices 1 2 3 4 5 6 
#
# 1 0.008910 -0.003112 -0.002280 0.000000 -0.001091 0.000000
# 2 -0.003112 0.014935 -0.002618 0.000000 0.001512 0.000000
# 3 -0.002280 -0.002618 0.013658 0.000000 0.001390 0.000000
# 4 0.000000 0.000000 0.000000 -6.557267 0.000000-12.337403
# 5 -0.001091 0.001512 0.001390 0.000000 0.028017 0.000000
# 6 0.000000 0.000000 0.000000-12.337403 0.000000-22.908207
#
#
# Mechanical properties :
#
#
# Convention : Reuss Voigt Hill
#
# Bulk Modulus (GPa) = 46.54944 50.11432 48.33188
# Shear Modulus (GPa) = -0.17020 24.21061 12.02020
#
# Velocity S-wave (km/s) = -0.30949 3.69125 2.60092
# Velocity P-wave (km/s) = 5.10583 6.80960 6.01831
#
# Compressibility (1/GPa) = 0.02148254
#
# Stress axis : x y z
#
# Youngs Moduli (GPa) = 112.23590 66.95772 73.21582
#
# Poissons Ratio (x) = 0.20839 0.16692
# Poissons Ratio (y) = 0.34930 0.19168
# Poissons Ratio (z) = 0.25588 0.17530
#
# Static dielectric constant tensor:
#      x y z
#    x 1.614500 0.000000 -0.016010 
#    y 0.000000 1.580570 0.000000 
#    z -0.016010 0.000000 1.640600 
# 
# From -- ./inp_files/68323.got.cif
#   From: 2010.05.17/outbox.cif.g08.bks.cpg/sg12_35_cif.got.tgz:68323.got - 2010.06.03 13:09:07.
