data_PCOD9203930
_publ_section_title
;
Structure prediction by ZEFSAII (Michael W. Deem and Ramdas Pophale) SiO2 
 PCOD9203930
Probable space group: C 2/M
;
_chemical_formula_sum "Si O2"
_cell_formula_units_Z 32
_cell_length_a 7.668985
_cell_length_b 27.731598
_cell_length_c 8.168781
_cell_angle_alpha 90.000000
_cell_angle_beta 55.213627
_cell_angle_gamma 90.000000
_cell_volume 1426.802584
_symmetry_space_group_name_H-M "C 2/M"
_symmetry_group_IT_number 12
_symmetry_cell_setting 'monoclinic'
loop_
_space_group_symop_operation_xyz
x,y,z
-x,y,-z
-x,-y,-z
x,-y,z
1/2+x,1/2+y,z
1/2-x,1/2+y,-z
1/2-x,1/2-y,-z
1/2+x,1/2-y,z
loop_
_atom_site_type_symbol
_atom_site_label
_atom_site_fract_x
_atom_site_fract_y
_atom_site_fract_z
Si Si1 0.223589 0.777876 0.786922
Si Si2 0.149113 0.500000 0.770580
Si Si3 0.684033 0.914389 0.517692
Si Si4 0.055786 0.000000 0.778069
Si Si5 0.185255 0.313037 0.626682
O O1 0.262273 0.720634 0.734201
O O2 0.429547 0.802407 0.759597
O O3 0.226555 0.796367 0.597922
O O4 0.000000 0.785580 0.000000
O O5 0.102601 0.453888 0.687217
O O6 0.378491 0.500000 0.730724
O O7 0.000000 0.500000 0.000000
O O8 0.500000 0.894464 0.500000
O O9 0.750868 0.868861 0.591295
O O10 0.827803 0.948978 0.325654
O O11 0.000000 0.000000 0.000000
#
# Coordination Sequence:
#
# PCOD9203930 Si02
#       5
#     8   4   8   4   8
#     4  10  20  40  61  86 132 170 221 264 315 371
#     4  11  24  45  64  98 126 161 218 267 323 404
#     4  11  21  42  65  93 136 168 208 273 322 379
#     4  11  24  45  70  96 124 169 212 266 338 396
#     4  10  22  40  60  96 128 170 220 264 318 375
#
# _framework density 22.427769999999999
#
# number of rings (size 3 to 8) (size 9 to 14) (size 15 to 20)
#    0.000    1.500    2.500    5.250    0.000    2.000 
#   22.500    0.000    0.000    0.000    0.000    0.000 
#    0.000    0.000    0.000    0.000    0.000    0.000 
#
# Total GULP energy -89202.850668 kJ/mol
# GULP energy per Si atom -5575.178167 kJ/mol
# Density = 2.237672 g / cm^3
# Si number density = 22.427770 Si / 1000 Ang^3
#
#
#
# Elastic Constant Matrix: (Units=GPa)
#
#
# Indices 1 2 3 4 5 6 
#
# 1 84.5567 -1.4911 7.6923 0.0000 -22.4367 0.0000
# 2 -1.4911 170.5549 34.0700 0.0000 -8.6206 0.0000
# 3 7.6923 34.0700 162.0474 0.0000 -9.1203 0.0000
# 4 0.0000 0.0000 0.0000 6.0032 0.0000 -3.6687
# 5 -22.4367 -8.6206 -9.1203 0.0000 28.6414 0.0000
# 6 0.0000 0.0000 0.0000 -3.6687 0.0000 23.1354
#
#
#
# Elastic Compliance Matrix: (Units=1/GPa)
#
#
# Indices 1 2 3 4 5 6 
#
# 1 0.015027 0.000776 -0.000204 0.000000 0.011940 0.000000
# 2 0.000776 0.006221 -0.001227 0.000000 0.002089 0.000000
# 3 -0.000204 -0.001227 0.006526 0.000000 0.001549 0.000000
# 4 0.000000 0.000000 0.000000 0.184454 0.000000 0.029250
# 5 0.011940 0.002089 0.001549 0.000000 0.045390 0.000000
# 6 0.000000 0.000000 0.000000 0.029250 0.000000 0.047862
#
#
# Mechanical properties :
#
#
# Convention : Reuss Voigt Hill
#
# Bulk Modulus (GPa) = 37.79031 55.30014 46.54523
# Shear Modulus (GPa) = 15.84227 36.68185 26.26206
#
# Velocity S-wave (km/s) = 2.66064 4.04859 3.42564
# Velocity P-wave (km/s) = 5.13079 6.82387 6.03698
#
# Compressibility (1/GPa) = 0.02646181
#
# Stress axis : x y z
#
# Youngs Moduli (GPa) = 66.54755 160.75290 153.23576
#
# Poissons Ratio (x) = -0.12470 0.03132
# Poissons Ratio (y) = -0.05162 0.18804
# Poissons Ratio (z) = 0.01360 0.19726
#
# Static dielectric constant tensor:
#      x y z
#    x 1.903630 0.000000 -0.051850 
#    y 0.000000 1.868390 0.000000 
#    z -0.051850 0.000000 1.803980 
# 
# From -- ./inp_files/40107.got.cif
#   From: 2010.05.17/outbox.cif.g08.bks.cpg/sg12_21_cif.got.tgz:40107.got - 2010.06.03 13:09:07.
