data_PCOD9203887
_publ_section_title
;
Structure prediction by ZEFSAII (Michael W. Deem and Ramdas Pophale) SiO2 
 PCOD9203887
Probable space group: C 2/M
;
_chemical_formula_sum "Si O2"
_cell_formula_units_Z 52
_cell_length_a 9.056265
_cell_length_b 23.272641
_cell_length_c 13.401770
_cell_angle_alpha 90.000000
_cell_angle_beta 91.541154
_cell_angle_gamma 90.000000
_cell_volume 2823.578230
_symmetry_space_group_name_H-M "C 2/M"
_symmetry_group_IT_number 12
_symmetry_cell_setting 'monoclinic'
loop_
_space_group_symop_operation_xyz
x,y,z
-x,y,-z
-x,-y,-z
x,-y,z
1/2+x,1/2+y,z
1/2-x,1/2+y,-z
1/2-x,1/2-y,-z
1/2+x,1/2-y,z
loop_
_atom_site_type_symbol
_atom_site_label
_atom_site_fract_x
_atom_site_fract_y
_atom_site_fract_z
Si Si1 0.377502 0.771661 0.431458
Si Si2 0.247755 0.220978 0.861951
Si Si3 0.723222 0.931947 0.435266
Si Si4 0.267804 0.340077 0.751104
Si Si5 0.089238 0.158767 0.682760
Si Si6 0.894842 0.567485 0.345763
Si Si7 0.000000 0.742679 0.000000
O O1 0.500000 0.802559 0.500000
O O2 0.250000 0.750000 0.500000
O O3 0.305621 0.809242 0.345682
O O4 0.448799 0.715570 0.382212
O O5 0.261671 0.288586 0.830974
O O6 0.207994 0.182200 0.766163
O O7 0.112665 0.219725 0.936756
O O8 0.399175 0.206936 0.921292
O O9 0.841830 0.889964 0.386400
O O10 0.698504 0.921424 0.553190
O O11 0.565485 0.921421 0.378050
O O12 0.758718 0.000000 0.424319
O O13 0.437040 0.357305 0.734213
O O14 0.167001 0.396659 0.748868
O O15 0.881933 0.500000 0.326046
#
# Coordination Sequence:
#
# PCOD9203887 Si02
#       7
#     8   8   8   8   8   8   4
#     4  11  22  32  44  71 108 147 177 209 259 309
#     4  10  22  37  56  86 109 138 169 220 274 341
#     4   9  20  36  54  75 107 151 193 226 257 296
#     4  11  22  33  52  79 110 138 180 223 262 315
#     4  11  22  34  50  80 111 137 180 224 262 318
#     4   9  20  36  53  76 106 150 195 225 255 299
#     4  10  20  40  60  76 112 138 168 210 284 348
#
# _framework density 18.416347999999999
#
# number of rings (size 3 to 8) (size 9 to 14) (size 15 to 20)
#    0.000    1.846    3.077    1.846    6.462    0.615 
#    0.000    1.538    0.000    0.000    0.000    6.462 
#    0.000    0.000    0.000    0.000    0.000    0.000 
#
# Total GULP energy -145037.513121 kJ/mol
# GULP energy per Si atom -5578.365889 kJ/mol
# Density = 1.837443 g / cm^3
# Si number density = 18.416348 Si / 1000 Ang^3
#
#
#
# Elastic Constant Matrix: (Units=GPa)
#
#
# Indices 1 2 3 4 5 6 
#
# 1 72.7650 22.5516 16.4387 0.0000 12.0162 0.0000
# 2 22.5516 85.4717 14.3419 0.0000 -0.4680 0.0000
# 3 16.4387 14.3419 48.4732 0.0000 14.6199 0.0000
# 4 0.0000 0.0000 0.0000 12.8560 0.0000 -1.1135
# 5 12.0162 -0.4680 14.6199 0.0000 34.6901 0.0000
# 6 0.0000 0.0000 0.0000 -1.1135 0.0000 20.5562
#
#
#
# Elastic Compliance Matrix: (Units=1/GPa)
#
#
# Indices 1 2 3 4 5 6 
#
# 1 0.016353 -0.003822 -0.003083 0.000000 -0.004417 0.000000
# 2 -0.003822 0.013320 -0.003550 0.000000 0.002999 0.000000
# 3 -0.003083 -0.003550 0.025683 0.000000 -0.009804 0.000000
# 4 0.000000 0.000000 0.000000 0.078151 0.000000 0.004233
# 5 -0.004417 0.002999 -0.009804 0.000000 0.034529 0.000000
# 6 0.000000 0.000000 0.000000 0.004233 0.000000 0.048876
#
#
# Mechanical properties :
#
#
# Convention : Reuss Voigt Hill
#
# Bulk Modulus (GPa) = 29.02985 34.81938 31.92462
# Shear Modulus (GPa) = 20.05586 23.84563 21.95074
#
# Velocity S-wave (km/s) = 3.30362 3.60225 3.45616
# Velocity P-wave (km/s) = 5.50901 6.02075 5.77055
#
# Compressibility (1/GPa) = 0.03444730
#
# Stress axis : x y z
#
# Youngs Moduli (GPa) = 61.15026 75.07418 38.93683
#
# Poissons Ratio (x) = 0.28691 0.12004
# Poissons Ratio (y) = 0.23369 0.13821
# Poissons Ratio (z) = 0.18853 0.26649
#
# Static dielectric constant tensor:
#      x y z
#    x 1.657070 0.000000 0.002010 
#    y 0.000000 1.686800 0.000000 
#    z 0.002010 0.000000 1.641470 
# 
# From -- ./inp_files/197985.got.cif
#   From: 2010.05.17/outbox.cif.g08.bks.cpg/sg12_99_cif.got.tgz:197985.got - 2010.06.03 13:09:07.
