data_PCOD9203865
_publ_section_title
;
Structure prediction by ZEFSAII (Michael W. Deem and Ramdas Pophale) SiO2 
 PCOD9203865
Probable space group: C 2/M
;
_chemical_formula_sum "Si O2"
_cell_formula_units_Z 36
_cell_length_a 9.171743
_cell_length_b 24.251213
_cell_length_c 7.513658
_cell_angle_alpha 90.000000
_cell_angle_beta 110.003616
_cell_angle_gamma 90.000000
_cell_volume 1570.408386
_symmetry_space_group_name_H-M "C 2/M"
_symmetry_group_IT_number 12
_symmetry_cell_setting 'monoclinic'
loop_
_space_group_symop_operation_xyz
x,y,z
-x,y,-z
-x,-y,-z
x,-y,z
1/2+x,1/2+y,z
1/2-x,1/2+y,-z
1/2-x,1/2-y,-z
1/2+x,1/2-y,z
loop_
_atom_site_type_symbol
_atom_site_label
_atom_site_fract_x
_atom_site_fract_y
_atom_site_fract_z
Si Si1 0.283164 0.834512 0.578132
Si Si2 0.500000 0.915370 0.500000
Si Si3 0.261097 0.000000 0.224743
Si Si4 0.314473 0.765480 0.248877
Si Si5 0.000000 0.237173 0.000000
Si Si6 0.095813 0.000000 0.787412
Si Si7 0.000000 0.095054 0.500000
O O1 0.417666 0.879830 0.621503
O O2 0.336204 0.792531 0.447025
O O3 0.232596 0.798245 0.727990
O O4 0.124173 0.865626 0.457457
O O5 0.363755 0.949812 0.346104
O O6 0.084746 0.000000 0.224196
O O7 0.223191 0.000000 0.997254
O O8 0.448364 0.768660 0.158817
O O9 0.158831 0.793509 0.107782
O O10 0.100207 0.054873 0.668593
#
# Coordination Sequence:
#
# PCOD9203865 Si02
#       7
#     8   4   4   8   4   4   4
#     4  11  22  41  65  98 129 188 220 265 343 412
#     4  11  22  41  70 100 136 173 228 287 342 404
#     4  10  22  45  68  99 134 176 221 290 354 398
#     4  10  22  40  63  91 142 174 219 274 331 397
#     4  10  20  40  58  90 128 182 216 282 318 376
#     4  10  22  45  68  97 134 178 222 288 340 421
#     4  11  22  41  68  98 130 181 232 273 332 428
#
# _framework density 22.923974000000001
#
# number of rings (size 3 to 8) (size 9 to 14) (size 15 to 20)
#    0.000    1.556    2.222    2.667    0.000    3.556 
#   16.000    1.111    0.000    0.000    0.000    0.000 
#    0.000    0.000    0.000    0.000    0.000    0.000 
#
# Total GULP energy -100310.694325 kJ/mol
# GULP energy per Si atom -5572.816351 kJ/mol
# Density = 2.287180 g / cm^3
# Si number density = 22.923974 Si / 1000 Ang^3
#
#
#
# Elastic Constant Matrix: (Units=GPa)
#
#
# Indices 1 2 3 4 5 6 
#
# 1 149.9856 45.3961 40.3289 0.0000 -13.5173 0.0000
# 2 45.3961 87.0038 35.3100 0.0000 -10.3054 0.0000
# 3 40.3289 35.3100 142.9971 0.0000 -4.3125 0.0000
# 4 0.0000 0.0000 0.0000 1.4552 0.0000 4.3621
# 5 -13.5173 -10.3054 -4.3125 0.0000 49.9652 0.0000
# 6 0.0000 0.0000 0.0000 4.3621 0.0000 11.9305
#
#
#
# Elastic Compliance Matrix: (Units=1/GPa)
#
#
# Indices 1 2 3 4 5 6 
#
# 1 0.008250 -0.003572 -0.001403 0.000000 0.001374 0.000000
# 2 -0.003572 0.014607 -0.002544 0.000000 0.001827 0.000000
# 3 -0.001403 -0.002544 0.008011 0.000000 -0.000213 0.000000
# 4 0.000000 0.000000 0.000000 -7.158489 0.000000 2.617322
# 5 0.001374 0.001827 -0.000213 0.000000 0.020744 0.000000
# 6 0.000000 0.000000 0.000000 2.617322 0.000000 -0.873140
#
#
# Mechanical properties :
#
#
# Convention : Reuss Voigt Hill
#
# Bulk Modulus (GPa) = 63.18016 69.11739 66.14878
# Shear Modulus (GPa) = -0.62816 29.93361 14.65272
#
# Velocity S-wave (km/s) = -0.52404 3.61747 2.53096
# Velocity P-wave (km/s) = 5.22058 6.90394 6.12041
#
# Compressibility (1/GPa) = 0.01582775
#
# Stress axis : x y z
#
# Youngs Moduli (GPa) = 121.21785 68.46235 124.83346
#
# Poissons Ratio (x) = 0.24456 0.17515
# Poissons Ratio (y) = 0.43302 0.31760
# Poissons Ratio (z) = 0.17008 0.17418
#
# Static dielectric constant tensor:
#      x y z
#    x 1.865350 0.000000 0.019710 
#    y 0.000000 1.920960 0.000000 
#    z 0.019710 0.000000 1.930450 
# 
# From -- ./inp_files/39915.got.cif
#   From: 2010.05.17/outbox.cif.g08.bks.cpg/sg12_20_cif.got.tgz:39915.got - 2010.06.03 13:09:07.
