data_PCOD9203072
_publ_section_title
;
Structure prediction by ZEFSAII (Michael W. Deem and Ramdas Pophale) SiO2 
 PCOD9203072
Probable space group: C 2/M
;
_chemical_formula_sum "Si O2"
_cell_formula_units_Z 50
_cell_length_a 25.336843
_cell_length_b 12.712900
_cell_length_c 8.766753
_cell_angle_alpha 90.000000
_cell_angle_beta 119.922513
_cell_angle_gamma 90.000000
_cell_volume 2447.400846
_symmetry_space_group_name_H-M "C 2/M"
_symmetry_group_IT_number 12
_symmetry_cell_setting 'monoclinic'
loop_
_space_group_symop_operation_xyz
x,y,z
-x,y,-z
-x,-y,-z
x,-y,z
1/2+x,1/2+y,z
1/2-x,1/2+y,-z
1/2-x,1/2-y,-z
1/2+x,1/2-y,z
loop_
_atom_site_type_symbol
_atom_site_label
_atom_site_fract_x
_atom_site_fract_y
_atom_site_fract_z
Si Si1 0.846094 0.223520 0.194187
Si Si2 0.026899 0.613800 0.868136
Si Si3 0.183926 0.290145 0.354290
Si Si4 0.097233 0.377773 0.495174
Si Si5 0.769676 0.617926 0.875669
Si Si6 0.000000 0.000000 0.000000
Si Si7 0.402872 0.328643 0.985676
O O1 0.893736 0.292166 0.359146
O O2 0.798979 0.162357 0.234534
O O3 0.871636 0.144467 0.102293
O O4 0.805880 0.308275 0.043990
O O5 0.056843 0.500000 0.879083
O O6 0.970330 0.626844 0.672454
O O7 0.068568 0.715108 0.930945
O O8 0.000000 0.608830 0.000000
O O9 0.250000 0.250000 0.500000
O O10 0.144600 0.342867 0.431081
O O11 0.197190 0.372183 0.238181
O O12 0.145602 0.196170 0.218115
O O13 0.108423 0.500000 0.555892
O O14 0.768573 0.500000 0.930526
O O15 0.953625 0.908193 0.001393
#
# Coordination Sequence:
#
# PCOD9203072 Si02
#       7
#     8   8   8   8   8   2   8
#     4  10  23  39  58  91 130 167 210 269 326 391
#     4  10  20  38  66  94 122 161 211 270 322 379
#     4  11  21  40  62  93 126 167 214 269 315 384
#     4  11  21  37  64  97 128 162 212 270 327 386
#     4  10  21  39  59  86 129 175 211 254 330 391
#     4  12  24  48  70  98 120 188 234 260 322 400
#     4  11  24  43  67  91 131 169 220 271 322 397
#
# _framework density 20.429838
#
# number of rings (size 3 to 8) (size 9 to 14) (size 15 to 20)
#    0.000    1.440    4.000    0.960    1.120    3.840 
#    2.880    1.600    0.000    3.840    0.000    0.000 
#    0.000    0.000    0.000    0.000    0.000    0.000 
#
# Total GULP energy -139338.544064 kJ/mol
# GULP energy per Si atom -5573.541763 kJ/mol
# Density = 2.038334 g / cm^3
# Si number density = 20.429838 Si / 1000 Ang^3
#
#
#
# Elastic Constant Matrix: (Units=GPa)
#
#
# Indices 1 2 3 4 5 6 
#
# 1 78.6522 52.6859 29.2301 0.0000 1.6355 0.0000
# 2 52.6859 89.6426 24.3848 0.0000 9.1681 0.0000
# 3 29.2301 24.3848 81.2756 0.0000 8.5646 0.0000
# 4 0.0000 0.0000 0.0000 -0.8983 0.0000 2.3854
# 5 1.6355 9.1681 8.5646 0.0000 31.6304 0.0000
# 6 0.0000 0.0000 0.0000 2.3854 0.0000 -7.2433
#
#
#
# Elastic Compliance Matrix: (Units=1/GPa)
#
#
# Indices 1 2 3 4 5 6 
#
# 1 0.022781 -0.012452 -0.004851 0.000000 0.003745 0.000000
# 2 -0.012452 0.019166 -0.000777 0.000000 -0.004701 0.000000
# 3 -0.004851 -0.000777 0.014649 0.000000 -0.003491 0.000000
# 4 0.000000 0.000000 0.000000 -8.870499 0.000000 -2.921274
# 5 0.003745 -0.004701 -0.003491 0.000000 0.033729 0.000000
# 6 0.000000 0.000000 0.000000 -2.921274 0.000000 -1.100107
#
#
# Mechanical properties :
#
#
# Convention : Reuss Voigt Hill
#
# Bulk Modulus (GPa) = 48.93447 51.35244 50.14346
# Shear Modulus (GPa) = -0.50827 14.24906 6.87040
#
# Velocity S-wave (km/s) = -0.49933 2.64382 1.83582
# Velocity P-wave (km/s) = 4.86539 5.87454 5.39362
#
# Compressibility (1/GPa) = 0.02043549
#
# Stress axis : x y z
#
# Youngs Moduli (GPa) = 43.89716 52.17577 68.26187
#
# Poissons Ratio (x) = 0.64970 0.33117
# Poissons Ratio (y) = 0.54661 0.05301
# Poissons Ratio (z) = 0.21297 0.04052
#
# Static dielectric constant tensor:
#      x y z
#    x 1.800450 0.000000 -0.025750 
#    y 0.000000 1.709060 0.000000 
#    z -0.025750 0.000000 1.744240 
# 
# From -- ./inp_files/103303.got.cif
#   From: 2010.05.17/outbox.cif.g08.bks.cpg/sg12_52_cif.got.tgz:103303.got - 2010.06.03 13:09:07.
