data_PCOD9203850
_publ_section_title
;
Structure prediction by ZEFSAII (Michael W. Deem and Ramdas Pophale) SiO2 
 PCOD9203850
Probable space group: C 2/M
;
_chemical_formula_sum "Si O2"
_cell_formula_units_Z 56
_cell_length_a 9.617288
_cell_length_b 28.294559
_cell_length_c 11.277799
_cell_angle_alpha 90.000000
_cell_angle_beta 62.603132
_cell_angle_gamma 90.000000
_cell_volume 2724.676040
_symmetry_space_group_name_H-M "C 2/M"
_symmetry_group_IT_number 12
_symmetry_cell_setting 'monoclinic'
loop_
_space_group_symop_operation_xyz
x,y,z
-x,y,-z
-x,-y,-z
x,-y,z
1/2+x,1/2+y,z
1/2-x,1/2+y,-z
1/2-x,1/2-y,-z
1/2+x,1/2-y,z
loop_
_atom_site_type_symbol
_atom_site_label
_atom_site_fract_x
_atom_site_fract_y
_atom_site_fract_z
Si Si1 0.968802 0.584785 0.380280
Si Si2 0.283297 0.166790 0.693186
Si Si3 0.109272 0.447445 0.073917
Si Si4 0.188597 0.731320 0.690564
Si Si5 0.831409 0.141584 0.503777
Si Si6 0.847837 0.865814 0.010766
Si Si7 0.649492 0.276685 0.138588
O O1 0.789195 0.598851 0.425526
O O2 0.000000 0.562180 0.500000
O O3 0.062498 0.634632 0.358853
O O4 0.031938 0.560029 0.235793
O O5 0.292759 0.220830 0.647409
O O6 0.170002 0.144029 0.638467
O O7 0.220905 0.163389 0.850847
O O8 0.181056 0.500000 0.046783
O O9 0.226298 0.403864 0.014418
O O10 0.000000 0.445773 0.000000
O O11 0.250419 0.690596 0.580185
O O12 0.230260 0.712401 0.803864
O O13 0.007529 0.748349 0.759932
O O14 0.000000 0.137703 0.500000
O O15 0.897314 0.826604 0.897947
O O16 0.000000 0.891946 0.000000
O O17 0.750000 0.250000 0.000000
#
# Coordination Sequence:
#
# PCOD9203850 Si02
#       7
#     8   8   8   8   8   8   8
#     4   9  21  41  64  86 121 164 204 246 311 383
#     4  10  20  40  54  80 121 165 206 251 298 350
#     4  10  24  43  68  99 123 149 197 260 331 393
#     4  12  23  36  56  82 123 170 215 255 291 349
#     4  11  24  36  56  86 121 165 214 258 299 351
#     4  11  22  40  64  87 124 163 200 257 307 375
#     4  12  23  37  55  86 123 164 214 250 294 357
#
# _framework density 20.552902
#
# number of rings (size 3 to 8) (size 9 to 14) (size 15 to 20)
#    0.000    1.286    2.857    2.571    4.000    2.286 
#    0.000    0.000    0.000    0.429    0.000    0.000 
#    0.000    0.000    0.000    0.000    0.000    0.000 
#
# Total GULP energy -156086.599603 kJ/mol
# GULP energy per Si atom -5574.521414 kJ/mol
# Density = 2.050612 g / cm^3
# Si number density = 20.552902 Si / 1000 Ang^3
#
#
#
# Elastic Constant Matrix: (Units=GPa)
#
#
# Indices 1 2 3 4 5 6 
#
# 1 133.3651 33.9353 27.7476 0.0000 5.6827 0.0000
# 2 33.9353 61.3398 8.0958 0.0000 -0.4053 0.0000
# 3 27.7476 8.0958 68.6421 0.0000 5.7525 0.0000
# 4 0.0000 0.0000 0.0000 3.9022 0.0000 13.4554
# 5 5.6827 -0.4053 5.7525 0.0000 29.5235 0.0000
# 6 0.0000 0.0000 0.0000 13.4554 0.0000 -14.4548
#
#
#
# Elastic Compliance Matrix: (Units=1/GPa)
#
#
# Indices 1 2 3 4 5 6 
#
# 1 0.009429 -0.004811 -0.003138 0.000000 -0.001270 0.000000
# 2 -0.004811 0.019026 -0.000405 0.000000 0.001266 0.000000
# 3 -0.003138 -0.000405 0.016097 0.000000 -0.002538 0.000000
# 4 0.000000 0.000000 0.000000 0.060874 0.000000 0.056665
# 5 -0.001270 0.001266 -0.002538 0.000000 0.034628 0.000000
# 6 0.000000 0.000000 0.000000 0.056665 0.000000 -0.016434
#
#
# Mechanical properties :
#
#
# Convention : Reuss Voigt Hill
#
# Bulk Modulus (GPa) = 35.91380 44.76716 40.34048
# Shear Modulus (GPa) = 33.42008 16.69873 25.05941
#
# Velocity S-wave (km/s) = 4.03681 2.85349 3.49558
# Velocity P-wave (km/s) = 6.26415 5.71710 5.99686
#
# Compressibility (1/GPa) = 0.02784445
#
# Stress axis : x y z
#
# Youngs Moduli (GPa) = 106.05226 52.55953 62.12235
#
# Poissons Ratio (x) = 0.25286 0.19493
# Poissons Ratio (y) = 0.51020 0.02518
# Poissons Ratio (z) = 0.33278 0.02130
#
# Static dielectric constant tensor:
#      x y z
#    x 1.753940 0.000000 -0.018220 
#    y 0.000000 1.706720 0.000000 
#    z -0.018220 0.000000 1.817450 
# 
# From -- ./inp_files/125172.got.cif
#   From: 2010.05.17/outbox.cif.g08.bks.cpg/sg12_63_cif.got.tgz:125172.got - 2010.06.03 13:09:07.
