data_PCOD9203545
_publ_section_title
;
Structure prediction by ZEFSAII (Michael W. Deem and Ramdas Pophale) SiO2 
 PCOD9203545
Probable space group: C 2/M
;
_chemical_formula_sum "Si O2"
_cell_formula_units_Z 40
_cell_length_a 30.092029
_cell_length_b 7.681524
_cell_length_c 15.014639
_cell_angle_alpha 90.000000
_cell_angle_beta 148.302697
_cell_angle_gamma 90.000000
_cell_volume 1823.601529
_symmetry_space_group_name_H-M "C 2/M"
_symmetry_group_IT_number 12
_symmetry_cell_setting 'monoclinic'
loop_
_space_group_symop_operation_xyz
x,y,z
-x,y,-z
-x,-y,-z
x,-y,z
1/2+x,1/2+y,z
1/2-x,1/2+y,-z
1/2-x,1/2-y,-z
1/2+x,1/2-y,z
loop_
_atom_site_type_symbol
_atom_site_label
_atom_site_fract_x
_atom_site_fract_y
_atom_site_fract_z
Si Si1 0.147856 0.298859 0.592138
Si Si2 0.713458 0.707284 0.034186
Si Si3 0.254652 0.207564 0.612006
Si Si4 0.442636 0.212922 0.984672
Si Si5 0.975463 0.293538 0.237478
O O1 0.140483 0.500000 0.608706
O O2 0.220490 0.220938 0.779373
O O3 0.182929 0.290724 0.551188
O O4 0.053583 0.221251 0.428214
O O5 0.707687 0.500000 0.035511
O O6 0.750000 0.750000 0.000000
O O7 0.618218 0.773520 0.883804
O O8 0.250000 0.250000 0.500000
O O9 0.345928 0.266000 0.804107
O O10 0.248299 0.000000 0.611780
O O11 0.443632 0.000000 0.986963
O O12 0.500000 0.269743 0.000000
O O13 0.474329 0.275875 0.134471
O O14 0.991791 0.500000 0.258080
#
# Coordination Sequence:
#
# PCOD9203545 Si02
#       5
#     8   8   8   8   8
#     4  10  22  40  63  89 121 158 200 251 304 361
#     4  11  24  42  64  91 123 158 201 255 309 363
#     4  11  21  34  56  86 122 163 203 247 298 359
#     4   9  17  31  54  83 115 155 200 240 287 350
#     4  10  20  39  64  88 119 160 203 249 301 361
#
# _framework density 21.934618
#
# number of rings (size 3 to 8) (size 9 to 14) (size 15 to 20)
#    0.000    1.800    2.000    2.400    0.000    5.600 
#    0.000    4.000    0.000    3.000    0.000    0.000 
#    0.000    0.000    0.000    0.000    0.000    0.000 
#
# Total GULP energy -111752.329416 kJ/mol
# GULP energy per Si atom -5587.616471 kJ/mol
# Density = 2.188469 g / cm^3
# Si number density = 21.934618 Si / 1000 Ang^3
#
#
#
# Elastic Constant Matrix: (Units=GPa)
#
#
# Indices 1 2 3 4 5 6 
#
# 1 109.0712 -22.1783 52.2905 0.0000 11.1696 0.0000
# 2 -22.1783 43.9977 2.7777 0.0000 1.4887 0.0000
# 3 52.2905 2.7777 173.5398 0.0000 27.6510 0.0000
# 4 0.0000 0.0000 0.0000 11.0039 0.0000 3.5788
# 5 11.1696 1.4887 27.6510 0.0000 34.2338 0.0000
# 6 0.0000 0.0000 0.0000 3.5788 0.0000 24.3059
#
#
#
# Elastic Compliance Matrix: (Units=1/GPa)
#
#
# Indices 1 2 3 4 5 6 
#
# 1 0.012364 0.006508 -0.003606 0.000000 -0.001405 0.000000
# 2 0.006508 0.026196 -0.002135 0.000000 -0.001538 0.000000
# 3 -0.003606 -0.002135 0.007668 0.000000 -0.004924 0.000000
# 4 0.000000 0.000000 0.000000 0.095448 0.000000 -0.014054
# 5 -0.001405 -0.001538 -0.004924 0.000000 0.033713 0.000000
# 6 0.000000 0.000000 0.000000 -0.014054 0.000000 0.043212
#
#
# Mechanical properties :
#
#
# Convention : Reuss Voigt Hill
#
# Bulk Modulus (GPa) = 20.93770 43.59873 32.26821
# Shear Modulus (GPa) = 21.46046 33.48996 27.47521
#
# Velocity S-wave (km/s) = 3.13130 3.91168 3.54304
# Velocity P-wave (km/s) = 4.75811 6.34992 5.61075
#
# Compressibility (1/GPa) = 0.04776074
#
# Stress axis : x y z
#
# Youngs Moduli (GPa) = 80.87903 38.17424 130.41893
#
# Poissons Ratio (x) = -0.24843 0.47028
# Poissons Ratio (y) = -0.52633 0.27846
# Poissons Ratio (z) = 0.29164 0.08151
#
# Static dielectric constant tensor:
#      x y z
#    x 1.745460 0.000000 -0.011790 
#    y 0.000000 2.218700 0.000000 
#    z -0.011790 0.000000 1.830670 
# 
# From -- ./inp_files/211221.got.cif
#   From: 2010.05.17/outbox.cif.g08.bks.cpg/sg12_106_cif.got.tgz:211221.got - 2010.06.03 13:09:07.
