data_PCOD9203702
_publ_section_title
;
Structure prediction by ZEFSAII (Michael W. Deem and Ramdas Pophale) SiO2 
 PCOD9203702
Probable space group: C 2/M
;
_chemical_formula_sum "Si O2"
_cell_formula_units_Z 48
_cell_length_a 13.783008
_cell_length_b 19.914188
_cell_length_c 11.795059
_cell_angle_alpha 90.000000
_cell_angle_beta 46.713033
_cell_angle_gamma 90.000000
_cell_volume 2356.652757
_symmetry_space_group_name_H-M "C 2/M"
_symmetry_group_IT_number 12
_symmetry_cell_setting 'monoclinic'
loop_
_space_group_symop_operation_xyz
x,y,z
-x,y,-z
-x,-y,-z
x,-y,z
1/2+x,1/2+y,z
1/2-x,1/2+y,-z
1/2-x,1/2-y,-z
1/2+x,1/2-y,z
loop_
_atom_site_type_symbol
_atom_site_label
_atom_site_fract_x
_atom_site_fract_y
_atom_site_fract_z
Si Si1 0.558187 0.922573 0.196174
Si Si2 0.766113 0.923775 0.845214
Si Si3 0.248367 0.078632 0.412929
Si Si4 0.628310 0.286075 0.162266
Si Si5 0.135820 0.326048 0.326873
Si Si6 0.663723 0.306147 0.635068
O O1 0.402378 0.905144 0.320023
O O2 0.639065 0.875619 0.217030
O O3 0.570146 0.000000 0.223175
O O4 0.620553 0.918498 0.020569
O O5 0.765280 0.913745 0.711247
O O6 0.846079 0.864327 0.839819
O O7 0.813920 0.000000 0.829301
O O8 0.158850 0.129947 0.554946
O O9 0.223791 0.000000 0.459381
O O10 0.622238 0.248578 0.287721
O O11 0.483386 0.278035 0.222536
O O12 0.750000 0.250000 0.000000
O O13 0.258449 0.327675 0.314268
O O14 0.000000 0.343758 0.500000
O O15 0.750000 0.250000 0.500000
#
# Coordination Sequence:
#
# PCOD9203702 Si02
#       6
#     8   8   8   8   8   8
#     4  10  20  39  65  98 135 176 221 267 322 392
#     4  10  22  41  65  94 134 174 219 272 324 386
#     4  10  21  38  66 100 132 175 221 269 327 385
#     4  12  26  45  66  95 131 175 218 267 331 398
#     4  12  23  42  68  97 131 169 216 271 336 386
#     4  12  25  42  66  96 134 170 217 273 328 394
#
# _framework density 20.367871000000001
#
# number of rings (size 3 to 8) (size 9 to 14) (size 15 to 20)
#    0.000    1.000    5.000    1.500    0.000    4.333 
#    3.000    1.667    0.000    2.000    0.000    0.000 
#    0.000    0.000    0.000    0.000    0.000    0.000 
#
# Total GULP energy -134085.225349 kJ/mol
# GULP energy per Si atom -5586.884390 kJ/mol
# Density = 2.032151 g / cm^3
# Si number density = 20.367871 Si / 1000 Ang^3
#
#
#
# Elastic Constant Matrix: (Units=GPa)
#
#
# Indices 1 2 3 4 5 6 
#
# 1 85.6031 37.4543 55.2242 -0.0001 -9.9907 0.0001
# 2 37.4543 93.8452 22.5968 0.0000 -3.9983 0.0000
# 3 55.2242 22.5968 57.5701 -0.0001 -12.3192 0.0001
# 4 -0.0001 0.0000 -0.0001 37.0305 0.0001 5.8268
# 5 -9.9907 -3.9983 -12.3192 0.0001 33.5726 -0.0001
# 6 0.0001 0.0000 0.0001 5.8268 -0.0001 31.2362
#
#
#
# Elastic Compliance Matrix: (Units=1/GPa)
#
#
# Indices 1 2 3 4 5 6 
#
# 1 0.033773 -0.006253 -0.030333 0.000000 -0.001825 0.000000
# 2 -0.006253 0.012929 0.000928 0.000000 0.000019 0.000000
# 3 -0.030333 0.000928 0.047961 0.000000 0.008683 0.000000
# 4 0.000000 0.000000 0.000000 0.027821 0.000000 -0.005190
# 5 -0.001825 0.000019 0.008683 0.000000 0.032432 0.000000
# 6 0.000000 0.000000 0.000000 -0.005190 0.000000 0.032982
#
#
# Mechanical properties :
#
#
# Convention : Reuss Voigt Hill
#
# Bulk Modulus (GPa) = 42.83348 51.95210 47.39279
# Shear Modulus (GPa) = 18.72677 28.48406 23.60541
#
# Velocity S-wave (km/s) = 3.03549 3.74368 3.40803
# Velocity P-wave (km/s) = 5.77592 6.65200 6.22938
#
# Compressibility (1/GPa) = 0.02334622
#
# Stress axis : x y z
#
# Youngs Moduli (GPa) = 29.60924 77.34583 20.85024
#
# Poissons Ratio (x) = 0.48365 0.63245
# Poissons Ratio (y) = 0.18515 -0.01934
# Poissons Ratio (z) = 0.89814 -0.07175
#
# Static dielectric constant tensor:
#      x y z
#    x 1.701990 0.000000 -0.018050 
#    y 0.000000 1.737420 0.000000 
#    z -0.018050 0.000000 1.770100 
# 
# From -- ./inp_files/133743.got.cif
#   From: 2010.05.17/outbox.cif.g08.bks.cpg/sg12_67_cif.got.tgz:133743.got - 2010.06.03 13:09:07.
