data_PCOD9203784
_publ_section_title
;
Structure prediction by ZEFSAII (Michael W. Deem and Ramdas Pophale) SiO2 
 PCOD9203784
Probable space group: C 2/M
;
_chemical_formula_sum "Si O2"
_cell_formula_units_Z 64
_cell_length_a 17.098752
_cell_length_b 15.254418
_cell_length_c 23.752700
_cell_angle_alpha 90.000000
_cell_angle_beta 26.527404
_cell_angle_gamma 90.000000
_cell_volume 2767.048982
_symmetry_space_group_name_H-M "C 2/M"
_symmetry_group_IT_number 12
_symmetry_cell_setting 'monoclinic'
loop_
_space_group_symop_operation_xyz
x,y,z
-x,y,-z
-x,-y,-z
x,-y,z
1/2+x,1/2+y,z
1/2-x,1/2+y,-z
1/2-x,1/2-y,-z
1/2+x,1/2-y,z
loop_
_atom_site_type_symbol
_atom_site_label
_atom_site_fract_x
_atom_site_fract_y
_atom_site_fract_z
Si Si1 0.230764 0.900050 0.968353
Si Si2 0.819510 0.403643 0.444869
Si Si3 0.747299 0.666868 0.612950
Si Si4 0.830162 0.733980 0.147975
Si Si5 0.350343 0.361440 0.553310
Si Si6 0.947748 0.400044 0.167123
Si Si7 0.069062 0.258293 0.231190
Si Si8 0.813014 0.097432 0.230191
O O1 0.348726 0.886117 0.948117
O O2 0.295605 0.823579 0.885848
O O3 0.276070 0.000000 0.920463
O O4 0.022437 0.897465 0.106166
O O5 0.900141 0.500000 0.386322
O O6 0.776901 0.387443 0.537312
O O7 0.658810 0.399225 0.503617
O O8 0.935921 0.322045 0.349866
O O9 0.859166 0.756294 0.541701
O O10 0.547001 0.702160 0.736711
O O11 0.773697 0.616212 0.653801
O O12 0.877823 0.668454 0.167212
O O13 0.675440 0.701494 0.207412
O O14 0.772059 0.826099 0.212774
O O15 0.000000 0.746849 0.000000
O O16 0.500000 0.391271 0.500000
O O17 0.167198 0.386184 0.702164
O O18 0.924798 0.500000 0.162977
O O19 0.770211 0.000000 0.237234
#
# Coordination Sequence:
#
# PCOD9203784 Si02
#       8
#     8   8   8   8   8   8   8   8
#     4  10  20  39  67  94 124 164 216 266 313 378
#     4  11  24  42  65  95 128 169 218 265 320 381
#     4  11  24  41  66  92 128 173 213 263 319 387
#     4  12  26  42  64  96 133 170 209 266 324 382
#     4  11  23  41  67  93 128 164 215 267 322 378
#     4  11  24  43  66  94 128 169 214 264 323 384
#     4  11  22  40  65  91 126 168 216 260 322 376
#     4  11  24  42  65  97 131 170 216 263 318 384
#
# _framework density 23.129334
#
# number of rings (size 3 to 8) (size 9 to 14) (size 15 to 20)
#    0.000    1.000    5.000    2.625    5.250    3.500 
#    0.000    0.625    0.000    2.250    0.000    0.000 
#    0.000    0.000    0.000    0.000    0.000    0.000 
#
# Total GULP energy -179056.439186 kJ/mol
# GULP energy per Si atom -5595.513725 kJ/mol
# Density = 2.307669 g / cm^3
# Si number density = 23.129334 Si / 1000 Ang^3
#
#
#
# Elastic Constant Matrix: (Units=GPa)
#
#
# Indices 1 2 3 4 5 6 
#
# 1 78.5414 15.0381 8.5704 -0.0199 -2.1640 0.0052
# 2 15.0381 72.8553 -1.7926 -0.0059 9.3015 -0.0039
# 3 8.5704 -1.7926 37.0472 -0.0199 15.2954 0.0176
# 4 -0.0199 -0.0059 -0.0199 18.6708 -0.0055 1.7479
# 5 -2.1640 9.3015 15.2954 -0.0055 41.5127 -0.0076
# 6 0.0052 -0.0039 0.0176 1.7479 -0.0076 -20.0782
#
#
#
# Elastic Compliance Matrix: (Units=1/GPa)
#
#
# Indices 1 2 3 4 5 6 
#
# 1 0.013993 -0.003419 -0.004741 0.000010 0.003243 0.000000
# 2 -0.003419 0.015141 0.003536 0.000003 -0.004873 0.000001
# 3 -0.004741 0.003536 0.033837 0.000025 -0.013507 0.000035
# 4 0.000010 0.000003 0.000025 0.053127 -0.000001 0.004625
# 5 0.003243 -0.004873 -0.013507 -0.000001 0.030327 -0.000022
# 6 0.000000 0.000001 0.000035 0.004625 -0.000022 -0.049403
#
#
# Mechanical properties :
#
#
# Convention : Reuss Voigt Hill
#
# Bulk Modulus (GPa) = 18.61448 25.78617 22.20033
# Shear Modulus (GPa) = 40.26465 19.12959 29.69712
#
# Velocity S-wave (km/s) = 4.17687 2.87900 3.58713
# Velocity P-wave (km/s) = 5.59707 4.71428 5.17453
#
# Compressibility (1/GPa) = 0.05372162
#
# Stress axis : x y z
#
# Youngs Moduli (GPa) = 71.46179 66.04689 29.55356
#
# Poissons Ratio (x) = 0.22582 0.14012
# Poissons Ratio (y) = 0.24433 -0.10449
# Poissons Ratio (z) = 0.33882 -0.23352
#
# Static dielectric constant tensor:
#      x y z
#    x 1.868140 0.000000 -0.027580 
#    y 0.000000 1.843590 0.000010 
#    z -0.027580 0.000010 1.882400 
# 
# From -- ./inp_files/344033.got.cif
#   From: 2010.05.17/outbox.cif.g08.bks.cpg/sg12_173_cif.got.tgz:344033.got - 2010.06.03 13:09:07.
