data_PCOD9203590
_publ_section_title
;
Structure prediction by ZEFSAII (Michael W. Deem and Ramdas Pophale) SiO2 
 PCOD9203590
Probable space group: C 2/M
;
_chemical_formula_sum "Si O2"
_cell_formula_units_Z 52
_cell_length_a 28.821631
_cell_length_b 7.843654
_cell_length_c 11.517027
_cell_angle_alpha 90.000000
_cell_angle_beta 112.677299
_cell_angle_gamma 90.000000
_cell_volume 2402.335236
_symmetry_space_group_name_H-M "C 2/M"
_symmetry_group_IT_number 12
_symmetry_cell_setting 'monoclinic'
loop_
_space_group_symop_operation_xyz
x,y,z
-x,y,-z
-x,-y,-z
x,-y,z
1/2+x,1/2+y,z
1/2-x,1/2+y,-z
1/2-x,1/2-y,-z
1/2+x,1/2-y,z
loop_
_atom_site_type_symbol
_atom_site_label
_atom_site_fract_x
_atom_site_fract_y
_atom_site_fract_z
Si Si1 0.111344 0.808054 0.448099
Si Si2 0.003371 0.695397 0.373553
Si Si3 0.167338 0.696887 0.735943
Si Si4 0.222041 0.689328 0.133904
Si Si5 0.699342 0.195168 0.385339
Si Si6 0.151576 0.000000 0.013624
Si Si7 0.412729 0.201577 0.132133
O O1 0.142603 0.759184 0.592771
O O2 0.150762 0.795576 0.381403
O O3 0.061097 0.698721 0.390811
O O4 0.093129 0.000000 0.442812
O O5 0.985481 0.500000 0.370895
O O6 0.965784 0.760707 0.238904
O O7 0.000000 0.774003 0.500000
O O8 0.181578 0.500000 0.735176
O O9 0.217871 0.797293 0.813127
O O10 0.125888 0.711166 0.795946
O O11 0.206067 0.500000 0.076811
O O12 0.208167 0.705931 0.257038
O O13 0.195303 0.849078 0.050661
O O14 0.750000 0.250000 0.500000
O O15 0.689579 0.000000 0.408228
O O16 0.108695 0.844595 0.974759
O O17 0.414900 0.000000 0.096057
#
# Coordination Sequence:
#
# PCOD9203590 Si02
#       7
#     8   8   8   8   8   4   8
#     4  12  24  34  61  99 133 166 207 258 321 399
#     4  10  20  39  64  92 130 170 206 263 329 381
#     4  11  21  39  60  91 133 172 208 259 321 386
#     4  11  25  43  63  92 127 170 215 265 321 382
#     4  11  23  39  63  92 129 164 203 257 328 393
#     4  12  26  44  67  85 128 181 219 273 310 368
#     4  10  24  42  64  93 129 174 222 262 313 380
#
# _framework density 21.645603999999999
#
# number of rings (size 3 to 8) (size 9 to 14) (size 15 to 20)
#    0.000    1.077    3.846    2.769    5.385    0.923 
#    0.000    0.000    0.000    1.846    0.000    4.308 
#    0.000    0.000    0.000    0.000    0.000    0.000 
#
# Total GULP energy -144794.282299 kJ/mol
# GULP energy per Si atom -5569.010858 kJ/mol
# Density = 2.159634 g / cm^3
# Si number density = 21.645604 Si / 1000 Ang^3
#
#
#
# Elastic Constant Matrix: (Units=GPa)
#
#
# Indices 1 2 3 4 5 6 
#
# 1 80.4566 7.2612 22.6942 0.0000 25.2399 0.0000
# 2 7.2612 132.3244 25.4815 0.0000 5.8376 0.0000
# 3 22.6942 25.4815 53.2195 0.0000 29.7115 0.0000
# 4 0.0000 0.0000 0.0000 27.2366 0.0000 18.6625
# 5 25.2399 5.8376 29.7115 0.0000 44.0021 0.0000
# 6 0.0000 0.0000 0.0000 18.6625 0.0000 29.8674
#
#
#
# Elastic Compliance Matrix: (Units=1/GPa)
#
#
# Indices 1 2 3 4 5 6 
#
# 1 0.015381 -0.000032 -0.002601 0.000000 -0.007062 0.000000
# 2 -0.000032 0.008507 -0.005521 0.000000 0.002617 0.000000
# 3 -0.002601 -0.005521 0.034189 0.000000 -0.020861 0.000000
# 4 0.000000 0.000000 0.000000 0.064204 0.000000 -0.040117
# 5 -0.007062 0.002617 -0.020861 0.000000 0.040516 0.000000
# 6 0.000000 0.000000 0.000000 -0.040117 0.000000 0.058549
#
#
# Mechanical properties :
#
#
# Convention : Reuss Voigt Hill
#
# Bulk Modulus (GPa) = 23.94076 41.87491 32.90784
# Shear Modulus (GPa) = 19.87485 34.25878 27.06682
#
# Velocity S-wave (km/s) = 3.03346 3.98265 3.54001
# Velocity P-wave (km/s) = 4.83255 6.36682 5.65198
#
# Compressibility (1/GPa) = 0.04176976
#
# Stress axis : x y z
#
# Youngs Moduli (GPa) = 65.01499 117.55638 29.24937
#
# Poissons Ratio (x) = 0.00371 0.07608
# Poissons Ratio (y) = 0.00205 0.16148
# Poissons Ratio (z) = 0.16911 0.64899
#
# Static dielectric constant tensor:
#      x y z
#    x 1.811350 0.000000 0.003710 
#    y 0.000000 1.804240 0.000000 
#    z 0.003710 0.000000 1.815710 
# 
# From -- ./inp_files/181215.got.cif
#   From: 2010.05.17/outbox.cif.g08.bks.cpg/sg12_91_cif.got.tgz:181215.got - 2010.06.03 13:09:07.
