data_PCOD9203513
_publ_section_title
;
Structure prediction by ZEFSAII (Michael W. Deem and Ramdas Pophale) SiO2 
 PCOD9203513
Probable space group: C 2/M
;
_chemical_formula_sum "Si O2"
_cell_formula_units_Z 48
_cell_length_a 28.119911
_cell_length_b 14.835296
_cell_length_c 11.616017
_cell_angle_alpha 90.000000
_cell_angle_beta 29.100047
_cell_angle_gamma 90.000000
_cell_volume 2356.697830
_symmetry_space_group_name_H-M "C 2/M"
_symmetry_group_IT_number 12
_symmetry_cell_setting 'monoclinic'
loop_
_space_group_symop_operation_xyz
x,y,z
-x,y,-z
-x,-y,-z
x,-y,z
1/2+x,1/2+y,z
1/2-x,1/2+y,-z
1/2-x,1/2-y,-z
1/2+x,1/2-y,z
loop_
_atom_site_type_symbol
_atom_site_label
_atom_site_fract_x
_atom_site_fract_y
_atom_site_fract_z
Si Si1 0.936057 0.500000 0.473846
Si Si2 0.919221 0.736333 0.941806
Si Si3 0.278855 0.796318 0.060612
Si Si4 0.844068 0.500000 0.921241
Si Si5 0.132968 0.326313 0.516620
Si Si6 0.791608 0.349600 0.394549
Si Si7 0.092017 0.900257 0.879522
O O1 0.895974 0.500000 0.687539
O O2 0.889438 0.411575 0.515648
O O3 0.055570 0.500000 0.212874
O O4 0.032169 0.727440 0.729221
O O5 0.888147 0.726454 0.875408
O O6 0.863880 0.659242 0.134440
O O7 0.888985 0.833166 0.056009
O O8 0.212135 0.743474 0.296358
O O9 0.250000 0.750000 0.000000
O O10 0.280961 0.906329 0.061030
O O11 0.156169 0.365880 0.594136
O O12 0.750000 0.250000 0.500000
O O13 0.691553 0.404068 0.594690
O O14 0.067774 0.000000 0.971995
O O15 0.000000 0.867036 0.000000
#
# Coordination Sequence:
#
# PCOD9203513 Si02
#       7
#     4   8   8   4   8   8   8
#     4  11  24  42  74  96 135 180 232 286 337 404
#     4  11  23  43  64  95 139 173 221 276 344 396
#     4  12  25  44  70  99 131 180 228 280 341 403
#     4  11  24  48  65 102 135 176 235 287 340 399
#     4  12  23  42  72  99 132 180 221 280 343 404
#     4  10  20  39  63  95 130 177 216 268 339 405
#     4  10  21  38  62  94 133 179 224 267 333 412
#
# _framework density 20.367481000000002
#
# number of rings (size 3 to 8) (size 9 to 14) (size 15 to 20)
#    0.000    1.000    6.667    2.500    1.167    0.667 
#    6.000    0.833    0.000    1.000    0.000    0.000 
#    0.000    0.000    0.000    0.000    0.000    0.000 
#
# Total GULP energy -133705.774105 kJ/mol
# GULP energy per Si atom -5571.073921 kJ/mol
# Density = 2.032112 g / cm^3
# Si number density = 20.367481 Si / 1000 Ang^3
#
#
#
# Elastic Constant Matrix: (Units=GPa)
#
#
# Indices 1 2 3 4 5 6 
#
# 1 132.7016 28.9312 25.3235 0.0000 -9.9233 0.0000
# 2 28.9312 132.2414 13.2146 0.0000 0.0394 0.0000
# 3 25.3235 13.2146 63.5100 0.0000 -14.9931 0.0000
# 4 0.0000 0.0000 0.0000 15.1153 0.0000 9.2453
# 5 -9.9233 0.0394 -14.9931 0.0000 29.6058 0.0000
# 6 0.0000 0.0000 0.0000 9.2453 0.0000 10.3971
#
#
#
# Elastic Compliance Matrix: (Units=1/GPa)
#
#
# Indices 1 2 3 4 5 6 
#
# 1 0.008511 -0.001591 -0.002713 0.000000 0.001481 0.000000
# 2 -0.001591 0.008043 -0.001326 0.000000 -0.001216 0.000000
# 3 -0.002713 -0.001326 0.019182 0.000000 0.008807 0.000000
# 4 0.000000 0.000000 0.000000 0.145047 0.000000 -0.128978
# 5 0.001481 -0.001216 0.008807 0.000000 0.038735 0.000000
# 6 0.000000 0.000000 0.000000 -0.128978 0.000000 0.210869
#
#
# Mechanical properties :
#
#
# Convention : Reuss Voigt Hill
#
# Bulk Modulus (GPa) = 40.85668 51.48797 46.17232
# Shear Modulus (GPa) = 11.11589 28.42256 19.76922
#
# Velocity S-wave (km/s) = 2.33870 3.73967 3.11887
# Velocity P-wave (km/s) = 5.23412 6.63184 5.97400
#
# Compressibility (1/GPa) = 0.02447580
#
# Stress axis : x y z
#
# Youngs Moduli (GPa) = 117.49356 124.33258 52.13163
#
# Poissons Ratio (x) = 0.19786 0.14143
# Poissons Ratio (y) = 0.18698 0.06912
# Poissons Ratio (z) = 0.31875 0.16486
#
# Static dielectric constant tensor:
#      x y z
#    x 1.916440 0.000000 -0.058560 
#    y 0.000000 1.754300 0.000000 
#    z -0.058560 0.000000 1.793880 
# 
# From -- ./inp_files/183710.got.cif
#   From: 2010.05.17/outbox.cif.g08.bks.cpg/sg12_92_cif.got.tgz:183710.got - 2010.06.03 13:09:07.
