data_PCOD9203191
_publ_section_title
;
Structure prediction by ZEFSAII (Michael W. Deem and Ramdas Pophale) SiO2 
 PCOD9203191
Probable space group: C 2/M
;
_chemical_formula_sum "Si O2"
_cell_formula_units_Z 56
_cell_length_a 8.982583
_cell_length_b 26.873609
_cell_length_c 17.786867
_cell_angle_alpha 90.000000
_cell_angle_beta 130.539011
_cell_angle_gamma 90.000000
_cell_volume 3263.018091
_symmetry_space_group_name_H-M "C 2/M"
_symmetry_group_IT_number 12
_symmetry_cell_setting 'monoclinic'
loop_
_space_group_symop_operation_xyz
x,y,z
-x,y,-z
-x,-y,-z
x,-y,z
1/2+x,1/2+y,z
1/2-x,1/2+y,-z
1/2-x,1/2-y,-z
1/2+x,1/2-y,z
loop_
_atom_site_type_symbol
_atom_site_label
_atom_site_fract_x
_atom_site_fract_y
_atom_site_fract_z
Si Si1 0.065198 0.202491 0.799722
Si Si2 0.763214 0.798314 0.925650
Si Si3 0.790376 0.376398 0.955089
Si Si4 0.452958 0.716259 0.381290
Si Si5 0.178404 0.313098 0.426022
Si Si6 0.701837 0.145661 0.750728
Si Si7 0.955322 0.058292 0.897415
O O1 0.137577 0.247158 0.878913
O O2 0.209072 0.156887 0.861159
O O3 0.087880 0.216201 0.720308
O O4 0.853258 0.179314 0.751028
O O5 0.700549 0.825524 0.829008
O O6 0.718862 0.837304 0.977945
O O7 0.000000 0.789089 0.000000
O O8 0.653367 0.423035 0.924204
O O9 0.000000 0.393560 0.000000
O O10 0.627033 0.677674 0.460865
O O11 0.270820 0.706594 0.376781
O O12 0.555024 0.769719 0.426827
O O13 0.014975 0.354270 0.355222
O O14 0.792213 0.092558 0.803739
O O15 0.915314 0.000000 0.878021
O O16 0.000000 0.070248 0.000000
#
# Coordination Sequence:
#
# PCOD9203191 Si02
#       7
#     8   8   8   8   8   8   8
#     4  11  23  31  50  74 107 148 177 212 256 303
#     4  12  21  35  46  73 113 145 181 207 245 317
#     4  11  23  33  49  78 107 140 178 213 261 313
#     4  10  21  34  48  75 102 150 171 214 256 307
#     4  10  21  34  50  70 110 135 186 213 253 310
#     4  11  21  35  54  78 100 144 181 219 255 312
#     4  10  20  39  58  74 102 138 181 228 267 308
#
# _framework density 17.162025
#
# number of rings (size 3 to 8) (size 9 to 14) (size 15 to 20)
#    0.000    1.286    5.714    1.714    4.000    2.000 
#    0.000    0.000    0.000    0.000    0.000   10.000 
#    0.000    0.000    0.000    0.000    0.000    0.000 
#
# Total GULP energy -156041.399455 kJ/mol
# GULP energy per Si atom -5572.907123 kJ/mol
# Density = 1.712296 g / cm^3
# Si number density = 17.162025 Si / 1000 Ang^3
#
#
#
# Elastic Constant Matrix: (Units=GPa)
#
#
# Indices 1 2 3 4 5 6 
#
# 1 56.8731 32.8786 25.8975 0.0000 18.0474 0.0000
# 2 32.8786 57.3229 12.6754 0.0000 12.2118 0.0000
# 3 25.8975 12.6754 64.2860 0.0000 12.5218 0.0000
# 4 0.0000 0.0000 0.0000 17.3592 0.0000 -3.3997
# 5 18.0474 12.2118 12.5218 0.0000 32.2900 0.0000
# 6 0.0000 0.0000 0.0000 -3.3997 0.0000 9.8709
#
#
#
# Elastic Compliance Matrix: (Units=1/GPa)
#
#
# Indices 1 2 3 4 5 6 
#
# 1 0.033270 -0.015158 -0.008555 0.000000 -0.009545 0.000000
# 2 -0.015158 0.026269 0.001311 0.000000 -0.001971 0.000000
# 3 -0.008555 0.001311 0.019372 0.000000 -0.003226 0.000000
# 4 0.000000 0.000000 0.000000 0.061773 0.000000 0.021275
# 5 -0.009545 -0.001971 -0.003226 0.000000 0.038301 0.000000
# 6 0.000000 0.000000 0.000000 0.021275 0.000000 0.108636
#
#
# Mechanical properties :
#
#
# Convention : Reuss Voigt Hill
#
# Bulk Modulus (GPa) = 29.31920 35.70943 32.51432
# Shear Modulus (GPa) = 14.54361 19.03939 16.79150
#
# Velocity S-wave (km/s) = 2.91422 3.33437 3.13135
# Velocity P-wave (km/s) = 5.33333 5.97297 5.66219
#
# Compressibility (1/GPa) = 0.03410734
#
# Stress axis : x y z
#
# Youngs Moduli (GPa) = 30.05696 38.06763 51.62128
#
# Poissons Ratio (x) = 0.57701 0.44162
# Poissons Ratio (y) = 0.45559 -0.06766
# Poissons Ratio (z) = 0.25714 -0.04989
#
# Static dielectric constant tensor:
#      x y z
#    x 1.697440 0.000000 0.018890 
#    y 0.000000 1.563090 0.000000 
#    z 0.018890 0.000000 1.641680 
# 
# From -- ./inp_files/200376.got.cif
#   From: 2010.05.17/outbox.cif.g08.bks.cpg/sg12_101_cif.got.tgz:200376.got - 2010.06.03 13:09:07.
