data_PCOD9203679
_publ_section_title
;
Structure prediction by ZEFSAII (Michael W. Deem and Ramdas Pophale) SiO2 
 PCOD9203679
Probable space group: C 2/M
;
_chemical_formula_sum "Si O2"
_cell_formula_units_Z 48
_cell_length_a 18.479661
_cell_length_b 14.095302
_cell_length_c 19.116246
_cell_angle_alpha 90.000000
_cell_angle_beta 23.508879
_cell_angle_gamma 90.000000
_cell_volume 1986.211209
_symmetry_space_group_name_H-M "C 2/M"
_symmetry_group_IT_number 12
_symmetry_cell_setting 'monoclinic'
loop_
_space_group_symop_operation_xyz
x,y,z
-x,y,-z
-x,-y,-z
x,-y,z
1/2+x,1/2+y,z
1/2-x,1/2+y,-z
1/2-x,1/2-y,-z
1/2+x,1/2-y,z
loop_
_atom_site_type_symbol
_atom_site_label
_atom_site_fract_x
_atom_site_fract_y
_atom_site_fract_z
Si Si1 0.607532 0.388606 0.806540
Si Si2 0.557291 0.103930 0.218825
Si Si3 0.393166 0.294059 0.740542
Si Si4 0.500000 0.753081 0.000000
Si Si5 0.674679 0.351777 0.590036
Si Si6 0.488229 0.109742 0.906143
Si Si7 0.500000 0.197760 0.500000
O O1 0.582572 0.500000 0.836947
O O2 0.591216 0.359218 0.740133
O O3 0.811588 0.360707 0.653185
O O4 0.454959 0.328217 0.982357
O O5 0.629981 0.201480 0.188055
O O6 0.360785 0.092270 0.428056
O O7 0.511908 0.120348 0.177056
O O8 0.653381 0.000000 0.139716
O O9 0.527381 0.367752 0.660773
O O10 0.468223 0.256564 0.600031
O O11 0.206852 0.350012 0.898013
O O12 0.607419 0.822676 0.850345
O O13 0.750000 0.250000 0.500000
O O14 0.517494 0.000000 0.896104
#
# Coordination Sequence:
#
# PCOD9203679 Si02
#       7
#     8   8   8   4   8   8   4
#     4  12  25  42  69 103 136 175 217 266 330 398
#     4  10  21  38  64  95 125 169 218 263 326 393
#     4  11  23  42  65  97 132 172 214 276 331 381
#     4  12  24  46  64  92 136 172 214 274 338 388
#     4  10  20  39  65  92 131 173 219 263 318 381
#     4  11  25  43  65  91 124 175 228 273 326 390
#     4  12  23  42  69  98 136 172 213 262 333 392
#
# _framework density 24.166615
#
# number of rings (size 3 to 8) (size 9 to 14) (size 15 to 20)
#    0.000    1.000    5.000    3.750    0.000    2.000 
#    0.000    2.083    0.000    0.000    0.000    0.000 
#    0.000    0.000    0.000    0.000    0.000    0.000 
#
# Total GULP energy -133727.426922 kJ/mol
# GULP energy per Si atom -5571.976122 kJ/mol
# Density = 2.411161 g / cm^3
# Si number density = 24.166615 Si / 1000 Ang^3
#
#
#
# Elastic Constant Matrix: (Units=GPa)
#
#
# Indices 1 2 3 4 5 6 
#
# 1 123.0998 11.3296 19.9445 -0.0069 21.9941 0.0049
# 2 11.3296 141.7977 1.9443 0.0400 23.2632 -0.0207
# 3 19.9445 1.9443 47.7096 0.0428 21.9215 -0.0246
# 4 -0.0069 0.0400 0.0428 19.0487 -0.0173 -13.1958
# 5 21.9941 23.2632 21.9215 -0.0173 69.6442 0.0065
# 6 0.0049 -0.0207 -0.0246 -13.1958 0.0065 14.0688
#
#
#
# Elastic Compliance Matrix: (Units=1/GPa)
#
#
# Indices 1 2 3 4 5 6 
#
# 1 0.008948 -0.000383 -0.002906 0.000010 -0.001784 0.000001
# 2 -0.000383 0.007517 0.001113 -0.000031 -0.002740 -0.000015
# 3 -0.002906 0.001113 0.025578 -0.000093 -0.007505 -0.000036
# 4 0.000010 -0.000031 -0.000093 0.149888 0.000060 0.140588
# 5 -0.001784 -0.002740 -0.007505 0.000060 0.018200 0.000032
# 6 0.000001 -0.000015 -0.000036 0.140588 0.000032 0.202944
#
#
# Mechanical properties :
#
#
# Convention : Reuss Voigt Hill
#
# Bulk Modulus (GPa) = 26.53047 42.11598 34.32323
# Shear Modulus (GPa) = 11.62818 39.17826 25.40322
#
# Velocity S-wave (km/s) = 2.19593 4.03075 3.24569
# Velocity P-wave (km/s) = 4.17510 6.25522 5.31786
#
# Compressibility (1/GPa) = 0.03769251
#
# Stress axis : x y z
#
# Youngs Moduli (GPa) = 111.75538 133.02814 39.09625
#
# Poissons Ratio (x) = 0.05088 0.11360
# Poissons Ratio (y) = 0.04275 -0.04350
# Poissons Ratio (z) = 0.32472 -0.14803
#
# Static dielectric constant tensor:
#      x y z
#    x 2.625530 -0.000040 -0.277050 
#    y -0.000040 1.984700 0.000020 
#    z -0.277050 0.000020 2.020640 
# 
# From -- ./inp_files/278061.got.cif
#   From: 2010.05.17/outbox.cif.g08.bks.cpg/sg12_140_cif.got.tgz:278061.got - 2010.06.03 13:09:07.
