data_PCOD9203575
_publ_section_title
;
Structure prediction by ZEFSAII (Michael W. Deem and Ramdas Pophale) SiO2 
 PCOD9203575
Probable space group: C 2/M
;
_chemical_formula_sum "Si O2"
_cell_formula_units_Z 40
_cell_length_a 13.424925
_cell_length_b 8.192128
_cell_length_c 20.309190
_cell_angle_alpha 90.000000
_cell_angle_beta 47.990374
_cell_angle_gamma 90.000000
_cell_volume 1659.621110
_symmetry_space_group_name_H-M "C 2/M"
_symmetry_group_IT_number 12
_symmetry_cell_setting 'monoclinic'
loop_
_space_group_symop_operation_xyz
x,y,z
-x,y,-z
-x,-y,-z
x,-y,z
1/2+x,1/2+y,z
1/2-x,1/2+y,-z
1/2-x,1/2-y,-z
1/2+x,1/2-y,z
loop_
_atom_site_type_symbol
_atom_site_label
_atom_site_fract_x
_atom_site_fract_y
_atom_site_fract_z
Si Si1 0.787845 0.306189 0.118290
Si Si2 0.073138 0.694199 0.068737
Si Si3 0.395402 0.313580 0.416220
Si Si4 0.424921 0.190799 0.259361
Si Si5 0.675480 0.815252 0.297114
O O1 0.757788 0.500000 0.128699
O O2 0.689384 0.217174 0.212391
O O3 0.931985 0.290914 0.091579
O O4 0.816817 0.239410 0.031675
O O5 0.097077 0.500000 0.064380
O O6 0.033958 0.757581 0.158409
O O7 0.409244 0.500000 0.430423
O O8 0.250000 0.250000 0.500000
O O9 0.407862 0.294463 0.332171
O O10 0.523662 0.215789 0.386100
O O11 0.281618 0.199234 0.285551
O O12 0.451619 0.000000 0.262858
O O13 0.715870 0.000000 0.292710
#
# Coordination Sequence:
#
# PCOD9203575 Si02
#       5
#     8   8   8   8   8
#     4   8  13  27  51  81 115 156 197 237 282 335
#     4   7  12  25  51  82 115 153 194 234 282 337
#     4  12  26  45  65  88 115 149 193 247 302 356
#     4  10  20  39  64  91 121 157 196 242 294 348
#     4  11  22  38  60  90 123 159 198 240 288 348
#
# _framework density 24.101887999999999
#
# number of rings (size 3 to 8) (size 9 to 14) (size 15 to 20)
#    0.000    2.400    0.000    6.600    0.000    0.800 
#    0.000   14.000    0.000    0.000    0.000    0.000 
#    0.000    0.000    0.000    0.000    0.000    0.000 
#
# Total GULP energy -111824.288445 kJ/mol
# GULP energy per Si atom -5591.214422 kJ/mol
# Density = 2.404703 g / cm^3
# Si number density = 24.101888 Si / 1000 Ang^3
#
#
#
# Elastic Constant Matrix: (Units=GPa)
#
#
# Indices 1 2 3 4 5 6 
#
# 1 51.9696 -6.4813 17.6692 0.0000 -15.8916 0.0000
# 2 -6.4813 73.9178 14.6999 0.0000 -8.9590 0.0000
# 3 17.6692 14.6999 106.8862 0.0000 -45.3153 0.0000
# 4 0.0000 0.0000 0.0000 31.7743 0.0000 -0.6504
# 5 -15.8916 -8.9590 -45.3153 0.0000 45.0342 0.0000
# 6 0.0000 0.0000 0.0000 -0.6504 0.0000 29.4395
#
#
#
# Elastic Compliance Matrix: (Units=1/GPa)
#
#
# Indices 1 2 3 4 5 6 
#
# 1 0.022235 0.003042 -0.000891 0.000000 0.007555 0.000000
# 2 0.003042 0.014381 -0.001417 0.000000 0.002508 0.000000
# 3 -0.000891 -0.001417 0.016472 0.000000 0.015979 0.000000
# 4 0.000000 0.000000 0.000000 0.031486 0.000000 0.000696
# 5 0.007555 0.002508 0.015979 0.000000 0.041449 0.000000
# 6 0.000000 0.000000 0.000000 0.000696 0.000000 0.033983
#
#
# Mechanical properties :
#
#
# Convention : Reuss Voigt Hill
#
# Bulk Modulus (GPa) = 18.32977 31.61660 24.97318
# Shear Modulus (GPa) = 28.29276 35.04198 31.66737
#
# Velocity S-wave (km/s) = 3.42991 3.81715 3.62870
# Velocity P-wave (km/s) = 4.82777 5.70736 5.28589
#
# Compressibility (1/GPa) = 0.05455607
#
# Stress axis : x y z
#
# Youngs Moduli (GPa) = 44.97506 69.53528 60.70796
#
# Poissons Ratio (x) = -0.21156 0.05410
# Poissons Ratio (y) = -0.13683 0.08604
# Poissons Ratio (z) = 0.04008 0.09855
#
# Static dielectric constant tensor:
#      x y z
#    x 2.056180 0.000000 -0.009760 
#    y 0.000000 1.796860 0.000000 
#    z -0.009760 0.000000 1.934240 
# 
# From -- ./inp_files/308175.got.cif
#   From: 2010.05.17/outbox.cif.g08.bks.cpg/sg12_155_cif.got.tgz:308175.got - 2010.06.03 13:09:07.
