data_PCOD9203846
_publ_section_title
;
Structure prediction by ZEFSAII (Michael W. Deem and Ramdas Pophale) SiO2 
 PCOD9203846
Probable space group: C 2/M
;
_chemical_formula_sum "Si O2"
_cell_formula_units_Z 48
_cell_length_a 13.789893
_cell_length_b 18.915163
_cell_length_c 16.312690
_cell_angle_alpha 90.000000
_cell_angle_beta 30.097916
_cell_angle_gamma 90.000000
_cell_volume 2133.779565
_symmetry_space_group_name_H-M "C 2/M"
_symmetry_group_IT_number 12
_symmetry_cell_setting 'monoclinic'
loop_
_space_group_symop_operation_xyz
x,y,z
-x,y,-z
-x,-y,-z
x,-y,z
1/2+x,1/2+y,z
1/2-x,1/2+y,-z
1/2-x,1/2-y,-z
1/2+x,1/2-y,z
loop_
_atom_site_type_symbol
_atom_site_label
_atom_site_fract_x
_atom_site_fract_y
_atom_site_fract_z
Si Si1 0.983063 0.420172 0.625012
Si Si2 0.475354 0.755191 0.233734
Si Si3 0.037268 0.000000 0.570720
Si Si4 0.596815 0.358808 0.839740
Si Si5 0.289799 0.893599 0.940761
Si Si6 0.846459 0.500000 0.040807
Si Si7 0.823051 0.147159 0.458250
O O1 0.034155 0.500000 0.565639
O O2 0.810093 0.389755 0.696271
O O3 0.893810 0.420898 0.782568
O O4 0.172099 0.372144 0.495976
O O5 0.417119 0.717044 0.192717
O O6 0.649933 0.811114 0.100822
O O7 0.292827 0.801799 0.396395
O O8 0.491380 0.693494 0.291956
O O9 0.136723 0.073708 0.525061
O O10 0.000000 0.000000 0.500000
O O11 0.851054 0.000000 0.764925
O O12 0.500000 0.354733 0.000000
O O13 0.440037 0.404557 0.903007
O O14 0.359940 0.933561 0.969753
O O15 0.000000 0.500000 0.000000
#
# Coordination Sequence:
#
# PCOD9203846 Si02
#       7
#     8   8   4   8   8   4   8
#     4  10  20  39  72 100 141 178 224 283 361 424
#     4  10  22  43  68  96 140 186 232 284 352 418
#     4  12  28  48  71 100 137 185 243 298 348 424
#     4  10  22  38  64 106 133 178 226 283 362 419
#     4  10  22  42  70  94 147 178 228 302 342 417
#     4  12  28  44  70 106 130 189 248 288 357 410
#     4  10  23  47  70  95 140 194 228 288 359 417
#
# _framework density 22.495294999999999
#
# number of rings (size 3 to 8) (size 9 to 14) (size 15 to 20)
#    0.000    1.667    1.667    1.500    5.833    2.333 
#   13.500    0.833    0.000    0.000    0.000    0.000 
#    0.000    0.000    0.000    0.000    0.000    0.000 
#
# Total GULP energy -134120.948752 kJ/mol
# GULP energy per Si atom -5588.372865 kJ/mol
# Density = 2.244409 g / cm^3
# Si number density = 22.495295 Si / 1000 Ang^3
#
#
#
# Elastic Constant Matrix: (Units=GPa)
#
#
# Indices 1 2 3 4 5 6 
#
# 1 148.9646 56.7297 26.4110 0.0131 2.9953 0.0037
# 2 56.7297 149.0529 18.9454 -0.0020 -4.2543 0.0029
# 3 26.4110 18.9454 50.9479 0.0143 -5.4651 -0.0025
# 4 0.0131 -0.0020 0.0143 32.0478 -0.0243 3.7442
# 5 2.9953 -4.2543 -5.4651 -0.0243 38.0513 0.0081
# 6 0.0037 0.0029 -0.0025 3.7442 0.0081 41.3551
#
#
#
# Elastic Compliance Matrix: (Units=1/GPa)
#
#
# Indices 1 2 3 4 5 6 
#
# 1 0.008430 -0.002808 -0.003484 -0.000003 -0.001478 0.000000
# 2 -0.002808 0.007984 -0.001416 0.000003 0.000910 -0.000001
# 3 -0.003484 -0.001416 0.022317 -0.000006 0.003321 0.000002
# 4 -0.000003 0.000003 -0.000006 0.031537 0.000020 -0.002855
# 5 -0.001478 0.000910 0.003321 0.000020 0.026975 -0.000007
# 6 0.000000 -0.000001 0.000002 -0.002855 -0.000007 0.024439
#
#
# Mechanical properties :
#
#
# Convention : Reuss Voigt Hill
#
# Bulk Modulus (GPa) = 42.89128 61.45975 52.17551
# Shear Modulus (GPa) = 34.51397 38.74946 36.63171
#
# Velocity S-wave (km/s) = 3.92123 4.15487 4.03974
# Velocity P-wave (km/s) = 6.29361 7.09914 6.70848
#
# Compressibility (1/GPa) = 0.02331476
#
# Stress axis : x y z
#
# Youngs Moduli (GPa) = 118.62776 125.25770 44.80915
#
# Poissons Ratio (x) = 0.35168 0.15613
# Poissons Ratio (y) = 0.33307 0.06343
# Poissons Ratio (z) = 0.41335 0.17732
#
# Static dielectric constant tensor:
#      x y z
#    x 1.031180 0.000520 0.664980 
#    y 0.000520 1.858500 -0.000420 
#    z 0.664980 -0.000420 1.354790 
# 
# From -- ./inp_files/271641.got.cif
#   From: 2010.05.17/outbox.cif.g08.bks.cpg/sg12_136_cif.got.tgz:271641.got - 2010.06.03 13:09:07.
