data_PCOD9203278
_publ_section_title
;
Structure prediction by ZEFSAII (Michael W. Deem and Ramdas Pophale) SiO2 
 PCOD9203278
Probable space group: C 2/M
;
_chemical_formula_sum "Si O2"
_cell_formula_units_Z 56
_cell_length_a 15.485648
_cell_length_b 7.676976
_cell_length_c 24.896853
_cell_angle_alpha 90.000000
_cell_angle_beta 111.638270
_cell_angle_gamma 90.000000
_cell_volume 2751.234548
_symmetry_space_group_name_H-M "C 2/M"
_symmetry_group_IT_number 12
_symmetry_cell_setting 'monoclinic'
loop_
_space_group_symop_operation_xyz
x,y,z
-x,y,-z
-x,-y,-z
x,-y,z
1/2+x,1/2+y,z
1/2-x,1/2+y,-z
1/2-x,1/2-y,-z
1/2+x,1/2-y,z
loop_
_atom_site_type_symbol
_atom_site_label
_atom_site_fract_x
_atom_site_fract_y
_atom_site_fract_z
Si Si1 0.035053 0.500000 0.922153
Si Si2 0.962713 0.696339 0.183197
Si Si3 0.214052 0.711607 0.647459
Si Si4 0.845799 0.500000 0.947788
Si Si5 0.336481 0.206021 0.776462
Si Si6 0.680745 0.292731 0.435216
Si Si7 0.241285 0.702671 0.863847
Si Si8 0.984153 0.705673 0.436407
O O1 0.037822 0.661927 0.881466
O O2 0.939607 0.500000 0.933210
O O3 0.119073 0.500000 0.983173
O O4 0.962608 0.500000 0.207945
O O5 0.862583 0.771987 0.173563
O O6 0.062430 0.777156 0.218551
O O7 0.214822 0.500000 0.649055
O O8 0.261536 0.772594 0.712776
O O9 0.274547 0.770648 0.610041
O O10 0.108556 0.773451 0.613448
O O11 0.788083 0.329078 0.917844
O O12 0.301092 0.289153 0.823276
O O13 0.349921 0.000000 0.790569
O O14 0.674558 0.500000 0.430320
O O15 0.750000 0.250000 0.500000
O O16 0.578326 0.225470 0.424801
O O17 0.233239 0.500000 0.879407
O O18 0.966494 0.500000 0.439745
O O19 0.000000 0.780200 0.500000
#
# Coordination Sequence:
#
# PCOD9203278 Si02
#       8
#     4   8   8   4   8   8   8   8
#     4   9  18  40  64  87 133 163 201 262 305 357
#     4   8  18  38  59  85 121 164 197 247 307 349
#     4  10  23  40  58  86 119 155 195 253 305 359
#     4  11  20  38  68  91 123 171 205 249 313 366
#     4  11  21  41  63  85 120 160 211 250 300 366
#     4  11  22  38  60  86 119 153 195 243 304 369
#     4  11  21  39  63  90 125 164 205 256 309 362
#     4  10  20  39  61  82 117 157 190 237 306 366
#
# _framework density 20.354499000000001
#
# number of rings (size 3 to 8) (size 9 to 14) (size 15 to 20)
#    0.429    1.429    3.571    0.857    0.000    3.714 
#    2.571    5.714    0.000    0.000    0.000    0.000 
#    0.000    0.000    0.000    0.000    0.000    0.000 
#
# Total GULP energy -156211.293666 kJ/mol
# GULP energy per Si atom -5578.974774 kJ/mol
# Density = 2.030817 g / cm^3
# Si number density = 20.354499 Si / 1000 Ang^3
#
#
#
# Elastic Constant Matrix: (Units=GPa)
#
#
# Indices 1 2 3 4 5 6 
#
# 1 100.2946 3.4595 23.9856 0.0000 40.1829 0.0000
# 2 3.4595 58.0951 17.1548 0.0000 9.1049 0.0000
# 3 23.9856 17.1548 109.9288 0.0000 32.8324 0.0000
# 4 0.0000 0.0000 0.0000 23.0470 0.0000 2.6632
# 5 40.1829 9.1049 32.8324 0.0000 37.3877 0.0000
# 6 0.0000 0.0000 0.0000 2.6632 0.0000 24.8048
#
#
#
# Elastic Compliance Matrix: (Units=1/GPa)
#
#
# Indices 1 2 3 4 5 6 
#
# 1 0.018160 0.001672 0.002342 0.000000 -0.021981 0.000000
# 2 0.001672 0.018388 -0.001844 0.000000 -0.004656 0.000000
# 3 0.002342 -0.001844 0.012866 0.000000 -0.013366 0.000000
# 4 0.000000 0.000000 0.000000 0.043935 0.000000 -0.004717
# 5 -0.021981 -0.004656 -0.013366 0.000000 0.063242 0.000000
# 6 0.000000 0.000000 0.000000 -0.004717 0.000000 0.040821
#
#
# Mechanical properties :
#
#
# Convention : Reuss Voigt Hill
#
# Bulk Modulus (GPa) = 18.60363 39.72428 29.16395
# Shear Modulus (GPa) = 23.69798 31.96246 27.83022
#
# Velocity S-wave (km/s) = 3.41583 3.96699 3.70168
# Velocity P-wave (km/s) = 4.97160 6.36720 5.71218
#
# Compressibility (1/GPa) = 0.05375295
#
# Stress axis : x y z
#
# Youngs Moduli (GPa) = 55.06755 54.38420 77.72692
#
# Poissons Ratio (x) = -0.09093 -0.18202
# Poissons Ratio (y) = -0.09207 0.14331
# Poissons Ratio (z) = -0.12896 0.10027
#
# Static dielectric constant tensor:
#      x y z
#    x 1.741830 0.000000 0.021130 
#    y 0.000000 1.765260 0.000000 
#    z 0.021130 0.000000 1.702440 
# 
# From -- ./inp_files/360047.got.cif
#   From: 2010.05.17/outbox.cif.g08.bks.cpg/sg12_181_cif.got.tgz:360047.got - 2010.06.03 13:09:07.
