data_PCOD9203244
_publ_section_title
;
Structure prediction by ZEFSAII (Michael W. Deem and Ramdas Pophale) SiO2 
 PCOD9203244
Probable space group: C 2/M
;
_chemical_formula_sum "Si O2"
_cell_formula_units_Z 56
_cell_length_a 25.899553
_cell_length_b 14.757420
_cell_length_c 11.886004
_cell_angle_alpha 90.000000
_cell_angle_beta 40.605004
_cell_angle_gamma 90.000000
_cell_volume 2956.740201
_symmetry_space_group_name_H-M "C 2/M"
_symmetry_group_IT_number 12
_symmetry_cell_setting 'monoclinic'
loop_
_space_group_symop_operation_xyz
x,y,z
-x,y,-z
-x,-y,-z
x,-y,z
1/2+x,1/2+y,z
1/2-x,1/2+y,-z
1/2-x,1/2-y,-z
1/2+x,1/2-y,z
loop_
_atom_site_type_symbol
_atom_site_label
_atom_site_fract_x
_atom_site_fract_y
_atom_site_fract_z
Si Si1 0.485898 0.729742 0.154505
Si Si2 0.566564 0.102113 0.114217
Si Si3 0.233571 0.274143 0.156614
Si Si4 0.764709 0.400360 0.249515
Si Si5 0.907987 0.604985 0.669283
Si Si6 0.310568 0.666048 0.409186
Si Si7 0.861305 0.892903 0.076636
O O1 0.504700 0.818987 0.194910
O O2 0.396189 0.697137 0.313629
O O3 0.500000 0.752898 0.000000
O O4 0.551447 0.652816 0.073654
O O5 0.604343 0.110994 0.175791
O O6 0.534015 0.000000 0.159135
O O7 0.640089 0.113353 0.907289
O O8 0.230547 0.182656 0.234497
O O9 0.152075 0.330130 0.294653
O O10 0.303498 0.337402 0.089756
O O11 0.250000 0.250000 0.000000
O O12 0.750885 0.500000 0.221248
O O13 0.729086 0.397333 0.432440
O O14 0.896534 0.500000 0.654248
O O15 0.000000 0.627996 0.500000
O O16 0.250000 0.750000 0.500000
O O17 0.327665 0.623782 0.258620
O O18 0.863657 0.000000 0.049441
#
# Coordination Sequence:
#
# PCOD9203244 Si02
#       7
#     8   8   8   8   8   8   8
#     4  10  21  38  60  85 122 155 200 248 297 353
#     4  10  20  39  60  85 120 158 198 244 306 365
#     4  12  22  40  64  89 123 158 204 251 307 358
#     4  11  22  38  61  87 121 160 197 241 304 368
#     4  10  22  38  60  88 117 154 201 251 305 355
#     4  11  22  40  63  89 125 161 200 246 305 366
#     4  11  23  40  64  92 119 159 210 253 300 362
#
# _framework density 18.939776999999999
#
# number of rings (size 3 to 8) (size 9 to 14) (size 15 to 20)
#    0.000    1.286    4.286    1.714    2.000    4.000 
#    0.000    1.429    0.000    0.429    0.000    0.000 
#    0.000    0.000    0.000    0.000    0.000    0.000 
#
# Total GULP energy -156387.952708 kJ/mol
# GULP energy per Si atom -5585.284025 kJ/mol
# Density = 1.889667 g / cm^3
# Si number density = 18.939777 Si / 1000 Ang^3
#
#
#
# Elastic Constant Matrix: (Units=GPa)
#
#
# Indices 1 2 3 4 5 6 
#
# 1 101.5103 77.3609 30.7983 0.0000 -13.6919 0.0000
# 2 77.3609 151.4043 27.1238 0.0000 -14.2728 0.0000
# 3 30.7983 27.1238 83.4288 0.0000 -11.6515 0.0000
# 4 0.0000 0.0000 0.0000 21.2954 0.0000 3.0231
# 5 -13.6919 -14.2728 -11.6515 0.0000 28.5112 0.0000
# 6 0.0000 0.0000 0.0000 3.0231 0.0000 21.2736
#
#
#
# Elastic Compliance Matrix: (Units=1/GPa)
#
#
# Indices 1 2 3 4 5 6 
#
# 1 0.017368 -0.007987 -0.003403 0.000000 0.002952 0.000000
# 2 -0.007987 0.010893 -0.000389 0.000000 0.001458 0.000000
# 3 -0.003403 -0.000389 0.013907 0.000000 0.003854 0.000000
# 4 0.000000 0.000000 0.000000 0.047925 0.000000 -0.006810
# 5 0.002952 0.001458 0.003854 0.000000 0.038797 0.000000
# 6 0.000000 0.000000 0.000000 -0.006810 0.000000 0.047974
#
#
# Mechanical properties :
#
#
# Convention : Reuss Voigt Hill
#
# Bulk Modulus (GPa) = 53.73190 67.43439 60.58314
# Shear Modulus (GPa) = 24.19827 27.62007 25.90917
#
# Velocity S-wave (km/s) = 3.57829 3.82293 3.70263
# Velocity P-wave (km/s) = 6.74564 7.42754 7.09479
#
# Compressibility (1/GPa) = 0.01861092
#
# Stress axis : x y z
#
# Youngs Moduli (GPa) = 57.57595 91.80320 71.90450
#
# Poissons Ratio (x) = 0.73319 0.24468
# Poissons Ratio (y) = 0.45983 0.02800
# Poissons Ratio (z) = 0.19592 0.03575
#
# Static dielectric constant tensor:
#      x y z
#    x 1.643590 0.000000 0.008910 
#    y 0.000000 1.664200 0.000000 
#    z 0.008910 0.000000 1.682490 
# 
# From -- ./inp_files/156701.got.cif
#   From: 2010.05.17/outbox.cif.g08.bks.cpg/sg12_79_cif.got.tgz:156701.got - 2010.06.03 13:09:07.
