data_PCOD9203312
_publ_section_title
;
Structure prediction by ZEFSAII (Michael W. Deem and Ramdas Pophale) SiO2 
 PCOD9203312
Probable space group: C 2/M
;
_chemical_formula_sum "Si O2"
_cell_formula_units_Z 44
_cell_length_a 11.155269
_cell_length_b 24.520743
_cell_length_c 7.485271
_cell_angle_alpha 90.000000
_cell_angle_beta 65.465435
_cell_angle_gamma 90.000000
_cell_volume 1862.621514
_symmetry_space_group_name_H-M "C 2/M"
_symmetry_group_IT_number 12
_symmetry_cell_setting 'monoclinic'
loop_
_space_group_symop_operation_xyz
x,y,z
-x,y,-z
-x,-y,-z
x,-y,z
1/2+x,1/2+y,z
1/2-x,1/2+y,-z
1/2-x,1/2-y,-z
1/2+x,1/2-y,z
loop_
_atom_site_type_symbol
_atom_site_label
_atom_site_fract_x
_atom_site_fract_y
_atom_site_fract_z
Si Si1 0.738608 0.614951 0.638058
Si Si2 0.343921 0.000000 0.607548
Si Si3 0.344113 0.000000 0.040933
Si Si4 0.247027 0.610362 0.959781
Si Si5 0.879506 0.714065 0.396140
Si Si6 0.485765 0.683720 0.789708
Si Si7 0.500000 0.839021 0.000000
O O1 0.785976 0.554878 0.554107
O O2 0.851961 0.660654 0.533507
O O3 0.604520 0.643761 0.654228
O O4 0.707552 0.604971 0.865316
O O5 0.500000 0.000000 0.500000
O O6 0.328223 0.000000 0.833878
O O7 0.500000 0.000000 0.000000
O O8 0.266538 0.054801 0.142098
O O9 0.349471 0.654748 0.826566
O O10 0.094154 0.627384 0.070232
O O11 0.750000 0.750000 0.500000
O O12 0.999965 0.757609 0.315297
O O13 0.896605 0.691952 0.185395
O O14 0.500000 0.691687 0.000000
#
# Coordination Sequence:
#
# PCOD9203312 Si02
#       7
#     8   4   4   8   8   8   4
#     4   9  21  39  63  90 128 165 213 263 317 375
#     4  10  22  35  59  97 121 164 213 262 320 375
#     4  10  20  39  61  89 125 167 204 258 319 384
#     4  10  22  38  64  93 124 165 213 263 318 379
#     4  10  22  42  62  91 128 169 212 258 321 375
#     4   9  18  41  62  91 126 162 211 264 314 379
#     4  12  24  39  60  92 128 167 216 258 316 386
#
# _framework density 23.622620999999999
#
# number of rings (size 3 to 8) (size 9 to 14) (size 15 to 20)
#    0.000    2.182    1.818    0.000    5.091    1.455 
#    3.273    6.364    0.000    0.000    0.000    7.636 
#    0.000    0.000    0.000    0.000    0.000    0.000 
#
# Total GULP energy -122554.698822 kJ/mol
# GULP energy per Si atom -5570.668128 kJ/mol
# Density = 2.356886 g / cm^3
# Si number density = 23.622621 Si / 1000 Ang^3
#
#
#
# Elastic Constant Matrix: (Units=GPa)
#
#
# Indices 1 2 3 4 5 6 
#
# 1 92.3588 52.6791 11.0191 0.0000 -18.7741 0.0000
# 2 52.6791 196.7064 22.4800 0.0000 -22.6908 0.0000
# 3 11.0191 22.4800 65.7563 0.0000 0.0926 0.0000
# 4 0.0000 0.0000 0.0000 9.9744 0.0000 -27.0182
# 5 -18.7741 -22.6908 0.0926 0.0000 40.1276 0.0000
# 6 0.0000 0.0000 0.0000 -27.0182 0.0000 -18.0134
#
#
#
# Elastic Compliance Matrix: (Units=1/GPa)
#
#
# Indices 1 2 3 4 5 6 
#
# 1 0.013624 -0.002960 -0.001278 0.000000 0.004703 0.000000
# 2 -0.002960 0.006320 -0.001668 0.000000 0.002193 0.000000
# 3 -0.001278 -0.001668 0.015994 0.000000 -0.001578 0.000000
# 4 0.000000 0.000000 0.000000 0.019802 0.000000 -0.029702
# 5 0.004703 0.002193 -0.001578 0.000000 0.028365 0.000000
# 6 0.000000 0.000000 0.000000 -0.029702 0.000000 -0.010965
#
#
# Mechanical properties :
#
#
# Convention : Reuss Voigt Hill
#
# Bulk Modulus (GPa) = 41.44671 58.57531 50.01101
# Shear Modulus (GPa) = 53.76718 24.32728 39.04723
#
# Velocity S-wave (km/s) = 4.77601 3.21258 4.07007
# Velocity P-wave (km/s) = 6.92800 6.21377 6.58058
#
# Compressibility (1/GPa) = 0.02412737
#
# Stress axis : x y z
#
# Youngs Moduli (GPa) = 73.39879 158.22900 62.52302
#
# Poissons Ratio (x) = 0.46837 0.07989
# Poissons Ratio (y) = 0.21727 0.10427
# Poissons Ratio (z) = 0.09378 0.26387
#
# Static dielectric constant tensor:
#      x y z
#    x 1.914520 0.000000 0.090190 
#    y 0.000000 2.003430 0.000000 
#    z 0.090190 0.000000 2.041660 
# 
# From -- ./inp_files/51235.got.cif
#   From: 2010.05.17/outbox.cif.g08.bks.cpg/sg12_26_cif.got.tgz:51235.got - 2010.06.03 13:09:07.
