data_PCOD9203149
_publ_section_title
;
Structure prediction by ZEFSAII (Michael W. Deem and Ramdas Pophale) SiO2 
 PCOD9203149
Probable space group: C 2/M
;
_chemical_formula_sum "Si O2"
_cell_formula_units_Z 56
_cell_length_a 12.611117
_cell_length_b 14.374842
_cell_length_c 18.370319
_cell_angle_alpha 90.000000
_cell_angle_beta 47.968669
_cell_angle_gamma 90.000000
_cell_volume 2473.619187
_symmetry_space_group_name_H-M "C 2/M"
_symmetry_group_IT_number 12
_symmetry_cell_setting 'monoclinic'
loop_
_space_group_symop_operation_xyz
x,y,z
-x,y,-z
-x,-y,-z
x,-y,z
1/2+x,1/2+y,z
1/2-x,1/2+y,-z
1/2-x,1/2-y,-z
1/2+x,1/2-y,z
loop_
_atom_site_type_symbol
_atom_site_label
_atom_site_fract_x
_atom_site_fract_y
_atom_site_fract_z
Si Si1 0.132398 0.209489 0.315735
Si Si2 0.065080 0.697730 0.147935
Si Si3 0.299709 0.607584 0.948669
Si Si4 0.374417 0.818202 0.099878
Si Si5 0.162814 0.396039 0.666332
Si Si6 0.687889 0.649223 0.547060
Si Si7 0.853858 0.598493 0.611400
O O1 0.227787 0.219936 0.199553
O O2 0.217320 0.150388 0.337753
O O3 0.124911 0.312875 0.349288
O O4 0.982003 0.158291 0.377020
O O5 0.088176 0.808642 0.122227
O O6 0.957844 0.656407 0.135064
O O7 0.977566 0.669057 0.260147
O O8 0.213874 0.646928 0.059034
O O9 0.347574 0.500000 0.934812
O O10 0.185871 0.611324 0.933306
O O11 0.500000 0.762353 0.000000
O O12 0.124886 0.500000 0.708089
O O13 0.232955 0.403876 0.554478
O O14 0.750000 0.750000 0.500000
O O15 0.734567 0.615957 0.604991
O O16 0.827977 0.500000 0.661652
O O17 0.000000 0.592220 0.500000
#
# Coordination Sequence:
#
# PCOD9203149 Si02
#       7
#     8   8   8   8   8   8   8
#     4  11  23  41  65  91 129 164 210 271 322 374
#     4   9  21  39  62  95 135 170 211 270 326 384
#     4  10  20  38  68  98 127 169 223 271 321 384
#     4   9  21  39  63  91 125 167 211 262 323 377
#     4  11  23  40  63  90 128 171 210 259 328 393
#     4  12  23  40  64  92 130 166 207 270 320 381
#     4  11  23  41  64  92 127 173 216 254 317 395
#
# _framework density 22.638891999999998
#
# number of rings (size 3 to 8) (size 9 to 14) (size 15 to 20)
#    0.000    1.571    2.857    1.286    2.000    6.571 
#    0.000    5.714    0.000   15.429    0.000    0.000 
#    0.000    0.000    0.000    0.000    0.000    0.000 
#
# Total GULP energy -156030.720418 kJ/mol
# GULP energy per Si atom -5572.525729 kJ/mol
# Density = 2.258736 g / cm^3
# Si number density = 22.638892 Si / 1000 Ang^3
#
#
#
# Elastic Constant Matrix: (Units=GPa)
#
#
# Indices 1 2 3 4 5 6 
#
# 1 69.5808 9.1624 21.5449 0.0000 -9.3981 0.0000
# 2 9.1624 154.2424 45.0903 0.0000 -10.5381 0.0000
# 3 21.5449 45.0903 150.4879 0.0000 -12.1959 0.0000
# 4 0.0000 0.0000 0.0000 17.6520 0.0000 -1.8097
# 5 -9.3981 -10.5381 -12.1959 0.0000 34.1283 0.0000
# 6 0.0000 0.0000 0.0000 -1.8097 0.0000 11.0703
#
#
#
# Elastic Compliance Matrix: (Units=1/GPa)
#
#
# Indices 1 2 3 4 5 6 
#
# 1 0.015451 -0.000124 -0.001888 0.000000 0.003542 0.000000
# 2 -0.000124 0.007180 -0.002015 0.000000 0.001463 0.000000
# 3 -0.001888 -0.002015 0.007648 0.000000 0.001591 0.000000
# 4 0.000000 0.000000 0.000000 0.057616 0.000000 0.009419
# 5 0.003542 0.001463 0.001591 0.000000 0.031297 0.000000
# 6 0.000000 0.000000 0.000000 0.009419 0.000000 0.091872
#
#
# Mechanical properties :
#
#
# Convention : Reuss Voigt Hill
#
# Bulk Modulus (GPa) = 44.99405 58.43404 51.71405
# Shear Modulus (GPa) = 22.07256 32.47102 27.27179
#
# Velocity S-wave (km/s) = 3.12586 3.79133 3.47456
# Velocity P-wave (km/s) = 5.73985 6.71066 6.24415
#
# Compressibility (1/GPa) = 0.02222516
#
# Stress axis : x y z
#
# Youngs Moduli (GPa) = 64.72045 139.28289 130.75310
#
# Poissons Ratio (x) = 0.01726 0.24685
# Poissons Ratio (y) = 0.00802 0.26346
# Poissons Ratio (z) = 0.12219 0.28064
#
# Static dielectric constant tensor:
#      x y z
#    x 2.559790 0.000000 0.617510 
#    y 0.000000 2.035950 0.000000 
#    z 0.617510 0.000000 2.466820 
# 
# From -- ./inp_files/310791.got.cif
#   From: 2010.05.17/outbox.cif.g08.bks.cpg/sg12_156_cif.got.tgz:310791.got - 2010.06.03 13:09:07.
