data_PCOD9203292
_publ_section_title
;
Structure prediction by ZEFSAII (Michael W. Deem and Ramdas Pophale) SiO2 
 PCOD9203292
Probable space group: C 2/M
;
_chemical_formula_sum "Si O2"
_cell_formula_units_Z 58
_cell_length_a 25.038751
_cell_length_b 12.030776
_cell_length_c 7.228138
_cell_angle_alpha 90.000000
_cell_angle_beta 91.712282
_cell_angle_gamma 90.000000
_cell_volume 2176.400276
_symmetry_space_group_name_H-M "C 2/M"
_symmetry_group_IT_number 12
_symmetry_cell_setting 'monoclinic'
loop_
_space_group_symop_operation_xyz
x,y,z
-x,y,-z
-x,-y,-z
x,-y,z
1/2+x,1/2+y,z
1/2-x,1/2+y,-z
1/2-x,1/2-y,-z
1/2+x,1/2-y,z
loop_
_atom_site_type_symbol
_atom_site_label
_atom_site_fract_x
_atom_site_fract_y
_atom_site_fract_z
Si Si1 0.250874 0.695030 0.749867
Si Si2 0.000000 0.500000 0.000000
Si Si3 0.413817 0.847547 0.200077
Si Si4 0.188617 0.118707 0.579525
Si Si5 0.812279 0.380584 0.928893
Si Si6 0.085516 0.873639 0.313092
Si Si7 0.942581 0.378212 0.591406
Si Si8 0.440903 0.381513 0.084503
O O1 0.200833 0.777298 0.709386
O O2 0.264700 0.626783 0.570317
O O3 0.235848 0.626049 0.927640
O O4 0.300228 0.778625 0.793571
O O5 0.035189 0.404688 0.890791
O O6 0.365871 0.869576 0.053750
O O7 0.403556 0.884220 0.409445
O O8 0.428106 0.718394 0.214254
O O9 0.135005 0.125119 0.455868
O O10 0.190531 0.000000 0.677842
O O11 0.813120 0.500000 0.833145
O O12 0.061845 0.746521 0.326373
O O13 0.098081 0.878175 0.095848
O O14 0.058945 0.000000 0.339021
O O15 0.938331 0.500000 0.699918
O O16 0.000000 0.381683 0.500000
O O17 0.436696 0.500000 0.178806
O O18 0.500000 0.372527 0.000000
#
# Coordination Sequence:
#
# PCOD9203292 Si02
#       8
#     8   2   8   8   8   8   8   8
#     4  10  22  38  60  88 118 155 198 250 305 360
#     4  12  24  40  64  92 124 172 202 262 300 382
#     4  12  23  40  63  89 123 164 206 250 314 362
#     4  10  20  39  61  85 118 154 197 248 304 365
#     4  11  22  39  60  89 121 157 200 250 304 372
#     4  10  22  40  63  89 120 160 204 251 308 370
#     4  11  24  40  58  89 124 161 205 253 306 367
#     4  10  21  38  60  87 118 155 205 254 299 363
#
# _framework density 26.649509999999999
#
# number of rings (size 3 to 8) (size 9 to 14) (size 15 to 20)
#    0.000    1.379    2.069    3.310    0.000    0.828 
#    0.000    6.897    0.000    0.000    0.000    0.000 
#    0.000    0.000    0.000    0.000    0.000    0.000 
#
# Total GULP energy -161946.897303 kJ/mol
# GULP energy per Si atom -5584.375769 kJ/mol
# Density = 2.658885 g / cm^3
# Si number density = 26.649510 Si / 1000 Ang^3
#
#
#
# Elastic Constant Matrix: (Units=GPa)
#
#
# Indices 1 2 3 4 5 6 
#
# 1 61.5865 29.5531 12.2968 0.0000 13.9090 0.0000
# 2 29.5531 265.3564 17.6041 0.0000 -7.9329 0.0000
# 3 12.2968 17.6041 56.5438 0.0000 5.4434 0.0000
# 4 0.0000 0.0000 0.0000 26.3788 0.0000 22.2255
# 5 13.9090 -7.9329 5.4434 0.0000 49.0616 0.0000
# 6 0.0000 0.0000 0.0000 22.2255 0.0000 -25.8269
#
#
#
# Elastic Compliance Matrix: (Units=1/GPa)
#
#
# Indices 1 2 3 4 5 6 
#
# 1 0.019054 -0.002087 -0.002973 0.000000 -0.005409 0.000000
# 2 -0.002087 0.004105 -0.000955 0.000000 0.001361 0.000000
# 3 -0.002973 -0.000955 0.018764 0.000000 -0.001393 0.000000
# 4 0.000000 0.000000 0.000000 0.021976 0.000000 0.018911
# 5 -0.005409 0.001361 -0.001393 0.000000 0.022291 0.000000
# 6 0.000000 0.000000 0.000000 0.018911 0.000000 -0.022445
#
#
# Mechanical properties :
#
#
# Convention : Reuss Voigt Hill
#
# Bulk Modulus (GPa) = 33.45367 55.82163 44.63765
# Shear Modulus (GPa) = 58.31715 31.52487 44.92101
#
# Velocity S-wave (km/s) = 4.68300 3.44313 4.11009
# Velocity P-wave (km/s) = 6.46693 6.06621 6.26977
#
# Compressibility (1/GPa) = 0.02989209
#
# Stress axis : x y z
#
# Youngs Moduli (GPa) = 52.48265 243.60723 53.29471
#
# Poissons Ratio (x) = 0.50829 0.15846
# Poissons Ratio (y) = 0.10951 0.05091
# Poissons Ratio (z) = 0.15605 0.23272
#
# Static dielectric constant tensor:
#      x y z
#    x 0.120730 0.000000 -3.243230 
#    y 0.000000 2.096750 0.000000 
#    z -3.243230 0.000000 -3.499340 
# 
# From -- ./inp_files/110042.got.cif
#   From: 2010.05.17/outbox.cif.g08.bks.cpg/sg12_56_cif.got.tgz:110042.got - 2010.06.03 13:09:07.
