data_PCOD9203951
_publ_section_title
;
Structure prediction by ZEFSAII (Michael W. Deem and Ramdas Pophale) SiO2 
 PCOD9203951
Probable space group: C 2/M
;
_chemical_formula_sum "Si O2"
_cell_formula_units_Z 56
_cell_length_a 19.002391
_cell_length_b 8.728570
_cell_length_c 18.079731
_cell_angle_alpha 90.000000
_cell_angle_beta 68.874911
_cell_angle_gamma 90.000000
_cell_volume 2797.241091
_symmetry_space_group_name_H-M "C 2/M"
_symmetry_group_IT_number 12
_symmetry_cell_setting 'monoclinic'
loop_
_space_group_symop_operation_xyz
x,y,z
-x,y,-z
-x,-y,-z
x,-y,z
1/2+x,1/2+y,z
1/2-x,1/2+y,-z
1/2-x,1/2-y,-z
1/2+x,1/2-y,z
loop_
_atom_site_type_symbol
_atom_site_label
_atom_site_fract_x
_atom_site_fract_y
_atom_site_fract_z
Si Si1 0.479009 0.677781 0.421617
Si Si2 0.636029 0.682382 0.839597
Si Si3 0.769894 0.182968 0.705713
Si Si4 0.028775 0.315811 0.128891
Si Si5 0.679538 0.184018 0.980269
Si Si6 0.407294 0.181188 0.735130
Si Si7 0.683500 0.314971 0.476814
O O1 0.500000 0.677226 0.500000
O O2 0.483648 0.500000 0.394340
O O3 0.534248 0.777223 0.351596
O O4 0.393797 0.736060 0.455545
O O5 0.637423 0.500000 0.841640
O O6 0.689417 0.741919 0.753171
O O7 0.550173 0.739834 0.863249
O O8 0.672588 0.749743 0.900608
O O9 0.829907 0.233568 0.744949
O O10 0.804444 0.230988 0.613190
O O11 0.762114 0.000000 0.708866
O O12 0.018128 0.500000 0.130086
O O13 0.055064 0.273105 0.201601
O O14 0.099706 0.277590 0.049817
O O15 0.686379 0.000000 0.975203
O O16 0.750000 0.250000 0.000000
O O17 0.392183 0.000000 0.743558
O O18 0.681805 0.500000 0.477697
O O19 0.750000 0.250000 0.500000
#
# Coordination Sequence:
#
# PCOD9203951 Si02
#       7
#     8   8   8   8   8   8   8
#     4  10  20  40  62  85 120 164 211 256 310 375
#     4  12  26  42  64  96 130 164 209 261 310 370
#     4  11  23  43  65  88 123 168 211 257 316 377
#     4  10  24  44  64  92 129 166 205 253 310 370
#     4  11  23  43  71  98 130 170 209 254 308 368
#     4  11  23  39  63  95 126 159 208 264 314 372
#     4  10  23  40  61  87 121 162 207 260 315 375
#
# _framework density 20.019725000000001
#
# number of rings (size 3 to 8) (size 9 to 14) (size 15 to 20)
#    0.000    1.286    1.429    3.857    2.000    7.143 
#    0.000    0.000    0.000    0.000    0.000    0.000 
#    0.000    0.000    0.000    0.000    0.000    0.000 
#
# Total GULP energy -156554.439108 kJ/mol
# GULP energy per Si atom -5591.229968 kJ/mol
# Density = 1.997416 g / cm^3
# Si number density = 20.019725 Si / 1000 Ang^3
#
#
#
# Elastic Constant Matrix: (Units=GPa)
#
#
# Indices 1 2 3 4 5 6 
#
# 1 126.1590 33.5958 19.0316 0.0000 -15.5552 0.0000
# 2 33.5958 52.5856 25.1642 0.0000 -6.6752 0.0000
# 3 19.0316 25.1642 74.3018 0.0000 -10.1389 0.0000
# 4 0.0000 0.0000 0.0000 16.6037 0.0000 2.6366
# 5 -15.5552 -6.6752 -10.1389 0.0000 37.6129 0.0000
# 6 0.0000 0.0000 0.0000 2.6366 0.0000 40.2065
#
#
#
# Elastic Compliance Matrix: (Units=1/GPa)
#
#
# Indices 1 2 3 4 5 6 
#
# 1 0.009880 -0.005866 -0.000133 0.000000 0.003009 0.000000
# 2 -0.005866 0.026328 -0.007379 0.000000 0.000257 0.000000
# 3 -0.000133 -0.007379 0.016409 0.000000 0.003059 0.000000
# 4 0.000000 0.000000 0.000000 0.060861 0.000000 -0.003991
# 5 0.003009 0.000257 0.003059 0.000000 0.028701 0.000000
# 6 0.000000 0.000000 0.000000 -0.003991 0.000000 0.025133
#
#
# Mechanical properties :
#
#
# Convention : Reuss Voigt Hill
#
# Bulk Modulus (GPa) = 38.66959 45.40329 42.03644
# Shear Modulus (GPa) = 24.66819 30.56827 27.61823
#
# Velocity S-wave (km/s) = 3.51407 3.91181 3.71826
# Velocity P-wave (km/s) = 5.98520 6.56746 6.28308
#
# Compressibility (1/GPa) = 0.02586011
#
# Stress axis : x y z
#
# Youngs Moduli (GPa) = 101.21691 37.98198 60.94130
#
# Poissons Ratio (x) = 0.22281 0.00812
# Poissons Ratio (y) = 0.59377 0.44969
# Poissons Ratio (z) = 0.01349 0.28027
#
# Static dielectric constant tensor:
#      x y z
#    x 1.695500 0.000000 -0.029500 
#    y 0.000000 1.674010 0.000000 
#    z -0.029500 0.000000 1.723310 
# 
# From -- ./inp_files/275206.got.cif
#   From: 2010.05.17/outbox.cif.g08.bks.cpg/sg12_138_cif.got.tgz:275206.got - 2010.06.03 13:09:07.
