data_PCOD9203770
_publ_section_title
;
Structure prediction by ZEFSAII (Michael W. Deem and Ramdas Pophale) SiO2 
 PCOD9203770
Probable space group: C 2/M
;
_chemical_formula_sum "Si O2"
_cell_formula_units_Z 64
_cell_length_a 14.370450
_cell_length_b 26.660559
_cell_length_c 9.646342
_cell_angle_alpha 90.000000
_cell_angle_beta 113.107047
_cell_angle_gamma 90.000000
_cell_volume 3399.249499
_symmetry_space_group_name_H-M "C 2/M"
_symmetry_group_IT_number 12
_symmetry_cell_setting 'monoclinic'
loop_
_space_group_symop_operation_xyz
x,y,z
-x,y,-z
-x,-y,-z
x,-y,z
1/2+x,1/2+y,z
1/2-x,1/2+y,-z
1/2-x,1/2-y,-z
1/2+x,1/2-y,z
loop_
_atom_site_type_symbol
_atom_site_label
_atom_site_fract_x
_atom_site_fract_y
_atom_site_fract_z
Si Si1 0.260812 0.796146 0.114223
Si Si2 0.442454 0.145027 0.325798
Si Si3 0.990605 0.864879 0.329938
Si Si4 0.736040 0.616267 0.884719
Si Si5 0.795790 0.443582 0.168290
Si Si6 0.070272 0.222039 0.178875
Si Si7 0.573179 0.558231 0.168719
Si Si8 0.419709 0.161422 0.827892
O O1 0.373958 0.807938 0.233090
O O2 0.182200 0.793918 0.194104
O O3 0.250000 0.750000 0.000000
O O4 0.231364 0.843207 0.004603
O O5 0.500000 0.155883 0.500000
O O6 0.367151 0.097803 0.280204
O O7 0.528510 0.132066 0.265216
O O8 0.876578 0.884772 0.238179
O O9 0.000000 0.858801 0.500000
O O10 0.020213 0.813353 0.265897
O O11 0.059051 0.906789 0.293591
O O12 0.815664 0.638200 0.821022
O O13 0.778307 0.568778 0.994384
O O14 0.834628 0.500000 0.207164
O O15 0.686158 0.440261 0.176033
O O16 0.085143 0.280631 0.222382
O O17 0.000000 0.218986 0.000000
O O18 0.546485 0.500000 0.182665
O O19 0.500000 0.576050 0.000000
O O20 0.500000 0.160320 0.000000
#
# Coordination Sequence:
#
# PCOD9203770 Si02
#       8
#     8   8   8   8   8   8   8   8
#     4  11  19  38  65  88 113 164 219 262 303 368
#     4  11  25  41  61  91 130 162 206 267 323 365
#     4  12  25  37  55  93 135 164 199 264 325 379
#     4  11  21  37  59  88 123 157 211 260 310 374
#     4  10  21  40  71  96 117 158 214 262 316 392
#     4  11  21  36  63  88 119 165 224 253 305 380
#     4  10  20  39  67  93 117 157 211 261 320 394
#     4  11  21  38  61  87 118 171 213 255 306 371
#
# _framework density 18.827686
#
# number of rings (size 3 to 8) (size 9 to 14) (size 15 to 20)
#    0.000    1.125    6.250    2.625    0.000    3.000 
#    0.000    2.500    0.000    0.000    0.000    0.000 
#    0.000    0.000    0.000    0.000    0.000    0.000 
#
# Total GULP energy -178538.521724 kJ/mol
# GULP energy per Si atom -5579.328804 kJ/mol
# Density = 1.878483 g / cm^3
# Si number density = 18.827686 Si / 1000 Ang^3
#
#
#
# Elastic Constant Matrix: (Units=GPa)
#
#
# Indices 1 2 3 4 5 6 
#
# 1 94.4062 25.4312 18.1034 0.0000 -6.5852 0.0000
# 2 25.4312 75.3306 26.1279 0.0000 -5.1046 0.0000
# 3 18.1034 26.1279 94.4053 0.0000 -1.5665 0.0000
# 4 0.0000 0.0000 0.0000 22.5516 0.0000 15.7682
# 5 -6.5852 -5.1046 -1.5665 0.0000 26.3366 0.0000
# 6 0.0000 0.0000 0.0000 15.7682 0.0000 41.6404
#
#
#
# Elastic Compliance Matrix: (Units=1/GPa)
#
#
# Indices 1 2 3 4 5 6 
#
# 1 0.011920 -0.003421 -0.001302 0.000000 0.002240 0.000000
# 2 -0.003421 0.015847 -0.003697 0.000000 0.001996 0.000000
# 3 -0.001302 -0.003697 0.011860 0.000000 -0.000337 0.000000
# 4 0.000000 0.000000 0.000000 0.060312 0.000000 -0.022839
# 5 0.002240 0.001996 -0.000337 0.000000 0.038897 0.000000
# 6 0.000000 0.000000 0.000000 -0.022839 0.000000 0.032664
#
#
# Mechanical properties :
#
#
# Convention : Reuss Voigt Hill
#
# Bulk Modulus (GPa) = 43.88276 44.82966 44.35621
# Shear Modulus (GPa) = 25.51879 31.07103 28.29491
#
# Velocity S-wave (km/s) = 3.68555 4.06678 3.88085
# Velocity P-wave (km/s) = 6.43966 6.77597 6.60995
#
# Compressibility (1/GPa) = 0.02278799
#
# Stress axis : x y z
#
# Youngs Moduli (GPa) = 83.89325 63.10289 84.31830
#
# Poissons Ratio (x) = 0.21586 0.10977
# Poissons Ratio (y) = 0.28698 0.31171
# Poissons Ratio (z) = 0.10922 0.23328
#
# Static dielectric constant tensor:
#      x y z
#    x 1.670460 0.000000 0.002930 
#    y 0.000000 1.711440 0.000000 
#    z 0.002930 0.000000 1.647080 
# 
# From -- ./inp_files/67039.got.cif
#   From: 2010.05.17/outbox.cif.g08.bks.cpg/sg12_34_cif.got.tgz:67039.got - 2010.06.03 13:09:07.
