data_PCOD9203456
_publ_section_title
;
Structure prediction by ZEFSAII (Michael W. Deem and Ramdas Pophale) SiO2 
 PCOD9203456
Probable space group: C 2/M
;
_chemical_formula_sum "Si O2"
_cell_formula_units_Z 40
_cell_length_a 18.731376
_cell_length_b 17.810775
_cell_length_c 13.235774
_cell_angle_alpha 90.000000
_cell_angle_beta 158.215621
_cell_angle_gamma 90.000000
_cell_volume 1638.739709
_symmetry_space_group_name_H-M "C 2/M"
_symmetry_group_IT_number 12
_symmetry_cell_setting 'monoclinic'
loop_
_space_group_symop_operation_xyz
x,y,z
-x,y,-z
-x,-y,-z
x,-y,z
1/2+x,1/2+y,z
1/2-x,1/2+y,-z
1/2-x,1/2-y,-z
1/2+x,1/2-y,z
loop_
_atom_site_type_symbol
_atom_site_label
_atom_site_fract_x
_atom_site_fract_y
_atom_site_fract_z
Si Si1 0.721136 0.664649 0.588342
Si Si2 0.926803 0.677078 0.643250
Si Si3 0.985500 0.000000 0.860044
Si Si4 0.780715 0.204556 0.201709
Si Si5 0.218564 0.500000 0.335765
Si Si6 0.206203 0.623319 0.742147
O O1 0.573904 0.733371 0.380014
O O2 0.820117 0.693037 0.821787
O O3 0.684312 0.578106 0.567978
O O4 0.824669 0.663267 0.615864
O O5 0.813409 0.637910 0.404128
O O6 0.151524 0.659833 0.952737
O O7 0.111013 0.927128 0.993058
O O8 0.775321 0.000000 0.531349
O O9 0.000000 0.000000 0.000000
O O10 0.787454 0.294560 0.198127
O O11 0.000000 0.178859 0.500000
O O12 0.000000 0.500000 0.000000
O O13 0.000000 0.588742 0.500000
#
# Coordination Sequence:
#
# PCOD9203456 Si02
#       6
#     8   8   4   8   4   8
#     4  10  22  38  61  87 118 159 204 253 307 367
#     4  10  20  39  63  87 119 160 206 256 306 364
#     4  12  25  41  64  93 124 166 211 253 309 375
#     4  10  21  37  61  91 121 159 205 254 310 369
#     4  12  24  39  61  91 125 158 200 259 314 363
#     4  10  23  40  61  90 125 162 203 254 309 368
#
# _framework density 24.409002000000001
#
# number of rings (size 3 to 8) (size 9 to 14) (size 15 to 20)
#    0.000    1.600    0.000    4.500    0.000   12.000 
#    0.000    0.500    0.000    0.000    0.000    0.000 
#    0.000    0.000    0.000    0.000    0.000    0.000 
#
# Total GULP energy -111487.235232 kJ/mol
# GULP energy per Si atom -5574.361762 kJ/mol
# Density = 2.435345 g / cm^3
# Si number density = 24.409002 Si / 1000 Ang^3
#
#
#
# Elastic Constant Matrix: (Units=GPa)
#
#
# Indices 1 2 3 4 5 6 
#
# 1 92.0238 -3.6255 26.1348 0.0000 -8.7216 0.0000
# 2 -3.6255 121.5881 18.4252 0.0000 3.3705 0.0000
# 3 26.1348 18.4252 158.0735 0.0000 -29.9664 0.0000
# 4 0.0000 0.0000 0.0000 8.0596 0.0000 0.8588
# 5 -8.7216 3.3705 -29.9664 0.0000 25.5720 0.0000
# 6 0.0000 0.0000 0.0000 0.8588 0.0000 16.5461
#
#
#
# Elastic Compliance Matrix: (Units=1/GPa)
#
#
# Indices 1 2 3 4 5 6 
#
# 1 0.011528 0.000529 -0.001588 0.000000 0.002001 0.000000
# 2 0.000529 0.008566 -0.001627 0.000000 -0.002856 0.000000
# 3 -0.001588 -0.001627 0.008635 0.000000 0.009791 0.000000
# 4 0.000000 0.000000 0.000000 0.124765 0.000000 -0.006476
# 5 0.002001 -0.002856 0.009791 0.000000 0.051638 0.000000
# 6 0.000000 0.000000 0.000000 -0.006476 0.000000 0.060773
#
#
# Mechanical properties :
#
#
# Convention : Reuss Voigt Hill
#
# Bulk Modulus (GPa) = 42.81622 50.39493 46.60558
# Shear Modulus (GPa) = 17.91707 32.08560 25.00133
#
# Velocity S-wave (km/s) = 2.71225 3.62953 3.20389
# Velocity P-wave (km/s) = 5.23332 6.18511 5.72901
#
# Compressibility (1/GPa) = 0.02335563
#
# Stress axis : x y z
#
# Youngs Moduli (GPa) = 86.74292 116.74046 115.81329
#
# Poissons Ratio (x) = -0.06175 0.18396
# Poissons Ratio (y) = -0.04589 0.18846
# Poissons Ratio (z) = 0.13778 0.18997
#
# Static dielectric constant tensor:
#      x y z
#    x 2.033130 0.000000 0.013590 
#    y 0.000000 1.941580 0.000000 
#    z 0.013590 0.000000 2.052590 
# 
# From -- ./inp_files/234780.got.cif
#   From: 2010.05.17/outbox.cif.g08.bks.cpg/sg12_118_cif.got.tgz:234780.got - 2010.06.03 13:09:07.
