data_PCOD9203029
_publ_section_title
;
Structure prediction by ZEFSAII (Michael W. Deem and Ramdas Pophale) SiO2 
 PCOD9203029
Probable space group: C 2/M
;
_chemical_formula_sum "Si O2"
_cell_formula_units_Z 40
_cell_length_a 7.922285
_cell_length_b 22.619386
_cell_length_c 11.616240
_cell_angle_alpha 90.000000
_cell_angle_beta 121.031294
_cell_angle_gamma 90.000000
_cell_volume 1783.691859
_symmetry_space_group_name_H-M "C 2/M"
_symmetry_group_IT_number 12
_symmetry_cell_setting 'monoclinic'
loop_
_space_group_symop_operation_xyz
x,y,z
-x,y,-z
-x,-y,-z
x,-y,z
1/2+x,1/2+y,z
1/2-x,1/2+y,-z
1/2-x,1/2-y,-z
1/2+x,1/2-y,z
loop_
_atom_site_type_symbol
_atom_site_label
_atom_site_fract_x
_atom_site_fract_y
_atom_site_fract_z
Si Si1 0.705854 0.430327 0.934849
Si Si2 0.042123 0.624600 0.187673
Si Si3 0.044586 0.836518 0.238948
Si Si4 0.185483 0.320717 0.480011
Si Si5 0.655632 0.757842 0.134770
O O1 0.682176 0.500000 0.929354
O O2 0.814656 0.410243 0.852191
O O3 0.506783 0.393354 0.852758
O O4 0.839255 0.409256 0.089524
O O5 0.132341 0.643688 0.343020
O O6 0.009520 0.690217 0.125613
O O7 0.124586 0.850675 0.393077
O O8 0.207006 0.792882 0.242010
O O9 0.850540 0.794627 0.176442
O O10 0.250000 0.250000 0.500000
O O11 0.000000 0.327401 0.500000
O O12 0.500000 0.724043 0.000000
#
# Coordination Sequence:
#
# PCOD9203029 Si02
#       5
#     8   8   8   8   8
#     4  10  22  43  70  96 126 176 237 281 312 385
#     4  10  20  38  65  95 131 167 220 275 335 385
#     4  11  23  37  62  97 136 166 220 260 337 398
#     4  12  26  40  62  99 146 179 209 266 346 416
#     4  11  20  34  60  99 130 169 205 278 334 392
#
# _framework density 22.425397
#
# number of rings (size 3 to 8) (size 9 to 14) (size 15 to 20)
#    0.000    1.200    6.000    3.000    2.800    0.000 
#    0.000    3.000    0.000    9.600    0.000    0.000 
#    0.000    0.000    0.000    0.000    0.000    0.000 
#
# Total GULP energy -111343.120781 kJ/mol
# GULP energy per Si atom -5567.156039 kJ/mol
# Density = 2.237436 g / cm^3
# Si number density = 22.425397 Si / 1000 Ang^3
#
#
#
# Elastic Constant Matrix: (Units=GPa)
#
#
# Indices 1 2 3 4 5 6 
#
# 1 78.1697 24.5483 42.9209 0.0000 -0.1637 0.0000
# 2 24.5483 179.5355 57.1385 0.0000 4.0049 0.0000
# 3 42.9209 57.1385 192.6196 0.0000 11.9912 0.0000
# 4 0.0000 0.0000 0.0000 20.3316 0.0000 -5.8625
# 5 -0.1637 4.0049 11.9912 0.0000 25.8978 0.0000
# 6 0.0000 0.0000 0.0000 -5.8625 0.0000 15.8107
#
#
#
# Elastic Compliance Matrix: (Units=1/GPa)
#
#
# Indices 1 2 3 4 5 6 
#
# 1 0.014832 -0.001083 -0.003089 0.000000 0.001692 0.000000
# 2 -0.001083 0.006230 -0.001592 0.000000 -0.000233 0.000000
# 3 -0.003089 -0.001592 0.006526 0.000000 -0.002795 0.000000
# 4 0.000000 0.000000 0.000000 0.055073 0.000000 0.020420
# 5 0.001692 -0.000233 -0.002795 0.000000 0.039954 0.000000
# 6 0.000000 0.000000 0.000000 0.020420 0.000000 0.070820
#
#
# Mechanical properties :
#
#
# Convention : Reuss Voigt Hill
#
# Bulk Modulus (GPa) = 62.26525 77.72669 69.99597
# Shear Modulus (GPa) = 23.77360 34.12248 28.94804
#
# Velocity S-wave (km/s) = 3.25948 3.90500 3.59675
# Velocity P-wave (km/s) = 6.48008 7.42074 6.96630
#
# Compressibility (1/GPa) = 0.01606032
#
# Stress axis : x y z
#
# Youngs Moduli (GPa) = 67.41983 160.51584 153.22655
#
# Poissons Ratio (x) = 0.17378 0.47335
# Poissons Ratio (y) = 0.07299 0.24398
# Poissons Ratio (z) = 0.20828 0.25559
#
# Static dielectric constant tensor:
#      x y z
#    x 2.073640 0.000000 -0.143140 
#    y 0.000000 1.756230 0.000000 
#    z -0.143140 0.000000 2.058430 
# 
# From -- ./inp_files/122174.got.cif
#   From: 2010.05.17/outbox.cif.g08.bks.cpg/sg12_62_cif.got.tgz:122174.got - 2010.06.03 13:09:07.
