data_PCOD9203817
_publ_section_title
;
Structure prediction by ZEFSAII (Michael W. Deem and Ramdas Pophale) SiO2 
 PCOD9203817
Probable space group: C 2/M
;
_chemical_formula_sum "Si O2"
_cell_formula_units_Z 52
_cell_length_a 16.436371
_cell_length_b 17.703641
_cell_length_c 15.654249
_cell_angle_alpha 90.000000
_cell_angle_beta 30.467751
_cell_angle_gamma 90.000000
_cell_volume 2309.693714
_symmetry_space_group_name_H-M "C 2/M"
_symmetry_group_IT_number 12
_symmetry_cell_setting 'monoclinic'
loop_
_space_group_symop_operation_xyz
x,y,z
-x,y,-z
-x,-y,-z
x,-y,z
1/2+x,1/2+y,z
1/2-x,1/2+y,-z
1/2-x,1/2-y,-z
1/2+x,1/2-y,z
loop_
_atom_site_type_symbol
_atom_site_label
_atom_site_fract_x
_atom_site_fract_y
_atom_site_fract_z
Si Si1 0.218319 0.722090 0.900695
Si Si2 0.751709 0.500000 0.696637
Si Si3 0.338434 0.865119 0.877788
Si Si4 0.208570 0.589840 0.563129
Si Si5 0.371796 0.500000 0.999627
Si Si6 0.830457 0.177685 0.618107
Si Si7 0.000000 0.810393 0.000000
Si Si8 0.234660 0.347786 0.364996
O O1 0.334837 0.792314 0.817688
O O2 0.236941 0.683766 0.792170
O O3 0.049595 0.763179 0.038514
O O4 0.213448 0.666855 0.983431
O O5 0.708307 0.500000 0.834637
O O6 0.851657 0.427487 0.573633
O O7 0.566881 0.500000 0.823059
O O8 0.517304 0.897555 0.723588
O O9 0.204884 0.925794 0.973198
O O10 0.244280 0.500000 0.527757
O O11 0.260448 0.626320 0.606556
O O12 0.291262 0.637901 0.411207
O O13 0.840386 0.265013 0.576426
O O14 0.000000 0.149980 0.500000
O O15 0.144569 0.853871 0.825957
#
# Coordination Sequence:
#
# PCOD9203817 Si02
#       8
#     8   4   8   8   4   8   4   8
#     4  10  22  41  68 101 127 177 222 282 323 398
#     4  11  22  37  61  96 138 164 211 272 331 399
#     4  11  22  41  65  95 139 170 223 270 334 395
#     4  12  26  46  65  97 138 182 222 278 335 404
#     4  11  22  37  61  95 131 172 207 261 333 393
#     4  11  25  45  71  97 130 177 231 277 335 398
#     4  10  20  39  68  95 134 164 226 276 335 392
#     4  11  22  42  67 101 131 174 218 278 343 400
#
# _framework density 22.513808999999998
#
# number of rings (size 3 to 8) (size 9 to 14) (size 15 to 20)
#    0.000    1.077    1.538    6.923    0.000    5.231 
#    1.385    1.923    0.000    0.000    0.000    0.000 
#    0.000    0.000    0.000    0.000    0.000    0.000 
#
# Total GULP energy -145011.735820 kJ/mol
# GULP energy per Si atom -5577.374455 kJ/mol
# Density = 2.246257 g / cm^3
# Si number density = 22.513809 Si / 1000 Ang^3
#
#
#
# Elastic Constant Matrix: (Units=GPa)
#
#
# Indices 1 2 3 4 5 6 
#
# 1 169.1986 72.4778 47.4839 0.0046 25.0788 0.0032
# 2 72.4778 112.9414 33.2035 0.0089 16.7012 0.0081
# 3 47.4839 33.2035 52.4480 0.0035 18.7049 0.0047
# 4 0.0046 0.0089 0.0035 8.6558 -0.0099 -2.3629
# 5 25.0788 16.7012 18.7049 -0.0099 43.2838 -0.0078
# 6 0.0032 0.0081 0.0047 -2.3629 -0.0078 -53.8315
#
#
#
# Elastic Compliance Matrix: (Units=1/GPa)
#
#
# Indices 1 2 3 4 5 6 
#
# 1 0.009463 -0.004285 -0.005306 0.000000 -0.001536 0.000000
# 2 -0.004285 0.012896 -0.004014 -0.000010 -0.000758 0.000002
# 3 -0.005306 -0.004014 0.029275 -0.000013 -0.008028 0.000003
# 4 0.000000 -0.000010 -0.000013 0.114162 0.000035 -0.005011
# 5 -0.001536 -0.000758 -0.008028 0.000035 0.027755 -0.000006
# 6 0.000000 0.000002 0.000003 -0.005011 -0.000006 -0.018357
#
#
# Mechanical properties :
#
#
# Convention : Reuss Voigt Hill
#
# Bulk Modulus (GPa) = 40.94616 71.21316 56.07966
# Shear Modulus (GPa) = 23.74766 11.71646 17.73206
#
# Velocity S-wave (km/s) = 3.25130 2.28373 2.80948
# Velocity P-wave (km/s) = 5.68517 6.21719 5.95712
#
# Compressibility (1/GPa) = 0.02442231
#
# Stress axis : x y z
#
# Youngs Moduli (GPa) = 105.67760 77.54054 34.15910
#
# Poissons Ratio (x) = 0.33229 0.18126
# Poissons Ratio (y) = 0.45287 0.13712
# Poissons Ratio (z) = 0.56076 0.31126
#
# Static dielectric constant tensor:
#      x y z
#    x 1.885300 0.000000 -0.111510 
#    y 0.000000 1.887490 0.000000 
#    z -0.111510 0.000000 2.087220 
# 
# From -- ./inp_files/216747.got.cif
#   From: 2010.05.17/outbox.cif.g08.bks.cpg/sg12_109_cif.got.tgz:216747.got - 2010.06.03 13:09:07.
