data_PCOD9203003
_publ_section_title
;
Structure prediction by ZEFSAII (Michael W. Deem and Ramdas Pophale) SiO2 
 PCOD9203003
Probable space group: C 2/M
;
_chemical_formula_sum "Si O2"
_cell_formula_units_Z 58
_cell_length_a 12.068960
_cell_length_b 14.547108
_cell_length_c 13.825725
_cell_angle_alpha 90.000000
_cell_angle_beta 74.891905
_cell_angle_gamma 90.000000
_cell_volume 2343.461547
_symmetry_space_group_name_H-M "C 2/M"
_symmetry_group_IT_number 12
_symmetry_cell_setting 'monoclinic'
loop_
_space_group_symop_operation_xyz
x,y,z
-x,y,-z
-x,-y,-z
x,-y,z
1/2+x,1/2+y,z
1/2-x,1/2+y,-z
1/2-x,1/2-y,-z
1/2+x,1/2-y,z
loop_
_atom_site_type_symbol
_atom_site_label
_atom_site_fract_x
_atom_site_fract_y
_atom_site_fract_z
Si Si1 0.170590 0.599702 0.878718
Si Si2 0.000000 0.000000 0.000000
Si Si3 0.152831 0.797510 0.801926
Si Si4 0.650581 0.786104 0.403263
Si Si5 0.339075 0.852226 0.896981
Si Si6 0.747690 0.394439 0.440151
Si Si7 0.990418 0.601950 0.313599
Si Si8 0.587415 0.355797 0.138840
O O1 0.124478 0.500000 0.857854
O O2 0.123880 0.698051 0.854293
O O3 0.307145 0.603795 0.824895
O O4 0.146931 0.609730 0.661394
O O5 0.944745 0.079186 0.941474
O O6 0.250017 0.789545 0.699917
O O7 0.216385 0.858578 0.869784
O O8 0.036139 0.837987 0.785099
O O9 0.652048 0.681343 0.438706
O O10 0.691368 0.856283 0.476709
O O11 0.537373 0.821393 0.376162
O O12 0.434013 0.889037 0.800371
O O13 0.364445 0.743759 0.903418
O O14 0.340013 0.896821 0.001701
O O15 0.711090 0.500000 0.456736
O O16 0.013208 0.500000 0.349261
#
# Coordination Sequence:
#
# PCOD9203003 Si02
#       8
#     8   2   8   8   8   8   8   8
#     4  11  22  38  57  85 118 154 199 247 285 346
#     4  12  20  32  56  80 102 150 212 236 284 340
#     4  10  22  38  58  82 120 158 192 241 302 346
#     4  10  21  38  62  91 121 153 197 253 301 357
#     4  10  21  37  58  83 123 155 195 248 296 341
#     4  10  21  39  65  90 119 155 196 247 308 365
#     4  10  20  38  65  92 118 157 202 243 298 361
#     4  11  21  37  55  80 110 157 200 242 288 349
#
# _framework density 24.749713
#
# number of rings (size 3 to 8) (size 9 to 14) (size 15 to 20)
#    0.000    1.655    0.690    5.379    0.000    1.655 
#    6.207    2.069    0.000    7.448    0.000    0.000 
#    0.000    0.000    0.000    0.000    0.000    0.000 
#
# Total GULP energy -162050.724974 kJ/mol
# GULP energy per Si atom -5587.956034 kJ/mol
# Density = 2.469338 g / cm^3
# Si number density = 24.749713 Si / 1000 Ang^3
#
#
#
# Elastic Constant Matrix: (Units=GPa)
#
#
# Indices 1 2 3 4 5 6 
#
# 1 102.0718 33.0841 -7.1665 0.0000 5.8567 0.0000
# 2 33.0841 152.9818 12.6093 0.0000 5.6571 0.0000
# 3 -7.1665 12.6093 67.7508 0.0000 6.5782 0.0000
# 4 0.0000 0.0000 0.0000 9.8397 0.0000 62.0428
# 5 5.8567 5.6571 6.5782 0.0000 16.6575 0.0000
# 6 0.0000 0.0000 0.0000 62.0428 0.0000 -143.8674
#
#
#
# Elastic Compliance Matrix: (Units=1/GPa)
#
#
# Indices 1 2 3 4 5 6 
#
# 1 0.010927 -0.002384 0.001970 0.000000 -0.003810 0.000000
# 2 -0.002384 0.007213 -0.001496 0.000000 -0.001021 0.000000
# 3 0.001970 -0.001496 0.015873 0.000000 -0.006453 0.000000
# 4 0.000000 0.000000 0.000000 0.027326 0.000000 0.011784
# 5 -0.003810 -0.001021 -0.006453 0.000000 0.064267 0.000000
# 6 0.000000 0.000000 0.000000 0.011784 0.000000 -0.001869
#
#
# Mechanical properties :
#
#
# Convention : Reuss Voigt Hill
#
# Bulk Modulus (GPa) = 33.12115 44.42867 38.77491
# Shear Modulus (GPa) = 36.33117 -4.52220 15.90449
#
# Velocity S-wave (km/s) = 3.83553 -1.35320 2.53773
# Velocity P-wave (km/s) = 5.74687 3.94318 4.92824
#
# Compressibility (1/GPa) = 0.03019219
#
# Stress axis : x y z
#
# Youngs Moduli (GPa) = 91.51831 138.63049 62.99922
#
# Poissons Ratio (x) = 0.33056 -0.12408
# Poissons Ratio (y) = 0.21822 0.09422
# Poissons Ratio (z) = -0.18025 0.20734
#
# Static dielectric constant tensor:
#      x y z
#    x 2.006970 0.000000 0.015450 
#    y 0.000000 1.926320 0.000000 
#    z 0.015450 0.000000 2.006030 
# 
# From -- ./inp_files/214769.got.cif
#   From: 2010.05.17/outbox.cif.g08.bks.cpg/sg12_108_cif.got.tgz:214769.got - 2010.06.03 13:09:07.
