data_PCOD9203030
_publ_section_title
;
Structure prediction by ZEFSAII (Michael W. Deem and Ramdas Pophale) SiO2 
 PCOD9203030
Probable space group: C 2/M
;
_chemical_formula_sum "Si O2"
_cell_formula_units_Z 48
_cell_length_a 11.480714
_cell_length_b 27.779556
_cell_length_c 15.952194
_cell_angle_alpha 90.000000
_cell_angle_beta 153.094558
_cell_angle_gamma 90.000000
_cell_volume 2302.246567
_symmetry_space_group_name_H-M "C 2/M"
_symmetry_group_IT_number 12
_symmetry_cell_setting 'monoclinic'
loop_
_space_group_symop_operation_xyz
x,y,z
-x,y,-z
-x,-y,-z
x,-y,z
1/2+x,1/2+y,z
1/2-x,1/2+y,-z
1/2-x,1/2-y,-z
1/2+x,1/2-y,z
loop_
_atom_site_type_symbol
_atom_site_label
_atom_site_fract_x
_atom_site_fract_y
_atom_site_fract_z
Si Si1 0.686991 0.947377 0.540316
Si Si2 0.689839 0.840684 0.927588
Si Si3 0.003880 0.716134 0.645082
Si Si4 0.272447 0.054458 0.126171
Si Si5 0.191833 0.190330 0.701422
Si Si6 0.590170 0.347708 0.314670
O O1 0.500000 0.943918 0.500000
O O2 0.504052 0.943526 0.342019
O O3 0.887102 0.904752 0.673259
O O4 0.809756 0.000000 0.619986
O O5 0.625820 0.807811 0.805802
O O6 0.697343 0.897173 0.908554
O O7 0.464086 0.830046 0.848800
O O8 0.954153 0.828654 0.144184
O O9 0.750000 0.750000 0.500000
O O10 0.875432 0.673464 0.510121
O O11 0.194580 0.752577 0.721765
O O12 0.277935 0.000000 0.091643
O O13 0.000000 0.058188 0.000000
O O14 0.000000 0.182331 0.500000
O O15 0.075333 0.166473 0.709847
#
# Coordination Sequence:
#
# PCOD9203030 Si02
#       6
#     8   8   8   8   8   8
#     4  10  20  38  65  95 131 168 207 264 323 380
#     4  12  23  44  66  97 130 169 213 265 321 382
#     4  10  22  43  62  88 126 172 213 265 313 373
#     4  10  21  41  68 100 132 166 212 264 318 384
#     4  11  22  44  66  86 132 169 213 272 312 373
#     4  11  23  41  66  94 127 170 213 261 322 384
#
# _framework density 20.8492
#
# number of rings (size 3 to 8) (size 9 to 14) (size 15 to 20)
#    0.000    1.333    5.000    1.500    0.000    5.333 
#    6.000    0.833    0.000    5.000    0.000    0.000 
#    0.000    0.000    0.000    0.000    0.000    0.000 
#
# Total GULP energy -134152.058197 kJ/mol
# GULP energy per Si atom -5589.669092 kJ/mol
# Density = 2.080175 g / cm^3
# Si number density = 20.849200 Si / 1000 Ang^3
#
#
#
# Elastic Constant Matrix: (Units=GPa)
#
#
# Indices 1 2 3 4 5 6 
#
# 1 66.0081 63.7158 35.0080 0.0002 -3.9136 0.0001
# 2 63.7158 154.7782 50.2012 -0.0002 0.2360 -0.0001
# 3 35.0080 50.2012 123.4429 0.0004 -26.1130 0.0000
# 4 0.0002 -0.0002 0.0004 21.1758 0.0004 7.6028
# 5 -3.9136 0.2360 -26.1130 0.0004 29.6634 0.0001
# 6 0.0001 -0.0001 0.0000 7.6028 0.0001 32.9022
#
#
#
# Elastic Compliance Matrix: (Units=1/GPa)
#
#
# Indices 1 2 3 4 5 6 
#
# 1 0.026421 -0.009776 -0.003396 0.000000 0.000574 0.000000
# 2 -0.009776 0.011340 -0.002619 0.000000 -0.003686 0.000000
# 3 -0.003396 -0.002619 0.012336 0.000000 0.010432 0.000000
# 4 0.000000 0.000000 0.000000 0.051496 -0.000001 -0.011899
# 5 0.000574 -0.003686 0.010432 -0.000001 0.043000 0.000000
# 6 0.000000 0.000000 0.000000 -0.011899 0.000000 0.033143
#
#
# Mechanical properties :
#
#
# Convention : Reuss Voigt Hill
#
# Bulk Modulus (GPa) = 54.00829 71.34212 62.67520
# Shear Modulus (GPa) = 23.20294 29.76856 26.48575
#
# Velocity S-wave (km/s) = 3.33963 3.78273 3.56806
# Velocity P-wave (km/s) = 6.38994 7.30556 6.86303
#
# Compressibility (1/GPa) = 0.01851568
#
# Stress axis : x y z
#
# Youngs Moduli (GPa) = 37.84840 88.18106 81.06433
#
# Poissons Ratio (x) = 0.86205 0.27528
# Poissons Ratio (y) = 0.37000 0.21231
# Poissons Ratio (z) = 0.12853 0.23095
#
# Static dielectric constant tensor:
#      x y z
#    x 1.830580 0.000000 0.006340 
#    y 0.000000 1.790700 0.000000 
#    z 0.006340 0.000000 1.784620 
# 
# From -- ./inp_files/209466.got.cif
#   From: 2010.05.17/outbox.cif.g08.bks.cpg/sg12_105_cif.got.tgz:209466.got - 2010.06.03 13:09:07.
