data_PCOD9203012
_publ_section_title
;
Structure prediction by ZEFSAII (Michael W. Deem and Ramdas Pophale) SiO2 
 PCOD9203012
Probable space group: C 2/M
;
_chemical_formula_sum "Si O2"
_cell_formula_units_Z 58
_cell_length_a 23.520332
_cell_length_b 9.752958
_cell_length_c 25.950366
_cell_angle_alpha 90.000000
_cell_angle_beta 148.639026
_cell_angle_gamma 90.000000
_cell_volume 3098.018823
_symmetry_space_group_name_H-M "C 2/M"
_symmetry_group_IT_number 12
_symmetry_cell_setting 'monoclinic'
loop_
_space_group_symop_operation_xyz
x,y,z
-x,y,-z
-x,-y,-z
x,-y,z
1/2+x,1/2+y,z
1/2-x,1/2+y,-z
1/2-x,1/2-y,-z
1/2+x,1/2-y,z
loop_
_atom_site_type_symbol
_atom_site_label
_atom_site_fract_x
_atom_site_fract_y
_atom_site_fract_z
Si Si1 0.369319 0.349664 0.490771
Si Si2 0.087422 0.157825 0.021587
Si Si3 0.500000 0.000000 0.500000
Si Si4 0.083027 0.161171 0.198822
Si Si5 0.504821 0.837913 0.665271
Si Si6 0.323095 0.756253 0.345344
Si Si7 0.882045 0.343965 0.677170
Si Si8 0.295778 0.661439 0.208112
O O1 0.415532 0.500000 0.540288
O O2 0.438951 0.224005 0.566034
O O3 0.354470 0.338852 0.418110
O O4 0.249447 0.336843 0.423371
O O5 0.181590 0.265422 0.106668
O O6 0.129783 0.000000 0.050794
O O7 0.000000 0.159194 0.000000
O O8 0.018093 0.191452 0.916942
O O9 0.591613 0.119293 0.586026
O O10 0.198479 0.196365 0.260772
O O11 0.076539 0.243040 0.246869
O O12 0.083656 0.000000 0.209734
O O13 0.431814 0.817709 0.659689
O O14 0.613188 0.747432 0.752253
O O15 0.525873 0.000000 0.674572
O O16 0.322290 0.685179 0.289204
O O17 0.911318 0.500000 0.714164
O O18 0.295479 0.500000 0.196611
#
# Coordination Sequence:
#
# PCOD9203012 Si02
#       8
#     8   8   2   8   8   8   8   8
#     4  10  21  38  60  86 122 159 206 257 308 361
#     4  10  21  40  65  93 123 159 198 253 307 371
#     4  12  24  32  58  86 128 160 210 236 288 364
#     4  10  20  38  65  93 122 154 204 252 303 360
#     4  11  24  40  60  85 120 164 210 254 309 367
#     4  11  23  37  57  91 125 165 202 245 301 367
#     4   9  21  40  61  88 121 161 204 258 309 361
#     4  12  26  41  61  89 127 164 207 256 315 369
#
# _framework density 18.721641999999999
#
# number of rings (size 3 to 8) (size 9 to 14) (size 15 to 20)
#    0.000    1.517    2.069    2.483    4.828    3.034 
#    0.000    2.759    0.000    0.000    0.000    0.000 
#    0.000    0.000    0.000    0.000    0.000    0.000 
#
# Total GULP energy -161738.210510 kJ/mol
# GULP energy per Si atom -5577.179673 kJ/mol
# Density = 1.867903 g / cm^3
# Si number density = 18.721642 Si / 1000 Ang^3
#
#
#
# Elastic Constant Matrix: (Units=GPa)
#
#
# Indices 1 2 3 4 5 6 
#
# 1 65.3011 41.5293 23.8527 0.0000 4.6726 0.0000
# 2 41.5293 128.0386 61.8435 0.0000 4.7218 0.0000
# 3 23.8527 61.8435 75.4312 0.0000 0.2247 0.0000
# 4 0.0000 0.0000 0.0000 25.8869 0.0000 -0.3676
# 5 4.6726 4.7218 0.2247 0.0000 19.3007 0.0000
# 6 0.0000 0.0000 0.0000 -0.3676 0.0000 14.6950
#
#
#
# Elastic Compliance Matrix: (Units=1/GPa)
#
#
# Indices 1 2 3 4 5 6 
#
# 1 0.019631 -0.005377 -0.001789 0.000000 -0.003416 0.000000
# 2 -0.005377 0.014585 -0.010251 0.000000 -0.002147 0.000000
# 3 -0.001789 -0.010251 0.022219 0.000000 0.002682 0.000000
# 4 0.000000 0.000000 0.000000 0.038643 0.000000 0.000967
# 5 -0.003416 -0.002147 0.002682 0.000000 0.053133 0.000000
# 6 0.000000 0.000000 0.000000 0.000967 0.000000 0.068075
#
#
# Mechanical properties :
#
#
# Convention : Reuss Voigt Hill
#
# Bulk Modulus (GPa) = 46.29377 58.13577 52.21477
# Shear Modulus (GPa) = 19.35589 21.41289 20.38439
#
# Velocity S-wave (km/s) = 3.21888 3.38561 3.30330
# Velocity P-wave (km/s) = 6.21257 6.81199 6.51918
#
# Compressibility (1/GPa) = 0.02160118
#
# Stress axis : x y z
#
# Youngs Moduli (GPa) = 50.93882 68.56547 45.00670
#
# Poissons Ratio (x) = 0.36871 0.08051
# Poissons Ratio (y) = 0.27392 0.46135
# Poissons Ratio (z) = 0.09112 0.70284
#
# Static dielectric constant tensor:
#      x y z
#    x 1.655250 0.000000 0.007970 
#    y 0.000000 1.633080 0.000000 
#    z 0.007970 0.000000 1.645660 
# 
# From -- ./inp_files/367548.got.cif
#   From: 2010.05.17/outbox.cif.g08.bks.cpg/sg12_184_cif.got.tgz:367548.got - 2010.06.03 13:09:07.
