data_PCOD9203242
_publ_section_title
;
Structure prediction by ZEFSAII (Michael W. Deem and Ramdas Pophale) SiO2 
 PCOD9203242
Probable space group: C 2/M
;
_chemical_formula_sum "Si O2"
_cell_formula_units_Z 64
_cell_length_a 9.153243
_cell_length_b 22.156866
_cell_length_c 19.245701
_cell_angle_alpha 90.000000
_cell_angle_beta 116.664329
_cell_angle_gamma 90.000000
_cell_volume 3488.068292
_symmetry_space_group_name_H-M "C 2/M"
_symmetry_group_IT_number 12
_symmetry_cell_setting 'monoclinic'
loop_
_space_group_symop_operation_xyz
x,y,z
-x,y,-z
-x,-y,-z
x,-y,z
1/2+x,1/2+y,z
1/2-x,1/2+y,-z
1/2-x,1/2-y,-z
1/2+x,1/2-y,z
loop_
_atom_site_type_symbol
_atom_site_label
_atom_site_fract_x
_atom_site_fract_y
_atom_site_fract_z
Si Si1 0.605162 0.828404 0.591216
Si Si2 0.606811 0.318073 0.085621
Si Si3 0.444808 0.266031 0.665648
Si Si4 0.108555 0.567255 0.080300
Si Si5 0.304750 0.217156 0.779569
Si Si6 0.180845 0.570856 0.717713
Si Si7 0.433622 0.882463 0.156733
Si Si8 0.524207 0.571186 0.856216
O O1 0.500000 0.837902 0.500000
O O2 0.511142 0.778644 0.619493
O O3 0.789905 0.806798 0.610913
O O4 0.622281 0.887769 0.642259
O O5 0.653272 0.271184 0.157295
O O6 0.778441 0.345283 0.096980
O O7 0.514173 0.377467 0.095192
O O8 0.500000 0.291516 0.000000
O O9 0.370678 0.233127 0.717041
O O10 0.612123 0.295054 0.730891
O O11 0.139005 0.500000 0.058714
O O12 0.295187 0.586259 0.132390
O O13 0.989242 0.563652 0.120305
O O14 0.000000 0.602161 0.000000
O O15 0.411504 0.160205 0.820925
O O16 0.142704 0.500000 0.702212
O O17 0.104507 0.596998 0.773131
O O18 0.376795 0.577562 0.769501
O O19 0.511936 0.500000 0.876541
#
# Coordination Sequence:
#
# PCOD9203242 Si02
#       8
#     8   8   8   8   8   8   8   8
#     4  11  22  38  64  96 118 147 181 232 295 344
#     4  11  23  36  51  80 116 152 196 247 297 337
#     4  10  20  39  60  85 117 147 189 235 270 342
#     4  10  21  34  51  79 109 140 191 251 287 314
#     4  11  21  37  57  80 112 152 191 231 282 335
#     4  10  21  40  61  86 117 152 195 233 279 355
#     4  11  21  36  56  79 106 158 197 228 283 342
#     4   9  19  36  57  78 106 153 202 240 284 338
#
# _framework density 18.348264
#
# number of rings (size 3 to 8) (size 9 to 14) (size 15 to 20)
#    0.000    1.625    2.500    3.750    3.500    2.000 
#    0.000    0.000    0.000    0.000    0.000    0.875 
#    0.000    0.000    0.000    0.000    0.000    0.000 
#
# Total GULP energy -178166.912256 kJ/mol
# GULP energy per Si atom -5567.716008 kJ/mol
# Density = 1.830650 g / cm^3
# Si number density = 18.348264 Si / 1000 Ang^3
#
#
#
# Elastic Constant Matrix: (Units=GPa)
#
#
# Indices 1 2 3 4 5 6 
#
# 1 127.9483 41.0584 51.3952 0.0000 21.1700 0.0000
# 2 41.0584 78.2445 51.8405 0.0000 14.1439 0.0000
# 3 51.3952 51.8405 114.7445 0.0000 11.2099 0.0000
# 4 0.0000 0.0000 0.0000 19.8914 0.0000 -3.1029
# 5 21.1700 14.1439 11.2099 0.0000 19.6862 0.0000
# 6 0.0000 0.0000 0.0000 -3.1029 0.0000 21.0929
#
#
#
# Elastic Compliance Matrix: (Units=1/GPa)
#
#
# Indices 1 2 3 4 5 6 
#
# 1 0.011244 -0.002221 -0.003185 0.000000 -0.008683 0.000000
# 2 -0.002221 0.020284 -0.007390 0.000000 -0.007977 0.000000
# 3 -0.003185 -0.007390 0.013371 0.000000 0.001121 0.000000
# 4 0.000000 0.000000 0.000000 0.051454 0.000000 0.007569
# 5 -0.008683 -0.007977 0.001121 0.000000 0.065227 0.000000
# 6 0.000000 0.000000 0.000000 0.007569 0.000000 0.048523
#
#
# Mechanical properties :
#
#
# Convention : Reuss Voigt Hill
#
# Bulk Modulus (GPa) = 51.79278 67.72506 59.75892
# Shear Modulus (GPa) = 20.65003 23.91030 22.28017
#
# Velocity S-wave (km/s) = 3.35841 3.61382 3.48845
# Velocity P-wave (km/s) = 6.58236 7.37590 6.99040
#
# Compressibility (1/GPa) = 0.01930771
#
# Stress axis : x y z
#
# Youngs Moduli (GPa) = 88.93464 49.29983 74.78955
#
# Poissons Ratio (x) = 0.10948 0.23819
# Poissons Ratio (y) = 0.19750 0.55271
# Poissons Ratio (z) = 0.28324 0.36433
#
# Static dielectric constant tensor:
#      x y z
#    x 1.655550 0.000000 0.026400 
#    y 0.000000 1.706120 0.000000 
#    z 0.026400 0.000000 1.699190 
# 
# From -- ./inp_files/301750.got.cif
#   From: 2010.05.17/outbox.cif.g08.bks.cpg/sg12_151_cif.got.tgz:301750.got - 2010.06.03 13:09:07.
