data_PCOD9203986
_publ_section_title
;
Structure prediction by ZEFSAII (Michael W. Deem and Ramdas Pophale) SiO2 
 PCOD9203986
Probable space group: C 2/M
;
_chemical_formula_sum "Si O2"
_cell_formula_units_Z 56
_cell_length_a 19.757023
_cell_length_b 8.936987
_cell_length_c 18.563960
_cell_angle_alpha 90.000000
_cell_angle_beta 64.516666
_cell_angle_gamma 90.000000
_cell_volume 2958.909867
_symmetry_space_group_name_H-M "C 2/M"
_symmetry_group_IT_number 12
_symmetry_cell_setting 'monoclinic'
loop_
_space_group_symop_operation_xyz
x,y,z
-x,y,-z
-x,-y,-z
x,-y,z
1/2+x,1/2+y,z
1/2-x,1/2+y,-z
1/2-x,1/2-y,-z
1/2+x,1/2-y,z
loop_
_atom_site_type_symbol
_atom_site_label
_atom_site_fract_x
_atom_site_fract_y
_atom_site_fract_z
Si Si1 0.109363 0.177948 0.261836
Si Si2 0.270766 0.179544 0.694250
Si Si3 0.911846 0.829368 0.018749
Si Si4 0.985735 0.321280 0.421439
Si Si5 0.446719 0.177634 0.858301
Si Si6 0.682409 0.179826 0.487116
Si Si7 0.892069 0.820065 0.186510
O O1 0.185704 0.238361 0.262176
O O2 0.093252 0.248970 0.191624
O O3 0.043412 0.233613 0.345484
O O4 0.109503 0.000000 0.257025
O O5 0.308203 0.220738 0.601120
O O6 0.182278 0.213881 0.734359
O O7 0.278439 0.000000 0.700466
O O8 0.874481 0.781125 0.110844
O O9 0.889481 0.000000 0.011674
O O10 0.906860 0.727785 0.950917
O O11 0.000000 0.832241 0.000000
O O12 0.994798 0.500000 0.404189
O O13 0.899616 0.276915 0.446974
O O14 0.000000 0.297807 0.500000
O O15 0.532397 0.238771 0.823415
O O16 0.447677 0.000000 0.851476
O O17 0.750000 0.250000 0.500000
O O18 0.686926 0.000000 0.488669
O O19 0.905748 0.000000 0.181943
#
# Coordination Sequence:
#
# PCOD9203986 Si02
#       7
#     8   8   8   8   8   8   8
#     4  12  25  39  58  84 115 151 194 241 284 336
#     4  10  21  41  61  82 115 154 189 230 289 343
#     4   8  15  32  56  84 116 148 185 232 284 336
#     4  10  20  40  63  82 110 151 191 230 282 336
#     4  11  22  36  58  86 116 151 193 237 280 337
#     4  10  22  38  59  85 116 149 186 233 280 333
#     4   9  19  36  61  88 117 151 187 233 288 341
#
# _framework density 18.925889999999999
#
# number of rings (size 3 to 8) (size 9 to 14) (size 15 to 20)
#    0.000    2.000    1.429    3.429    2.000    4.571 
#    0.000    0.714    0.000    0.000    0.000    0.000 
#    0.000    0.000    0.000    0.000    0.000    0.000 
#
# Total GULP energy -156343.325872 kJ/mol
# GULP energy per Si atom -5583.690210 kJ/mol
# Density = 1.888281 g / cm^3
# Si number density = 18.925890 Si / 1000 Ang^3
#
#
#
# Elastic Constant Matrix: (Units=GPa)
#
#
# Indices 1 2 3 4 5 6 
#
# 1 65.9235 23.7585 -8.0203 0.0000 17.0755 0.0000
# 2 23.7585 61.3195 11.5381 0.0000 17.4624 -0.0001
# 3 -8.0203 11.5381 24.3737 0.0000 11.9587 0.0000
# 4 0.0000 0.0000 0.0000 23.0449 0.0000 7.1834
# 5 17.0755 17.4624 11.9587 0.0000 33.0439 0.0000
# 6 0.0000 -0.0001 0.0000 7.1834 0.0000 28.8293
#
#
#
# Elastic Compliance Matrix: (Units=1/GPa)
#
#
# Indices 1 2 3 4 5 6 
#
# 1 0.024786 -0.009005 0.019902 0.000000 -0.015252 0.000000
# 2 -0.009005 0.022983 -0.012362 0.000000 -0.003018 0.000000
# 3 0.019902 -0.012362 0.067202 0.000000 -0.028072 0.000000
# 4 0.000000 0.000000 0.000000 0.047048 0.000000 -0.011723
# 5 -0.015252 -0.003018 -0.028072 0.000000 0.049899 0.000000
# 6 0.000000 0.000000 0.000000 -0.011723 0.000000 0.037608
#
#
# Mechanical properties :
#
#
# Convention : Reuss Voigt Hill
#
# Bulk Modulus (GPa) = 8.92521 22.90770 15.91646
# Shear Modulus (GPa) = 17.25316 25.27298 21.26307
#
# Velocity S-wave (km/s) = 3.02257 3.65823 3.35549
# Velocity P-wave (km/s) = 4.11186 5.47482 4.84154
#
# Compressibility (1/GPa) = 0.11204218
#
# Stress axis : x y z
#
# Youngs Moduli (GPa) = 40.34472 43.51113 14.88049
#
# Poissons Ratio (x) = 0.39182 -0.29616
# Poissons Ratio (y) = 0.36330 0.18395
# Poissons Ratio (z) = -0.80295 0.53787
#
# Static dielectric constant tensor:
#      x y z
#    x 1.636790 0.000000 -0.005460 
#    y 0.000000 1.632060 0.000000 
#    z -0.005460 0.000000 1.671290 
# 
# From -- ./inp_files/275070.got.cif
#   From: 2010.05.17/outbox.cif.g08.bks.cpg/sg12_138_cif.got.tgz:275070.got - 2010.06.03 13:09:07.
