data_PCOD9203426
_publ_section_title
;
Structure prediction by ZEFSAII (Michael W. Deem and Ramdas Pophale) SiO2 
 PCOD9203426
Probable space group: C 2/M
;
_chemical_formula_sum "Si O2"
_cell_formula_units_Z 64
_cell_length_a 23.878043
_cell_length_b 9.202771
_cell_length_c 15.515566
_cell_angle_alpha 90.000000
_cell_angle_beta 92.991050
_cell_angle_gamma 90.000000
_cell_volume 3404.810335
_symmetry_space_group_name_H-M "C 2/M"
_symmetry_group_IT_number 12
_symmetry_cell_setting 'monoclinic'
loop_
_space_group_symop_operation_xyz
x,y,z
-x,y,-z
-x,-y,-z
x,-y,z
1/2+x,1/2+y,z
1/2-x,1/2+y,-z
1/2-x,1/2-y,-z
1/2+x,1/2-y,z
loop_
_atom_site_type_symbol
_atom_site_label
_atom_site_fract_x
_atom_site_fract_y
_atom_site_fract_z
Si Si1 0.340778 0.829636 0.951457
Si Si2 0.334131 0.171959 0.457391
Si Si3 0.773413 0.328658 0.631686
Si Si4 0.548328 0.674324 0.572099
Si Si5 0.037224 0.827040 0.768955
Si Si6 0.969308 0.671044 0.909260
Si Si7 0.146762 0.328686 0.846850
Si Si8 0.272658 0.329479 0.802978
O O1 0.403155 0.814512 0.918025
O O2 0.299346 0.733308 0.892014
O O3 0.324460 0.000000 0.945218
O O4 0.344059 0.789618 0.052217
O O5 0.284175 0.249874 0.401097
O O6 0.316765 0.190086 0.556321
O O7 0.393763 0.243285 0.442277
O O8 0.334489 0.000000 0.437480
O O9 0.763379 0.500000 0.642205
O O10 0.793994 0.257645 0.721773
O O11 0.500000 0.712391 0.500000
O O12 0.558195 0.500000 0.567505
O O13 0.528652 0.707773 0.667726
O O14 0.992294 0.756569 0.829430
O O15 0.097426 0.763861 0.801828
O O16 0.036698 0.000000 0.778822
O O17 0.982809 0.500000 0.899644
O O18 0.000000 0.719597 0.000000
O O19 0.131359 0.500000 0.843374
O O20 0.205630 0.310180 0.803677
O O21 0.284641 0.500000 0.795801
#
# Coordination Sequence:
#
# PCOD9203426 Si02
#       8
#     8   8   8   8   8   8   8   8
#     4  10  21  38  59  81 113 156 195 236 291 347
#     4  10  21  38  62  89 114 147 196 246 291 342
#     4  10  21  38  60  86 118 154 191 235 292 353
#     4  10  23  42  60  83 120 161 196 239 300 357
#     4  11  23  37  60  91 117 149 195 248 298 344
#     4  10  20  39  63  83 111 154 197 237 289 350
#     4  10  21  39  59  81 115 156 195 237 288 351
#     4  11  23  36  56  87 120 153 193 240 290 342
#
# _framework density 18.796935999999999
#
# number of rings (size 3 to 8) (size 9 to 14) (size 15 to 20)
#    0.000    1.750    1.250    2.625    0.000    8.000 
#    0.000    2.500    0.000    0.000    0.000    0.000 
#    0.000    0.000    0.000    0.000    0.000    0.000 
#
# Total GULP energy -178843.834212 kJ/mol
# GULP energy per Si atom -5588.869819 kJ/mol
# Density = 1.875415 g / cm^3
# Si number density = 18.796936 Si / 1000 Ang^3
#
#
#
# Elastic Constant Matrix: (Units=GPa)
#
#
# Indices 1 2 3 4 5 6 
#
# 1 27.9294 19.3865 21.2392 0.0000 -16.5593 0.0000
# 2 19.3865 61.2809 58.8659 0.0000 -13.1464 0.0000
# 3 21.2392 58.8659 131.9796 0.0000 -7.9787 0.0000
# 4 0.0000 0.0000 0.0000 23.8484 0.0000 -6.2123
# 5 -16.5593 -13.1464 -7.9787 0.0000 16.9860 0.0000
# 6 0.0000 0.0000 0.0000 -6.2123 0.0000 27.2073
#
#
#
# Elastic Compliance Matrix: (Units=1/GPa)
#
#
# Indices 1 2 3 4 5 6 
#
# 1 0.096746 -0.003413 -0.008753 0.000000 0.087562 0.000000
# 2 -0.003413 0.034070 -0.013641 0.000000 0.016634 0.000000
# 3 -0.008753 -0.013641 0.014322 0.000000 -0.012364 0.000000
# 4 0.000000 0.000000 0.000000 0.044583 0.000000 0.010180
# 5 0.087562 0.016634 -0.012364 0.000000 0.151302 0.000000
# 6 0.000000 0.000000 0.000000 0.010180 0.000000 0.039079
#
#
# Mechanical properties :
#
#
# Convention : Reuss Voigt Hill
#
# Bulk Modulus (GPa) = 10.69255 46.68589 28.68922
# Shear Modulus (GPa) = 10.80166 21.72154 16.26160
#
# Velocity S-wave (km/s) = 2.39979 3.40308 2.94448
# Velocity P-wave (km/s) = 3.65779 6.35076 5.18226
#
# Compressibility (1/GPa) = 0.09352307
#
# Stress axis : x y z
#
# Youngs Moduli (GPa) = 10.33637 29.35133 69.82054
#
# Poissons Ratio (x) = 0.10018 0.61116
# Poissons Ratio (y) = 0.03528 0.95243
# Poissons Ratio (z) = 0.09048 0.40039
#
# Static dielectric constant tensor:
#      x y z
#    x 1.623030 0.000000 -0.010260 
#    y 0.000000 1.627700 0.000000 
#    z -0.010260 0.000000 1.654710 
# 
# From -- ./inp_files/238625.got.cif
#   From: 2010.05.17/outbox.cif.g08.bks.cpg/sg12_120_cif.got.tgz:238625.got - 2010.06.03 13:09:07.
