data_PCOD9203455
_publ_section_title
;
Structure prediction by ZEFSAII (Michael W. Deem and Ramdas Pophale) SiO2 
 PCOD9203455
Probable space group: C 2/M
;
_chemical_formula_sum "Si O2"
_cell_formula_units_Z 56
_cell_length_a 23.554796
_cell_length_b 8.515974
_cell_length_c 15.344699
_cell_angle_alpha 90.000000
_cell_angle_beta 65.480564
_cell_angle_gamma 90.000000
_cell_volume 2800.449772
_symmetry_space_group_name_H-M "C 2/M"
_symmetry_group_IT_number 12
_symmetry_cell_setting 'monoclinic'
loop_
_space_group_symop_operation_xyz
x,y,z
-x,y,-z
-x,-y,-z
x,-y,z
1/2+x,1/2+y,z
1/2-x,1/2+y,-z
1/2-x,1/2-y,-z
1/2+x,1/2-y,z
loop_
_atom_site_type_symbol
_atom_site_label
_atom_site_fract_x
_atom_site_fract_y
_atom_site_fract_z
Si Si1 0.243207 0.687641 0.638846
Si Si2 0.181933 0.686691 0.020934
Si Si3 0.431652 0.690162 0.801250
Si Si4 0.986928 0.810343 0.410337
Si Si5 0.834959 0.811955 0.161329
Si Si6 0.527953 0.690948 0.889548
Si Si7 0.850568 0.687394 0.455036
O O1 0.248118 0.500000 0.631365
O O2 0.221516 0.739780 0.747942
O O3 0.189081 0.740187 0.604791
O O4 0.307655 0.760169 0.563716
O O5 0.182590 0.500000 0.012932
O O6 0.133035 0.738631 0.125779
O O7 0.250000 0.750000 0.000000
O O8 0.163028 0.760483 0.940144
O O9 0.426506 0.500000 0.806937
O O10 0.458300 0.738132 0.690667
O O11 0.483805 0.739351 0.838985
O O12 0.919575 0.756328 0.418717
O O13 0.000000 0.754279 0.500000
O O14 0.986138 0.000000 0.411618
O O15 0.900440 0.758693 0.162450
O O16 0.831153 0.000000 0.167798
O O17 0.528006 0.500000 0.890344
O O18 0.500000 0.743006 0.000000
O O19 0.854603 0.500000 0.449850
#
# Coordination Sequence:
#
# PCOD9203455 Si02
#       7
#     8   8   8   8   8   8   8
#     4  10  21  37  59  88 123 158 198 248 305 361
#     4  12  26  43  61  84 118 159 203 250 299 354
#     4  10  20  39  63  87 119 158 198 246 302 361
#     4  10  22  39  61  88 119 158 202 248 303 363
#     4  11  21  37  62  91 122 157 199 241 295 365
#     4   9  16  30  57  88 116 149 190 234 290 359
#     4  10  21  38  60  87 120 159 204 253 303 353
#
# _framework density 19.996787999999999
#
# number of rings (size 3 to 8) (size 9 to 14) (size 15 to 20)
#    0.000    1.714    1.429    3.429    0.000    4.857 
#    0.000    6.429    0.000    0.000    0.000    0.000 
#    0.000    0.000    0.000    0.000    0.000    0.000 
#
# Total GULP energy -156484.594385 kJ/mol
# GULP energy per Si atom -5588.735514 kJ/mol
# Density = 1.995127 g / cm^3
# Si number density = 19.996788 Si / 1000 Ang^3
#
#
#
# Elastic Constant Matrix: (Units=GPa)
#
#
# Indices 1 2 3 4 5 6 
#
# 1 78.5381 6.5913 29.1379 0.0000 -17.7527 0.0000
# 2 6.5913 14.9906 7.6585 0.0000 -0.1307 0.0000
# 3 29.1379 7.6585 138.8122 0.0000 -16.7779 0.0000
# 4 0.0000 0.0000 0.0000 26.8287 0.0000 -4.7486
# 5 -17.7527 -0.1307 -16.7779 0.0000 28.9278 0.0000
# 6 0.0000 0.0000 0.0000 -4.7486 0.0000 25.7673
#
#
#
# Elastic Compliance Matrix: (Units=1/GPa)
#
#
# Indices 1 2 3 4 5 6 
#
# 1 0.015902 -0.005909 -0.001974 0.000000 0.008587 0.000000
# 2 -0.005909 0.070950 -0.003305 0.000000 -0.005222 0.000000
# 3 -0.001974 -0.003305 0.008229 0.000000 0.003547 0.000000
# 4 0.000000 0.000000 0.000000 0.038530 0.000000 0.007101
# 5 0.008587 -0.005222 0.003547 0.000000 0.041872 0.000000
# 6 0.000000 0.000000 0.000000 0.007101 0.000000 0.040118
#
#
# Mechanical properties :
#
#
# Convention : Reuss Voigt Hill
#
# Bulk Modulus (GPa) = 13.75425 35.45737 24.60581
# Shear Modulus (GPa) = 19.06856 28.90163 23.98510
#
# Velocity S-wave (km/s) = 3.09136 3.80585 3.46706
# Velocity P-wave (km/s) = 4.43116 6.08956 5.32531
#
# Compressibility (1/GPa) = 0.07270478
#
# Stress axis : x y z
#
# Youngs Moduli (GPa) = 62.88522 14.09453 121.51582
#
# Poissons Ratio (x) = 0.08328 0.23988
# Poissons Ratio (y) = 0.37157 0.40165
# Poissons Ratio (z) = 0.12414 0.04659
#
# Static dielectric constant tensor:
#      x y z
#    x 1.691230 0.000000 0.010860 
#    y 0.000000 1.676050 0.000000 
#    z 0.010860 0.000000 1.705980 
# 
# From -- ./inp_files/238283.got.cif
#   From: 2010.05.17/outbox.cif.g08.bks.cpg/sg12_120_cif.got.tgz:238283.got - 2010.06.03 13:09:07.
