data_PCOD9203098
_publ_section_title
;
Structure prediction by ZEFSAII (Michael W. Deem and Ramdas Pophale) SiO2 
 PCOD9203098
Probable space group: C 2/M
;
_chemical_formula_sum "Si O2"
_cell_formula_units_Z 48
_cell_length_a 11.946900
_cell_length_b 19.148996
_cell_length_c 27.499307
_cell_angle_alpha 90.000000
_cell_angle_beta 159.208437
_cell_angle_gamma 90.000000
_cell_volume 2233.128855
_symmetry_space_group_name_H-M "C 2/M"
_symmetry_group_IT_number 12
_symmetry_cell_setting 'monoclinic'
loop_
_space_group_symop_operation_xyz
x,y,z
-x,y,-z
-x,-y,-z
x,-y,z
1/2+x,1/2+y,z
1/2-x,1/2+y,-z
1/2-x,1/2-y,-z
1/2+x,1/2-y,z
loop_
_atom_site_type_symbol
_atom_site_label
_atom_site_fract_x
_atom_site_fract_y
_atom_site_fract_z
Si Si1 0.371357 0.420174 0.997048
Si Si2 0.286980 0.583132 0.228959
Si Si3 0.810110 0.619971 0.259308
Si Si4 0.480826 0.421273 0.571304
Si Si5 0.691513 0.791066 0.347807
Si Si6 0.135588 0.830837 0.836923
O O1 0.282575 0.500000 0.948307
O O2 0.640244 0.419765 0.146593
O O3 0.500000 0.386043 0.000000
O O4 0.055406 0.389759 0.892034
O O5 0.266514 0.500000 0.209633
O O6 0.504578 0.591500 0.364895
O O7 0.382954 0.623827 0.219931
O O8 0.557506 0.632466 0.198583
O O9 0.124602 0.584912 0.407799
O O10 0.935886 0.691075 0.285288
O O11 0.599761 0.500000 0.610421
O O12 0.687643 0.363309 0.627597
O O13 0.538124 0.741279 0.246114
O O14 0.000000 0.760315 0.500000
O O15 0.500000 0.822315 0.000000
#
# Coordination Sequence:
#
# PCOD9203098 Si02
#       6
#     8   8   8   8   8   8
#     4  10  20  38  66  98 133 172 222 283 342 396
#     4  10  23  42  66 100 142 180 223 284 340 401
#     4  11  24  42  67 101 130 184 225 276 341 405
#     4  10  23  45  74 106 137 172 226 289 345 405
#     4  10  26  44  69 100 136 180 226 287 344 401
#     4  12  27  45  67  98 142 188 231 279 332 413
#
# _framework density 21.494505
#
# number of rings (size 3 to 8) (size 9 to 14) (size 15 to 20)
#    0.000    1.500    1.667    1.500    4.667   10.667 
#    0.000    1.667    0.000    0.500    0.000    0.000 
#    0.000    0.000    0.000    0.000    0.000    0.000 
#
# Total GULP energy -134189.060688 kJ/mol
# GULP energy per Si atom -5591.210862 kJ/mol
# Density = 2.144558 g / cm^3
# Si number density = 21.494505 Si / 1000 Ang^3
#
#
#
# Elastic Constant Matrix: (Units=GPa)
#
#
# Indices 1 2 3 4 5 6 
#
# 1 157.9592 45.4068 55.3890 -0.0220 -0.5958 0.0055
# 2 45.4068 67.4979 45.1797 -0.0098 -6.4976 0.0143
# 3 55.3890 45.1797 127.6087 0.0745 -21.0244 -0.0066
# 4 -0.0220 -0.0098 0.0745 10.5474 -0.0043 -8.3268
# 5 -0.5958 -6.4976 -21.0244 -0.0043 37.3343 -0.0029
# 6 0.0055 0.0143 -0.0066 -8.3268 -0.0029 23.2096
#
#
#
# Elastic Compliance Matrix: (Units=1/GPa)
#
#
# Indices 1 2 3 4 5 6 
#
# 1 0.008398 -0.004170 -0.002498 0.000042 -0.001998 0.000015
# 2 -0.004170 0.021497 -0.005727 0.000057 0.000450 0.000007
# 3 -0.002498 -0.005727 0.011880 -0.000120 0.005653 -0.000035
# 4 0.000042 0.000057 -0.000120 0.132276 -0.000038 0.047456
# 5 -0.001998 0.000450 0.005653 -0.000038 0.030015 -0.000008
# 6 0.000015 0.000007 -0.000035 0.047456 -0.000008 0.060111
#
#
# Mechanical properties :
#
#
# Convention : Reuss Voigt Hill
#
# Bulk Modulus (GPa) = 58.87521 71.66852 65.27187
# Shear Modulus (GPa) = 16.97055 28.02426 22.49740
#
# Velocity S-wave (km/s) = 2.81291 3.61472 3.23872
# Velocity P-wave (km/s) = 6.16443 7.12998 6.66472
#
# Compressibility (1/GPa) = 0.01698508
#
# Stress axis : x y z
#
# Youngs Moduli (GPa) = 119.07921 46.51828 84.17521
#
# Poissons Ratio (x) = 0.19396 0.21028
# Poissons Ratio (y) = 0.49651 0.48208
# Poissons Ratio (z) = 0.29748 0.26642
#
# Static dielectric constant tensor:
#      x y z
#    x 1.766150 0.000000 0.001880 
#    y 0.000000 1.795970 -0.000010 
#    z 0.001880 -0.000010 1.780790 
# 
# From -- ./inp_files/359069.got.cif
#   From: 2010.05.17/outbox.cif.g08.bks.cpg/sg12_180_cif.got.tgz:359069.got - 2010.06.03 13:09:07.
