data_PCOD9203172
_publ_section_title
;
Structure prediction by ZEFSAII (Michael W. Deem and Ramdas Pophale) SiO2 
 PCOD9203172
Probable space group: C 2/M
;
_chemical_formula_sum "Si O2"
_cell_formula_units_Z 48
_cell_length_a 27.335387
_cell_length_b 17.077364
_cell_length_c 8.010663
_cell_angle_alpha 90.000000
_cell_angle_beta 30.505252
_cell_angle_gamma 90.000000
_cell_volume 1898.239361
_symmetry_space_group_name_H-M "C 2/M"
_symmetry_group_IT_number 12
_symmetry_cell_setting 'monoclinic'
loop_
_space_group_symop_operation_xyz
x,y,z
-x,y,-z
-x,-y,-z
x,-y,z
1/2+x,1/2+y,z
1/2-x,1/2+y,-z
1/2-x,1/2-y,-z
1/2+x,1/2-y,z
loop_
_atom_site_type_symbol
_atom_site_label
_atom_site_fract_x
_atom_site_fract_y
_atom_site_fract_z
Si Si1 0.073790 0.344623 0.908000
Si Si2 0.134328 0.908521 0.819054
Si Si3 0.772254 0.858010 0.808161
Si Si4 0.358303 0.000000 0.744173
Si Si5 0.736814 0.714962 0.724342
Si Si6 0.969016 0.198661 0.395053
Si Si7 0.582744 0.000000 0.044472
O O1 0.120475 0.417031 0.866764
O O2 0.016903 0.280000 0.184675
O O3 0.152970 0.303525 0.559358
O O4 0.000000 0.382361 0.000000
O O5 0.183419 0.892381 0.494671
O O6 0.181390 0.863524 0.840050
O O7 0.132585 0.000000 0.854035
O O8 0.029921 0.868932 0.122990
O O9 0.706400 0.786079 0.932391
O O10 0.859452 0.825352 0.666732
O O11 0.707017 0.922959 0.091138
O O12 0.466948 0.000000 0.355317
O O13 0.385599 0.000000 0.858659
O O14 0.750000 0.750000 0.500000
O O15 0.000000 0.197439 0.500000
#
# Coordination Sequence:
#
# PCOD9203172 Si02
#       7
#     8   8   8   4   8   8   4
#     4  12  23  47  71 105 139 187 244 285 353 428
#     4  11  23  42  72 104 136 188 237 291 355 429
#     4  11  22  46  74 103 135 192 246 288 346 439
#     4  11  26  46  76 108 147 188 232 295 366 431
#     4  10  20  38  72 100 135 174 243 293 330 420
#     4  12  27  45  69 102 145 188 234 304 364 417
#     4  11  27  44  72 112 152 182 225 300 368 423
#
# _framework density 25.28659
#
# number of rings (size 3 to 8) (size 9 to 14) (size 15 to 20)
#    0.000    0.833    5.833    2.750    4.667    1.000 
#    3.000    1.667    0.000    0.000    0.000    0.000 
#    0.000    0.000    0.000    0.000    0.000    0.000 
#
# Total GULP energy -134108.678189 kJ/mol
# GULP energy per Si atom -5587.861591 kJ/mol
# Density = 2.522904 g / cm^3
# Si number density = 25.286590 Si / 1000 Ang^3
#
#
#
# Elastic Constant Matrix: (Units=GPa)
#
#
# Indices 1 2 3 4 5 6 
#
# 1 105.2182 48.1948 12.7396 0.0000 -10.2979 0.0000
# 2 48.1948 195.0332 40.3572 0.0000 7.5589 0.0000
# 3 12.7396 40.3572 58.7810 0.0000 -7.4785 0.0000
# 4 0.0000 0.0000 0.0000 32.8926 0.0000 8.7805
# 5 -10.2979 7.5589 -7.4785 0.0000 37.7997 0.0000
# 6 0.0000 0.0000 0.0000 8.7805 0.0000 30.2857
#
#
#
# Elastic Compliance Matrix: (Units=1/GPa)
#
#
# Indices 1 2 3 4 5 6 
#
# 1 0.011190 -0.002914 0.000039 0.000000 0.003639 0.000000
# 2 -0.002914 0.006896 -0.004492 0.000000 -0.003062 0.000000
# 3 0.000039 -0.004492 0.020726 0.000000 0.005009 0.000000
# 4 0.000000 0.000000 0.000000 0.032952 0.000000 -0.009554
# 5 0.003639 -0.003062 0.005009 0.000000 0.029050 0.000000
# 6 0.000000 0.000000 0.000000 -0.009554 0.000000 0.035789
#
#
# Mechanical properties :
#
#
# Convention : Reuss Voigt Hill
#
# Bulk Modulus (GPa) = 41.53586 62.40173 51.96880
# Shear Modulus (GPa) = 31.37475 37.37832 34.37653
#
# Velocity S-wave (km/s) = 3.52627 3.84889 3.69111
# Velocity P-wave (km/s) = 5.74814 6.66958 6.22593
#
# Compressibility (1/GPa) = 0.02407558
#
# Stress axis : x y z
#
# Youngs Moduli (GPa) = 89.36198 145.01769 48.24970
#
# Poissons Ratio (x) = 0.42262 -0.00186
# Poissons Ratio (y) = 0.26043 0.21675
# Poissons Ratio (z) = -0.00344 0.65146
#
# Static dielectric constant tensor:
#      x y z
#    x 2.411900 0.000000 -0.137220 
#    y 0.000000 1.766010 0.000000 
#    z -0.137220 0.000000 2.389560 
# 
# From -- ./inp_files/112776.got.cif
#   From: 2010.05.17/outbox.cif.g08.bks.cpg/sg12_57_cif.got.tgz:112776.got - 2010.06.03 13:09:07.
