data_PCOD9203046
_publ_section_title
;
Structure prediction by ZEFSAII (Michael W. Deem and Ramdas Pophale) SiO2 
 PCOD9203046
Probable space group: C 2/M
;
_chemical_formula_sum "Si O2"
_cell_formula_units_Z 32
_cell_length_a 10.053398
_cell_length_b 24.074710
_cell_length_c 5.215450
_cell_angle_alpha 90.000000
_cell_angle_beta 81.767852
_cell_angle_gamma 90.000000
_cell_volume 1249.302366
_symmetry_space_group_name_H-M "C 2/M"
_symmetry_group_IT_number 12
_symmetry_cell_setting 'monoclinic'
loop_
_space_group_symop_operation_xyz
x,y,z
-x,y,-z
-x,-y,-z
x,-y,z
1/2+x,1/2+y,z
1/2-x,1/2+y,-z
1/2-x,1/2-y,-z
1/2+x,1/2-y,z
loop_
_atom_site_type_symbol
_atom_site_label
_atom_site_fract_x
_atom_site_fract_y
_atom_site_fract_z
Si Si1 0.849072 0.561958 0.438755
Si Si2 0.916396 0.907879 0.286457
Si Si3 0.866385 0.787051 0.211401
Si Si4 0.349852 0.170994 0.137789
O O1 0.848654 0.500000 0.326775
O O2 0.731745 0.565646 0.683879
O O3 0.811032 0.611742 0.259671
O O4 0.000000 0.572563 0.500000
O O5 0.893370 0.842552 0.360507
O O6 0.000000 0.932623 0.500000
O O7 0.000000 0.911907 0.000000
O O8 0.849408 0.724773 0.327634
O O9 0.745526 0.807170 0.061115
O O10 0.000000 0.780784 0.000000
O O11 0.500000 0.162960 0.000000
#
# Coordination Sequence:
#
# PCOD9203046 Si02
#       4
#     8   8   8   8
#     4  11  25  42  63  97 140 188 239 286 339 413
#     4  11  24  45  72 102 137 178 231 293 356 418
#     4   9  19  37  64  99 134 172 224 288 355 420
#     4  10  20  38  65  98 138 181 227 285 353 417
#
# _framework density 25.614294000000001
#
# number of rings (size 3 to 8) (size 9 to 14) (size 15 to 20)
#    0.000    1.750    0.000    4.500    0.000    3.500 
#    0.000    6.250    0.000    0.750    0.000    0.000 
#    0.000    0.000    0.000    0.000    0.000    0.000 
#
# Total GULP energy -89471.488249 kJ/mol
# GULP energy per Si atom -5591.968016 kJ/mol
# Density = 2.555600 g / cm^3
# Si number density = 25.614294 Si / 1000 Ang^3
#
#
#
# Elastic Constant Matrix: (Units=GPa)
#
#
# Indices 1 2 3 4 5 6 
#
# 1 180.2608 26.9867 62.4879 0.0000 -8.6475 0.0000
# 2 26.9867 199.8896 56.2733 0.0000 -2.4487 0.0000
# 3 62.4879 56.2733 80.6557 0.0000 -1.3371 0.0000
# 4 0.0000 0.0000 0.0000 20.6525 0.0000 1.1307
# 5 -8.6475 -2.4487 -1.3371 0.0000 31.2553 0.0000
# 6 0.0000 0.0000 0.0000 1.1307 0.0000 15.1348
#
#
#
# Elastic Compliance Matrix: (Units=1/GPa)
#
#
# Indices 1 2 3 4 5 6 
#
# 1 0.007800 0.000825 -0.006587 0.000000 0.001941 0.000000
# 2 0.000825 0.006316 -0.005037 0.000000 0.000508 0.000000
# 3 -0.006587 -0.005037 0.020994 0.000000 -0.001319 0.000000
# 4 0.000000 0.000000 0.000000 0.048619 0.000000 -0.003632
# 5 0.001941 0.000508 -0.001319 0.000000 0.032515 0.000000
# 6 0.000000 0.000000 0.000000 -0.003632 0.000000 0.066344
#
#
# Mechanical properties :
#
#
# Convention : Reuss Voigt Hill
#
# Bulk Modulus (GPa) = 74.00720 83.58911 78.79815
# Shear Modulus (GPa) = 23.95889 34.41238 29.18564
#
# Velocity S-wave (km/s) = 3.06170 3.66933 3.37920
# Velocity P-wave (km/s) = 6.43851 7.11735 6.78642
#
# Compressibility (1/GPa) = 0.01351220
#
# Stress axis : x y z
#
# Youngs Moduli (GPa) = 128.19757 158.33633 47.63257
#
# Poissons Ratio (x) = -0.13062 0.31375
# Poissons Ratio (y) = -0.10576 0.23993
# Poissons Ratio (z) = 0.84441 0.79757
#
# Static dielectric constant tensor:
#      x y z
#    x 2.024010 0.000000 0.012470 
#    y 0.000000 2.047820 0.000000 
#    z 0.012470 0.000000 1.985660 
# 
# From -- ./inp_files/3512.got.cif
#   From: 2010.05.17/outbox.cif.g08.bks.cpg/sg12_2_cif.got.tgz:3512.got - 2010.06.03 13:09:07.
