data_PCOD9203004
_publ_section_title
;
Structure prediction by ZEFSAII (Michael W. Deem and Ramdas Pophale) SiO2 
 PCOD9203004
Probable space group: C 2/M
;
_chemical_formula_sum "Si O2"
_cell_formula_units_Z 64
_cell_length_a 13.863399
_cell_length_b 13.490932
_cell_length_c 18.630668
_cell_angle_alpha 90.000000
_cell_angle_beta 125.479134
_cell_angle_gamma 90.000000
_cell_volume 2837.519848
_symmetry_space_group_name_H-M "C 2/M"
_symmetry_group_IT_number 12
_symmetry_cell_setting 'monoclinic'
loop_
_space_group_symop_operation_xyz
x,y,z
-x,y,-z
-x,-y,-z
x,-y,z
1/2+x,1/2+y,z
1/2-x,1/2+y,-z
1/2-x,1/2-y,-z
1/2+x,1/2-y,z
loop_
_atom_site_type_symbol
_atom_site_label
_atom_site_fract_x
_atom_site_fract_y
_atom_site_fract_z
Si Si1 0.516482 0.610008 0.225191
Si Si2 0.800779 0.385789 0.590085
Si Si3 0.846336 0.886300 0.029014
Si Si4 0.949245 0.110904 0.590678
Si Si5 0.657784 0.109249 0.147842
Si Si6 0.022740 0.675442 0.589073
Si Si7 0.096669 0.330361 0.961575
Si Si8 0.767814 0.242319 0.712712
O O1 0.560401 0.500000 0.226874
O O2 0.390210 0.617663 0.131383
O O3 0.521225 0.619321 0.312542
O O4 0.607775 0.686642 0.232067
O O5 0.804654 0.500000 0.617061
O O6 0.691171 0.378421 0.486566
O O7 0.773576 0.311037 0.643664
O O8 0.923591 0.360572 0.602319
O O9 0.708554 0.859128 0.961249
O O10 0.869327 0.000000 0.014407
O O11 0.911043 0.787970 0.027711
O O12 0.010127 0.204641 0.581189
O O13 0.984807 0.000000 0.581873
O O14 0.631257 0.122476 0.052701
O O15 0.740170 0.188929 0.220927
O O16 0.702881 0.000000 0.182400
O O17 0.524575 0.125648 0.120959
O O18 0.160670 0.664397 0.666082
O O19 0.000000 0.634146 0.500000
#
# Coordination Sequence:
#
# PCOD9203004 Si02
#       8
#     8   8   8   8   8   8   8   8
#     4  10  21  39  63  89 122 163 207 257 315 377
#     4  11  24  44  65  92 132 175 218 267 321 381
#     4  10  20  38  65  92 121 161 205 255 320 386
#     4  10  21  39  64  91 125 167 211 261 317 371
#     4  11  23  40  61  89 122 163 208 261 320 374
#     4  12  24  39  66  95 130 168 219 267 323 379
#     4  10  21  39  62  89 122 156 207 260 315 384
#     4  12  24  41  65  92 130 170 217 269 320 381
#
# _framework density 22.554908000000001
#
# number of rings (size 3 to 8) (size 9 to 14) (size 15 to 20)
#    0.000    1.250    3.750    3.000    1.750    2.000 
#    0.000    1.875    0.000    0.000    0.000    0.000 
#    0.000    0.000    0.000    0.000    0.000    0.000 
#
# Total GULP energy -178713.285661 kJ/mol
# GULP energy per Si atom -5584.790177 kJ/mol
# Density = 2.250357 g / cm^3
# Si number density = 22.554908 Si / 1000 Ang^3
#
#
#
# Elastic Constant Matrix: (Units=GPa)
#
#
# Indices 1 2 3 4 5 6 
#
# 1 56.1091 -3.6838 2.5341 0.0000 11.1820 0.0000
# 2 -3.6838 92.8720 -3.9125 0.0000 -1.7621 0.0000
# 3 2.5341 -3.9125 52.0236 0.0000 12.8218 0.0000
# 4 0.0000 0.0000 0.0000 24.8975 0.0000 -1.3595
# 5 11.1820 -1.7621 12.8218 0.0000 29.2683 0.0000
# 6 0.0000 0.0000 0.0000 -1.3595 0.0000 14.7335
#
#
#
# Elastic Compliance Matrix: (Units=1/GPa)
#
#
# Indices 1 2 3 4 5 6 
#
# 1 0.019377 0.000664 0.001032 0.000000 -0.007815 0.000000
# 2 0.000664 0.010827 0.000767 0.000000 0.000062 0.000000
# 3 0.001032 0.000767 0.021653 0.000000 -0.009834 0.000000
# 4 0.000000 0.000000 0.000000 0.040368 0.000000 0.003725
# 5 -0.007815 0.000062 -0.009834 0.000000 0.041464 0.000000
# 6 0.000000 0.000000 0.000000 0.003725 0.000000 0.068216
#
#
# Mechanical properties :
#
#
# Convention : Reuss Voigt Hill
#
# Bulk Modulus (GPa) = 17.61108 21.20893 19.41001
# Shear Modulus (GPa) = 23.15799 27.51766 25.33782
#
# Velocity S-wave (km/s) = 3.20775 3.49668 3.35533
# Velocity P-wave (km/s) = 4.64162 5.07208 4.86162
#
# Compressibility (1/GPa) = 0.05678242
#
# Stress axis : x y z
#
# Youngs Moduli (GPa) = 51.60791 92.35901 46.18275
#
# Poissons Ratio (x) = -0.06131 -0.04767
# Poissons Ratio (y) = -0.03426 -0.03540
# Poissons Ratio (z) = -0.05327 -0.07080
#
# Static dielectric constant tensor:
#      x y z
#    x 1.871840 0.000000 0.013550 
#    y 0.000000 1.849640 0.000000 
#    z 0.013550 0.000000 1.833600 
# 
# From -- ./inp_files/270342.got.cif
#   From: 2010.05.17/outbox.cif.g08.bks.cpg/sg12_136_cif.got.tgz:270342.got - 2010.06.03 13:09:07.
