data_PCOD9203552
_publ_section_title
;
Structure prediction by ZEFSAII (Michael W. Deem and Ramdas Pophale) SiO2 
 PCOD9203552
Probable space group: C 2/M
;
_chemical_formula_sum "Si O2"
_cell_formula_units_Z 40
_cell_length_a 8.090243
_cell_length_b 14.726153
_cell_length_c 25.516728
_cell_angle_alpha 90.000000
_cell_angle_beta 35.613572
_cell_angle_gamma 90.000000
_cell_volume 1770.248571
_symmetry_space_group_name_H-M "C 2/M"
_symmetry_group_IT_number 12
_symmetry_cell_setting 'monoclinic'
loop_
_space_group_symop_operation_xyz
x,y,z
-x,y,-z
-x,-y,-z
x,-y,z
1/2+x,1/2+y,z
1/2-x,1/2+y,-z
1/2-x,1/2-y,-z
1/2+x,1/2-y,z
loop_
_atom_site_type_symbol
_atom_site_label
_atom_site_fract_x
_atom_site_fract_y
_atom_site_fract_z
Si Si1 0.329462 0.167235 0.282725
Si Si2 0.708763 0.000000 0.643542
Si Si3 0.857239 0.500000 0.463353
Si Si4 0.827155 0.718677 0.906536
Si Si5 0.820750 0.857322 0.335364
Si Si6 0.230419 0.894015 0.134904
O O1 0.563164 0.188387 0.178821
O O2 0.258934 0.254009 0.336013
O O3 0.056867 0.139952 0.319241
O O4 0.423553 0.087852 0.296353
O O5 0.681298 0.000000 0.589145
O O6 0.047327 0.000000 0.567597
O O7 0.049253 0.412386 0.423914
O O8 0.845851 0.829310 0.895199
O O9 0.021993 0.664078 0.898145
O O10 0.500000 0.696033 0.000000
O O11 0.970706 0.895316 0.243789
O O12 0.302007 0.000000 0.105487
#
# Coordination Sequence:
#
# PCOD9203552 Si02
#       6
#     8   4   4   8   8   8
#     4  10  22  39  64  91 125 165 210 256 318 377
#     4  11  25  41  60  96 120 158 212 259 317 387
#     4  11  23  41  65  88 127 156 206 265 309 391
#     4  10  22  40  64  92 132 170 216 270 311 380
#     4  10  20  39  64  88 123 167 202 260 316 375
#     4  10  21  40  63  92 130 170 216 267 321 377
#
# _framework density 22.595697999999999
#
# number of rings (size 3 to 8) (size 9 to 14) (size 15 to 20)
#    0.000    1.800    1.000    2.400    4.200    4.800 
#    0.000    1.000    0.000    0.000    0.000    0.000 
#    0.000    0.000    0.000    0.000    0.000    0.000 
#
# Total GULP energy -111805.933080 kJ/mol
# GULP energy per Si atom -5590.296654 kJ/mol
# Density = 2.254427 g / cm^3
# Si number density = 22.595698 Si / 1000 Ang^3
#
#
#
# Elastic Constant Matrix: (Units=GPa)
#
#
# Indices 1 2 3 4 5 6 
#
# 1 72.5045 38.0119 23.8078 -0.0050 2.5144 0.0019
# 2 38.0119 177.7176 27.4328 -0.0097 4.4660 -0.0034
# 3 23.8078 27.4328 72.5128 0.0139 -6.3340 0.0197
# 4 -0.0050 -0.0097 0.0139 20.6010 0.0029 -0.0137
# 5 2.5144 4.4660 -6.3340 0.0029 33.6159 -0.0044
# 6 0.0019 -0.0034 0.0197 -0.0137 -0.0044 37.5099
#
#
#
# Elastic Compliance Matrix: (Units=1/GPa)
#
#
# Indices 1 2 3 4 5 6 
#
# 1 0.016861 -0.002851 -0.004611 0.000006 -0.001751 0.000001
# 2 -0.002851 0.006509 -0.001610 0.000004 -0.000955 0.000001
# 3 -0.004611 -0.001610 0.016229 -0.000013 0.003617 -0.000008
# 4 0.000006 0.000004 -0.000013 0.048541 -0.000008 0.000018
# 5 -0.001751 -0.000955 0.003617 -0.000008 0.030687 0.000002
# 6 0.000001 0.000001 -0.000008 0.000018 0.000002 0.026660
#
#
# Mechanical properties :
#
#
# Convention : Reuss Voigt Hill
#
# Bulk Modulus (GPa) = 46.60366 55.69332 51.14849
# Shear Modulus (GPa) = 29.27688 33.91086 31.59387
#
# Velocity S-wave (km/s) = 3.60347 3.87817 3.74334
# Velocity P-wave (km/s) = 6.16304 6.68991 6.43187
#
# Compressibility (1/GPa) = 0.02145754
#
# Stress axis : x y z
#
# Youngs Moduli (GPa) = 59.30679 153.62941 61.61653
#
# Poissons Ratio (x) = 0.43797 0.28408
# Poissons Ratio (y) = 0.16907 0.09920
# Poissons Ratio (z) = 0.27343 0.24734
#
# Static dielectric constant tensor:
#      x y z
#    x 1.858750 -0.000010 -0.025690 
#    y -0.000010 1.843560 0.000000 
#    z -0.025690 0.000000 1.809960 
# 
# From -- ./inp_files/194699.got.cif
#   From: 2010.05.17/outbox.cif.g08.bks.cpg/sg12_98_cif.got.tgz:194699.got - 2010.06.03 13:09:07.
