data_PCOD9203734
_publ_section_title
;
Structure prediction by ZEFSAII (Michael W. Deem and Ramdas Pophale) SiO2 
 PCOD9203734
Probable space group: C 2/M
;
_chemical_formula_sum "Si O2"
_cell_formula_units_Z 48
_cell_length_a 16.779962
_cell_length_b 11.891137
_cell_length_c 12.224135
_cell_angle_alpha 90.000000
_cell_angle_beta 111.941937
_cell_angle_gamma 90.000000
_cell_volume 2262.433956
_symmetry_space_group_name_H-M "C 2/M"
_symmetry_group_IT_number 12
_symmetry_cell_setting 'monoclinic'
loop_
_space_group_symop_operation_xyz
x,y,z
-x,y,-z
-x,-y,-z
x,-y,z
1/2+x,1/2+y,z
1/2-x,1/2+y,-z
1/2-x,1/2-y,-z
1/2+x,1/2-y,z
loop_
_atom_site_type_symbol
_atom_site_label
_atom_site_fract_x
_atom_site_fract_y
_atom_site_fract_z
Si Si1 0.365878 0.247603 0.125099
Si Si2 0.639062 0.372815 0.105626
Si Si3 0.471459 0.627810 0.744399
Si Si4 0.902776 0.133417 0.485929
Si Si5 0.911333 0.500000 0.100802
Si Si6 0.114162 0.500000 0.174352
Si Si7 0.750183 0.699186 0.745755
O O1 0.453294 0.284409 0.228054
O O2 0.293372 0.312889 0.156415
O O3 0.366646 0.112957 0.122777
O O4 0.368120 0.294236 0.003112
O O5 0.653071 0.500000 0.077384
O O6 0.558517 0.368826 0.145872
O O7 0.712029 0.323644 0.222275
O O8 0.502603 0.500000 0.738833
O O9 0.400683 0.650550 0.615661
O O10 0.825096 0.189059 0.380976
O O11 0.000000 0.166088 0.500000
O O12 0.894951 0.000000 0.459617
O O13 0.016309 0.500000 0.172081
O O14 0.898845 0.500000 0.963272
O O15 0.172912 0.609490 0.232328
#
# Coordination Sequence:
#
# PCOD9203734 Si02
#       7
#     8   8   8   8   4   4   8
#     4  12  24  39  68  95 133 173 217 266 328 399
#     4  11  25  40  61  95 137 168 208 269 331 392
#     4  10  22  41  65  94 126 167 215 269 330 380
#     4  10  20  39  66  95 124 161 221 280 318 371
#     4  11  26  44  62  93 145 178 214 260 339 404
#     4  11  24  42  65 100 128 173 226 271 322 391
#     4  12  24  39  69  98 128 170 224 271 326 381
#
# _framework density 21.216089
#
# number of rings (size 3 to 8) (size 9 to 14) (size 15 to 20)
#    0.000    1.000    4.167    2.500    5.833    2.000 
#    0.000    0.000    1.833    1.500    0.000    0.000 
#    0.000    0.000    0.000    0.000    0.000    0.000 
#
# Total GULP energy -133991.653119 kJ/mol
# GULP energy per Si atom -5582.985547 kJ/mol
# Density = 2.116780 g / cm^3
# Si number density = 21.216089 Si / 1000 Ang^3
#
#
#
# Elastic Constant Matrix: (Units=GPa)
#
#
# Indices 1 2 3 4 5 6 
#
# 1 49.1081 14.0384 26.6249 0.0000 15.0455 0.0000
# 2 14.0384 96.0018 35.3381 0.0000 14.7968 0.0000
# 3 26.6249 35.3381 105.8613 0.0000 14.9866 0.0000
# 4 0.0000 0.0000 0.0000 25.0598 0.0000 8.4949
# 5 15.0455 14.7968 14.9866 0.0000 42.0233 0.0000
# 6 0.0000 0.0000 0.0000 8.4949 0.0000 21.0743
#
#
#
# Elastic Compliance Matrix: (Units=1/GPa)
#
#
# Indices 1 2 3 4 5 6 
#
# 1 0.025539 -0.000744 -0.005179 0.000000 -0.007035 0.000000
# 2 -0.000744 0.012246 -0.003505 0.000000 -0.002796 0.000000
# 3 -0.005179 -0.003505 0.012092 0.000000 -0.001224 0.000000
# 4 0.000000 0.000000 0.000000 0.046220 0.000000 -0.018631
# 5 -0.007035 -0.002796 -0.001224 0.000000 0.027736 0.000000
# 6 0.000000 0.000000 0.000000 -0.018631 0.000000 0.054961
#
#
# Mechanical properties :
#
#
# Convention : Reuss Voigt Hill
#
# Bulk Modulus (GPa) = 32.23573 44.77490 38.50532
# Shear Modulus (GPa) = 24.03940 29.29613 26.66776
#
# Velocity S-wave (km/s) = 3.36977 3.72000 3.54921
# Velocity P-wave (km/s) = 5.51067 6.29295 5.91476
#
# Compressibility (1/GPa) = 0.03102148
#
# Stress axis : x y z
#
# Youngs Moduli (GPa) = 39.15570 81.65663 82.69773
#
# Poissons Ratio (x) = 0.06075 0.42829
# Poissons Ratio (y) = 0.02913 0.28987
# Poissons Ratio (z) = 0.20279 0.28622
#
# Static dielectric constant tensor:
#      x y z
#    x 1.889630 0.000000 -0.009990 
#    y 0.000000 1.750610 0.000000 
#    z -0.009990 0.000000 1.773200 
# 
# From -- ./inp_files/154325.got.cif
#   From: 2010.05.17/outbox.cif.g08.bks.cpg/sg12_78_cif.got.tgz:154325.got - 2010.06.03 13:09:07.
