data_PCOD9203245
_publ_section_title
;
Structure prediction by ZEFSAII (Michael W. Deem and Ramdas Pophale) SiO2 
 PCOD9203245
Probable space group: C 2/M
;
_chemical_formula_sum "Si O2"
_cell_formula_units_Z 64
_cell_length_a 26.278432
_cell_length_b 18.983635
_cell_length_c 19.458808
_cell_angle_alpha 90.000000
_cell_angle_beta 161.597267
_cell_angle_gamma 90.000000
_cell_volume 3064.515296
_symmetry_space_group_name_H-M "C 2/M"
_symmetry_group_IT_number 12
_symmetry_cell_setting 'monoclinic'
loop_
_space_group_symop_operation_xyz
x,y,z
-x,y,-z
-x,-y,-z
x,-y,z
1/2+x,1/2+y,z
1/2-x,1/2+y,-z
1/2-x,1/2-y,-z
1/2+x,1/2-y,z
loop_
_atom_site_type_symbol
_atom_site_label
_atom_site_fract_x
_atom_site_fract_y
_atom_site_fract_z
Si Si1 0.357335 0.839571 0.707753
Si Si2 0.723394 0.582267 0.978569
Si Si3 0.139642 0.917034 0.539938
Si Si4 0.730017 0.813516 0.189373
Si Si5 0.685033 0.084710 0.750738
Si Si6 0.678768 0.332874 0.198710
Si Si7 0.313898 0.807238 0.506357
Si Si8 0.174461 0.290741 0.967355
O O1 0.268788 0.884863 0.651868
O O2 0.294997 0.853565 0.550442
O O3 0.314112 0.756545 0.661133
O O4 0.549564 0.846363 0.957069
O O5 0.763127 0.500000 0.025452
O O6 0.536499 0.591582 0.719186
O O7 0.823171 0.627964 0.052730
O O8 0.758236 0.607089 0.100797
O O9 0.154869 0.870941 0.628630
O O10 0.167213 0.000000 0.587226
O O11 0.720819 0.745235 0.225831
O O12 0.763200 0.787497 0.154262
O O13 0.500000 0.106534 0.500000
O O14 0.794114 0.116907 0.830979
O O15 0.692230 0.000000 0.757346
O O16 0.797437 0.348508 0.414352
O O17 0.500000 0.337330 0.000000
O O18 0.488180 0.770329 0.736635
O O19 0.250000 0.250000 0.000000
#
# Coordination Sequence:
#
# PCOD9203245 Si02
#       8
#     8   8   8   8   8   8   8   8
#     4  10  20  39  60  85 123 166 207 253 316 373
#     4  10  23  43  63  88 126 168 208 261 323 380
#     4  11  23  40  63  90 128 172 213 256 314 387
#     4  11  23  39  59  92 128 164 210 261 316 370
#     4  10  23  44  68  92 127 169 214 269 330 392
#     4  12  22  37  63  96 128 162 206 267 321 385
#     4  10  21  36  60  87 120 156 200 263 318 367
#     4  11  23  39  62  90 117 162 217 263 306 380
#
# _framework density 20.884217
#
# number of rings (size 3 to 8) (size 9 to 14) (size 15 to 20)
#    0.000    1.375    2.500    2.625    1.750    2.250 
#    0.000    3.750    0.000    0.000    0.000    0.000 
#    0.000    0.000    0.000    0.000    0.000    0.000 
#
# Total GULP energy -178866.621195 kJ/mol
# GULP energy per Si atom -5589.581912 kJ/mol
# Density = 2.083668 g / cm^3
# Si number density = 20.884217 Si / 1000 Ang^3
#
#
#
# Elastic Constant Matrix: (Units=GPa)
#
#
# Indices 1 2 3 4 5 6 
#
# 1 126.6225 26.3510 30.1166 0.0001 -25.2835 0.0001
# 2 26.3510 47.0443 25.2368 0.0001 -3.7714 0.0000
# 3 30.1166 25.2368 66.3746 0.0004 -21.0118 0.0002
# 4 0.0001 0.0001 0.0004 24.4015 0.0001 -4.3221
# 5 -25.2835 -3.7714 -21.0118 0.0001 39.2121 0.0001
# 6 0.0001 0.0000 0.0002 -4.3221 0.0001 30.0865
#
#
#
# Elastic Compliance Matrix: (Units=1/GPa)
#
#
# Indices 1 2 3 4 5 6 
#
# 1 0.010250 -0.004705 -0.001099 0.000000 0.005567 0.000000
# 2 -0.004705 0.029258 -0.010910 0.000000 -0.006066 0.000000
# 3 -0.001099 -0.010910 0.023070 0.000000 0.010604 0.000000
# 4 0.000000 0.000000 0.000000 0.042051 0.000000 0.006041
# 5 0.005567 -0.006066 0.010604 0.000000 0.034191 0.000000
# 6 0.000000 0.000000 0.000000 0.006041 0.000000 0.034105
#
#
# Mechanical properties :
#
#
# Convention : Reuss Voigt Hill
#
# Bulk Modulus (GPa) = 34.30630 44.82780 39.56705
# Shear Modulus (GPa) = 23.14065 29.29582 26.21823
#
# Velocity S-wave (km/s) = 3.33234 3.74942 3.54702
# Velocity P-wave (km/s) = 5.59183 6.34474 5.98015
#
# Compressibility (1/GPa) = 0.02914916
#
# Stress axis : x y z
#
# Youngs Moduli (GPa) = 97.56286 34.17827 43.34693
#
# Poissons Ratio (x) = 0.16082 0.04765
# Poissons Ratio (y) = 0.45905 0.47291
# Poissons Ratio (z) = 0.10725 0.37288
#
# Static dielectric constant tensor:
#      x y z
#    x 1.767190 0.000000 -0.024680 
#    y 0.000000 1.738500 0.000000 
#    z -0.024680 0.000000 1.776630 
# 
# From -- ./inp_files/290929.got.cif
#   From: 2010.05.17/outbox.cif.g08.bks.cpg/sg12_146_cif.got.tgz:290929.got - 2010.06.03 13:09:07.
