data_PCOD9203598
_publ_section_title
;
Structure prediction by ZEFSAII (Michael W. Deem and Ramdas Pophale) SiO2 
 PCOD9203598
Probable space group: C 2/M
;
_chemical_formula_sum "Si O2"
_cell_formula_units_Z 50
_cell_length_a 25.173206
_cell_length_b 7.949205
_cell_length_c 16.711340
_cell_angle_alpha 90.000000
_cell_angle_beta 141.756501
_cell_angle_gamma 90.000000
_cell_volume 2069.986662
_symmetry_space_group_name_H-M "C 2/M"
_symmetry_group_IT_number 12
_symmetry_cell_setting 'monoclinic'
loop_
_space_group_symop_operation_xyz
x,y,z
-x,y,-z
-x,-y,-z
x,-y,z
1/2+x,1/2+y,z
1/2-x,1/2+y,-z
1/2-x,1/2-y,-z
1/2+x,1/2-y,z
loop_
_atom_site_type_symbol
_atom_site_label
_atom_site_fract_x
_atom_site_fract_y
_atom_site_fract_z
Si Si1 0.885238 0.306557 0.113692
Si Si2 0.159847 0.805894 0.479463
Si Si3 0.295918 0.203962 0.167744
Si Si4 0.083076 0.702896 0.548922
Si Si5 0.972220 0.179641 0.068294
Si Si6 0.146322 0.686454 0.289099
Si Si7 0.500000 0.000000 0.000000
O O1 0.913265 0.500000 0.150228
O O2 0.864206 0.250063 0.178876
O O3 0.949896 0.205028 0.135165
O O4 0.793568 0.288732 0.960171
O O5 0.094906 0.769888 0.473891
O O6 0.151511 0.690649 0.391745
O O7 0.257819 0.784258 0.626870
O O8 0.153985 0.000000 0.446590
O O9 0.335044 0.247390 0.299443
O O10 0.284823 0.000000 0.149713
O O11 0.078711 0.500000 0.538695
O O12 0.000000 0.760299 0.500000
O O13 0.075028 0.181117 0.183427
O O14 0.949538 0.347595 0.993687
O O15 0.935665 0.000000 0.999598
O O16 0.111932 0.500000 0.221581
#
# Coordination Sequence:
#
# PCOD9203598 Si02
#       7
#     8   8   8   8   8   8   2
#     4  10  20  39  64  93 129 174 219 271 327 389
#     4  10  22  39  63  95 130 169 221 269 327 392
#     4   9  20  38  61  91 129 171 225 268 326 398
#     4  10  22  39  60  91 126 171 214 267 332 388
#     4  12  25  43  70  98 132 174 220 272 331 396
#     4  10  21  42  66  93 131 175 217 269 326 390
#     4  12  26  48  60  98 132 166 220 268 332 382
#
# _framework density 24.154745999999999
#
# number of rings (size 3 to 8) (size 9 to 14) (size 15 to 20)
#    0.000    1.760    1.600    1.680    2.240    4.800 
#    0.000    1.600    0.000    0.000    0.000    0.000 
#    0.000    0.000    0.000    0.000    0.000    0.000 
#
# Total GULP energy -139595.897138 kJ/mol
# GULP energy per Si atom -5583.835886 kJ/mol
# Density = 2.409977 g / cm^3
# Si number density = 24.154746 Si / 1000 Ang^3
#
#
#
# Elastic Constant Matrix: (Units=GPa)
#
#
# Indices 1 2 3 4 5 6 
#
# 1 109.4326 21.8734 5.8050 0.0000 -2.9013 0.0000
# 2 21.8734 116.9055 16.4269 0.0000 -2.1738 0.0000
# 3 5.8050 16.4269 24.5538 0.0000 -6.7827 0.0000
# 4 0.0000 0.0000 0.0000 22.6162 0.0000 -2.2052
# 5 -2.9013 -2.1738 -6.7827 0.0000 30.1189 0.0000
# 6 0.0000 0.0000 0.0000 -2.2052 0.0000 25.7339
#
#
#
# Elastic Compliance Matrix: (Units=1/GPa)
#
#
# Indices 1 2 3 4 5 6 
#
# 1 0.009533 -0.001632 -0.001003 0.000000 0.000575 0.000000
# 2 -0.001632 0.009739 -0.006375 0.000000 -0.000890 0.000000
# 3 -0.001003 -0.006375 0.048066 0.000000 0.010268 0.000000
# 4 0.000000 0.000000 0.000000 0.044589 0.000000 0.003821
# 5 0.000575 -0.000890 0.010268 0.000000 0.035505 0.000000
# 6 0.000000 0.000000 0.000000 0.003821 0.000000 0.039187
#
#
# Mechanical properties :
#
#
# Convention : Reuss Voigt Hill
#
# Bulk Modulus (GPa) = 20.27739 37.67804 28.97771
# Shear Modulus (GPa) = 22.61658 29.47957 26.04807
#
# Velocity S-wave (km/s) = 3.06325 3.49728 3.28744
# Velocity P-wave (km/s) = 4.57432 5.65158 5.14124
#
# Compressibility (1/GPa) = 0.04931601
#
# Stress axis : x y z
#
# Youngs Moduli (GPa) = 104.90225 102.68488 20.80489
#
# Poissons Ratio (x) = 0.16758 0.02087
# Poissons Ratio (y) = 0.17120 0.13264
# Poissons Ratio (z) = 0.10523 0.65465
#
# Static dielectric constant tensor:
#      x y z
#    x 1.913710 0.000000 -0.021140 
#    y 0.000000 1.894420 0.000000 
#    z -0.021140 0.000000 1.816980 
# 
# From -- ./inp_files/292262.got.cif
#   From: 2010.05.17/outbox.cif.g08.bks.cpg/sg12_147_cif.got.tgz:292262.got - 2010.06.03 13:09:07.
