data_PCOD9203222
_publ_section_title
;
Structure prediction by ZEFSAII (Michael W. Deem and Ramdas Pophale) SiO2 
 PCOD9203222
Probable space group: C 2/M
;
_chemical_formula_sum "Si O2"
_cell_formula_units_Z 36
_cell_length_a 10.214133
_cell_length_b 22.020279
_cell_length_c 11.153851
_cell_angle_alpha 90.000000
_cell_angle_beta 47.596829
_cell_angle_gamma 90.000000
_cell_volume 1852.471142
_symmetry_space_group_name_H-M "C 2/M"
_symmetry_group_IT_number 12
_symmetry_cell_setting 'monoclinic'
loop_
_space_group_symop_operation_xyz
x,y,z
-x,y,-z
-x,-y,-z
x,-y,z
1/2+x,1/2+y,z
1/2-x,1/2+y,-z
1/2-x,1/2-y,-z
1/2+x,1/2-y,z
loop_
_atom_site_type_symbol
_atom_site_label
_atom_site_fract_x
_atom_site_fract_y
_atom_site_fract_z
Si Si1 0.281197 0.500000 0.261475
Si Si2 0.500000 0.275592 0.000000
Si Si3 0.693815 0.841305 0.877325
Si Si4 0.422241 0.000000 0.355801
Si Si5 0.687418 0.608256 0.432273
Si Si6 0.043893 0.875986 0.780681
O O1 0.174277 0.500000 0.454082
O O2 0.396121 0.438677 0.195066
O O3 0.131433 0.500000 0.251299
O O4 0.346144 0.227823 0.059208
O O5 0.432730 0.319361 0.146084
O O6 0.762170 0.842289 0.698211
O O7 0.838194 0.874510 0.868645
O O8 0.500000 0.871317 0.000000
O O9 0.342765 0.941074 0.340556
O O10 0.500000 0.580975 0.500000
O O11 0.651436 0.630534 0.589334
#
# Coordination Sequence:
#
# PCOD9203222 Si02
#       6
#     4   4   8   4   8   8
#     4   9  20  35  59  86 116 151 182 238 289 342
#     4  10  22  37  60  79 120 156 186 240 282 328
#     4   9  21  37  56  84 114 153 191 235 283 326
#     4   9  17  34  57  90 117 143 187 237 290 336
#     4   9  18  35  61  85 116 149 190 232 282 345
#     4  10  20  39  59  84 115 149 195 232 288 342
#
# _framework density 19.433502000000001
#
# number of rings (size 3 to 8) (size 9 to 14) (size 15 to 20)
#    0.667    2.000    0.000    1.000    0.000    5.778 
#    0.000    2.222    9.778    0.000    0.000    0.000 
#    0.000    0.000    0.000    0.000    0.000    0.000 
#
# Total GULP energy -100216.051617 kJ/mol
# GULP energy per Si atom -5567.558423 kJ/mol
# Density = 1.938927 g / cm^3
# Si number density = 19.433502 Si / 1000 Ang^3
#
#
#
# Elastic Constant Matrix: (Units=GPa)
#
#
# Indices 1 2 3 4 5 6 
#
# 1 110.0278 59.9885 42.7736 0.0000 -19.7723 0.0000
# 2 59.9885 112.5190 39.6768 0.0000 -14.0247 0.0000
# 3 42.7736 39.6768 62.1378 0.0000 -7.3095 0.0000
# 4 0.0000 0.0000 0.0000 67.2634 0.0000 118.7093
# 5 -19.7723 -14.0247 -7.3095 0.0000 32.2308 0.0000
# 6 0.0000 0.0000 0.0000 118.7093 0.0000 150.4840
#
#
#
# Elastic Compliance Matrix: (Units=1/GPa)
#
#
# Indices 1 2 3 4 5 6 
#
# 1 0.015581 -0.005221 -0.006714 0.000000 0.005764 0.000000
# 2 -0.005221 0.013599 -0.004901 0.000000 0.001603 0.000000
# 3 -0.006714 -0.004901 0.023742 0.000000 -0.000867 0.000000
# 4 0.000000 0.000000 0.000000 -0.037907 0.000000 0.029903
# 5 0.005764 0.001603 -0.000867 0.000000 0.035063 0.000000
# 6 0.000000 0.000000 0.000000 0.029903 0.000000 -0.016944
#
#
# Mechanical properties :
#
#
# Convention : Reuss Voigt Hill
#
# Bulk Modulus (GPa) = 51.94511 63.28472 57.61491
# Shear Modulus (GPa) = 68.28590 59.47871 63.88230
#
# Velocity S-wave (km/s) = 5.93418 5.53830 5.73965
# Velocity P-wave (km/s) = 8.58722 8.57510 8.58117
#
# Compressibility (1/GPa) = 0.01925109
#
# Stress axis : x y z
#
# Youngs Moduli (GPa) = 64.18135 73.53572 42.11953
#
# Poissons Ratio (x) = 0.38393 0.28277
# Poissons Ratio (y) = 0.33509 0.20642
# Poissons Ratio (z) = 0.43088 0.36038
#
# Static dielectric constant tensor:
#      x y z
#    x 1.705830 0.000000 0.000000 
#    y 0.000000 1.645040 0.000000 
#    z 0.000000 0.000000 1.703590 
# 
# From -- ./inp_files/122932.got.cif
#   From: 2010.05.17/outbox.cif.g08.bks.cpg/sg12_62_cif.got.tgz:122932.got - 2010.06.03 13:09:07.
