data_PCOD9203935
_publ_section_title
;
Structure prediction by ZEFSAII (Michael W. Deem and Ramdas Pophale) SiO2 
 PCOD9203935
Probable space group: C 2/M
;
_chemical_formula_sum "Si O2"
_cell_formula_units_Z 48
_cell_length_a 18.383386
_cell_length_b 15.666422
_cell_length_c 18.911717
_cell_angle_alpha 90.000000
_cell_angle_beta 152.517085
_cell_angle_gamma 90.000000
_cell_volume 2513.523937
_symmetry_space_group_name_H-M "C 2/M"
_symmetry_group_IT_number 12
_symmetry_cell_setting 'monoclinic'
loop_
_space_group_symop_operation_xyz
x,y,z
-x,y,-z
-x,-y,-z
x,-y,z
1/2+x,1/2+y,z
1/2-x,1/2+y,-z
1/2-x,1/2-y,-z
1/2+x,1/2-y,z
loop_
_atom_site_type_symbol
_atom_site_label
_atom_site_fract_x
_atom_site_fract_y
_atom_site_fract_z
Si Si1 0.540412 0.184681 0.300640
Si Si2 0.751438 0.181546 0.610228
Si Si3 0.016965 0.094658 0.929473
Si Si4 0.239935 0.743039 0.116598
Si Si5 0.489106 0.903224 0.865222
Si Si6 0.671186 0.679847 0.651816
O O1 0.627975 0.149299 0.445783
O O2 0.638827 0.255407 0.341660
O O3 0.386487 0.236373 0.192650
O O4 0.522791 0.108895 0.229436
O O5 0.664231 0.242712 0.590244
O O6 0.859190 0.117911 0.749126
O O7 0.071335 0.000000 0.954737
O O8 0.135391 0.172134 0.019709
O O9 0.000000 0.093546 0.000000
O O10 0.298348 0.721426 0.245718
O O11 0.126115 0.663673 0.001888
O O12 0.324481 0.874873 0.760517
O O13 0.526287 0.000000 0.917074
O O14 0.500000 0.635039 0.500000
#
# Coordination Sequence:
#
# PCOD9203935 Si02
#       6
#     8   8   8   8   8   8
#     4  10  22  38  65  87 122 161 209 246 309 370
#     4  10  20  40  61  90 117 163 201 255 308 370
#     4  11  22  37  61  92 121 155 200 252 309 369
#     4  12  21  40  66  92 122 164 205 260 313 367
#     4  11  25  42  62  93 131 168 208 255 312 374
#     4  11  21  39  68  91 121 166 213 259 311 364
#
# _framework density 19.096695
#
# number of rings (size 3 to 8) (size 9 to 14) (size 15 to 20)
#    0.000    1.167    6.667    1.000    0.000    3.000 
#    0.000    0.000    0.000    3.000    0.000    0.000 
#    0.000    0.000    0.000    0.000    0.000    0.000 
#
# Total GULP energy -133802.964668 kJ/mol
# GULP energy per Si atom -5575.123528 kJ/mol
# Density = 1.905323 g / cm^3
# Si number density = 19.096695 Si / 1000 Ang^3
#
#
#
# Elastic Constant Matrix: (Units=GPa)
#
#
# Indices 1 2 3 4 5 6 
#
# 1 76.2401 18.8574 30.5497 -0.0022 11.1389 -0.0005
# 2 18.8574 103.4741 37.0926 -0.0048 4.6850 -0.0003
# 3 30.5497 37.0926 112.3939 -0.0086 -0.0651 -0.0009
# 4 -0.0022 -0.0048 -0.0086 -24.3771 -0.0032 7.4389
# 5 11.1389 4.6850 -0.0651 -0.0032 31.4286 0.0003
# 6 -0.0005 -0.0003 -0.0009 7.4389 0.0003 0.9545
#
#
#
# Elastic Compliance Matrix: (Units=1/GPa)
#
#
# Indices 1 2 3 4 5 6 
#
# 1 0.015768 -0.001237 -0.003881 0.000001 -0.005412 -0.000001
# 2 -0.001237 0.011143 -0.003342 0.000000 -0.001229 0.000002
# 3 -0.003881 -0.003342 0.011056 0.000000 0.001896 0.000009
# 4 0.000001 0.000000 0.000000 -0.012143 -0.000002 0.094636
# 5 -0.005412 -0.001229 0.001896 -0.000002 0.033924 0.000006
# 6 -0.000001 0.000002 0.000009 0.094636 0.000006 0.310118
#
#
# Mechanical properties :
#
#
# Convention : Reuss Voigt Hill
#
# Bulk Modulus (GPa) = 47.51142 51.67860 49.59501
# Shear Modulus (GPa) = 12.69671 15.30843 14.00257
#
# Velocity S-wave (km/s) = 2.58129 2.83437 2.71079
# Velocity P-wave (km/s) = 5.81528 6.15076 5.98537
#
# Compressibility (1/GPa) = 0.02104757
#
# Stress axis : x y z
#
# Youngs Moduli (GPa) = 63.41842 89.73893 90.44771
#
# Poissons Ratio (x) = 0.11105 0.35100
# Poissons Ratio (y) = 0.07848 0.30227
# Poissons Ratio (z) = 0.24611 0.29990
#
# Static dielectric constant tensor:
#      x y z
#    x 1.684140 0.000000 -0.003160 
#    y 0.000000 1.637050 0.000000 
#    z -0.003160 0.000000 1.729710 
# 
# From -- ./inp_files/111770.got.cif
#   From: 2010.05.17/outbox.cif.g08.bks.cpg/sg12_56_cif.got.tgz:111770.got - 2010.06.03 13:09:07.
