data_PCOD9203514
_publ_section_title
;
Structure prediction by ZEFSAII (Michael W. Deem and Ramdas Pophale) SiO2 
 PCOD9203514
Probable space group: C 2/M
;
_chemical_formula_sum "Si O2"
_cell_formula_units_Z 64
_cell_length_a 10.016050
_cell_length_b 21.700958
_cell_length_c 17.583057
_cell_angle_alpha 90.000000
_cell_angle_beta 127.194805
_cell_angle_gamma 90.000000
_cell_volume 3044.400281
_symmetry_space_group_name_H-M "C 2/M"
_symmetry_group_IT_number 12
_symmetry_cell_setting 'monoclinic'
loop_
_space_group_symop_operation_xyz
x,y,z
-x,y,-z
-x,-y,-z
x,-y,z
1/2+x,1/2+y,z
1/2-x,1/2+y,-z
1/2-x,1/2-y,-z
1/2+x,1/2-y,z
loop_
_atom_site_type_symbol
_atom_site_label
_atom_site_fract_x
_atom_site_fract_y
_atom_site_fract_z
Si Si1 0.552494 0.067086 0.429662
Si Si2 0.909184 0.727353 0.394551
Si Si3 0.227042 0.886400 0.248305
Si Si4 0.179991 0.691316 0.101570
Si Si5 0.354406 0.570682 0.120087
Si Si6 0.535500 0.785971 0.840261
Si Si7 0.819633 0.874084 0.947034
Si Si8 0.847144 0.684627 0.628204
O O1 0.500000 0.072630 0.500000
O O2 0.374426 0.069268 0.325599
O O3 0.652828 0.123581 0.423883
O O4 0.634457 0.000000 0.447661
O O5 0.784087 0.678068 0.310100
O O6 0.819734 0.788256 0.393602
O O7 0.000000 0.699580 0.500000
O O8 0.062909 0.737884 0.390460
O O9 0.221236 0.889481 0.154211
O O10 0.041452 0.907654 0.207653
O O11 0.225736 0.619246 0.112884
O O12 0.350231 0.725832 0.133585
O O13 0.869163 0.718811 0.833115
O O14 0.000000 0.702119 0.000000
O O15 0.324887 0.500000 0.130639
O O16 0.343094 0.577448 0.023368
O O17 0.672241 0.830713 0.925159
O O18 0.474227 0.819316 0.742705
O O19 0.000000 0.841263 0.000000
#
# Coordination Sequence:
#
# PCOD9203514 Si02
#       8
#     8   8   8   8   8   8   8   8
#     4  10  21  39  65  95 126 167 218 262 308 376
#     4  11  22  38  64  98 133 163 202 261 323 387
#     4  10  20  39  63  96 126 162 211 266 322 372
#     4  12  26  40  63  89 126 173 215 268 320 379
#     4  11  25  43  62  91 130 173 218 262 322 384
#     4  12  23  41  61  95 123 171 217 263 329 380
#     4  10  21  37  62  92 125 167 212 269 314 378
#     4  11  22  39  62  94 132 163 205 259 323 381
#
# _framework density 21.022202
#
# number of rings (size 3 to 8) (size 9 to 14) (size 15 to 20)
#    0.000    1.125    3.750    4.500    3.500    3.000 
#    0.000    0.625    0.000    0.375    0.000    0.875 
#    0.000    0.000    0.000    0.000    0.000    0.000 
#
# Total GULP energy -178227.331129 kJ/mol
# GULP energy per Si atom -5569.604098 kJ/mol
# Density = 2.097435 g / cm^3
# Si number density = 21.022202 Si / 1000 Ang^3
#
#
#
# Elastic Constant Matrix: (Units=GPa)
#
#
# Indices 1 2 3 4 5 6 
#
# 1 98.4420 42.2702 15.9831 0.0000 -8.9201 0.0000
# 2 42.2702 131.1407 18.4117 0.0000 0.1968 0.0000
# 3 15.9831 18.4117 92.4624 0.0000 -7.1493 0.0000
# 4 0.0000 0.0000 0.0000 17.6455 0.0000 -6.3846
# 5 -8.9201 0.1968 -7.1493 0.0000 25.2312 0.0000
# 6 0.0000 0.0000 0.0000 -6.3846 0.0000 32.5190
#
#
#
# Elastic Compliance Matrix: (Units=1/GPa)
#
#
# Indices 1 2 3 4 5 6 
#
# 1 0.012349 -0.003839 -0.001053 0.000000 0.004097 0.000000
# 2 -0.003839 0.009044 -0.001276 0.000000 -0.001789 0.000000
# 3 -0.001053 -0.001276 0.011475 0.000000 0.002889 0.000000
# 4 0.000000 0.000000 0.000000 0.061006 0.000000 0.011977
# 5 0.004097 -0.001789 0.002889 0.000000 0.041914 0.000000
# 6 0.000000 0.000000 0.000000 0.011977 0.000000 0.033103
#
#
# Mechanical properties :
#
#
# Convention : Reuss Voigt Hill
#
# Bulk Modulus (GPa) = 48.70370 52.81947 50.76158
# Shear Modulus (GPa) = 26.58574 31.43781 29.01178
#
# Velocity S-wave (km/s) = 3.56005 3.87131 3.71894
# Velocity P-wave (km/s) = 6.33377 6.72033 6.52991
#
# Compressibility (1/GPa) = 0.02053232
#
# Stress axis : x y z
#
# Youngs Moduli (GPa) = 80.97935 110.56463 87.14802
#
# Poissons Ratio (x) = 0.42441 0.09181
# Poissons Ratio (y) = 0.31085 0.11118
# Poissons Ratio (z) = 0.08531 0.14106
#
# Static dielectric constant tensor:
#      x y z
#    x 1.810610 0.000000 -0.073520 
#    y 0.000000 1.790430 0.000000 
#    z -0.073520 0.000000 1.881370 
# 
# From -- ./inp_files/265109.got.cif
#   From: 2010.05.17/outbox.cif.g08.bks.cpg/sg12_133_cif.got.tgz:265109.got - 2010.06.03 13:09:07.
