data_PCOD9203219
_publ_section_title
;
Structure prediction by ZEFSAII (Michael W. Deem and Ramdas Pophale) SiO2 
 PCOD9203219
Probable space group: C 2/M
;
_chemical_formula_sum "Si O2"
_cell_formula_units_Z 64
_cell_length_a 22.295170
_cell_length_b 31.705541
_cell_length_c 9.019863
_cell_angle_alpha 90.000000
_cell_angle_beta 152.202597
_cell_angle_gamma 90.000000
_cell_volume 2973.409066
_symmetry_space_group_name_H-M "C 2/M"
_symmetry_group_IT_number 12
_symmetry_cell_setting 'monoclinic'
loop_
_space_group_symop_operation_xyz
x,y,z
-x,y,-z
-x,-y,-z
x,-y,z
1/2+x,1/2+y,z
1/2-x,1/2+y,-z
1/2-x,1/2-y,-z
1/2+x,1/2-y,z
loop_
_atom_site_type_symbol
_atom_site_label
_atom_site_fract_x
_atom_site_fract_y
_atom_site_fract_z
Si Si1 0.455114 0.582902 0.239728
Si Si2 0.818370 0.547874 0.263530
Si Si3 0.929256 0.632879 0.609887
Si Si4 0.279459 0.452643 0.282476
Si Si5 0.721367 0.864844 0.268788
Si Si6 0.665388 0.659152 0.194153
Si Si7 0.383785 0.725985 0.141115
Si Si8 0.831263 0.315376 0.126312
O O1 0.500000 0.598957 0.500000
O O2 0.570917 0.554518 0.432813
O O3 0.323327 0.557356 0.978660
O O4 0.424324 0.621979 0.065713
O O5 0.858190 0.500000 0.381397
O O6 0.910246 0.583554 0.530498
O O7 0.799850 0.552428 0.045171
O O8 0.808206 0.647840 0.442535
O O9 0.915028 0.657257 0.422970
O O10 0.071185 0.641654 0.979509
O O11 0.259220 0.500000 0.293762
O O12 0.244765 0.414839 0.315811
O O13 0.816427 0.842648 0.590969
O O14 0.738068 0.846785 0.139373
O O15 0.618416 0.703003 0.021264
O O16 0.500000 0.712298 0.500000
O O17 0.385037 0.776687 0.144618
O O18 0.261475 0.708514 0.961764
#
# Coordination Sequence:
#
# PCOD9203219 Si02
#       8
#     8   8   8   8   8   8   8   8
#     4   9  18  36  59  81 114 153 196 247 294 348
#     4   9  17  32  59  89 109 145 206 251 281 332
#     4  10  20  39  59  81 115 159 194 236 290 351
#     4  10  21  35  56  87 120 156 195 244 296 345
#     4  12  23  37  56  85 124 155 191 240 293 352
#     4  10  23  37  59  86 112 155 198 237 297 346
#     4  10  21  40  65  88 115 150 195 243 283 357
#     4  10  22  39  62  91 115 151 194 237 300 343
#
# _framework density 21.524114000000001
#
# number of rings (size 3 to 8) (size 9 to 14) (size 15 to 20)
#    0.000    2.000    1.250    2.250    3.500    3.000 
#    0.000    5.000    0.000    3.750    0.000    0.000 
#    0.000    0.000    0.000    0.000    0.000    0.000 
#
# Total GULP energy -178742.150012 kJ/mol
# GULP energy per Si atom -5585.692188 kJ/mol
# Density = 2.147512 g / cm^3
# Si number density = 21.524114 Si / 1000 Ang^3
#
#
#
# Elastic Constant Matrix: (Units=GPa)
#
#
# Indices 1 2 3 4 5 6 
#
# 1 21.9822 4.9658 2.7365 0.0000 -10.0028 0.0000
# 2 4.9658 125.4323 35.2064 0.0000 -22.5980 0.0000
# 3 2.7365 35.2064 88.5164 0.0000 -27.7194 0.0000
# 4 0.0000 0.0000 0.0000 21.2305 0.0000 4.4378
# 5 -10.0028 -22.5980 -27.7194 0.0000 25.4472 0.0000
# 6 0.0000 0.0000 0.0000 4.4378 0.0000 18.2477
#
#
#
# Elastic Compliance Matrix: (Units=1/GPa)
#
#
# Indices 1 2 3 4 5 6 
#
# 1 0.059342 0.001397 0.008048 0.000000 0.033334 0.000000
# 2 0.001397 0.009700 -0.001566 0.000000 0.007457 0.000000
# 3 0.008048 -0.001566 0.018557 0.000000 0.021986 0.000000
# 4 0.000000 0.000000 0.000000 0.049625 0.000000 -0.012069
# 5 0.033334 0.007457 0.021986 0.000000 0.082972 0.000000
# 6 0.000000 0.000000 0.000000 -0.012069 0.000000 0.057736
#
#
# Mechanical properties :
#
#
# Convention : Reuss Voigt Hill
#
# Bulk Modulus (GPa) = 9.67511 35.74982 22.71247
# Shear Modulus (GPa) = 16.85625 25.85323 21.35474
#
# Velocity S-wave (km/s) = 2.80149 3.46949 3.15323
# Velocity P-wave (km/s) = 3.86901 5.71796 4.88182
#
# Compressibility (1/GPa) = 0.10335797
#
# Stress axis : x y z
#
# Youngs Moduli (GPa) = 16.85144 103.09053 53.88931
#
# Poissons Ratio (x) = -0.14403 -0.43372
# Poissons Ratio (y) = -0.02354 0.08439
# Poissons Ratio (z) = -0.13563 0.16144
#
# Static dielectric constant tensor:
#      x y z
#    x 1.842970 0.000000 0.052470 
#    y 0.000000 1.764940 0.000000 
#    z 0.052470 0.000000 1.786080 
# 
# From -- ./inp_files/80715.got.cif
#   From: 2010.05.17/outbox.cif.g08.bks.cpg/sg12_41_cif.got.tgz:80715.got - 2010.06.03 13:09:07.
