data_PCOD9203021
_publ_section_title
;
Structure prediction by ZEFSAII (Michael W. Deem and Ramdas Pophale) SiO2 
 PCOD9203021
Probable space group: C 2/M
;
_chemical_formula_sum "Si O2"
_cell_formula_units_Z 64
_cell_length_a 10.776502
_cell_length_b 16.022778
_cell_length_c 27.092977
_cell_angle_alpha 90.000000
_cell_angle_beta 35.116080
_cell_angle_gamma 90.000000
_cell_volume 2691.023815
_symmetry_space_group_name_H-M "C 2/M"
_symmetry_group_IT_number 12
_symmetry_cell_setting 'monoclinic'
loop_
_space_group_symop_operation_xyz
x,y,z
-x,y,-z
-x,-y,-z
x,-y,z
1/2+x,1/2+y,z
1/2-x,1/2+y,-z
1/2-x,1/2-y,-z
1/2+x,1/2-y,z
loop_
_atom_site_type_symbol
_atom_site_label
_atom_site_fract_x
_atom_site_fract_y
_atom_site_fract_z
Si Si1 0.130347 0.404386 0.909121
Si Si2 0.990913 0.765444 0.400540
Si Si3 0.727410 0.343317 0.986562
Si Si4 0.181691 0.178365 0.241239
Si Si5 0.700684 0.408744 0.397663
Si Si6 0.813460 0.136391 0.178515
Si Si7 0.386391 0.090246 0.664206
Si Si8 0.072037 0.403884 0.166039
O O1 0.189550 0.500000 0.900687
O O2 0.318796 0.359882 0.814652
O O3 0.000000 0.368730 0.000000
O O4 0.931112 0.398364 0.936282
O O5 0.750000 0.750000 0.500000
O O6 0.994479 0.795889 0.341384
O O7 0.128835 0.833162 0.385975
O O8 0.112079 0.676104 0.365760
O O9 0.520970 0.383353 0.078899
O O10 0.750000 0.250000 0.000000
O O11 0.754591 0.345772 0.919081
O O12 0.304173 0.265716 0.192801
O O13 0.336241 0.119232 0.223513
O O14 0.500000 0.413927 0.500000
O O15 0.720063 0.500000 0.365643
O O16 0.902046 0.400477 0.369604
O O17 0.803749 0.091706 0.233754
O O18 0.608073 0.114867 0.211648
O O19 0.393212 0.000000 0.636460
O O20 0.124231 0.500000 0.140891
#
# Coordination Sequence:
#
# PCOD9203021 Si02
#       8
#     8   8   8   8   8   8   8   8
#     4  10  22  39  61  85 119 167 216 261 303 370
#     4  11  22  37  62  94 127 164 209 264 324 384
#     4  11  21  36  58  86 118 159 204 250 309 375
#     4  10  22  38  57  86 123 162 203 255 311 378
#     4  10  20  38  65  94 122 161 209 259 321 389
#     4  11  22  35  59  87 118 158 198 252 309 368
#     4  10  22  40  61  91 127 162 206 256 315 385
#     4  11  23  39  60  89 122 155 203 262 311 363
#
# _framework density 23.782769999999999
#
# number of rings (size 3 to 8) (size 9 to 14) (size 15 to 20)
#    0.000    1.500    3.750    3.000    1.750    4.500 
#    0.000    0.000    0.000    1.125    0.000    4.375 
#    0.000    0.000    0.000    0.000    0.000    0.000 
#
# Total GULP energy -178468.519784 kJ/mol
# GULP energy per Si atom -5577.141243 kJ/mol
# Density = 2.372864 g / cm^3
# Si number density = 23.782770 Si / 1000 Ang^3
#
#
#
# Elastic Constant Matrix: (Units=GPa)
#
#
# Indices 1 2 3 4 5 6 
#
# 1 48.8693 21.6870 6.7923 0.0013 1.2123 0.0019
# 2 21.6870 170.9062 14.2072 -0.0033 15.6655 0.0014
# 3 6.7923 14.2072 143.7733 0.0134 14.9350 -0.0022
# 4 0.0013 -0.0033 0.0134 31.1580 -0.0091 4.6761
# 5 1.2123 15.6655 14.9350 -0.0091 23.0990 -0.0029
# 6 0.0019 0.0014 -0.0022 4.6761 -0.0029 11.1536
#
#
#
# Elastic Compliance Matrix: (Units=1/GPa)
#
#
# Indices 1 2 3 4 5 6 
#
# 1 0.021803 -0.002816 -0.000891 0.000000 0.001341 -0.000003
# 2 -0.002816 0.006607 -0.000075 0.000000 -0.004285 -0.000001
# 3 -0.000891 -0.000075 0.007498 -0.000005 -0.004751 0.000003
# 4 0.000000 0.000000 -0.000005 0.034249 0.000015 -0.014359
# 5 0.001341 -0.004285 -0.004751 0.000015 0.049199 0.000006
# 6 -0.000003 -0.000001 0.000003 -0.014359 0.000006 0.095677
#
#
# Mechanical properties :
#
#
# Convention : Reuss Voigt Hill
#
# Bulk Modulus (GPa) = 35.27876 49.88019 42.57947
# Shear Modulus (GPa) = 21.54750 34.47295 28.01023
#
# Velocity S-wave (km/s) = 3.01327 3.81135 3.43556
# Velocity P-wave (km/s) = 5.19349 6.35510 5.80343
#
# Compressibility (1/GPa) = 0.02834567
#
# Stress axis : x y z
#
# Youngs Moduli (GPa) = 45.86566 151.34510 133.36211
#
# Poissons Ratio (x) = 0.42611 0.11885
# Poissons Ratio (y) = 0.12914 0.00997
# Poissons Ratio (z) = 0.04087 0.01132
#
# Static dielectric constant tensor:
#      x y z
#    x 1.998510 0.000010 0.069980 
#    y 0.000010 1.891380 0.000000 
#    z 0.069980 0.000000 2.078340 
# 
# From -- ./inp_files/358438.got.cif
#   From: 2010.05.17/outbox.cif.g08.bks.cpg/sg12_180_cif.got.tgz:358438.got - 2010.06.03 13:09:07.
