data_PCOD9203678
_publ_section_title
;
Structure prediction by ZEFSAII (Michael W. Deem and Ramdas Pophale) SiO2 
 PCOD9203678
Probable space group: C 2/M
;
_chemical_formula_sum "Si O2"
_cell_formula_units_Z 40
_cell_length_a 7.743974
_cell_length_b 28.320428
_cell_length_c 8.574580
_cell_angle_alpha 90.000000
_cell_angle_beta 97.249966
_cell_angle_gamma 90.000000
_cell_volume 1865.479269
_symmetry_space_group_name_H-M "C 2/M"
_symmetry_group_IT_number 12
_symmetry_cell_setting 'monoclinic'
loop_
_space_group_symop_operation_xyz
x,y,z
-x,y,-z
-x,-y,-z
x,-y,z
1/2+x,1/2+y,z
1/2-x,1/2+y,-z
1/2-x,1/2-y,-z
1/2+x,1/2-y,z
loop_
_atom_site_type_symbol
_atom_site_label
_atom_site_fract_x
_atom_site_fract_y
_atom_site_fract_z
Si Si1 0.106338 0.402815 0.286469
Si Si2 0.009833 0.700461 0.685245
Si Si3 0.917131 0.056029 0.158803
Si Si4 0.762760 0.443022 0.369080
Si Si5 0.649681 0.718480 0.117311
O O1 0.234477 0.419027 0.165941
O O2 0.189396 0.422145 0.457247
O O3 0.097054 0.346551 0.290917
O O4 0.911664 0.424195 0.268139
O O5 0.205191 0.690776 0.769951
O O6 0.000000 0.709269 0.500000
O O7 0.937522 0.745178 0.771020
O O8 0.068776 0.070635 0.296356
O O9 0.887987 0.000000 0.176542
O O10 0.000000 0.063503 0.000000
O O11 0.772899 0.500000 0.375204
O O12 0.500000 0.692498 0.000000
O O13 0.750000 0.750000 0.000000
#
# Coordination Sequence:
#
# PCOD9203678 Si02
#       5
#     8   8   8   8   8
#     4  11  21  39  63  98 125 161 217 274 320 374
#     4  11  21  42  67  97 128 162 223 276 325 392
#     4  10  22  41  61  90 130 175 219 260 323 393
#     4  10  20  39  65  92 130 173 213 262 328 388
#     4   9  21  44  66  90 123 175 211 255 341 409
#
# _framework density 21.442209999999999
#
# number of rings (size 3 to 8) (size 9 to 14) (size 15 to 20)
#    0.000    1.800    2.000    3.600    0.000    2.400 
#   18.000    3.000    0.000    0.000    0.000    0.000 
#    0.000    0.000    0.000    0.000    0.000    0.000 
#
# Total GULP energy -111774.471287 kJ/mol
# GULP energy per Si atom -5588.723564 kJ/mol
# Density = 2.139341 g / cm^3
# Si number density = 21.442210 Si / 1000 Ang^3
#
#
#
# Elastic Constant Matrix: (Units=GPa)
#
#
# Indices 1 2 3 4 5 6 
#
# 1 88.4152 16.4434 38.7460 0.0000 -11.1047 0.0000
# 2 16.4434 52.0743 14.7679 0.0000 -2.6878 0.0000
# 3 38.7460 14.7679 72.7902 0.0000 11.3173 0.0000
# 4 0.0000 0.0000 0.0000 5.9401 0.0000 -5.2799
# 5 -11.1047 -2.6878 11.3173 0.0000 30.6369 0.0000
# 6 0.0000 0.0000 0.0000 -5.2799 0.0000 15.6323
#
#
#
# Elastic Compliance Matrix: (Units=1/GPa)
#
#
# Indices 1 2 3 4 5 6 
#
# 1 0.017552 -0.002048 -0.010491 0.000000 0.010058 0.000000
# 2 -0.002048 0.020978 -0.003540 0.000000 0.002406 0.000000
# 3 -0.010491 -0.003540 0.021940 0.000000 -0.012218 0.000000
# 4 0.000000 0.000000 0.000000 0.240569 0.000000 0.081254
# 5 0.010058 0.002406 -0.012218 0.000000 0.041010 0.000000
# 6 0.000000 0.000000 0.000000 0.081254 0.000000 0.091414
#
#
# Mechanical properties :
#
#
# Convention : Reuss Voigt Hill
#
# Bulk Modulus (GPa) = 35.32053 39.24382 37.28218
# Shear Modulus (GPa) = 10.52501 19.99671 15.26086
#
# Velocity S-wave (km/s) = 2.21793 3.05714 2.67070
# Velocity P-wave (km/s) = 4.80283 5.55008 5.18992
#
# Compressibility (1/GPa) = 0.02831215
#
# Stress axis : x y z
#
# Youngs Moduli (GPa) = 56.97421 47.66874 45.57832
#
# Poissons Ratio (x) = 0.09763 0.47816
# Poissons Ratio (y) = 0.11668 0.16135
# Poissons Ratio (z) = 0.59772 0.16875
#
# Static dielectric constant tensor:
#      x y z
#    x 1.804380 0.000000 0.008820 
#    y 0.000000 1.765570 0.000000 
#    z 0.008820 0.000000 1.788890 
# 
# From -- ./inp_files/40415.got.cif
#   From: 2010.05.17/outbox.cif.g08.bks.cpg/sg12_21_cif.got.tgz:40415.got - 2010.06.03 13:09:07.
