data_PCOD9203820
_publ_section_title
;
Structure prediction by ZEFSAII (Michael W. Deem and Ramdas Pophale) SiO2 
 PCOD9203820
Probable space group: C 2/M
;
_chemical_formula_sum "Si O2"
_cell_formula_units_Z 40
_cell_length_a 8.725471
_cell_length_b 13.171991
_cell_length_c 17.589876
_cell_angle_alpha 90.000000
_cell_angle_beta 61.865518
_cell_angle_gamma 90.000000
_cell_volume 1782.766533
_symmetry_space_group_name_H-M "C 2/M"
_symmetry_group_IT_number 12
_symmetry_cell_setting 'monoclinic'
loop_
_space_group_symop_operation_xyz
x,y,z
-x,y,-z
-x,-y,-z
x,-y,z
1/2+x,1/2+y,z
1/2-x,1/2+y,-z
1/2-x,1/2-y,-z
1/2+x,1/2-y,z
loop_
_atom_site_type_symbol
_atom_site_label
_atom_site_fract_x
_atom_site_fract_y
_atom_site_fract_z
Si Si1 0.160348 0.387232 0.904706
Si Si2 0.488232 0.685201 0.094329
Si Si3 0.807650 0.891389 0.515615
Si Si4 0.427333 0.750590 0.350382
Si Si5 0.727764 0.616674 0.730991
O O1 0.200663 0.500000 0.863745
O O2 0.326806 0.344151 0.912018
O O3 0.083199 0.298697 0.869560
O O4 0.000000 0.399175 0.000000
O O5 0.340066 0.616180 0.166787
O O6 0.500000 0.675786 0.000000
O O7 0.701321 0.846135 0.611091
O O8 0.839500 0.819861 0.435961
O O9 0.000000 0.902942 0.500000
O O10 0.731601 0.000000 0.510085
O O11 0.424025 0.674717 0.280358
O O12 0.610922 0.806543 0.318439
O O13 0.758354 0.500000 0.699555
#
# Coordination Sequence:
#
# PCOD9203820 Si02
#       5
#     8   8   8   8   8
#     4  10  21  39  64  91 119 157 210 269 327 378
#     4  11  23  43  66  92 129 172 223 274 318 379
#     4  10  20  39  68  96 127 167 211 256 315 391
#     4  11  23  43  63  99 132 167 213 264 318 387
#     4  12  26  43  64  94 134 174 215 269 327 376
#
# _framework density 22.437038000000001
#
# number of rings (size 3 to 8) (size 9 to 14) (size 15 to 20)
#    0.000    1.200    2.000    5.400    0.000    1.600 
#    0.000   12.000    0.000    0.600    0.000    0.000 
#    0.000    0.000    0.000    0.000    0.000    0.000 
#
# Total GULP energy -111349.196730 kJ/mol
# GULP energy per Si atom -5567.459837 kJ/mol
# Density = 2.238597 g / cm^3
# Si number density = 22.437038 Si / 1000 Ang^3
#
#
#
# Elastic Constant Matrix: (Units=GPa)
#
#
# Indices 1 2 3 4 5 6 
#
# 1 67.3377 49.3535 3.3380 0.0000 -17.0207 0.0000
# 2 49.3535 189.1344 26.8666 0.0000 1.2168 0.0000
# 3 3.3380 26.8666 75.1629 0.0000 3.2748 0.0000
# 4 0.0000 0.0000 0.0000 102.7445 0.0000 119.6077
# 5 -17.0207 1.2168 3.2748 0.0000 20.9168 0.0000
# 6 0.0000 0.0000 0.0000 119.6077 0.0000 194.0101
#
#
#
# Elastic Compliance Matrix: (Units=1/GPa)
#
#
# Indices 1 2 3 4 5 6 
#
# 1 0.024959 -0.006701 0.000387 0.000000 0.020640 0.000000
# 2 -0.006701 0.007369 -0.002094 0.000000 -0.005553 0.000000
# 3 0.000387 -0.002094 0.014113 0.000000 -0.001772 0.000000
# 4 0.000000 0.000000 0.000000 0.034476 0.000000 -0.021254
# 5 0.020640 -0.005553 -0.001772 0.000000 0.065204 0.000000
# 6 0.000000 0.000000 0.000000 -0.021254 0.000000 0.018258
#
#
# Mechanical properties :
#
#
# Convention : Reuss Voigt Hill
#
# Bulk Modulus (GPa) = 33.75422 54.52791 44.14106
# Shear Modulus (GPa) = 26.16839 80.33940 53.25389
#
# Velocity S-wave (km/s) = 3.41882 5.99035 4.87712
# Velocity P-wave (km/s) = 5.53725 8.49713 7.17155
#
# Compressibility (1/GPa) = 0.02962593
#
# Stress axis : x y z
#
# Youngs Moduli (GPa) = 40.06494 135.70286 70.85606
#
# Poissons Ratio (x) = 0.90932 -0.02746
# Poissons Ratio (y) = 0.26847 0.14841
# Poissons Ratio (z) = -0.01552 0.28423
#
# Static dielectric constant tensor:
#      x y z
#    x 1.840260 0.000000 0.013160 
#    y 0.000000 2.055510 0.000000 
#    z 0.013160 0.000000 2.037700 
# 
# From -- ./inp_files/255221.got.cif
#   From: 2010.05.17/outbox.cif.g08.bks.cpg/sg12_128_cif.got.tgz:255221.got - 2010.06.03 13:09:07.
