data_PCOD9203823
_publ_section_title
;
Structure prediction by ZEFSAII (Michael W. Deem and Ramdas Pophale) SiO2 
 PCOD9203823
Probable space group: C 2/M
;
_chemical_formula_sum "Si O2"
_cell_formula_units_Z 44
_cell_length_a 11.460846
_cell_length_b 20.112291
_cell_length_c 8.915821
_cell_angle_alpha 90.000000
_cell_angle_beta 68.298839
_cell_angle_gamma 90.000000
_cell_volume 1909.473979
_symmetry_space_group_name_H-M "C 2/M"
_symmetry_group_IT_number 12
_symmetry_cell_setting 'monoclinic'
loop_
_space_group_symop_operation_xyz
x,y,z
-x,y,-z
-x,-y,-z
x,-y,z
1/2+x,1/2+y,z
1/2-x,1/2+y,-z
1/2-x,1/2-y,-z
1/2+x,1/2-y,z
loop_
_atom_site_type_symbol
_atom_site_label
_atom_site_fract_x
_atom_site_fract_y
_atom_site_fract_z
Si Si1 0.777271 0.699435 0.848429
Si Si2 0.325628 0.000000 0.206657
Si Si3 0.847986 0.500000 0.549145
Si Si4 0.144125 0.886285 0.684257
Si Si5 0.315747 0.707689 0.598214
Si Si6 0.465742 0.500000 0.696106
Si Si7 0.630745 0.140409 0.925520
O O1 0.664549 0.670549 0.799992
O O2 0.872077 0.736821 0.686760
O O3 0.750000 0.750000 0.000000
O O4 0.823436 0.638067 0.925431
O O5 0.182351 0.000000 0.219169
O O6 0.387822 0.067072 0.124835
O O7 0.325581 0.000000 0.383648
O O8 0.769149 0.433605 0.635061
O O9 0.000000 0.500000 0.500000
O O10 0.126180 0.850532 0.530170
O O11 0.027272 0.935945 0.746342
O O12 0.250000 0.750000 0.500000
O O13 0.220205 0.673357 0.759550
O O14 0.500000 0.500000 0.500000
O O15 0.500000 0.179075 0.000000
#
# Coordination Sequence:
#
# PCOD9203823 Si02
#       7
#     8   4   4   8   8   4   8
#     4   9  21  40  62  92 131 167 216 266 322 407
#     4  12  24  43  63  93 129 176 216 281 338 396
#     4  11  23  36  66  98 126 162 224 274 333 393
#     4  10  20  39  68  98 129 171 216 275 336 393
#     4   9  18  40  65  91 129 167 220 271 325 398
#     4  11  20  40  65  99 132 163 223 283 329 395
#     4  11  23  41  62  91 132 174 215 275 344 399
#
# _framework density 23.042995000000001
#
# number of rings (size 3 to 8) (size 9 to 14) (size 15 to 20)
#    0.000    1.818    3.636    0.273    2.545    1.455 
#    0.000   28.182    0.000    1.091    0.000    0.000 
#    0.000    0.000    0.000    0.000    0.000    0.000 
#
# Total GULP energy -122495.572540 kJ/mol
# GULP energy per Si atom -5567.980570 kJ/mol
# Density = 2.299055 g / cm^3
# Si number density = 23.042995 Si / 1000 Ang^3
#
#
#
# Elastic Constant Matrix: (Units=GPa)
#
#
# Indices 1 2 3 4 5 6 
#
# 1 80.6646 -4.7394 19.2371 0.0000 3.8085 0.0000
# 2 -4.7394 91.5460 32.1736 0.0000 7.9222 0.0000
# 3 19.2371 32.1736 119.5892 0.0000 32.9224 0.0000
# 4 0.0000 0.0000 0.0000 35.9783 0.0000 17.7010
# 5 3.8085 7.9222 32.9224 0.0000 30.6202 0.0000
# 6 0.0000 0.0000 0.0000 17.7010 0.0000 1.0486
#
#
#
# Elastic Compliance Matrix: (Units=1/GPa)
#
#
# Indices 1 2 3 4 5 6 
#
# 1 0.013112 0.001579 -0.002802 0.000000 0.000973 0.000000
# 2 0.001579 0.012260 -0.003729 0.000000 0.000641 0.000000
# 3 -0.002802 -0.003729 0.013429 0.000000 -0.013126 0.000000
# 4 0.000000 0.000000 0.000000 -0.003805 0.000000 0.064228
# 5 0.000973 0.000641 -0.013126 0.000000 0.046484 0.000000
# 6 0.000000 0.000000 0.000000 0.064228 0.000000 -0.130546
#
#
# Mechanical properties :
#
#
# Convention : Reuss Voigt Hill
#
# Bulk Modulus (GPa) = 34.60373 42.79362 38.69867
# Shear Modulus (GPa) = -169.32289 29.87131 -69.72579
#
# Velocity S-wave (km/s) = -8.58142 3.60436 -5.50679
# Velocity P-wave (km/s) = 9.11801 5.99445 4.85822
#
# Compressibility (1/GPa) = 0.02889862
#
# Stress axis : x y z
#
# Youngs Moduli (GPa) = 76.26553 81.56406 74.46364
#
# Poissons Ratio (x) = -0.12882 0.20865
# Poissons Ratio (y) = -0.12045 0.27767
# Poissons Ratio (z) = 0.21370 0.30414
#
# Static dielectric constant tensor:
#      x y z
#    x 2.354890 0.000000 -0.187410 
#    y 0.000000 2.017960 0.000000 
#    z -0.187410 0.000000 1.956500 
# 
# From -- ./inp_files/49318.got.cif
#   From: 2010.05.17/outbox.cif.g08.bks.cpg/sg12_25_cif.got.tgz:49318.got - 2010.06.03 13:09:07.
