data_PCOD9203632
_publ_section_title
;
Structure prediction by ZEFSAII (Michael W. Deem and Ramdas Pophale) SiO2 
 PCOD9203632
Probable space group: C 2/M
;
_chemical_formula_sum "Si O2"
_cell_formula_units_Z 36
_cell_length_a 20.887161
_cell_length_b 14.000161
_cell_length_c 5.333000
_cell_angle_alpha 90.000000
_cell_angle_beta 105.189941
_cell_angle_gamma 90.000000
_cell_volume 1505.010303
_symmetry_space_group_name_H-M "C 2/M"
_symmetry_group_IT_number 12
_symmetry_cell_setting 'monoclinic'
loop_
_space_group_symop_operation_xyz
x,y,z
-x,y,-z
-x,-y,-z
x,-y,z
1/2+x,1/2+y,z
1/2-x,1/2+y,-z
1/2-x,1/2-y,-z
1/2+x,1/2-y,z
loop_
_atom_site_type_symbol
_atom_site_label
_atom_site_fract_x
_atom_site_fract_y
_atom_site_fract_z
Si Si1 0.454335 0.500000 0.202881
Si Si2 0.848416 0.500000 0.593343
Si Si3 0.779632 0.109676 0.502756
Si Si4 0.152551 0.172457 0.924748
Si Si5 0.934815 0.500000 0.181967
Si Si6 0.533274 0.209943 0.783780
O O1 0.500000 0.500000 0.500000
O O2 0.500000 0.500000 0.000000
O O3 0.405000 0.591237 0.148851
O O4 0.798597 0.590779 0.550257
O O5 0.888920 0.500000 0.380274
O O6 0.891443 0.500000 0.886257
O O7 0.809458 0.160532 0.775364
O O8 0.807351 0.000000 0.527268
O O9 0.800011 0.157562 0.263879
O O10 0.111188 0.269520 0.866199
O O11 0.976594 0.596616 0.227229
O O12 0.500000 0.250447 0.500000
O O13 0.500000 0.249991 0.000000
#
# Coordination Sequence:
#
# PCOD9203632 Si02
#       6
#     4   4   8   8   4   8
#     4  12  20  30  50  80 116 156 200 244 296 364
#     4  10  22  42  70  98 124 164 218 264 318 394
#     4  10  20  39  65  88 134 164 196 249 321 378
#     4  12  21  39  60  93 125 175 200 254 316 384
#     4  12  24  46  70  90 122 174 218 278 328 354
#     4  12  26  45  65  94 129 168 223 271 313 373
#
# _framework density 23.920100999999999
#
# number of rings (size 3 to 8) (size 9 to 14) (size 15 to 20)
#    0.667    0.000    2.222    7.333    0.000    0.000 
#    0.000    6.667    0.000    0.000    0.000    0.000 
#    0.000    0.000    0.000    0.000    0.000    0.000 
#
# Total GULP energy -100858.550002 kJ/mol
# GULP energy per Si atom -5603.252778 kJ/mol
# Density = 2.386566 g / cm^3
# Si number density = 23.920101 Si / 1000 Ang^3
#
#
#
# Elastic Constant Matrix: (Units=GPa)
#
#
# Indices 1 2 3 4 5 6 
#
# 1 105.3617 -7.2173 53.3438 0.0000 -42.8977 0.0000
# 2 -7.2173 58.3657 -6.5852 0.0000 -6.1850 0.0000
# 3 53.3438 -6.5852 162.3405 0.0000 -41.9296 0.0000
# 4 0.0000 0.0000 0.0000 -30.4055 0.0000 17.5828
# 5 -42.8977 -6.1850 -41.9296 0.0000 55.5759 0.0000
# 6 0.0000 0.0000 0.0000 17.5828 0.0000 -42.5985
#
#
#
# Elastic Compliance Matrix: (Units=1/GPa)
#
#
# Indices 1 2 3 4 5 6 
#
# 1 0.014914 0.002679 -0.002163 0.000000 0.010177 0.000000
# 2 0.002679 0.018115 0.001129 0.000000 0.004936 0.000000
# 3 -0.002163 0.001129 0.008095 0.000000 0.004563 0.000000
# 4 0.000000 0.000000 0.000000 -0.043200 0.000000 -0.017831
# 5 0.010177 0.004936 0.004563 0.000000 0.029841 0.000000
# 6 0.000000 0.000000 0.000000 -0.017831 0.000000 -0.030835
#
#
# Mechanical properties :
#
#
# Convention : Reuss Voigt Hill
#
# Bulk Modulus (GPa) = 22.51571 45.01672 33.76621
# Shear Modulus (GPa) = 592.08470 15.61616 303.85043
#
# Velocity S-wave (km/s) = 15.75003 2.55786 11.28286
# Velocity P-wave (km/s) = 18.44409 5.25205 13.56039
#
# Compressibility (1/GPa) = 0.04441344
#
# Stress axis : x y z
#
# Youngs Moduli (GPa) = 67.05331 55.20279 123.53056
#
# Poissons Ratio (x) = -0.14786 0.26722
# Poissons Ratio (y) = -0.17961 -0.13952
# Poissons Ratio (z) = 0.14505 -0.06235
#
# Static dielectric constant tensor:
#      x y z
#    x 1.860490 0.000000 0.003640 
#    y 0.000000 1.968610 0.000000 
#    z 0.003640 0.000000 1.854000 
# 
# From -- ./inp_files/24158.got.cif
#   From: 2010.05.17/outbox.cif.g08.bks.cpg/sg12_13_cif.got.tgz:24158.got - 2010.06.03 13:09:07.
