data_PCOD9203250
_publ_section_title
;
Structure prediction by ZEFSAII (Michael W. Deem and Ramdas Pophale) SiO2 
 PCOD9203250
Probable space group: C 2/M
;
_chemical_formula_sum "Si O2"
_cell_formula_units_Z 56
_cell_length_a 11.629718
_cell_length_b 15.807613
_cell_length_c 16.123512
_cell_angle_alpha 90.000000
_cell_angle_beta 120.894874
_cell_angle_gamma 90.000000
_cell_volume 2543.539671
_symmetry_space_group_name_H-M "C 2/M"
_symmetry_group_IT_number 12
_symmetry_cell_setting 'monoclinic'
loop_
_space_group_symop_operation_xyz
x,y,z
-x,y,-z
-x,-y,-z
x,-y,z
1/2+x,1/2+y,z
1/2-x,1/2+y,-z
1/2-x,1/2-y,-z
1/2+x,1/2-y,z
loop_
_atom_site_type_symbol
_atom_site_label
_atom_site_fract_x
_atom_site_fract_y
_atom_site_fract_z
Si Si1 0.344800 0.500000 0.837507
Si Si2 0.167495 0.000000 0.969278
Si Si3 0.343208 0.333564 0.543118
Si Si4 0.820293 0.662001 0.947214
Si Si5 0.094110 0.406140 0.190470
Si Si6 0.071280 0.743955 0.848866
Si Si7 0.656277 0.331250 0.643759
Si Si8 0.809891 0.846751 0.712293
O O1 0.508769 0.500000 0.886719
O O2 0.282094 0.418666 0.768667
O O3 0.323199 0.500000 0.927737
O O4 0.241574 0.084637 0.962868
O O5 0.250000 0.250000 0.500000
O O6 0.502600 0.319634 0.611955
O O7 0.333975 0.367884 0.446485
O O8 0.304818 0.379106 0.614794
O O9 0.904455 0.620278 0.905036
O O10 0.709388 0.722992 0.863080
O O11 0.889841 0.722984 0.040910
O O12 0.045448 0.500000 0.182780
O O13 0.248713 0.394187 0.271244
O O14 0.999708 0.342201 0.205951
O O15 0.957847 0.813342 0.792485
O O16 0.720418 0.237810 0.676185
#
# Coordination Sequence:
#
# PCOD9203250 Si02
#       8
#     4   4   8   8   8   8   8   8
#     4  11  24  38  56  83 121 162 204 258 290 349
#     4  11  24  38  55  81 124 161 212 257 296 353
#     4   9  18  37  65  90 116 151 190 247 304 370
#     4  11  22  39  60  87 120 171 211 251 306 360
#     4  11  23  39  63  90 130 162 205 258 311 359
#     4  10  23  37  59  89 119 162 212 250 296 366
#     4   9  20  37  61  94 116 152 198 246 301 373
#     4  10  20  39  60  86 118 159 199 242 304 360
#
# _framework density 22.016562
#
# number of rings (size 3 to 8) (size 9 to 14) (size 15 to 20)
#    0.000    1.857    2.143    1.286    1.000    7.429 
#    1.286    0.714    0.000    6.857    0.000    0.000 
#    0.000    0.000    0.000    0.000    0.000    0.000 
#
# Total GULP energy -156135.628443 kJ/mol
# GULP energy per Si atom -5576.272444 kJ/mol
# Density = 2.196645 g / cm^3
# Si number density = 22.016562 Si / 1000 Ang^3
#
#
#
# Elastic Constant Matrix: (Units=GPa)
#
#
# Indices 1 2 3 4 5 6 
#
# 1 32.2086 7.6857 22.0090 0.0000 -7.4010 0.0000
# 2 7.6857 86.8470 21.3013 0.0000 -13.2954 0.0000
# 3 22.0090 21.3013 107.5855 0.0000 0.7054 0.0000
# 4 0.0000 0.0000 0.0000 15.7731 0.0000 -12.1605
# 5 -7.4010 -13.2954 0.7054 0.0000 37.2913 0.0000
# 6 0.0000 0.0000 0.0000 -12.1605 0.0000 9.1820
#
#
#
# Elastic Compliance Matrix: (Units=1/GPa)
#
#
# Indices 1 2 3 4 5 6 
#
# 1 0.038205 -0.000299 -0.007806 0.000000 0.007623 0.000000
# 2 -0.000299 0.012858 -0.002515 0.000000 0.004572 0.000000
# 3 -0.007806 -0.002515 0.011407 0.000000 -0.002662 0.000000
# 4 0.000000 0.000000 0.000000 -3.011417 0.000000 -3.988267
# 5 0.007623 0.004572 -0.002662 0.000000 0.030009 0.000000
# 6 0.000000 0.000000 0.000000 -3.988267 0.000000 -5.173081
#
#
# Mechanical properties :
#
#
# Convention : Reuss Voigt Hill
#
# Bulk Modulus (GPa) = 24.25447 36.51481 30.38464
# Shear Modulus (GPa) = -0.62058 24.15896 11.76919
#
# Velocity S-wave (km/s) = -0.53149 3.31616 2.31457
# Velocity P-wave (km/s) = 3.26554 5.59318 4.57971
#
# Compressibility (1/GPa) = 0.04122952
#
# Stress axis : x y z
#
# Youngs Moduli (GPa) = 26.17459 77.77443 87.66379
#
# Poissons Ratio (x) = 0.02328 0.68434
# Poissons Ratio (y) = 0.00783 0.22043
# Poissons Ratio (z) = 0.20433 0.19556
#
# Static dielectric constant tensor:
#      x y z
#    x 1.887050 0.000000 0.021510 
#    y 0.000000 1.805500 0.000000 
#    z 0.021510 0.000000 1.849700 
# 
# From -- ./inp_files/206785.got.cif
#   From: 2010.05.17/outbox.cif.g08.bks.cpg/sg12_104_cif.got.tgz:206785.got - 2010.06.03 13:09:07.
