data_PCOD9203259
_publ_section_title
;
Structure prediction by ZEFSAII (Michael W. Deem and Ramdas Pophale) SiO2 
 PCOD9203259
Probable space group: C 2/M
;
_chemical_formula_sum "Si O2"
_cell_formula_units_Z 34
_cell_length_a 21.067497
_cell_length_b 19.787062
_cell_length_c 7.966083
_cell_angle_alpha 90.000000
_cell_angle_beta 155.603315
_cell_angle_gamma 90.000000
_cell_volume 1371.650725
_symmetry_space_group_name_H-M "C 2/M"
_symmetry_group_IT_number 12
_symmetry_cell_setting 'monoclinic'
loop_
_space_group_symop_operation_xyz
x,y,z
-x,y,-z
-x,-y,-z
x,-y,z
1/2+x,1/2+y,z
1/2-x,1/2+y,-z
1/2-x,1/2-y,-z
1/2+x,1/2-y,z
loop_
_atom_site_type_symbol
_atom_site_label
_atom_site_fract_x
_atom_site_fract_y
_atom_site_fract_z
Si Si1 0.838049 0.123031 0.778468
Si Si2 0.500000 0.500000 0.000000
Si Si3 0.816897 0.080485 0.076098
Si Si4 0.185945 0.334619 0.066055
Si Si5 0.038931 0.740130 0.278530
O O1 0.741575 0.131777 0.376195
O O2 0.947055 0.059211 0.005610
O O3 0.749763 0.107305 0.737713
O O4 0.936382 0.191174 0.035301
O O5 0.735020 0.115085 0.036918
O O6 0.000000 0.097330 0.500000
O O7 0.801326 0.000000 0.051963
O O8 0.289630 0.267328 0.292350
O O9 0.017756 0.308425 0.711813
O O10 0.000000 0.712102 0.000000
#
# Coordination Sequence:
#
# PCOD9203259 Si02
#       5
#     8   2   8   8   8
#     4  11  20  34  56  88 122 152 193 249 310 343
#     4  12  16  32  62  88 122 148 194 264 308 334
#     4  11  22  35  58  92 124 151 202 260 304 352
#     4  11  23  39  62  91 124 159 200 247 305 362
#     4  10  20  39  60  89 122 160 200 246 299 365
#
# _framework density 24.787648999999998
#
# number of rings (size 3 to 8) (size 9 to 14) (size 15 to 20)
#    0.000    1.176    7.059    2.824    4.941    0.941 
#    0.000    0.000    0.000    0.706    3.059    6.588 
#    0.000    0.000    0.000    0.000    0.000    0.000 
#
# Total GULP energy -94978.315834 kJ/mol
# GULP energy per Si atom -5586.959755 kJ/mol
# Density = 2.473123 g / cm^3
# Si number density = 24.787649 Si / 1000 Ang^3
#
#
#
# Elastic Constant Matrix: (Units=GPa)
#
#
# Indices 1 2 3 4 5 6 
#
# 1 262.8942 95.8429 45.4772 0.0000 -2.5984 0.0000
# 2 95.8429 114.3730 34.6119 0.0000 10.6706 0.0000
# 3 45.4772 34.6119 47.2956 0.0000 4.2460 0.0000
# 4 0.0000 0.0000 0.0000 14.9294 0.0000 3.5434
# 5 -2.5984 10.6706 4.2460 0.0000 33.1944 0.0000
# 6 0.0000 0.0000 0.0000 3.5434 0.0000 63.8114
#
#
#
# Elastic Compliance Matrix: (Units=1/GPa)
#
#
# Indices 1 2 3 4 5 6 
#
# 1 0.005857 -0.004301 -0.002681 0.000000 0.002184 0.000000
# 2 -0.004301 0.014613 -0.006178 0.000000 -0.004244 0.000000
# 3 -0.002681 -0.006178 0.028409 0.000000 -0.001858 0.000000
# 4 0.000000 0.000000 0.000000 0.067877 0.000000 -0.003769
# 5 0.002184 -0.004244 -0.001858 0.000000 0.031898 0.000000
# 6 0.000000 0.000000 0.000000 -0.003769 0.000000 0.015880
#
#
# Mechanical properties :
#
#
# Convention : Reuss Voigt Hill
#
# Bulk Modulus (GPa) = 44.32451 86.26965 65.29708
# Shear Modulus (GPa) = 25.20525 38.96242 32.08383
#
# Velocity S-wave (km/s) = 3.19226 3.96896 3.60161
# Velocity P-wave (km/s) = 5.61319 7.47546 6.61024
#
# Compressibility (1/GPa) = 0.02256088
#
# Stress axis : x y z
#
# Youngs Moduli (GPa) = 170.73720 68.43442 35.20045
#
# Poissons Ratio (x) = 0.29431 0.09436
# Poissons Ratio (y) = 0.73427 0.21745
# Poissons Ratio (z) = 0.45767 0.42275
#
# Static dielectric constant tensor:
#      x y z
#    x 2.009040 0.000000 -0.051970 
#    y 0.000000 1.880600 0.000000 
#    z -0.051970 0.000000 2.080500 
# 
# From -- ./inp_files/38004.got.cif
#   From: 2010.05.17/outbox.cif.g08.bks.cpg/sg12_20_cif.got.tgz:38004.got - 2010.06.03 13:09:07.
