data_PCOD9203941
_publ_section_title
;
Structure prediction by ZEFSAII (Michael W. Deem and Ramdas Pophale) SiO2 
 PCOD9203941
Probable space group: C 2/M
;
_chemical_formula_sum "Si O2"
_cell_formula_units_Z 48
_cell_length_a 23.539919
_cell_length_b 8.945085
_cell_length_c 12.684135
_cell_angle_alpha 90.000000
_cell_angle_beta 91.264512
_cell_angle_gamma 90.000000
_cell_volume 2670.204447
_symmetry_space_group_name_H-M "C 2/M"
_symmetry_group_IT_number 12
_symmetry_cell_setting 'monoclinic'
loop_
_space_group_symop_operation_xyz
x,y,z
-x,y,-z
-x,-y,-z
x,-y,z
1/2+x,1/2+y,z
1/2-x,1/2+y,-z
1/2-x,1/2-y,-z
1/2+x,1/2-y,z
loop_
_atom_site_type_symbol
_atom_site_label
_atom_site_fract_x
_atom_site_fract_y
_atom_site_fract_z
Si Si1 0.809750 0.823058 0.532582
Si Si2 0.674157 0.321812 0.092766
Si Si3 0.806220 0.677546 0.128671
Si Si4 0.875730 0.175995 0.317239
Si Si5 0.003399 0.179451 0.375832
Si Si6 0.884578 0.678233 0.716385
O O1 0.750000 0.750000 0.500000
O O2 0.851179 0.804770 0.433887
O O3 0.837998 0.744048 0.633548
O O4 0.803170 0.000000 0.553078
O O5 0.666305 0.500000 0.095115
O O6 0.738878 0.287969 0.133045
O O7 0.631012 0.242118 0.169764
O O8 0.670618 0.261372 0.973761
O O9 0.811580 0.500000 0.114347
O O10 0.839522 0.730470 0.232934
O O11 0.942330 0.213842 0.322417
O O12 0.869911 0.000000 0.290945
O O13 0.054824 0.263085 0.321994
O O14 0.000000 0.216924 0.500000
O O15 0.013040 0.000000 0.369763
O O16 0.882639 0.500000 0.715986
#
# Coordination Sequence:
#
# PCOD9203941 Si02
#       6
#     8   8   8   8   8   8
#     4  11  22  37  56  84 118 153 192 238 290 347
#     4  10  21  39  62  85 115 157 196 234 287 351
#     4  10  21  37  60  89 119 149 188 241 293 343
#     4  10  21  37  59  83 113 153 195 235 285 348
#     4  10  20  40  62  81 111 157 201 240 287 346
#     4  12  24  37  57  87 119 152 193 243 293 344
#
# _framework density 17.976151999999999
#
# number of rings (size 3 to 8) (size 9 to 14) (size 15 to 20)
#    0.000    1.500    1.667    4.000    0.000    7.000 
#    0.000    0.833    0.000    5.000    0.000    0.000 
#    0.000    0.000    0.000    0.000    0.000    0.000 
#
# Total GULP energy -134159.159784 kJ/mol
# GULP energy per Si atom -5589.964991 kJ/mol
# Density = 1.793524 g / cm^3
# Si number density = 17.976152 Si / 1000 Ang^3
#
#
#
# Elastic Constant Matrix: (Units=GPa)
#
#
# Indices 1 2 3 4 5 6 
#
# 1 50.1524 27.6207 -2.4159 0.0000 -23.4687 0.0000
# 2 27.6207 71.4296 27.2073 0.0000 -18.4640 0.0000
# 3 -2.4159 27.2073 47.0568 0.0000 -15.9545 0.0000
# 4 0.0000 0.0000 0.0000 34.1510 0.0000 0.9172
# 5 -23.4687 -18.4640 -15.9545 0.0000 31.3841 0.0000
# 6 0.0000 0.0000 0.0000 0.9172 0.0000 28.5816
#
#
#
# Elastic Compliance Matrix: (Units=1/GPa)
#
#
# Indices 1 2 3 4 5 6 
#
# 1 0.051560 -0.020047 0.028166 0.000000 0.041080 0.000000
# 2 -0.020047 0.026874 -0.019681 0.000000 -0.009185 0.000000
# 3 0.028166 -0.019681 0.045057 0.000000 0.032388 0.000000
# 4 0.000000 0.000000 0.000000 0.029307 0.000000 -0.000940
# 5 0.041080 -0.009185 0.032388 0.000000 0.073643 0.000000
# 6 0.000000 0.000000 0.000000 -0.000940 0.000000 0.035018
#
#
# Mechanical properties :
#
#
# Convention : Reuss Voigt Hill
#
# Bulk Modulus (GPa) = 9.96352 30.38479 20.17416
# Shear Modulus (GPa) = 15.72136 26.57180 21.14658
#
# Velocity S-wave (km/s) = 2.96052 3.84887 3.43354
# Velocity P-wave (km/s) = 4.15221 6.05733 5.19289
#
# Compressibility (1/GPa) = 0.10036611
#
# Stress axis : x y z
#
# Youngs Moduli (GPa) = 19.39505 37.21116 22.19392
#
# Poissons Ratio (x) = 0.74596 -0.62511
# Poissons Ratio (y) = 0.38880 0.43680
# Poissons Ratio (z) = -0.54627 0.73236
#
# Static dielectric constant tensor:
#      x y z
#    x 1.600220 0.000000 -0.004690 
#    y 0.000000 1.596730 0.000000 
#    z -0.004690 0.000000 1.587910 
# 
# From -- ./inp_files/172020.got.cif
#   From: 2010.05.17/outbox.cif.g08.bks.cpg/sg12_87_cif.got.tgz:172020.got - 2010.06.03 13:09:07.
