data_PCOD9203060
_publ_section_title
;
Structure prediction by ZEFSAII (Michael W. Deem and Ramdas Pophale) SiO2 
 PCOD9203060
Probable space group: C 2/M
;
_chemical_formula_sum "Si O2"
_cell_formula_units_Z 36
_cell_length_a 14.936933
_cell_length_b 16.677994
_cell_length_c 20.598681
_cell_angle_alpha 90.000000
_cell_angle_beta 20.981301
_cell_angle_gamma 90.000000
_cell_volume 1837.402932
_symmetry_space_group_name_H-M "C 2/M"
_symmetry_group_IT_number 12
_symmetry_cell_setting 'monoclinic'
loop_
_space_group_symop_operation_xyz
x,y,z
-x,y,-z
-x,-y,-z
x,-y,z
1/2+x,1/2+y,z
1/2-x,1/2+y,-z
1/2-x,1/2-y,-z
1/2+x,1/2-y,z
loop_
_atom_site_type_symbol
_atom_site_label
_atom_site_fract_x
_atom_site_fract_y
_atom_site_fract_z
Si Si1 0.049876 0.870732 0.390944
Si Si2 0.815352 0.783553 0.026301
Si Si3 0.500000 0.845514 0.000000
Si Si4 0.392879 0.179466 0.640383
Si Si5 0.043608 0.408861 0.667059
O O1 0.828514 0.904390 0.497149
O O2 0.000000 0.895260 0.500000
O O3 0.315586 0.889478 0.175967
O O4 0.034919 0.773376 0.400946
O O5 0.614700 0.850134 0.180091
O O6 0.750000 0.750000 0.000000
O O7 0.827590 0.712402 0.071534
O O8 0.092518 0.820777 0.841888
O O9 0.500000 0.150600 0.500000
O O10 0.502608 0.127572 0.623873
O O11 0.954184 0.500000 0.730813
#
# Coordination Sequence:
#
# PCOD9203060 Si02
#       5
#     8   8   4   8   8
#     4  10  21  40  64  94 117 165 224 268 309 368
#     4  11  21  38  64  95 117 165 216 255 313 376
#     4  10  20  38  66  92 116 158 222 278 296 354
#     4  10  21  38  63  91 123 163 213 264 302 374
#     4  12  24  39  61  93 133 167 197 259 333 383
#
# _framework density 19.592873000000001
#
# number of rings (size 3 to 8) (size 9 to 14) (size 15 to 20)
#    0.000    1.333    4.444    4.667    3.111    2.667 
#    0.000    0.556    0.000    0.000    0.000    0.000 
#    0.000    0.000    0.000    0.000    0.000    0.000 
#
# Total GULP energy -100532.511692 kJ/mol
# GULP energy per Si atom -5585.139538 kJ/mol
# Density = 1.954828 g / cm^3
# Si number density = 19.592873 Si / 1000 Ang^3
#
#
#
# Elastic Constant Matrix: (Units=GPa)
#
#
# Indices 1 2 3 4 5 6 
#
# 1 158.1172 35.0476 51.2437 -0.0230 18.6518 -0.0063
# 2 35.0476 55.7837 25.4321 -0.0646 5.3734 0.0158
# 3 51.2437 25.4321 115.3284 -0.0607 21.8853 0.0170
# 4 -0.0230 -0.0646 -0.0607 -3.7523 0.0221 3.7912
# 5 18.6518 5.3734 21.8853 0.0221 42.2164 -0.0012
# 6 -0.0063 0.0158 0.0170 3.7912 -0.0012 -2.7623
#
#
#
# Elastic Compliance Matrix: (Units=1/GPa)
#
#
# Indices 1 2 3 4 5 6 
#
# 1 0.008188 -0.003855 -0.002434 0.000028 -0.001865 -0.000016
# 2 -0.003855 0.021748 -0.003195 0.000469 0.000591 0.000757
# 3 -0.002434 -0.003195 0.011286 0.000205 -0.004369 0.000340
# 4 0.000028 0.000469 0.000205 0.689152 -0.000513 0.945851
# 5 -0.001865 0.000591 -0.004369 -0.000513 0.026701 -0.000734
# 6 -0.000016 0.000757 0.000340 0.945851 -0.000734 0.936156
#
#
# Mechanical properties :
#
#
# Convention : Reuss Voigt Hill
#
# Bulk Modulus (GPa) = 44.93540 61.40845 53.17192
# Shear Modulus (GPa) = 2.90762 21.64075 12.27419
#
# Velocity S-wave (km/s) = 1.21953 3.32704 2.50564
# Velocity P-wave (km/s) = 4.99673 6.79479 5.96391
#
# Compressibility (1/GPa) = 0.02225417
#
# Stress axis : x y z
#
# Youngs Moduli (GPa) = 122.13453 45.98056 88.60450
#
# Poissons Ratio (x) = 0.17724 0.21567
# Poissons Ratio (y) = 0.47080 0.28311
# Poissons Ratio (z) = 0.29728 0.14692
#
# Static dielectric constant tensor:
#      x y z
#    x 1.638360 0.000030 0.040720 
#    y 0.000030 1.664910 0.000010 
#    z 0.040720 0.000010 1.703000 
# 
# From -- ./inp_files/311447.got.cif
#   From: 2010.05.17/outbox.cif.g08.bks.cpg/sg12_156_cif.got.tgz:311447.got - 2010.06.03 13:09:07.
