data_PCOD9203819
_publ_section_title
;
Structure prediction by ZEFSAII (Michael W. Deem and Ramdas Pophale) SiO2 
 PCOD9203819
Probable space group: C 2/M
;
_chemical_formula_sum "Si O2"
_cell_formula_units_Z 56
_cell_length_a 18.896648
_cell_length_b 13.938061
_cell_length_c 11.661837
_cell_angle_alpha 90.000000
_cell_angle_beta 57.647274
_cell_angle_gamma 90.000000
_cell_volume 2594.731659
_symmetry_space_group_name_H-M "C 2/M"
_symmetry_group_IT_number 12
_symmetry_cell_setting 'monoclinic'
loop_
_space_group_symop_operation_xyz
x,y,z
-x,y,-z
-x,-y,-z
x,-y,z
1/2+x,1/2+y,z
1/2-x,1/2+y,-z
1/2-x,1/2-y,-z
1/2+x,1/2-y,z
loop_
_atom_site_type_symbol
_atom_site_label
_atom_site_fract_x
_atom_site_fract_y
_atom_site_fract_z
Si Si1 0.960739 0.282273 0.420238
Si Si2 0.870076 0.268000 0.864580
Si Si3 0.400281 0.111887 0.067036
Si Si4 0.867516 0.114082 0.440236
Si Si5 0.719361 0.387256 0.925848
Si Si6 0.829093 0.385108 0.373110
Si Si7 0.078688 0.113949 0.860226
O O1 0.916355 0.180662 0.487060
O O2 0.889643 0.342224 0.416786
O O3 0.000000 0.327671 0.500000
O O4 0.039522 0.266175 0.269104
O O5 0.832564 0.163797 0.926705
O O6 0.874944 0.325368 0.980486
O O7 0.804770 0.327615 0.844179
O O8 0.357362 0.146421 0.221532
O O9 0.377355 0.000000 0.066824
O O10 0.500000 0.114923 0.000000
O O11 0.768729 0.135475 0.524502
O O12 0.904840 0.144255 0.283777
O O13 0.878121 0.000000 0.448268
O O14 0.733424 0.500000 0.933264
O O15 0.661807 0.376252 0.863735
O O16 0.839393 0.500000 0.366673
O O17 0.061903 0.000000 0.864207
O O18 0.000000 0.155935 0.000000
#
# Coordination Sequence:
#
# PCOD9203819 Si02
#       7
#     8   8   8   8   8   8   8
#     4  12  27  42  63  96 133 176 218 267 329 398
#     4  11  24  40  64  95 130 173 214 267 335 385
#     4  10  20  39  68  96 125 164 217 272 321 383
#     4  10  23  43  67  96 130 175 224 270 325 388
#     4  10  23  40  61  94 132 166 212 271 329 389
#     4  10  23  44  69  97 128 174 224 273 327 384
#     4   9  18  35  62  91 122 163 209 260 316 377
#
# _framework density 21.582193
#
# number of rings (size 3 to 8) (size 9 to 14) (size 15 to 20)
#    0.000    1.714    1.429    1.714    4.000    5.714 
#    0.000    1.429    0.000    0.000    0.000    0.000 
#    0.000    0.000    0.000    0.000    0.000    0.000 
#
# Total GULP energy -156590.161331 kJ/mol
# GULP energy per Si atom -5592.505762 kJ/mol
# Density = 2.153307 g / cm^3
# Si number density = 21.582193 Si / 1000 Ang^3
#
#
#
# Elastic Constant Matrix: (Units=GPa)
#
#
# Indices 1 2 3 4 5 6 
#
# 1 93.9869 9.1729 35.6653 0.0000 -13.8645 0.0000
# 2 9.1729 72.4960 2.4859 0.0000 -2.2423 0.0000
# 3 35.6653 2.4859 81.4794 0.0000 -10.9592 0.0000
# 4 0.0000 0.0000 0.0000 4.3866 0.0000 -0.8195
# 5 -13.8645 -2.2423 -10.9592 0.0000 23.1137 0.0000
# 6 0.0000 0.0000 0.0000 -0.8195 0.0000 23.4424
#
#
#
# Elastic Compliance Matrix: (Units=1/GPa)
#
#
# Indices 1 2 3 4 5 6 
#
# 1 0.013543 -0.001366 -0.005139 0.000000 0.005554 0.000000
# 2 -0.001366 0.013978 0.000260 0.000000 0.000660 0.000000
# 3 -0.005139 0.000260 0.015064 0.000000 0.004085 0.000000
# 4 0.000000 0.000000 0.000000 0.229467 0.000000 0.008022
# 5 0.005554 0.000660 0.004085 0.000000 0.048597 0.000000
# 6 0.000000 0.000000 0.000000 0.008022 0.000000 0.042938
#
#
# Mechanical properties :
#
#
# Convention : Reuss Voigt Hill
#
# Bulk Modulus (GPa) = 33.22753 38.06782 35.64767
# Shear Modulus (GPa) = 12.94976 23.56441 18.25709
#
# Velocity S-wave (km/s) = 2.45219 3.30789 2.91165
# Velocity P-wave (km/s) = 4.84220 5.68035 5.27794
#
# Compressibility (1/GPa) = 0.03009553
#
# Stress axis : x y z
#
# Youngs Moduli (GPa) = 73.84140 71.54025 66.38303
#
# Poissons Ratio (x) = 0.09769 0.34115
# Poissons Ratio (y) = 0.10083 -0.01726
# Poissons Ratio (z) = 0.37948 -0.01860
#
# Static dielectric constant tensor:
#      x y z
#    x 1.753400 0.000000 0.004990 
#    y 0.000000 1.801640 0.000000 
#    z 0.004990 0.000000 1.793550 
# 
# From -- ./inp_files/156501.got.cif
#   From: 2010.05.17/outbox.cif.g08.bks.cpg/sg12_79_cif.got.tgz:156501.got - 2010.06.03 13:09:07.
