data_PCOD9203417
_publ_section_title
;
Structure prediction by ZEFSAII (Michael W. Deem and Ramdas Pophale) SiO2 
 PCOD9203417
Probable space group: C 2/M
;
_chemical_formula_sum "Si O2"
_cell_formula_units_Z 36
_cell_length_a 12.902457
_cell_length_b 17.514668
_cell_length_c 8.120965
_cell_angle_alpha 90.000000
_cell_angle_beta 57.272550
_cell_angle_gamma 90.000000
_cell_volume 1543.860323
_symmetry_space_group_name_H-M "C 2/M"
_symmetry_group_IT_number 12
_symmetry_cell_setting 'monoclinic'
loop_
_space_group_symop_operation_xyz
x,y,z
-x,y,-z
-x,-y,-z
x,-y,z
1/2+x,1/2+y,z
1/2-x,1/2+y,-z
1/2-x,1/2-y,-z
1/2+x,1/2-y,z
loop_
_atom_site_type_symbol
_atom_site_label
_atom_site_fract_x
_atom_site_fract_y
_atom_site_fract_z
Si Si1 0.243558 0.707457 0.727549
Si Si2 0.500000 0.126874 0.000000
Si Si3 0.695475 0.000000 0.412447
Si Si4 0.582132 0.589125 0.260445
Si Si5 0.431247 0.000000 0.814927
Si Si6 0.148215 0.850217 0.693735
O O1 0.313085 0.652743 0.797376
O O2 0.211365 0.796838 0.778314
O O3 0.329342 0.697828 0.493312
O O4 0.105844 0.674676 0.820663
O O5 0.569716 0.073216 0.068778
O O6 0.771899 0.926049 0.393282
O O7 0.566025 0.000000 0.615987
O O8 0.667304 0.000000 0.243551
O O9 0.500000 0.586021 0.500000
O O10 0.620451 0.500000 0.199319
O O11 0.492214 0.621067 0.194667
#
# Coordination Sequence:
#
# PCOD9203417 Si02
#       6
#     8   4   4   8   4   8
#     4  10  22  36  63  92 126 164 216 260 316 378
#     4  11  22  42  62  93 128 168 204 265 314 392
#     4  11  20  42  63  94 123 170 208 270 313 387
#     4   9  18  33  60  90 120 165 216 258 306 378
#     4  10  24  36  64  91 129 163 211 252 327 382
#     4  10  20  39  62  94 125 164 213 271 309 377
#
# _framework density 23.318173000000002
#
# number of rings (size 3 to 8) (size 9 to 14) (size 15 to 20)
#    0.000    2.000    3.333    0.000    4.667    1.778 
#    8.000    4.444    0.000    2.000    0.000    0.000 
#    0.000    0.000    0.000    0.000    0.000    0.000 
#
# Total GULP energy -100445.103290 kJ/mol
# GULP energy per Si atom -5580.283516 kJ/mol
# Density = 2.326510 g / cm^3
# Si number density = 23.318173 Si / 1000 Ang^3
#
#
#
# Elastic Constant Matrix: (Units=GPa)
#
#
# Indices 1 2 3 4 5 6 
#
# 1 85.9170 34.3579 9.0470 0.0000 -3.5050 0.0000
# 2 34.3579 147.4410 9.3405 0.0000 -6.1247 0.0000
# 3 9.0470 9.3405 60.4172 0.0000 4.4376 0.0000
# 4 0.0000 0.0000 0.0000 2.7471 0.0000 -13.4020
# 5 -3.5050 -6.1247 4.4376 0.0000 27.3739 0.0000
# 6 0.0000 0.0000 0.0000 -13.4020 0.0000 24.0514
#
#
#
# Elastic Compliance Matrix: (Units=1/GPa)
#
#
# Indices 1 2 3 4 5 6 
#
# 1 0.013010 -0.002877 -0.001597 0.000000 0.001281 0.000000
# 2 -0.002877 0.007567 -0.000846 0.000000 0.001462 0.000000
# 3 -0.001597 -0.000846 0.017155 0.000000 -0.003175 0.000000
# 4 0.000000 0.000000 0.000000 -0.211827 0.000000 -0.118035
# 5 0.001281 0.001462 -0.003175 0.000000 0.037537 0.000000
# 6 0.000000 0.000000 0.000000 -0.118035 0.000000 -0.024194
#
#
# Mechanical properties :
#
#
# Convention : Reuss Voigt Hill
#
# Bulk Modulus (GPa) = 36.91408 44.36287 40.63847
# Shear Modulus (GPa) = -35.44102 26.90316 -4.26893
#
# Velocity S-wave (km/s) = -3.90280 3.40036 -1.35451
# Velocity P-wave (km/s) = 2.10813 5.87222 3.87548
#
# Compressibility (1/GPa) = 0.02708994
#
# Stress axis : x y z
#
# Youngs Moduli (GPa) = 76.86253 132.14894 58.29266
#
# Poissons Ratio (x) = 0.38024 0.09312
# Poissons Ratio (y) = 0.22116 0.04934
# Poissons Ratio (z) = 0.12278 0.11185
#
# Static dielectric constant tensor:
#      x y z
#    x 1.858300 0.000000 0.017360 
#    y 0.000000 1.898490 0.000000 
#    z 0.017360 0.000000 1.917600 
# 
# From -- ./inp_files/46863.got.cif
#   From: 2010.05.17/outbox.cif.g08.bks.cpg/sg12_24_cif.got.tgz:46863.got - 2010.06.03 13:09:07.
