data_PCOD9203955
_publ_section_title
;
Structure prediction by ZEFSAII (Michael W. Deem and Ramdas Pophale) SiO2 
 PCOD9203955
Probable space group: C 2/M
;
_chemical_formula_sum "Si O2"
_cell_formula_units_Z 56
_cell_length_a 11.946009
_cell_length_b 31.984087
_cell_length_c 14.309542
_cell_angle_alpha 90.000000
_cell_angle_beta 32.483351
_cell_angle_gamma 90.000000
_cell_volume 2936.303210
_symmetry_space_group_name_H-M "C 2/M"
_symmetry_group_IT_number 12
_symmetry_cell_setting 'monoclinic'
loop_
_space_group_symop_operation_xyz
x,y,z
-x,y,-z
-x,-y,-z
x,-y,z
1/2+x,1/2+y,z
1/2-x,1/2+y,-z
1/2-x,1/2-y,-z
1/2+x,1/2-y,z
loop_
_atom_site_type_symbol
_atom_site_label
_atom_site_fract_x
_atom_site_fract_y
_atom_site_fract_z
Si Si1 0.508536 0.760556 0.696132
Si Si2 0.983281 0.602646 0.320955
Si Si3 0.822391 0.171927 0.803643
Si Si4 0.357471 0.451894 0.007335
Si Si5 0.583218 0.833974 0.789332
Si Si6 0.099621 0.884663 0.716849
Si Si7 0.686529 0.828005 0.294383
O O1 0.750000 0.750000 0.500000
O O2 0.400945 0.716283 0.787006
O O3 0.536693 0.792903 0.760705
O O4 0.355999 0.784429 0.728872
O O5 0.885664 0.626536 0.300685
O O6 0.816965 0.597624 0.522130
O O7 0.122829 0.563181 0.195798
O O8 0.147598 0.636673 0.244694
O O9 0.765615 0.174620 0.734824
O O10 0.993633 0.137479 0.703933
O O11 0.621162 0.158590 0.004374
O O12 0.359710 0.500000 0.974722
O O13 0.500000 0.448850 0.000000
O O14 0.461313 0.420550 0.859976
O O15 0.127982 0.846906 0.773333
O O16 0.500000 0.828208 0.500000
#
# Coordination Sequence:
#
# PCOD9203955 Si02
#       7
#     8   8   8   8   8   8   8
#     4  11  23  36  56  82 121 164 214 269 304 357
#     4  10  20  40  62  87 124 163 205 248 306 372
#     4  11  23  38  61  84 121 165 214 268 308 367
#     4  11  23  40  66 100 132 160 195 252 317 387
#     4  10  23  41  56  86 118 163 217 261 315 364
#     4  11  22  39  65  92 125 170 205 254 315 376
#     4   9  19  34  55  85 118 164 208 248 301 360
#
# _framework density 19.0716
#
# number of rings (size 3 to 8) (size 9 to 14) (size 15 to 20)
#    0.000    1.571    2.857    3.000    4.000    2.286 
#    0.000    1.429    0.000    1.714    0.000    2.000 
#    0.000    0.000    0.000    0.000    0.000    0.000 
#
# Total GULP energy -156065.775058 kJ/mol
# GULP energy per Si atom -5573.777681 kJ/mol
# Density = 1.902819 g / cm^3
# Si number density = 19.071600 Si / 1000 Ang^3
#
#
#
# Elastic Constant Matrix: (Units=GPa)
#
#
# Indices 1 2 3 4 5 6 
#
# 1 98.2609 41.9254 16.0986 0.0000 2.3938 0.0000
# 2 41.9254 110.7649 31.7402 0.0000 -2.9046 0.0000
# 3 16.0986 31.7402 73.5226 0.0000 -1.6447 0.0000
# 4 0.0000 0.0000 0.0000 5.5259 0.0000 -9.9449
# 5 2.3938 -2.9046 -1.6447 0.0000 20.2033 0.0000
# 6 0.0000 0.0000 0.0000 -9.9449 0.0000 16.9262
#
#
#
# Elastic Compliance Matrix: (Units=1/GPa)
#
#
# Indices 1 2 3 4 5 6 
#
# 1 0.012269 -0.004470 -0.000805 0.000000 -0.002162 0.000000
# 2 -0.004470 0.011957 -0.004140 0.000000 0.001912 0.000000
# 3 -0.000805 -0.004140 0.015582 0.000000 0.000769 0.000000
# 4 0.000000 0.000000 0.000000 -3.152917 0.000000 -1.852482
# 5 -0.002162 0.001912 0.000769 0.000000 0.050090 0.000000
# 6 0.000000 0.000000 0.000000 -1.852482 0.000000 -1.029337
#
#
# Mechanical properties :
#
#
# Convention : Reuss Voigt Hill
#
# Bulk Modulus (GPa) = 47.67109 51.34189 49.50649
# Shear Modulus (GPa) = -1.22955 21.38336 10.07690
#
# Velocity S-wave (km/s) = -0.80380 3.35209 2.30113
# Velocity P-wave (km/s) = 4.91820 6.47773 5.75107
#
# Compressibility (1/GPa) = 0.02097708
#
# Stress axis : x y z
#
# Youngs Moduli (GPa) = 81.50820 83.63643 64.17619
#
# Poissons Ratio (x) = 0.37384 0.05167
# Poissons Ratio (y) = 0.36432 0.26570
# Poissons Ratio (z) = 0.06562 0.34627
#
# Static dielectric constant tensor:
#      x y z
#    x 1.729770 0.000000 -0.027880 
#    y 0.000000 1.646580 0.000000 
#    z -0.027880 0.000000 1.713640 
# 
# From -- ./inp_files/210003.got.cif
#   From: 2010.05.17/outbox.cif.g08.bks.cpg/sg12_106_cif.got.tgz:210003.got - 2010.06.03 13:09:07.
