data_PCOD9203019
_publ_section_title
;
Structure prediction by ZEFSAII (Michael W. Deem and Ramdas Pophale) SiO2 
 PCOD9203019
Probable space group: C 2/M
;
_chemical_formula_sum "Si O2"
_cell_formula_units_Z 64
_cell_length_a 22.371211
_cell_length_b 27.305847
_cell_length_c 13.448563
_cell_angle_alpha 90.000000
_cell_angle_beta 24.850952
_cell_angle_gamma 90.000000
_cell_volume 3452.536210
_symmetry_space_group_name_H-M "C 2/M"
_symmetry_group_IT_number 12
_symmetry_cell_setting 'monoclinic'
loop_
_space_group_symop_operation_xyz
x,y,z
-x,y,-z
-x,-y,-z
x,-y,z
1/2+x,1/2+y,z
1/2-x,1/2+y,-z
1/2-x,1/2-y,-z
1/2+x,1/2-y,z
loop_
_atom_site_type_symbol
_atom_site_label
_atom_site_fract_x
_atom_site_fract_y
_atom_site_fract_z
Si Si1 0.138036 0.281378 0.735183
Si Si2 0.121423 0.860616 0.111650
Si Si3 0.363151 0.293965 0.562687
Si Si4 0.724685 0.379888 0.173372
Si Si5 0.134919 0.556382 0.731341
Si Si6 0.049564 0.633264 0.719043
Si Si7 0.411515 0.556578 0.452140
Si Si8 0.378650 0.180352 0.599060
O O1 0.250000 0.250000 0.500000
O O2 0.240540 0.302859 0.665914
O O3 0.071324 0.321756 0.762570
O O4 0.000000 0.257608 0.000000
O O5 0.199673 0.878680 0.094090
O O6 0.011261 0.816350 0.300400
O O7 0.026971 0.907914 0.227433
O O8 0.234335 0.840705 0.863377
O O9 0.323534 0.326367 0.717168
O O10 0.368145 0.237246 0.583191
O O11 0.632477 0.418535 0.376257
O O12 0.888068 0.385496 0.956938
O O13 0.107434 0.500000 0.745371
O O14 0.145166 0.590208 0.619833
O O15 0.272236 0.558339 0.593385
O O16 0.000000 0.574007 0.000000
O O17 0.086893 0.651142 0.553010
O O18 0.455056 0.500000 0.398381
O O19 0.500000 0.175791 0.500000
#
# Coordination Sequence:
#
# PCOD9203019 Si02
#       8
#     8   8   8   8   8   8   8   8
#     4  12  25  40  60  90 126 167 212 266 317 373
#     4  11  25  41  60  93 128 165 215 256 312 373
#     4  11  24  40  61  89 123 166 215 261 306 365
#     4  11  21  38  62  92 128 159 204 264 307 367
#     4  10  20  38  65  94 120 151 198 255 315 372
#     4  12  22  39  62  92 126 163 203 259 313 371
#     4  10  21  41  69  97 122 156 203 266 327 375
#     4  12  26  41  62  87 127 178 213 248 308 383
#
# _framework density 18.537096999999999
#
# number of rings (size 3 to 8) (size 9 to 14) (size 15 to 20)
#    0.000    0.875    5.000    4.125    3.500    2.000 
#    0.000    2.500    0.000    2.250    0.000    0.000 
#    0.000    0.000    0.000    0.000    0.000    0.000 
#
# Total GULP energy -178689.340049 kJ/mol
# GULP energy per Si atom -5584.041877 kJ/mol
# Density = 1.849491 g / cm^3
# Si number density = 18.537097 Si / 1000 Ang^3
#
#
#
# Elastic Constant Matrix: (Units=GPa)
#
#
# Indices 1 2 3 4 5 6 
#
# 1 95.9596 29.3467 27.7048 -0.0253 0.1387 0.0206
# 2 29.3467 104.4570 45.6821 -0.0208 7.9850 0.0102
# 3 27.7048 45.6821 91.8067 -0.0719 -4.1295 0.0441
# 4 -0.0253 -0.0208 -0.0719 7.9803 0.0159 -3.9555
# 5 0.1387 7.9850 -4.1295 0.0159 27.1687 -0.0142
# 6 0.0206 0.0102 0.0441 -3.9555 -0.0142 12.5036
#
#
#
# Elastic Compliance Matrix: (Units=1/GPa)
#
#
# Indices 1 2 3 4 5 6 
#
# 1 0.011817 -0.002280 -0.002421 0.000006 0.000242 -0.000007
# 2 -0.002280 0.013262 -0.006128 -0.000016 -0.004817 0.000004
# 3 -0.002421 -0.006128 0.014855 0.000098 0.004071 -0.000008
# 4 0.000006 -0.000016 0.000098 0.148611 -0.000043 0.047012
# 5 0.000242 -0.004817 0.004071 -0.000043 0.038840 0.000020
# 6 -0.000007 0.000004 -0.000008 0.047012 0.000020 0.094849
#
#
# Mechanical properties :
#
#
# Convention : Reuss Voigt Hill
#
# Bulk Modulus (GPa) = 54.71181 55.29894 55.00537
# Shear Modulus (GPa) = 14.28642 22.16318 18.22480
#
# Velocity S-wave (km/s) = 2.77915 3.46151 3.13893
# Velocity P-wave (km/s) = 6.31483 6.77291 6.54788
#
# Compressibility (1/GPa) = 0.01827759
#
# Stress axis : x y z
#
# Youngs Moduli (GPa) = 84.62533 75.40402 67.31609
#
# Poissons Ratio (x) = 0.17190 0.16296
# Poissons Ratio (y) = 0.19292 0.41250
# Poissons Ratio (z) = 0.20486 0.46206
#
# Static dielectric constant tensor:
#      x y z
#    x 1.654470 -0.000010 -0.015350 
#    y -0.000010 1.638710 0.000010 
#    z -0.015350 0.000010 1.647930 
# 
# From -- ./inp_files/170589.got.cif
#   From: 2010.05.17/outbox.cif.g08.bks.cpg/sg12_86_cif.got.tgz:170589.got - 2010.06.03 13:09:07.
