data_PCOD9203136
_publ_section_title
;
Structure prediction by ZEFSAII (Michael W. Deem and Ramdas Pophale) SiO2 
 PCOD9203136
Probable space group: C 2/M
;
_chemical_formula_sum "Si O2"
_cell_formula_units_Z 50
_cell_length_a 8.207080
_cell_length_b 21.744530
_cell_length_c 12.775260
_cell_angle_alpha 90.000000
_cell_angle_beta 111.475288
_cell_angle_gamma 90.000000
_cell_volume 2121.583258
_symmetry_space_group_name_H-M "C 2/M"
_symmetry_group_IT_number 12
_symmetry_cell_setting 'monoclinic'
loop_
_space_group_symop_operation_xyz
x,y,z
-x,y,-z
-x,-y,-z
x,-y,z
1/2+x,1/2+y,z
1/2-x,1/2+y,-z
1/2-x,1/2-y,-z
1/2+x,1/2-y,z
loop_
_atom_site_type_symbol
_atom_site_label
_atom_site_fract_x
_atom_site_fract_y
_atom_site_fract_z
Si Si1 0.853889 0.781240 0.890187
Si Si2 0.856163 0.415769 0.278145
Si Si3 0.533468 0.603169 0.823579
Si Si4 0.836442 0.185487 0.304753
Si Si5 0.342346 0.891222 0.044746
Si Si6 0.000000 0.500000 0.500000
Si Si7 0.958945 0.701115 0.610316
O O1 0.963168 0.830769 0.848102
O O2 0.775776 0.726690 0.802903
O O3 0.725538 0.824517 0.929406
O O4 0.000000 0.754135 0.000000
O O5 0.649403 0.430410 0.239065
O O6 0.895214 0.426608 0.164161
O O7 0.958488 0.447772 0.397416
O O8 0.900663 0.343332 0.301598
O O9 0.628886 0.619724 0.737860
O O10 0.672208 0.581469 0.943054
O O11 0.726808 0.182715 0.385648
O O12 0.007938 0.227009 0.360157
O O13 0.500000 0.889497 0.000000
O O14 0.000000 0.692393 0.500000
#
# Coordination Sequence:
#
# PCOD9203136 Si02
#       7
#     8   8   8   8   8   2   8
#     4   9  19  32  51  89 137 185 228 247 301 394
#     4  11  23  48  69 104 125 173 241 295 358 421
#     4  10  21  36  63 101 146 175 220 275 340 407
#     4  12  21  36  59  96 143 201 218 270 319 406
#     4  10  20  38  68 102 148 183 217 284 340 408
#     4  12  28  52  92  86 118 180 240 310 374 418
#     4  12  23  38  59  91 142 186 249 275 326 395
#
# _framework density 23.567307
#
# number of rings (size 3 to 8) (size 9 to 14) (size 15 to 20)
#    0.000    1.280    5.600    2.880    0.000    4.480 
#    0.000    2.000    0.000    6.720    0.000    0.000 
#    0.000    0.000    0.000    0.000    0.000    0.000 
#
# Total GULP energy -139348.096830 kJ/mol
# GULP energy per Si atom -5573.923873 kJ/mol
# Density = 2.351367 g / cm^3
# Si number density = 23.567307 Si / 1000 Ang^3
#
#
#
# Elastic Constant Matrix: (Units=GPa)
#
#
# Indices 1 2 3 4 5 6 
#
# 1 112.4582 7.5443 67.3694 0.0000 -30.5061 0.0000
# 2 7.5443 56.0955 32.8118 0.0000 -2.7052 0.0000
# 3 67.3694 32.8118 172.1229 0.0000 -24.2612 0.0000
# 4 0.0000 0.0000 0.0000 1.8856 0.0000 -0.3602
# 5 -30.5061 -2.7052 -24.2612 0.0000 39.1969 0.0000
# 6 0.0000 0.0000 0.0000 -0.3602 0.0000 -16.4483
#
#
#
# Elastic Compliance Matrix: (Units=1/GPa)
#
#
# Indices 1 2 3 4 5 6 
#
# 1 0.013624 0.001142 -0.004431 0.000000 0.007939 0.000000
# 2 0.001142 0.020201 -0.004356 0.000000 -0.000413 0.000000
# 3 -0.004431 -0.004356 0.008596 0.000000 0.001571 0.000000
# 4 0.000000 0.000000 0.000000 0.528136 0.000000 -0.011564
# 5 0.007939 -0.000413 0.001571 0.000000 0.032635 0.000000
# 6 0.000000 0.000000 0.000000 -0.011564 0.000000 -0.060543
#
#
# Mechanical properties :
#
#
# Convention : Reuss Voigt Hill
#
# Bulk Modulus (GPa) = 36.85801 61.79195 49.32498
# Shear Modulus (GPa) = 8.81862 20.45691 14.63776
#
# Velocity S-wave (km/s) = 1.93649 2.94942 2.49490
# Velocity P-wave (km/s) = 4.54680 6.15427 5.41057
#
# Compressibility (1/GPa) = 0.02713114
#
# Stress axis : x y z
#
# Youngs Moduli (GPa) = 73.40158 49.50172 116.33216
#
# Poissons Ratio (x) = -0.05655 0.51548
# Poissons Ratio (y) = -0.08386 0.50678
# Poissons Ratio (z) = 0.32525 0.21565
#
# Static dielectric constant tensor:
#      x y z
#    x 1.965640 0.000000 0.015240 
#    y 0.000000 1.883500 0.000000 
#    z 0.015240 0.000000 1.987830 
# 
# From -- ./inp_files/123836.got.cif
#   From: 2010.05.17/outbox.cif.g08.bks.cpg/sg12_62_cif.got.tgz:123836.got - 2010.06.03 13:09:07.
