data_PCOD9203443
_publ_section_title
;
Structure prediction by ZEFSAII (Michael W. Deem and Ramdas Pophale) SiO2 
 PCOD9203443
Probable space group: C 2/M
;
_chemical_formula_sum "Si O2"
_cell_formula_units_Z 56
_cell_length_a 30.533624
_cell_length_b 9.027618
_cell_length_c 11.144975
_cell_angle_alpha 90.000000
_cell_angle_beta 66.574253
_cell_angle_gamma 90.000000
_cell_volume 2818.854781
_symmetry_space_group_name_H-M "C 2/M"
_symmetry_group_IT_number 12
_symmetry_cell_setting 'monoclinic'
loop_
_space_group_symop_operation_xyz
x,y,z
-x,y,-z
-x,-y,-z
x,-y,z
1/2+x,1/2+y,z
1/2-x,1/2+y,-z
1/2-x,1/2-y,-z
1/2+x,1/2-y,z
loop_
_atom_site_type_symbol
_atom_site_label
_atom_site_fract_x
_atom_site_fract_y
_atom_site_fract_z
Si Si1 0.427986 0.825765 0.403162
Si Si2 0.118896 0.674546 0.307964
Si Si3 0.042537 0.332743 0.049931
Si Si4 0.025829 0.171836 0.304575
Si Si5 0.125163 0.323461 0.777514
Si Si6 0.271679 0.678257 0.353984
Si Si7 0.274662 0.820600 0.856050
O O1 0.385299 0.807591 0.544136
O O2 0.475421 0.744068 0.394710
O O3 0.409177 0.777036 0.294730
O O4 0.439698 0.000000 0.383309
O O5 0.114336 0.500000 0.287159
O O6 0.073053 0.755783 0.306997
O O7 0.169734 0.725042 0.204780
O O8 0.043264 0.500000 0.103145
O O9 0.030748 0.209671 0.158978
O O10 0.093233 0.307049 0.931101
O O11 0.000000 0.334431 0.000000
O O12 0.024685 0.000000 0.331864
O O13 0.135103 0.500000 0.751806
O O14 0.173958 0.234101 0.719500
O O15 0.269045 0.500000 0.368576
O O16 0.250000 0.750000 0.500000
O O17 0.246316 0.718334 0.253666
O O18 0.271916 0.000000 0.868119
O O19 0.250000 0.750000 0.000000
#
# Coordination Sequence:
#
# PCOD9203443 Si02
#       7
#     8   8   8   8   8   8   8
#     4  10  20  40  65  89 120 161 208 249 293 363
#     4  10  22  41  65  86 114 161 211 251 296 361
#     4  10  20  39  63  86 117 161 208 247 292 363
#     4  12  25  37  56  89 129 160 197 251 307 363
#     4  10  21  38  65  94 122 158 204 253 304 363
#     4  11  24  43  67  97 131 164 210 264 319 380
#     4  10  24  45  67  93 125 163 212 266 316 374
#
# _framework density 19.866223000000002
#
# number of rings (size 3 to 8) (size 9 to 14) (size 15 to 20)
#    0.000    1.571    1.429    3.000    2.000    7.714 
#    0.000    1.429    0.000    0.000    0.000    0.000 
#    0.000    0.000    0.000    0.000    0.000    0.000 
#
# Total GULP energy -156364.068965 kJ/mol
# GULP energy per Si atom -5584.431034 kJ/mol
# Density = 1.982101 g / cm^3
# Si number density = 19.866223 Si / 1000 Ang^3
#
#
#
# Elastic Constant Matrix: (Units=GPa)
#
#
# Indices 1 2 3 4 5 6 
#
# 1 105.0456 35.9352 57.9687 0.0000 -17.9344 0.0000
# 2 35.9352 48.9480 40.0438 0.0000 -10.6728 0.0000
# 3 57.9687 40.0438 127.2728 0.0000 -21.1941 0.0000
# 4 0.0000 0.0000 0.0000 29.3413 0.0000 -10.6364
# 5 -17.9344 -10.6728 -21.1941 0.0000 38.3978 0.0000
# 6 0.0000 0.0000 0.0000 -10.6364 0.0000 17.3755
#
#
#
# Elastic Compliance Matrix: (Units=1/GPa)
#
#
# Indices 1 2 3 4 5 6 
#
# 1 0.014522 -0.006776 -0.004038 0.000000 0.002671 0.000000
# 2 -0.006776 0.031025 -0.006350 0.000000 0.001954 0.000000
# 3 -0.004038 -0.006350 0.012208 0.000000 0.003088 0.000000
# 4 0.000000 0.000000 0.000000 0.043801 0.000000 0.026813
# 5 0.002671 0.001954 0.003088 0.000000 0.029538 0.000000
# 6 0.000000 0.000000 0.000000 0.026813 0.000000 0.073966
#
#
# Mechanical properties :
#
#
# Convention : Reuss Voigt Hill
#
# Bulk Modulus (GPa) = 42.68299 61.01796 51.85048
# Shear Modulus (GPa) = 20.22686 26.84416 23.53551
#
# Velocity S-wave (km/s) = 3.19431 3.67992 3.44568
# Velocity P-wave (km/s) = 5.92762 6.98834 6.47972
#
# Compressibility (1/GPa) = 0.02342854
#
# Stress axis : x y z
#
# Youngs Moduli (GPa) = 68.86263 32.23199 81.91234
#
# Poissons Ratio (x) = 0.21839 0.33073
# Poissons Ratio (y) = 0.46659 0.52014
# Poissons Ratio (z) = 0.27804 0.20467
#
# Static dielectric constant tensor:
#      x y z
#    x 1.691000 0.000000 0.032800 
#    y 0.000000 1.675080 0.000000 
#    z 0.032800 0.000000 1.739140 
# 
# From -- ./inp_files/187153.got.cif
#   From: 2010.05.17/outbox.cif.g08.bks.cpg/sg12_94_cif.got.tgz:187153.got - 2010.06.03 13:09:07.
