data_PCOD9203343
_publ_section_title
;
Structure prediction by ZEFSAII (Michael W. Deem and Ramdas Pophale) SiO2 
 PCOD9203343
Probable space group: C 2/M
;
_chemical_formula_sum "Si O2"
_cell_formula_units_Z 56
_cell_length_a 15.406196
_cell_length_b 7.832686
_cell_length_c 25.512615
_cell_angle_alpha 90.000000
_cell_angle_beta 63.298296
_cell_angle_gamma 90.000000
_cell_volume 2750.341702
_symmetry_space_group_name_H-M "C 2/M"
_symmetry_group_IT_number 12
_symmetry_cell_setting 'monoclinic'
loop_
_space_group_symop_operation_xyz
x,y,z
-x,y,-z
-x,-y,-z
x,-y,z
1/2+x,1/2+y,z
1/2-x,1/2+y,-z
1/2-x,1/2-y,-z
1/2+x,1/2-y,z
loop_
_atom_site_type_symbol
_atom_site_label
_atom_site_fract_x
_atom_site_fract_y
_atom_site_fract_z
Si Si1 0.262281 0.794038 0.649483
Si Si2 0.975069 0.703522 0.564690
Si Si3 0.648006 0.205097 0.999816
Si Si4 0.244908 0.293890 0.871521
Si Si5 0.171546 0.203694 0.565757
Si Si6 0.447381 0.206057 0.871898
Si Si7 0.839935 0.705626 0.214423
O O1 0.373245 0.730344 0.614648
O O2 0.205907 0.731125 0.613041
O O3 0.210539 0.749029 0.717448
O O4 0.264067 0.000000 0.646346
O O5 0.962940 0.500000 0.561811
O O6 0.000000 0.773577 0.500000
O O7 0.066385 0.733060 0.577017
O O8 0.569521 0.267732 0.063417
O O9 0.636567 0.000000 0.999809
O O10 0.750000 0.250000 0.000000
O O11 0.664904 0.267573 0.936065
O O12 0.239662 0.500000 0.872653
O O13 0.352137 0.249658 0.863639
O O14 0.219742 0.232047 0.820277
O O15 0.250000 0.250000 0.500000
O O16 0.167854 0.000000 0.569274
O O17 0.548855 0.268101 0.820743
O O18 0.451242 0.000000 0.873081
O O19 0.842950 0.500000 0.210399
#
# Coordination Sequence:
#
# PCOD9203343 Si02
#       7
#     8   8   8   8   8   8   8
#     4  10  23  41  58  79 113 149 181 220 271 326
#     4  10  20  39  62  85 114 144 176 221 273 324
#     4   8  14  27  49  75 102 134 175 223 274 320
#     4   9  18  33  53  77 106 140 179 227 275 320
#     4  11  22  38  61  89 115 143 179 221 271 325
#     4   9  18  33  53  77 106 141 181 225 272 324
#     4  10  22  37  53  77 109 144 185 226 265 320
#
# _framework density 20.361107000000001
#
# number of rings (size 3 to 8) (size 9 to 14) (size 15 to 20)
#    0.000    2.429    1.429    0.429    0.000    4.857 
#    0.000    8.571    0.000    0.000    0.000   11.000 
#    0.000    0.000    0.000    0.000    0.000    0.000 
#
# Total GULP energy -156199.965681 kJ/mol
# GULP energy per Si atom -5578.570203 kJ/mol
# Density = 2.031476 g / cm^3
# Si number density = 20.361107 Si / 1000 Ang^3
#
#
#
# Elastic Constant Matrix: (Units=GPa)
#
#
# Indices 1 2 3 4 5 6 
#
# 1 154.3667 -0.6958 122.8158 0.0000 -3.6037 0.0001
# 2 -0.6958 22.0395 9.6183 0.0000 -2.1854 0.0002
# 3 122.8158 9.6183 234.8917 0.0000 -1.2742 0.0000
# 4 0.0000 0.0000 0.0000 23.6942 0.0000 -0.3505
# 5 -3.6037 -2.1854 -1.2742 0.0000 37.3817 0.0000
# 6 0.0001 0.0002 0.0000 -0.3505 0.0000 21.8251
#
#
#
# Elastic Compliance Matrix: (Units=1/GPa)
#
#
# Indices 1 2 3 4 5 6 
#
# 1 0.011324 0.003100 -0.006042 0.000000 0.001067 0.000000
# 2 0.003100 0.047309 -0.003542 0.000000 0.002944 0.000000
# 3 -0.006042 -0.003542 0.007559 0.000000 -0.000532 0.000000
# 4 0.000000 0.000000 0.000000 0.042215 0.000000 0.000678
# 5 0.001067 0.002944 -0.000532 0.000000 0.027008 0.000000
# 6 0.000000 0.000000 0.000000 0.000678 0.000000 0.045830
#
#
# Mechanical properties :
#
#
# Convention : Reuss Voigt Hill
#
# Bulk Modulus (GPa) = 18.78884 74.97497 46.88190
# Shear Modulus (GPa) = 23.59017 35.21751 29.40384
#
# Velocity S-wave (km/s) = 3.40750 4.16341 3.80428
# Velocity P-wave (km/s) = 4.97285 7.74691 6.50937
#
# Compressibility (1/GPa) = 0.05322307
#
# Stress axis : x y z
#
# Youngs Moduli (GPa) = 88.30700 21.13781 132.29923
#
# Poissons Ratio (x) = -0.06553 0.79937
# Poissons Ratio (y) = -0.27376 0.46862
# Poissons Ratio (z) = 0.53356 0.07487
#
# Static dielectric constant tensor:
#      x y z
#    x 1.703290 0.000000 0.001330 
#    y 0.000000 1.764560 0.000000 
#    z 0.001330 0.000000 1.725850 
# 
# From -- ./inp_files/308982.got.cif
#   From: 2010.05.17/outbox.cif.g08.bks.cpg/sg12_155_cif.got.tgz:308982.got - 2010.06.03 13:09:07.
