data_PCOD9203022
_publ_section_title
;
Structure prediction by ZEFSAII (Michael W. Deem and Ramdas Pophale) SiO2 
 PCOD9203022
Probable space group: C 2/M
;
_chemical_formula_sum "Si O2"
_cell_formula_units_Z 56
_cell_length_a 19.040814
_cell_length_b 14.241653
_cell_length_c 21.875574
_cell_angle_alpha 90.000000
_cell_angle_beta 152.581546
_cell_angle_gamma 90.000000
_cell_volume 2731.627817
_symmetry_space_group_name_H-M "C 2/M"
_symmetry_group_IT_number 12
_symmetry_cell_setting 'monoclinic'
loop_
_space_group_symop_operation_xyz
x,y,z
-x,y,-z
-x,-y,-z
x,-y,z
1/2+x,1/2+y,z
1/2-x,1/2+y,-z
1/2-x,1/2-y,-z
1/2+x,1/2-y,z
loop_
_atom_site_type_symbol
_atom_site_label
_atom_site_fract_x
_atom_site_fract_y
_atom_site_fract_z
Si Si1 0.433062 0.109684 0.120692
Si Si2 0.500725 0.111726 0.684704
Si Si3 0.479816 0.275143 0.885228
Si Si4 0.582933 0.387286 0.847650
Si Si5 0.969339 0.112240 0.405992
Si Si6 0.339060 0.385740 0.559459
Si Si7 0.748403 0.231790 0.806569
O O1 0.453295 0.123129 0.208715
O O2 0.541249 0.175595 0.164862
O O3 0.455880 0.000000 0.124814
O O4 0.258479 0.138224 0.971628
O O5 0.326439 0.146626 0.546822
O O6 0.615284 0.165865 0.729355
O O7 0.506314 0.000000 0.676006
O O8 0.526910 0.346122 0.868337
O O9 0.332943 0.303969 0.810723
O O10 0.619745 0.263993 0.040621
O O11 0.578215 0.500000 0.846580
O O12 0.472415 0.354255 0.708166
O O13 0.826925 0.168665 0.268402
O O14 0.000000 0.137645 0.500000
O O15 0.111943 0.136044 0.471851
O O16 0.944607 0.000000 0.383455
O O17 0.333414 0.500000 0.557911
#
# Coordination Sequence:
#
# PCOD9203022 Si02
#       7
#     8   8   8   8   8   8   8
#     4  10  21  38  65  90 118 163 211 256 310 369
#     4  10  22  41  64  92 122 160 211 263 307 365
#     4  11  24  39  59  92 130 163 205 263 311 371
#     4  10  20  38  65  94 122 164 209 256 316 372
#     4  10  23  42  62  88 128 169 206 255 315 381
#     4   9  20  38  63  92 120 157 209 260 310 365
#     4  11  25  40  60  92 127 168 210 254 316 372
#
# _framework density 20.500596999999999
#
# number of rings (size 3 to 8) (size 9 to 14) (size 15 to 20)
#    0.000    1.857    1.429    1.286    4.000    4.571 
#    0.000    2.857    0.000    3.000    0.000    0.000 
#    0.000    0.000    0.000    0.000    0.000    0.000 
#
# Total GULP energy -156542.955658 kJ/mol
# GULP energy per Si atom -5590.819845 kJ/mol
# Density = 2.045394 g / cm^3
# Si number density = 20.500597 Si / 1000 Ang^3
#
#
#
# Elastic Constant Matrix: (Units=GPa)
#
#
# Indices 1 2 3 4 5 6 
#
# 1 131.5332 32.3822 27.6706 0.0020 -7.3240 0.0004
# 2 32.3822 53.4459 18.2881 0.0006 -3.7091 0.0000
# 3 27.6706 18.2881 85.5212 0.0003 -3.0471 -0.0002
# 4 0.0020 0.0006 0.0003 22.6282 0.0006 -2.6103
# 5 -7.3240 -3.7091 -3.0471 0.0006 21.7698 0.0002
# 6 0.0004 0.0000 -0.0002 -2.6103 0.0002 23.4001
#
#
#
# Elastic Compliance Matrix: (Units=1/GPa)
#
#
# Indices 1 2 3 4 5 6 
#
# 1 0.009310 -0.004848 -0.001903 -0.000001 0.002040 0.000000
# 2 -0.004848 0.022890 -0.003262 0.000000 0.001812 0.000000
# 3 -0.001903 -0.003262 0.013029 0.000000 0.000628 0.000000
# 4 -0.000001 0.000000 0.000000 0.044769 -0.000002 0.004994
# 5 0.002040 0.001812 0.000628 -0.000002 0.047018 -0.000001
# 6 0.000000 0.000000 0.000000 0.004994 -0.000001 0.043292
#
#
# Mechanical properties :
#
#
# Convention : Reuss Voigt Hill
#
# Bulk Modulus (GPa) = 39.67769 47.46469 43.57119
# Shear Modulus (GPa) = 23.95400 26.37026 25.16213
#
# Velocity S-wave (km/s) = 3.42197 3.59042 3.50721
# Velocity P-wave (km/s) = 5.91689 6.35541 6.14007
#
# Compressibility (1/GPa) = 0.02520308
#
# Stress axis : x y z
#
# Youngs Moduli (GPa) = 107.41005 43.68759 76.75471
#
# Poissons Ratio (x) = 0.21181 0.14606
# Poissons Ratio (y) = 0.52075 0.25034
# Poissons Ratio (z) = 0.20439 0.14249
#
# Static dielectric constant tensor:
#      x y z
#    x 1.679390 0.000000 -0.013450 
#    y 0.000000 1.744450 0.000000 
#    z -0.013450 0.000000 1.701400 
# 
# From -- ./inp_files/316774.got.cif
#   From: 2010.05.17/outbox.cif.g08.bks.cpg/sg12_159_cif.got.tgz:316774.got - 2010.06.03 13:09:07.
