data_PCOD9203580
_publ_section_title
;
Structure prediction by ZEFSAII (Michael W. Deem and Ramdas Pophale) SiO2 
 PCOD9203580
Probable space group: C 2/M
;
_chemical_formula_sum "Si O2"
_cell_formula_units_Z 52
_cell_length_a 8.504739
_cell_length_b 17.914688
_cell_length_c 20.409519
_cell_angle_alpha 90.000000
_cell_angle_beta 126.439925
_cell_angle_gamma 90.000000
_cell_volume 2501.602552
_symmetry_space_group_name_H-M "C 2/M"
_symmetry_group_IT_number 12
_symmetry_cell_setting 'monoclinic'
loop_
_space_group_symop_operation_xyz
x,y,z
-x,y,-z
-x,-y,-z
x,-y,z
1/2+x,1/2+y,z
1/2-x,1/2+y,-z
1/2-x,1/2-y,-z
1/2+x,1/2-y,z
loop_
_atom_site_type_symbol
_atom_site_label
_atom_site_fract_x
_atom_site_fract_y
_atom_site_fract_z
Si Si1 0.784905 0.162946 0.415963
Si Si2 0.165181 0.656268 0.915953
Si Si3 0.910555 0.000000 0.274617
Si Si4 0.552865 0.648366 0.252439
Si Si5 0.414483 0.751791 0.327876
Si Si6 0.976543 0.500000 0.913109
Si Si7 0.691059 0.500000 0.594996
Si Si8 0.990398 0.188137 0.896024
O O1 0.625009 0.219420 0.404571
O O2 0.821143 0.189443 0.350880
O O3 0.000000 0.166445 0.500000
O O4 0.708775 0.078316 0.397254
O O5 0.008487 0.723532 0.883664
O O6 0.285767 0.664540 0.878130
O O7 0.077459 0.575680 0.910547
O O8 0.334593 0.671989 0.010893
O O9 0.732767 0.000000 0.177228
O O10 0.033755 0.073891 0.289130
O O11 0.852547 0.000000 0.337408
O O12 0.446592 0.713803 0.266205
O O13 0.770827 0.678266 0.294215
O O14 0.466456 0.642127 0.158800
O O15 0.000000 0.500000 0.000000
O O16 0.500000 0.500000 0.500000
#
# Coordination Sequence:
#
# PCOD9203580 Si02
#       8
#     8   8   4   8   8   4   4   8
#     4  10  20  39  64  91 127 165 209 259 322 384
#     4  10  24  41  64  93 127 170 224 262 328 381
#     4  12  26  42  65  95 132 177 210 279 335 387
#     4  11  23  40  62  92 129 164 216 265 329 381
#     4  10  22  37  63  94 123 165 214 266 311 395
#     4  12  28  42  66 102 136 173 218 275 331 389
#     4  10  22  41  65  89 131 168 213 259 329 388
#     4  10  22  40  66  90 126 172 217 271 316 387
#
# _framework density 20.786674999999999
#
# number of rings (size 3 to 8) (size 9 to 14) (size 15 to 20)
#    0.000    1.538    1.538    2.308    8.615    3.692 
#    0.000    0.000    0.000    1.846    0.000    0.000 
#    0.000    0.000    0.000    0.000    0.000    0.000 
#
# Total GULP energy -145060.085188 kJ/mol
# GULP energy per Si atom -5579.234046 kJ/mol
# Density = 2.073936 g / cm^3
# Si number density = 20.786675 Si / 1000 Ang^3
#
#
#
# Elastic Constant Matrix: (Units=GPa)
#
#
# Indices 1 2 3 4 5 6 
#
# 1 81.5244 35.4951 16.4715 0.0000 1.5420 0.0000
# 2 35.4951 108.4140 -5.4478 0.0000 3.0926 0.0000
# 3 16.4715 -5.4478 60.6405 0.0000 -10.2614 0.0000
# 4 0.0000 0.0000 0.0000 13.8389 0.0000 -11.1621
# 5 1.5420 3.0926 -10.2614 0.0000 29.1730 0.0000
# 6 0.0000 0.0000 0.0000 -11.1621 0.0000 23.2493
#
#
#
# Elastic Compliance Matrix: (Units=1/GPa)
#
#
# Indices 1 2 3 4 5 6 
#
# 1 0.015646 -0.005319 -0.005074 0.000000 -0.002048 0.000000
# 2 -0.005319 0.011089 0.002435 0.000000 -0.000038 0.000000
# 3 -0.005074 0.002435 0.019234 0.000000 0.006776 0.000000
# 4 0.000000 0.000000 0.000000 0.117925 0.000000 0.056617
# 5 -0.002048 -0.000038 0.006776 0.000000 0.036774 0.000000
# 6 0.000000 0.000000 0.000000 0.056617 0.000000 0.070194
#
#
# Mechanical properties :
#
#
# Convention : Reuss Voigt Hill
#
# Bulk Modulus (GPa) = 33.27632 38.17963 35.72797
# Shear Modulus (GPa) = 16.84650 26.85625 21.85138
#
# Velocity S-wave (km/s) = 2.84992 3.59833 3.24577
# Velocity P-wave (km/s) = 5.18388 5.97254 5.59213
#
# Compressibility (1/GPa) = 0.03005140
#
# Stress axis : x y z
#
# Youngs Moduli (GPa) = 63.91340 90.18083 51.99069
#
# Poissons Ratio (x) = 0.47969 0.26382
# Poissons Ratio (y) = 0.33997 -0.12658
# Poissons Ratio (z) = 0.32432 -0.21955
#
# Static dielectric constant tensor:
#      x y z
#    x 1.735940 0.000000 -0.011810 
#    y 0.000000 1.731740 0.000000 
#    z -0.011810 0.000000 1.839400 
# 
# From -- ./inp_files/301220.got.cif
#   From: 2010.05.17/outbox.cif.g08.bks.cpg/sg12_151_cif.got.tgz:301220.got - 2010.06.03 13:09:07.
