data_PCOD9203731
_publ_section_title
;
Structure prediction by ZEFSAII (Michael W. Deem and Ramdas Pophale) SiO2 
 PCOD9203731
Probable space group: C 2/M
;
_chemical_formula_sum "Si O2"
_cell_formula_units_Z 56
_cell_length_a 14.465463
_cell_length_b 13.864181
_cell_length_c 12.846647
_cell_angle_alpha 90.000000
_cell_angle_beta 94.273248
_cell_angle_gamma 90.000000
_cell_volume 2569.255788
_symmetry_space_group_name_H-M "C 2/M"
_symmetry_group_IT_number 12
_symmetry_cell_setting 'monoclinic'
loop_
_space_group_symop_operation_xyz
x,y,z
-x,y,-z
-x,-y,-z
x,-y,z
1/2+x,1/2+y,z
1/2-x,1/2+y,-z
1/2-x,1/2-y,-z
1/2+x,1/2-y,z
loop_
_atom_site_type_symbol
_atom_site_label
_atom_site_fract_x
_atom_site_fract_y
_atom_site_fract_z
Si Si1 0.133690 0.231405 0.588047
Si Si2 0.719041 0.617553 0.974120
Si Si3 0.148760 0.749316 0.357143
Si Si4 0.897332 0.887170 0.835306
Si Si5 0.080740 0.382437 0.929517
Si Si6 0.600878 0.612563 0.780777
Si Si7 0.477084 0.115111 0.309902
O O1 0.117118 0.208326 0.466353
O O2 0.243570 0.223629 0.618437
O O3 0.087030 0.164561 0.670606
O O4 0.091426 0.336445 0.611596
O O5 0.720339 0.500000 0.967600
O O6 0.684795 0.651367 0.858489
O O7 0.647114 0.641196 0.059239
O O8 0.820152 0.649259 0.018779
O O9 0.140351 0.823484 0.262088
O O10 0.079407 0.660560 0.329418
O O11 0.008135 0.878868 0.841369
O O12 0.873999 0.000000 0.815764
O O13 0.080734 0.500000 0.931526
O O14 0.060850 0.356654 0.808264
O O15 0.000000 0.349184 0.000000
O O16 0.616831 0.500000 0.761263
O O17 0.478978 0.000000 0.318737
#
# Coordination Sequence:
#
# PCOD9203731 Si02
#       7
#     8   8   8   8   8   8   8
#     4  11  25  44  63  95 130 168 220 276 328 389
#     4   9  18  35  62  95 130 164 210 264 313 388
#     4  11  25  43  65  94 132 165 218 283 326 383
#     4  10  20  39  66  94 125 167 208 256 326 390
#     4   9  19  36  59  90 127 167 210 261 317 377
#     4  10  21  38  65  96 130 169 208 258 326 393
#     4  11  24  45  70  94 130 178 224 270 330 397
#
# _framework density 21.796195000000001
#
# number of rings (size 3 to 8) (size 9 to 14) (size 15 to 20)
#    0.000    1.857    1.429    1.714    2.000    5.714 
#    2.571    5.714    0.000    0.000    0.000    0.000 
#    0.000    0.000    0.000    0.000    0.000    0.000 
#
# Total GULP energy -156639.709072 kJ/mol
# GULP energy per Si atom -5594.275324 kJ/mol
# Density = 2.174659 g / cm^3
# Si number density = 21.796195 Si / 1000 Ang^3
#
#
#
# Elastic Constant Matrix: (Units=GPa)
#
#
# Indices 1 2 3 4 5 6 
#
# 1 69.5748 16.7238 12.7768 0.0000 8.2033 0.0000
# 2 16.7238 77.2970 28.0712 0.0000 8.4589 0.0000
# 3 12.7768 28.0712 105.2704 0.0000 3.9905 0.0000
# 4 0.0000 0.0000 0.0000 23.9404 0.0000 -0.0924
# 5 8.2033 8.4589 3.9905 0.0000 40.6010 0.0000
# 6 0.0000 0.0000 0.0000 -0.0924 0.0000 19.7117
#
#
#
# Elastic Compliance Matrix: (Units=1/GPa)
#
#
# Indices 1 2 3 4 5 6 
#
# 1 0.015509 -0.002697 -0.001070 0.000000 -0.002466 0.000000
# 2 -0.002697 0.015076 -0.003608 0.000000 -0.002241 0.000000
# 3 -0.001070 -0.003608 0.010594 0.000000 -0.000073 0.000000
# 4 0.000000 0.000000 0.000000 0.041771 0.000000 0.000196
# 5 -0.002466 -0.002241 -0.000073 0.000000 0.025602 0.000000
# 6 0.000000 0.000000 0.000000 0.000196 0.000000 0.050732
#
#
# Mechanical properties :
#
#
# Convention : Reuss Voigt Hill
#
# Bulk Modulus (GPa) = 37.83623 40.80953 39.32288
# Shear Modulus (GPa) = 27.34579 29.82199 28.58389
#
# Velocity S-wave (km/s) = 3.54589 3.70296 3.62528
# Velocity P-wave (km/s) = 5.84476 6.08658 5.96690
#
# Compressibility (1/GPa) = 0.02642969
#
# Stress axis : x y z
#
# Youngs Moduli (GPa) = 64.48058 66.32979 94.39288
#
# Poissons Ratio (x) = 0.17889 0.10096
# Poissons Ratio (y) = 0.17391 0.34056
# Poissons Ratio (z) = 0.06897 0.23931
#
# Static dielectric constant tensor:
#      x y z
#    x 1.802100 0.000000 0.003220 
#    y 0.000000 1.821420 0.000000 
#    z 0.003220 0.000000 1.757760 
# 
# From -- ./inp_files/143766.got.cif
#   From: 2010.05.17/outbox.cif.g08.bks.cpg/sg12_72_cif.got.tgz:143766.got - 2010.06.03 13:09:07.
