data_PCOD9203768
_publ_section_title
;
Structure prediction by ZEFSAII (Michael W. Deem and Ramdas Pophale) SiO2 
 PCOD9203768
Probable space group: C 2/M
;
_chemical_formula_sum "Si O2"
_cell_formula_units_Z 40
_cell_length_a 16.121751
_cell_length_b 26.635057
_cell_length_c 5.346638
_cell_angle_alpha 90.000000
_cell_angle_beta 50.562985
_cell_angle_gamma 90.000000
_cell_volume 1773.151274
_symmetry_space_group_name_H-M "C 2/M"
_symmetry_group_IT_number 12
_symmetry_cell_setting 'monoclinic'
loop_
_space_group_symop_operation_xyz
x,y,z
-x,y,-z
-x,-y,-z
x,-y,z
1/2+x,1/2+y,z
1/2-x,1/2+y,-z
1/2-x,1/2-y,-z
1/2+x,1/2-y,z
loop_
_atom_site_type_symbol
_atom_site_label
_atom_site_fract_x
_atom_site_fract_y
_atom_site_fract_z
Si Si1 0.738766 0.807187 0.442660
Si Si2 0.145325 0.885631 0.481045
Si Si3 0.465977 0.300860 0.811289
Si Si4 0.069916 0.619707 0.616019
Si Si5 0.709974 0.440342 0.850019
O O1 0.750000 0.750000 0.500000
O O2 0.762068 0.844277 0.632354
O O3 0.631211 0.826919 0.525067
O O4 0.841431 0.814208 0.063157
O O5 0.148237 0.921087 0.719780
O O6 0.040128 0.850742 0.669225
O O7 0.164740 0.916515 0.193066
O O8 0.500000 0.272071 0.500000
O O9 0.500000 0.273716 0.000000
O O10 0.168011 0.579948 0.412639
O O11 0.000000 0.617034 0.500000
O O12 0.000000 0.611525 0.000000
O O13 0.706458 0.500000 0.870818
#
# Coordination Sequence:
#
# PCOD9203768 Si02
#       5
#     8   8   8   8   8
#     4  10  23  44  69  99 134 179 224 266 323 391
#     4  10  21  41  66  98 133 165 211 274 333 389
#     4  10  20  39  67  92 126 171 209 260 328 388
#     4  11  24  43  65  95 135 172 218 276 323 382
#     4  11  23  43  71  98 128 171 222 272 330 397
#
# _framework density 22.558705
#
# number of rings (size 3 to 8) (size 9 to 14) (size 15 to 20)
#    0.000    1.600    0.000    6.600    0.000    4.800 
#    0.000   34.000    0.000   84.000    0.000    0.000 
#    0.000    0.000    0.000    0.000    0.000    0.000 
#
# Total GULP energy -111844.875769 kJ/mol
# GULP energy per Si atom -5592.243788 kJ/mol
# Density = 2.250736 g / cm^3
# Si number density = 22.558705 Si / 1000 Ang^3
#
#
#
# Elastic Constant Matrix: (Units=GPa)
#
#
# Indices 1 2 3 4 5 6 
#
# 1 111.8868 25.9358 50.7070 0.0000 23.5665 0.0000
# 2 25.9358 160.5754 28.3201 0.0000 14.6699 0.0000
# 3 50.7070 28.3201 152.0394 0.0000 25.2592 0.0000
# 4 0.0000 0.0000 0.0000 23.9304 0.0000 1.2384
# 5 23.5665 14.6699 25.2592 0.0000 52.0177 0.0000
# 6 0.0000 0.0000 0.0000 1.2384 0.0000 18.9387
#
#
#
# Elastic Compliance Matrix: (Units=1/GPa)
#
#
# Indices 1 2 3 4 5 6 
#
# 1 0.011233 -0.000978 -0.003007 0.000000 -0.003353 0.000000
# 2 -0.000978 0.006611 -0.000728 0.000000 -0.001068 0.000000
# 3 -0.003007 -0.000728 0.008110 0.000000 -0.002370 0.000000
# 4 0.000000 0.000000 0.000000 0.041930 0.000000 -0.002742
# 5 -0.003353 -0.001068 -0.002370 0.000000 0.022196 0.000000
# 6 0.000000 0.000000 0.000000 -0.002742 0.000000 0.052981
#
#
# Mechanical properties :
#
#
# Convention : Reuss Voigt Hill
#
# Bulk Modulus (GPa) = 60.50116 70.49193 65.49655
# Shear Modulus (GPa) = 31.64625 40.27992 35.96309
#
# Velocity S-wave (km/s) = 3.74951 4.23017 3.99707
# Velocity P-wave (km/s) = 6.75446 7.42800 7.09923
#
# Compressibility (1/GPa) = 0.01652861
#
# Stress axis : x y z
#
# Youngs Moduli (GPa) = 89.02012 151.25180 123.31096
#
# Poissons Ratio (x) = 0.14787 0.37083
# Poissons Ratio (y) = 0.08703 0.08977
# Poissons Ratio (z) = 0.26771 0.11011
#
# Static dielectric constant tensor:
#      x y z
#    x 1.891800 0.000000 0.038770 
#    y 0.000000 1.821120 0.000000 
#    z 0.038770 0.000000 1.922280 
# 
# From -- ./inp_files/17291.got.cif
#   From: 2010.05.17/outbox.cif.g08.bks.cpg/sg12_9_cif.got.tgz:17291.got - 2010.06.03 13:09:07.
