data_PCOD9203175
_publ_section_title
;
Structure prediction by ZEFSAII (Michael W. Deem and Ramdas Pophale) SiO2 
 PCOD9203175
Probable space group: C 2/M
;
_chemical_formula_sum "Si O2"
_cell_formula_units_Z 52
_cell_length_a 19.750652
_cell_length_b 24.153308
_cell_length_c 9.081127
_cell_angle_alpha 90.000000
_cell_angle_beta 143.781806
_cell_angle_gamma 90.000000
_cell_volume 2559.668835
_symmetry_space_group_name_H-M "C 2/M"
_symmetry_group_IT_number 12
_symmetry_cell_setting 'monoclinic'
loop_
_space_group_symop_operation_xyz
x,y,z
-x,y,-z
-x,-y,-z
x,-y,z
1/2+x,1/2+y,z
1/2-x,1/2+y,-z
1/2-x,1/2-y,-z
1/2+x,1/2-y,z
loop_
_atom_site_type_symbol
_atom_site_label
_atom_site_fract_x
_atom_site_fract_y
_atom_site_fract_z
Si Si1 0.384934 0.851758 0.595392
Si Si2 0.447389 0.237969 0.253604
Si Si3 0.950275 0.565306 0.247237
Si Si4 0.643280 0.647619 0.002204
Si Si5 0.500000 0.635625 0.000000
Si Si6 0.776426 0.190806 0.473456
Si Si7 0.247240 0.348412 0.100607
O O1 0.463469 0.800422 0.679509
O O2 0.457969 0.906528 0.699205
O O3 0.335256 0.843760 0.671036
O O4 0.270504 0.854145 0.294346
O O5 0.500000 0.257202 0.500000
O O6 0.404443 0.289369 0.082471
O O7 0.341531 0.198404 0.112255
O O8 0.939018 0.500000 0.209491
O O9 0.000000 0.576489 0.500000
O O10 0.831776 0.597773 0.015849
O O11 0.558760 0.610553 0.955105
O O12 0.659650 0.636234 0.858260
O O13 0.392016 0.669264 0.749765
O O14 0.750000 0.250000 0.500000
O O15 0.791231 0.180202 0.326940
#
# Coordination Sequence:
#
# PCOD9203175 Si02
#       7
#     8   8   8   8   4   8   8
#     4  10  20  39  53  81 125 158 194 252 305 360
#     4  11  21  30  51  79 116 157 199 236 292 365
#     4  10  20  39  67  96 120 154 203 262 323 365
#     4  11  21  34  54  77 116 158 209 243 295 365
#     4  10  24  38  50  78 111 158 203 242 288 356
#     4  11  24  38  55  83 127 168 201 242 299 360
#     4  11  21  37  57  87 114 159 201 252 299 369
#
# _framework density 20.315128000000001
#
# number of rings (size 3 to 8) (size 9 to 14) (size 15 to 20)
#    0.000    1.385    3.077    4.154    4.308    3.692 
#    0.000    1.538    0.000    0.000    0.000   20.462 
#    0.000    0.000    0.000    0.000    0.000    0.000 
#
# Total GULP energy -145113.982572 kJ/mol
# GULP energy per Si atom -5581.307022 kJ/mol
# Density = 2.026889 g / cm^3
# Si number density = 20.315128 Si / 1000 Ang^3
#
#
#
# Elastic Constant Matrix: (Units=GPa)
#
#
# Indices 1 2 3 4 5 6 
#
# 1 168.4904 17.1870 23.3961 0.0000 -0.2353 0.0000
# 2 17.1870 65.1577 15.8592 0.0000 3.2338 0.0000
# 3 23.3961 15.8592 64.9840 0.0000 -6.2634 0.0000
# 4 0.0000 0.0000 0.0000 16.3124 0.0000 -3.1449
# 5 -0.2353 3.2338 -6.2634 0.0000 32.2692 0.0000
# 6 0.0000 0.0000 0.0000 -3.1449 0.0000 9.3077
#
#
#
# Elastic Compliance Matrix: (Units=1/GPa)
#
#
# Indices 1 2 3 4 5 6 
#
# 1 0.006334 -0.001168 -0.002017 0.000000 -0.000228 0.000000
# 2 -0.001168 0.016725 -0.003896 0.000000 -0.002441 0.000000
# 3 -0.002017 -0.003896 0.017428 0.000000 0.003758 0.000000
# 4 0.000000 0.000000 0.000000 0.065575 0.000000 0.022157
# 5 -0.000228 -0.002441 0.003758 0.000000 0.031962 0.000000
# 6 0.000000 0.000000 0.000000 0.022157 0.000000 0.114924
#
#
# Mechanical properties :
#
#
# Convention : Reuss Voigt Hill
#
# Bulk Modulus (GPa) = 37.98974 45.72406 41.85690
# Shear Modulus (GPa) = 18.12342 27.72384 22.92363
#
# Velocity S-wave (km/s) = 2.99007 3.69818 3.36281
# Velocity P-wave (km/s) = 5.53728 6.38683 5.97717
#
# Compressibility (1/GPa) = 0.02632289
#
# Stress axis : x y z
#
# Youngs Moduli (GPa) = 157.87712 59.79041 57.37948
#
# Poissons Ratio (x) = 0.06986 0.11575
# Poissons Ratio (y) = 0.18447 0.22357
# Poissons Ratio (z) = 0.31848 0.23296
#
# Static dielectric constant tensor:
#      x y z
#    x 1.848950 0.000000 -0.042000 
#    y 0.000000 1.684610 0.000000 
#    z -0.042000 0.000000 1.769910 
# 
# From -- ./inp_files/79895.got.cif
#   From: 2010.05.17/outbox.cif.g08.bks.cpg/sg12_40_cif.got.tgz:79895.got - 2010.06.03 13:09:07.
