data_PCOD9203261
_publ_section_title
;
Structure prediction by ZEFSAII (Michael W. Deem and Ramdas Pophale) SiO2 
 PCOD9203261
Probable space group: C 2/M
;
_chemical_formula_sum "Si O2"
_cell_formula_units_Z 56
_cell_length_a 24.607521
_cell_length_b 22.577556
_cell_length_c 7.703488
_cell_angle_alpha 90.000000
_cell_angle_beta 42.735229
_cell_angle_gamma 90.000000
_cell_volume 2904.379496
_symmetry_space_group_name_H-M "C 2/M"
_symmetry_group_IT_number 12
_symmetry_cell_setting 'monoclinic'
loop_
_space_group_symop_operation_xyz
x,y,z
-x,y,-z
-x,-y,-z
x,-y,z
1/2+x,1/2+y,z
1/2-x,1/2+y,-z
1/2-x,1/2-y,-z
1/2+x,1/2-y,z
loop_
_atom_site_type_symbol
_atom_site_label
_atom_site_fract_x
_atom_site_fract_y
_atom_site_fract_z
Si Si1 0.000000 0.386922 0.500000
Si Si2 0.360248 0.194774 0.700650
Si Si3 0.066762 0.433756 0.992917
Si Si4 0.670349 0.826921 0.621979
Si Si5 0.179660 0.823068 0.240001
Si Si6 0.000000 0.879125 0.000000
Si Si7 0.156030 0.193970 0.706048
Si Si8 0.067787 0.932269 0.488769
O O1 0.075196 0.344543 0.356526
O O2 0.022016 0.424713 0.279962
O O3 0.367863 0.181248 0.478021
O O4 0.366769 0.265018 0.720594
O O5 0.270288 0.178248 0.964745
O O6 0.101798 0.500000 0.901897
O O7 0.131736 0.382442 0.808720
O O8 0.000000 0.428260 0.000000
O O9 0.766735 0.832100 0.376818
O O10 0.653067 0.763866 0.755913
O O11 0.179360 0.813410 0.448306
O O12 0.135519 0.883401 0.297453
O O13 0.070956 0.838553 0.915065
O O14 0.033686 0.917253 0.760777
O O15 0.000000 0.926325 0.500000
O O16 0.096862 0.000000 0.416826
#
# Coordination Sequence:
#
# PCOD9203261 Si02
#       8
#     4   8   8   8   8   4   8   8
#     4  12  23  40  64  90 117 158 200 258 300 354
#     4  10  21  36  62  91 122 154 200 247 308 348
#     4  11  24  42  61  87 123 160 203 248 295 363
#     4  10  20  39  60  89 124 159 193 249 297 362
#     4   9  20  39  55  90 124 156 199 245 296 363
#     4  10  21  38  62  88 115 154 200 248 294 346
#     4   9  20  36  62  89 123 154 195 249 307 344
#     4  10  22  39  59  86 120 159 199 241 288 350
#
# _framework density 19.281226
#
# number of rings (size 3 to 8) (size 9 to 14) (size 15 to 20)
#    0.000    2.000    1.429    1.286    4.000    2.286 
#    0.000    8.571    0.000    0.000    0.000    0.000 
#    0.000    0.000    0.000    0.000    0.000    0.000 
#
# Total GULP energy -156342.531061 kJ/mol
# GULP energy per Si atom -5583.661824 kJ/mol
# Density = 1.923734 g / cm^3
# Si number density = 19.281226 Si / 1000 Ang^3
#
#
#
# Elastic Constant Matrix: (Units=GPa)
#
#
# Indices 1 2 3 4 5 6 
#
# 1 69.7380 47.1794 6.0956 0.0000 -1.0932 0.0000
# 2 47.1794 170.0207 55.7726 0.0000 -15.3993 0.0000
# 3 6.0956 55.7726 60.2447 0.0000 4.3520 0.0000
# 4 0.0000 0.0000 0.0000 37.0036 0.0000 1.7740
# 5 -1.0932 -15.3993 4.3520 0.0000 18.5357 0.0000
# 6 0.0000 0.0000 0.0000 1.7740 0.0000 25.3562
#
#
#
# Elastic Compliance Matrix: (Units=1/GPa)
#
#
# Indices 1 2 3 4 5 6 
#
# 1 0.018978 -0.007753 0.005739 0.000000 -0.006669 0.000000
# 2 -0.007753 0.013405 -0.012611 0.000000 0.013641 0.000000
# 3 0.005739 -0.012611 0.028916 0.000000 -0.016928 0.000000
# 4 0.000000 0.000000 0.000000 0.027115 0.000000 -0.001897
# 5 -0.006669 0.013641 -0.016928 0.000000 0.068864 0.000000
# 6 0.000000 0.000000 0.000000 -0.001897 0.000000 0.039571
#
#
# Mechanical properties :
#
#
# Convention : Reuss Voigt Hill
#
# Bulk Modulus (GPa) = 31.20178 57.56652 44.38415
# Shear Modulus (GPa) = 21.11632 28.90948 25.01290
#
# Velocity S-wave (km/s) = 3.31293 3.87636 3.60567
# Velocity P-wave (km/s) = 5.55442 7.06795 6.35640
#
# Compressibility (1/GPa) = 0.03204946
#
# Stress axis : x y z
#
# Youngs Moduli (GPa) = 52.69187 74.59661 34.58263
#
# Poissons Ratio (x) = 0.57834 -0.19847
# Poissons Ratio (y) = 0.40852 0.43613
# Poissons Ratio (z) = -0.30240 0.94076
#
# Static dielectric constant tensor:
#      x y z
#    x 1.679310 0.000000 0.024470 
#    y 0.000000 1.660080 0.000000 
#    z 0.024470 0.000000 1.669740 
# 
# From -- ./inp_files/106010.got.cif
#   From: 2010.05.17/outbox.cif.g08.bks.cpg/sg12_54_cif.got.tgz:106010.got - 2010.06.03 13:09:07.
