data_PCOD9203661
_publ_section_title
;
Structure prediction by ZEFSAII (Michael W. Deem and Ramdas Pophale) SiO2 
 PCOD9203661
Probable space group: C 2/M
;
_chemical_formula_sum "Si O2"
_cell_formula_units_Z 48
_cell_length_a 30.222409
_cell_length_b 14.222857
_cell_length_c 9.488591
_cell_angle_alpha 90.000000
_cell_angle_beta 144.992908
_cell_angle_gamma 90.000000
_cell_volume 2339.837584
_symmetry_space_group_name_H-M "C 2/M"
_symmetry_group_IT_number 12
_symmetry_cell_setting 'monoclinic'
loop_
_space_group_symop_operation_xyz
x,y,z
-x,y,-z
-x,-y,-z
x,-y,z
1/2+x,1/2+y,z
1/2-x,1/2+y,-z
1/2-x,1/2-y,-z
1/2+x,1/2-y,z
loop_
_atom_site_type_symbol
_atom_site_label
_atom_site_fract_x
_atom_site_fract_y
_atom_site_fract_z
Si Si1 0.589782 0.397498 0.771759
Si Si2 0.113662 0.898906 0.170700
Si Si3 0.680840 0.216014 0.917416
Si Si4 0.040283 0.393614 0.453292
Si Si5 0.058047 0.690614 0.034016
Si Si6 0.219907 0.658615 0.339330
O O1 0.500000 0.394065 0.500000
O O2 0.619668 0.500000 0.800966
O O3 0.630150 0.308743 0.809772
O O4 0.603600 0.393087 0.975467
O O5 0.204005 0.903152 0.445746
O O6 0.079223 0.000000 0.126016
O O7 0.079837 0.798322 0.132613
O O8 0.627824 0.138893 0.702669
O O9 0.750000 0.250000 0.000000
O O10 0.704394 0.178927 0.134196
O O11 0.034870 0.500000 0.380796
O O12 0.000000 0.394772 0.500000
O O13 0.993380 0.318239 0.239875
O O14 0.138165 0.637527 0.203310
O O15 0.000000 0.650966 0.000000
O O16 0.250000 0.750000 0.500000
#
# Coordination Sequence:
#
# PCOD9203661 Si02
#       6
#     8   8   8   8   8   8
#     4  10  20  39  65  91 123 168 212 255 312 378
#     4  10  21  39  66  94 128 170 210 256 313 379
#     4  12  24  39  68  93 129 166 208 264 318 374
#     4  11  24  44  67  92 125 169 217 267 317 372
#     4  11  23  40  69  92 130 166 212 262 319 377
#     4  10  21  41  59  91 128 170 209 249 314 377
#
# _framework density 20.514244000000001
#
# number of rings (size 3 to 8) (size 9 to 14) (size 15 to 20)
#    0.000    1.333    5.000    1.500    4.667    2.667 
#    0.000    1.667    0.000    0.000    0.000    0.000 
#    0.000    0.000    0.000    0.000    0.000    0.000 
#
# Total GULP energy -133801.573567 kJ/mol
# GULP energy per Si atom -5575.065565 kJ/mol
# Density = 2.046755 g / cm^3
# Si number density = 20.514244 Si / 1000 Ang^3
#
#
#
# Elastic Constant Matrix: (Units=GPa)
#
#
# Indices 1 2 3 4 5 6 
#
# 1 102.2681 8.4730 39.7597 0.0000 25.1098 0.0000
# 2 8.4730 75.7448 26.3173 0.0000 11.1957 0.0000
# 3 39.7597 26.3173 133.2377 0.0000 14.8044 0.0000
# 4 0.0000 0.0000 0.0000 45.7974 0.0000 -13.0273
# 5 25.1098 11.1957 14.8044 0.0000 21.7100 0.0000
# 6 0.0000 0.0000 0.0000 -13.0273 0.0000 -1.3188
#
#
#
# Elastic Compliance Matrix: (Units=1/GPa)
#
#
# Indices 1 2 3 4 5 6 
#
# 1 0.014677 0.001729 -0.002960 0.000000 -0.015849 0.000000
# 2 0.001729 0.015099 -0.002609 0.000000 -0.008008 0.000000
# 3 -0.002960 -0.002609 0.009061 0.000000 -0.001409 0.000000
# 4 0.000000 0.000000 0.000000 0.005731 0.000000 -0.056614
# 5 -0.015849 -0.008008 -0.001409 0.000000 0.069483 0.000000
# 6 0.000000 0.000000 0.000000 -0.056614 0.000000 -0.199025
#
#
# Mechanical properties :
#
#
# Convention : Reuss Voigt Hill
#
# Bulk Modulus (GPa) = 32.09540 51.15008 41.62274
# Shear Modulus (GPa) = -74.72867 29.01775 -22.85546
#
# Velocity S-wave (km/s) = -6.04208 3.76509 -3.34147
# Velocity P-wave (km/s) = 5.74424 6.62490 2.33377
#
# Compressibility (1/GPa) = 0.03115711
#
# Stress axis : x y z
#
# Youngs Moduli (GPa) = 68.13275 66.23079 110.36716
#
# Poissons Ratio (x) = -0.11453 0.32674
# Poissons Ratio (y) = -0.11782 0.28791
# Poissons Ratio (z) = 0.20170 0.17277
#
# Static dielectric constant tensor:
#      x y z
#    x 1.627150 0.000000 0.052400 
#    y 0.000000 1.773070 0.000000 
#    z 0.052400 0.000000 1.714810 
# 
# From -- ./inp_files/105028.got.cif
#   From: 2010.05.17/outbox.cif.g08.bks.cpg/sg12_53_cif.got.tgz:105028.got - 2010.06.03 13:09:07.
