data_PCOD9203837
_publ_section_title
;
Structure prediction by ZEFSAII (Michael W. Deem and Ramdas Pophale) SiO2 
 PCOD9203837
Probable space group: C 2/M
;
_chemical_formula_sum "Si O2"
_cell_formula_units_Z 48
_cell_length_a 9.338331
_cell_length_b 27.677206
_cell_length_c 14.323363
_cell_angle_alpha 90.000000
_cell_angle_beta 141.550395
_cell_angle_gamma 90.000000
_cell_volume 2302.000520
_symmetry_space_group_name_H-M "C 2/M"
_symmetry_group_IT_number 12
_symmetry_cell_setting 'monoclinic'
loop_
_space_group_symop_operation_xyz
x,y,z
-x,y,-z
-x,-y,-z
x,-y,z
1/2+x,1/2+y,z
1/2-x,1/2+y,-z
1/2-x,1/2-y,-z
1/2+x,1/2-y,z
loop_
_atom_site_type_symbol
_atom_site_label
_atom_site_fract_x
_atom_site_fract_y
_atom_site_fract_z
Si Si1 0.538981 0.844369 0.631131
Si Si2 0.122378 0.447495 0.661001
Si Si3 0.379960 0.444826 0.040183
Si Si4 0.728048 0.793855 0.351146
Si Si5 0.426623 0.853952 0.069464
Si Si6 0.489546 0.711651 0.888244
O O1 0.500000 0.842201 0.500000
O O2 0.513899 0.899890 0.651139
O O3 0.377241 0.806874 0.602071
O O4 0.797178 0.829975 0.790989
O O5 0.101957 0.500000 0.698875
O O6 0.393157 0.438751 0.779943
O O7 0.000000 0.451123 0.500000
O O8 0.296108 0.500000 0.007916
O O9 0.500000 0.439706 0.000000
O O10 0.192338 0.404154 0.962019
O O11 0.644610 0.838191 0.242972
O O12 0.608373 0.748383 0.239060
O O13 0.000000 0.787859 0.500000
O O14 0.500000 0.855930 0.000000
O O15 0.231314 0.812525 0.985352
O O16 0.500000 0.731549 0.000000
#
# Coordination Sequence:
#
# PCOD9203837 Si02
#       6
#     8   8   8   8   8   8
#     4  11  24  42  71  96 135 176 221 281 330 407
#     4   9  18  35  64 100 131 167 218 270 323 391
#     4  10  20  39  69  99 131 175 227 274 332 408
#     4  12  29  46  65  97 135 174 226 280 346 400
#     4  12  26  43  67  98 138 174 222 285 343 396
#     4  12  25  48  70  93 128 179 231 279 335 401
#
# _framework density 20.851431000000002
#
# number of rings (size 3 to 8) (size 9 to 14) (size 15 to 20)
#    0.000    1.000    3.333    3.000    4.667    1.667 
#    0.000    0.000    0.000    2.000    0.000    0.000 
#    0.000    0.000    0.000    0.000    0.000    0.000 
#
# Total GULP energy -134104.632056 kJ/mol
# GULP energy per Si atom -5587.693002 kJ/mol
# Density = 2.080397 g / cm^3
# Si number density = 20.851431 Si / 1000 Ang^3
#
#
#
# Elastic Constant Matrix: (Units=GPa)
#
#
# Indices 1 2 3 4 5 6 
#
# 1 112.0403 56.2579 32.6223 0.0000 -7.8731 0.0000
# 2 56.2579 163.8057 45.1180 0.0000 1.4301 0.0000
# 3 32.6223 45.1180 127.7074 0.0000 1.8965 0.0000
# 4 0.0000 0.0000 0.0000 22.1946 0.0000 1.6612
# 5 -7.8731 1.4301 1.8965 0.0000 32.9630 0.0000
# 6 0.0000 0.0000 0.0000 1.6612 0.0000 15.9004
#
#
#
# Elastic Compliance Matrix: (Units=1/GPa)
#
#
# Indices 1 2 3 4 5 6 
#
# 1 0.011372 -0.003456 -0.001728 0.000000 0.002966 0.000000
# 2 -0.003456 0.007814 -0.001862 0.000000 -0.001057 0.000000
# 3 -0.001728 -0.001862 0.008942 0.000000 -0.000846 0.000000
# 4 0.000000 0.000000 0.000000 0.045411 0.000000 -0.004744
# 5 0.002966 -0.001057 -0.000846 0.000000 0.031140 0.000000
# 6 0.000000 0.000000 0.000000 -0.004744 0.000000 0.063387
#
#
# Mechanical properties :
#
#
# Convention : Reuss Voigt Hill
#
# Bulk Modulus (GPa) = 71.24335 74.61663 72.92999
# Shear Modulus (GPa) = 26.76134 32.18194 29.47164
#
# Velocity S-wave (km/s) = 3.58638 3.93287 3.76361
# Velocity P-wave (km/s) = 7.16874 7.51571 7.34427
#
# Compressibility (1/GPa) = 0.01403640
#
# Stress axis : x y z
#
# Youngs Moduli (GPa) = 87.93505 127.98043 111.82811
#
# Poissons Ratio (x) = 0.44224 0.19326
# Poissons Ratio (y) = 0.30386 0.20824
# Poissons Ratio (z) = 0.15197 0.23831
#
# Static dielectric constant tensor:
#      x y z
#    x 1.725810 0.000000 -0.029180 
#    y 0.000000 1.828490 0.000000 
#    z -0.029180 0.000000 1.783210 
# 
# From -- ./inp_files/200199.got.cif
#   From: 2010.05.17/outbox.cif.g08.bks.cpg/sg12_101_cif.got.tgz:200199.got - 2010.06.03 13:09:07.
