data_PCOD9203241
_publ_section_title
;
Structure prediction by ZEFSAII (Michael W. Deem and Ramdas Pophale) SiO2 
 PCOD9203241
Probable space group: C 2/M
;
_chemical_formula_sum "Si O2"
_cell_formula_units_Z 56
_cell_length_a 9.444426
_cell_length_b 26.453950
_cell_length_c 19.658151
_cell_angle_alpha 90.000000
_cell_angle_beta 32.130323
_cell_angle_gamma 90.000000
_cell_volume 2612.133328
_symmetry_space_group_name_H-M "C 2/M"
_symmetry_group_IT_number 12
_symmetry_cell_setting 'monoclinic'
loop_
_space_group_symop_operation_xyz
x,y,z
-x,y,-z
-x,-y,-z
x,-y,z
1/2+x,1/2+y,z
1/2-x,1/2+y,-z
1/2-x,1/2-y,-z
1/2+x,1/2-y,z
loop_
_atom_site_type_symbol
_atom_site_label
_atom_site_fract_x
_atom_site_fract_y
_atom_site_fract_z
Si Si1 0.307237 0.346420 0.372742
Si Si2 0.619666 0.109120 0.027278
Si Si3 0.224527 0.839368 0.460359
Si Si4 0.269171 0.397957 0.255776
Si Si5 0.043705 0.745157 0.274552
Si Si6 0.366826 0.000000 0.915043
Si Si7 0.770315 0.500000 0.800144
Si Si8 0.441678 0.784884 0.876084
O O1 0.381988 0.350954 0.420967
O O2 0.317360 0.393183 0.317326
O O3 0.471051 0.300444 0.275524
O O4 0.000000 0.330847 0.500000
O O5 0.942298 0.112600 0.893762
O O6 0.500000 0.112558 0.000000
O O7 0.542625 0.053704 0.089111
O O8 0.533841 0.158442 0.104640
O O9 0.523949 0.861868 0.336135
O O10 0.293619 0.781647 0.411824
O O11 0.000000 0.858110 0.500000
O O12 0.174550 0.451489 0.267326
O O13 0.274711 0.756835 0.233677
O O14 0.139149 0.714176 0.169932
O O15 0.412030 0.000000 0.815607
O O16 0.047191 0.000000 0.056240
O O17 0.250000 0.750000 0.000000
#
# Coordination Sequence:
#
# PCOD9203241 Si02
#       8
#     8   8   8   8   8   4   4   8
#     4  10  20  39  60  85 116 162 211 263 309 367
#     4  11  22  40  65  95 134 168 212 260 313 391
#     4  11  23  39  63  91 125 168 222 269 314 366
#     4  10  22  41  66  89 127 166 205 265 320 384
#     4  12  23  38  58  87 127 170 212 254 313 374
#     4   9  21  40  66  96 126 167 213 261 316 378
#     4   9  20  42  66  94 126 162 209 258 327 382
#     4  12  24  37  56  91 133 172 206 251 319 387
#
# _framework density 21.438414999999999
#
# number of rings (size 3 to 8) (size 9 to 14) (size 15 to 20)
#    0.000    1.286    0.000    7.500    2.000    0.000 
#    2.571    3.571    0.000    0.000    0.000    0.000 
#    0.000    0.000    0.000    0.000    0.000    0.000 
#
# Total GULP energy -156303.585504 kJ/mol
# GULP energy per Si atom -5582.270911 kJ/mol
# Density = 2.138962 g / cm^3
# Si number density = 21.438415 Si / 1000 Ang^3
#
#
#
# Elastic Constant Matrix: (Units=GPa)
#
#
# Indices 1 2 3 4 5 6 
#
# 1 131.5889 52.0268 33.2843 -0.0006 26.0855 0.0005
# 2 52.0268 117.9087 33.0371 -0.0001 27.5472 -0.0006
# 3 33.2843 33.0371 59.4265 0.0024 10.4725 0.0001
# 4 -0.0006 -0.0001 0.0024 20.7859 0.0004 11.3186
# 5 26.0855 27.5472 10.4725 0.0004 43.2399 -0.0004
# 6 0.0005 -0.0006 0.0001 11.3186 -0.0004 28.2523
#
#
#
# Elastic Compliance Matrix: (Units=1/GPa)
#
#
# Indices 1 2 3 4 5 6 
#
# 1 0.010297 -0.002677 -0.003641 0.000001 -0.003625 -0.000001
# 2 -0.002677 0.012041 -0.004312 0.000001 -0.005012 0.000000
# 3 -0.003641 -0.004312 0.021302 -0.000003 -0.000216 0.000001
# 4 0.000001 0.000001 -0.000003 0.061533 -0.000001 -0.024652
# 5 -0.003625 -0.005012 -0.000216 -0.000001 0.028559 0.000001
# 6 -0.000001 0.000000 0.000001 -0.024652 0.000001 0.045272
#
#
# Mechanical properties :
#
#
# Convention : Reuss Voigt Hill
#
# Bulk Modulus (GPa) = 44.67792 60.62449 52.65121
# Shear Modulus (GPa) = 24.07057 31.16068 27.61563
#
# Velocity S-wave (km/s) = 3.35442 3.81661 3.59296
# Velocity P-wave (km/s) = 5.99068 6.91100 6.46723
#
# Compressibility (1/GPa) = 0.02238242
#
# Stress axis : x y z
#
# Youngs Moduli (GPa) = 97.11436 83.04742 46.94477
#
# Poissons Ratio (x) = 0.22228 0.17090
# Poissons Ratio (y) = 0.25994 0.20241
# Poissons Ratio (z) = 0.35355 0.35808
#
# Static dielectric constant tensor:
#      x y z
#    x 1.780290 0.000000 0.006280 
#    y 0.000000 1.804110 0.000000 
#    z 0.006280 0.000000 1.801360 
# 
# From -- ./inp_files/259820.got.cif
#   From: 2010.05.17/outbox.cif.g08.bks.cpg/sg12_130_cif.got.tgz:259820.got - 2010.06.03 13:09:07.
