data_PCOD9203649
_publ_section_title
;
Structure prediction by ZEFSAII (Michael W. Deem and Ramdas Pophale) SiO2 
 PCOD9203649
Probable space group: C 2/M
;
_chemical_formula_sum "Si O2"
_cell_formula_units_Z 44
_cell_length_a 5.737470
_cell_length_b 21.382329
_cell_length_c 17.758513
_cell_angle_alpha 90.000000
_cell_angle_beta 59.861378
_cell_angle_gamma 90.000000
_cell_volume 1884.101629
_symmetry_space_group_name_H-M "C 2/M"
_symmetry_group_IT_number 12
_symmetry_cell_setting 'monoclinic'
loop_
_space_group_symop_operation_xyz
x,y,z
-x,y,-z
-x,-y,-z
x,-y,z
1/2+x,1/2+y,z
1/2-x,1/2+y,-z
1/2-x,1/2-y,-z
1/2+x,1/2-y,z
loop_
_atom_site_type_symbol
_atom_site_label
_atom_site_fract_x
_atom_site_fract_y
_atom_site_fract_z
Si Si1 0.792103 0.070951 0.472733
Si Si2 0.667760 0.400426 0.279134
Si Si3 0.198274 0.569133 0.113459
Si Si4 0.500000 0.137101 0.000000
Si Si5 0.236108 0.233415 0.317548
Si Si6 0.488786 0.671602 0.164051
O O1 0.500000 0.099981 0.500000
O O2 0.000000 0.100047 0.500000
O O3 0.962761 0.067782 0.368680
O O4 0.733112 0.000000 0.510715
O O5 0.784312 0.339975 0.303494
O O6 0.512065 0.373322 0.232663
O O7 0.918838 0.435808 0.204300
O O8 0.327754 0.500000 0.097605
O O9 0.338929 0.629476 0.127200
O O10 0.136579 0.591000 0.038679
O O11 0.284948 0.179370 0.079964
O O12 0.413176 0.257281 0.359325
O O13 0.349630 0.267764 0.223075
#
# Coordination Sequence:
#
# PCOD9203649 Si02
#       6
#     8   8   8   4   8   8
#     4  10  23  41  65  99 138 172 210 266 326 390
#     4  10  22  40  65  93 127 169 222 264 327 386
#     4  11  22  38  62  92 127 168 218 272 332 395
#     4  10  23  40  58  90 128 170 215 272 336 386
#     4  10  20  39  65  90 123 166 218 268 317 374
#     4  10  22  39  62  92 124 173 218 272 327 387
#
# _framework density 23.353304000000001
#
# number of rings (size 3 to 8) (size 9 to 14) (size 15 to 20)
#    0.000    1.818    1.818    1.364    2.545    5.091 
#    0.000    8.182    0.000   13.091    0.000    0.000 
#    0.000    0.000    0.000    0.000    0.000    0.000 
#
# Total GULP energy -122706.925908 kJ/mol
# GULP energy per Si atom -5577.587541 kJ/mol
# Density = 2.330015 g / cm^3
# Si number density = 23.353304 Si / 1000 Ang^3
#
#
#
# Elastic Constant Matrix: (Units=GPa)
#
#
# Indices 1 2 3 4 5 6 
#
# 1 118.2661 -11.3340 29.6326 0.0000 -4.8065 0.0000
# 2 -11.3340 58.2996 -6.1715 0.0000 -25.1874 0.0000
# 3 29.6326 -6.1715 102.9620 0.0000 -6.4318 0.0000
# 4 0.0000 0.0000 0.0000 11.7551 0.0000 3.9473
# 5 -4.8065 -25.1874 -6.4318 0.0000 19.4188 0.0000
# 6 0.0000 0.0000 0.0000 3.9473 0.0000 17.5018
#
#
#
# Elastic Compliance Matrix: (Units=1/GPa)
#
#
# Indices 1 2 3 4 5 6 
#
# 1 0.009852 0.005663 -0.001925 0.000000 0.009147 0.000000
# 2 0.005663 0.045735 0.005008 0.000000 0.062382 0.000000
# 3 -0.001925 0.005008 0.011174 0.000000 0.009720 0.000000
# 4 0.000000 0.000000 0.000000 0.092040 0.000000 -0.020758
# 5 0.009147 0.062382 0.009720 0.000000 0.137894 0.000000
# 6 0.000000 0.000000 0.000000 -0.020758 0.000000 0.061819
#
#
# Mechanical properties :
#
#
# Convention : Reuss Voigt Hill
#
# Bulk Modulus (GPa) = 11.86869 33.75353 22.81111
# Shear Modulus (GPa) = 13.54630 27.56185 20.55407
#
# Velocity S-wave (km/s) = 2.41105 3.43915 2.96993
# Velocity P-wave (km/s) = 3.58388 5.50047 4.64216
#
# Compressibility (1/GPa) = 0.08425531
#
# Stress axis : x y z
#
# Youngs Moduli (GPa) = 101.49968 21.86497 89.49637
#
# Poissons Ratio (x) = -0.12383 0.17225
# Poissons Ratio (y) = -0.57484 -0.44822
# Poissons Ratio (z) = 0.19535 -0.10950
#
# Static dielectric constant tensor:
#      x y z
#    x 1.986640 0.000000 -0.040250 
#    y 0.000000 1.903690 0.000000 
#    z -0.040250 0.000000 1.877920 
# 
# From -- ./inp_files/253207.got.cif
#   From: 2010.05.17/outbox.cif.g08.bks.cpg/sg12_127_cif.got.tgz:253207.got - 2010.06.03 13:09:07.
