data_PCOD9203302
_publ_section_title
;
Structure prediction by ZEFSAII (Michael W. Deem and Ramdas Pophale) SiO2 
 PCOD9203302
Probable space group: C 2/M
;
_chemical_formula_sum "Si O2"
_cell_formula_units_Z 48
_cell_length_a 7.361089
_cell_length_b 23.154663
_cell_length_c 18.389546
_cell_angle_alpha 90.000000
_cell_angle_beta 52.980401
_cell_angle_gamma 90.000000
_cell_volume 2502.581161
_symmetry_space_group_name_H-M "C 2/M"
_symmetry_group_IT_number 12
_symmetry_cell_setting 'monoclinic'
loop_
_space_group_symop_operation_xyz
x,y,z
-x,y,-z
-x,-y,-z
x,-y,z
1/2+x,1/2+y,z
1/2-x,1/2+y,-z
1/2-x,1/2-y,-z
1/2+x,1/2-y,z
loop_
_atom_site_type_symbol
_atom_site_label
_atom_site_fract_x
_atom_site_fract_y
_atom_site_fract_z
Si Si1 0.525198 0.373241 0.619357
Si Si2 0.000000 0.207030 0.500000
Si Si3 0.751910 0.709581 0.674568
Si Si4 0.424274 0.000000 0.138093
Si Si5 0.959708 0.000000 0.174435
Si Si6 0.218739 0.908119 0.897834
Si Si7 0.028567 0.678555 0.745243
Si Si8 0.983533 0.000000 0.334459
O O1 0.619433 0.337198 0.527603
O O2 0.621629 0.341875 0.667314
O O3 0.573028 0.440988 0.610503
O O4 0.255076 0.360515 0.686785
O O5 0.137037 0.250077 0.414642
O O6 0.930181 0.685436 0.688185
O O7 0.595643 0.756698 0.753030
O O8 0.592333 0.054308 0.104236
O O9 0.253825 0.000000 0.249180
O O10 0.763414 0.000000 0.881553
O O11 0.877084 0.000000 0.278367
O O12 0.868239 0.054216 0.150459
O O13 0.342656 0.851426 0.839651
O O14 0.000000 0.898060 0.000000
#
# Coordination Sequence:
#
# PCOD9203302 Si02
#       8
#     8   4   8   4   4   8   8   4
#     4  11  22  38  60  88 123 154 195 247 296 352
#     4  10  22  37  64  93 112 154 208 252 282 348
#     4  11  22  38  64  87 115 155 205 245 293 352
#     4   9  19  37  58  82 119 155 208 236 289 356
#     4   9  19  37  60  83 114 159 202 236 289 355
#     4  11  22  36  58  89 120 154 202 252 294 346
#     4  11  21  37  59  86 115 155 197 248 298 348
#     4  10  20  39  61  86 123 159 190 236 298 366
#
# _framework density 19.180195999999999
#
# number of rings (size 3 to 8) (size 9 to 14) (size 15 to 20)
#    0.500    1.000    5.000    2.500    2.333    1.667 
#    0.000    0.833    0.000    0.500    0.000    0.000 
#    0.000    0.000    0.000    0.000    0.000    0.000 
#
# Total GULP energy -133813.237277 kJ/mol
# GULP energy per Si atom -5575.551553 kJ/mol
# Density = 1.913654 g / cm^3
# Si number density = 19.180196 Si / 1000 Ang^3
#
#
#
# Elastic Constant Matrix: (Units=GPa)
#
#
# Indices 1 2 3 4 5 6 
#
# 1 109.5968 34.9741 -5.6717 0.0000 8.1091 0.0000
# 2 34.9741 135.0080 16.8148 0.0000 -0.0971 0.0000
# 3 -5.6717 16.8148 36.5727 0.0000 -4.8128 0.0000
# 4 0.0000 0.0000 0.0000 15.9280 0.0000 -5.1947
# 5 8.1091 -0.0971 -4.8128 0.0000 17.3656 0.0000
# 6 0.0000 0.0000 0.0000 -5.1947 0.0000 -7.9332
#
#
#
# Elastic Compliance Matrix: (Units=1/GPa)
#
#
# Indices 1 2 3 4 5 6 
#
# 1 0.010537 -0.003041 0.002473 0.000000 -0.004252 0.000000
# 2 -0.003041 0.008751 -0.004464 0.000000 0.000232 0.000000
# 3 0.002473 -0.004464 0.030745 0.000000 0.007341 0.000000
# 4 0.000000 0.000000 0.000000 0.051734 0.000000 -0.033876
# 5 -0.004252 0.000232 0.007341 0.000000 0.061607 0.000000
# 6 0.000000 0.000000 0.000000 -0.033876 0.000000 -0.103870
#
#
# Mechanical properties :
#
#
# Convention : Reuss Voigt Hill
#
# Bulk Modulus (GPa) = 25.02009 41.49020 33.25515
# Shear Modulus (GPa) = 60.31966 20.74277 40.53121
#
# Velocity S-wave (km/s) = 5.61402 3.29214 4.60192
# Velocity P-wave (km/s) = 7.42267 6.01079 6.75373
#
# Compressibility (1/GPa) = 0.03996788
#
# Stress axis : x y z
#
# Youngs Moduli (GPa) = 94.90119 114.27442 32.52576
#
# Poissons Ratio (x) = 0.34748 -0.08042
# Poissons Ratio (y) = 0.28857 0.14521
# Poissons Ratio (z) = -0.23465 0.51017
#
# Static dielectric constant tensor:
#      x y z
#    x 1.691200 0.000000 -0.016220 
#    y 0.000000 1.666830 0.000000 
#    z -0.016220 0.000000 1.689160 
# 
# From -- ./inp_files/301389.got.cif
#   From: 2010.05.17/outbox.cif.g08.bks.cpg/sg12_151_cif.got.tgz:301389.got - 2010.06.03 13:09:07.
