data_PCOD9203550
_publ_section_title
;
Structure prediction by ZEFSAII (Michael W. Deem and Ramdas Pophale) SiO2 
 PCOD9203550
Probable space group: C 2/M
;
_chemical_formula_sum "Si O2"
_cell_formula_units_Z 56
_cell_length_a 27.595140
_cell_length_b 20.321652
_cell_length_c 9.173894
_cell_angle_alpha 90.000000
_cell_angle_beta 30.218391
_cell_angle_gamma 90.000000
_cell_volume 2589.226024
_symmetry_space_group_name_H-M "C 2/M"
_symmetry_group_IT_number 12
_symmetry_cell_setting 'monoclinic'
loop_
_space_group_symop_operation_xyz
x,y,z
-x,y,-z
-x,-y,-z
x,-y,z
1/2+x,1/2+y,z
1/2-x,1/2+y,-z
1/2-x,1/2-y,-z
1/2+x,1/2-y,z
loop_
_atom_site_type_symbol
_atom_site_label
_atom_site_fract_x
_atom_site_fract_y
_atom_site_fract_z
Si Si1 0.909481 0.194993 0.129642
Si Si2 0.153357 0.077729 0.503069
Si Si3 0.709390 0.921038 0.101624
Si Si4 0.480217 0.605496 0.724179
Si Si5 0.602191 0.842916 0.826117
Si Si6 0.769974 0.926972 0.246657
Si Si7 0.500791 0.923803 0.323214
O O1 0.858506 0.131953 0.339360
O O2 0.865600 0.267237 0.241833
O O3 0.950408 0.177132 0.863652
O O4 0.000000 0.202856 0.000000
O O5 0.064338 0.081682 0.616578
O O6 0.160690 0.000000 0.528602
O O7 0.246112 0.098929 0.166879
O O8 0.779751 0.906525 0.051711
O O9 0.606718 0.897079 0.424274
O O10 0.699619 0.000000 0.112483
O O11 0.500000 0.601380 0.500000
O O12 0.379171 0.569372 0.015033
O O13 0.693151 0.880296 0.521441
O O14 0.500000 0.848486 0.000000
O O15 0.576001 0.878219 0.046305
O O16 0.727011 0.000000 0.363331
O O17 0.500000 0.924736 0.500000
O O18 0.512179 0.000000 0.243804
#
# Coordination Sequence:
#
# PCOD9203550 Si02
#       7
#     8   8   8   8   8   8   8
#     4   9  23  41  58  86 120 162 209 241 295 363
#     4  10  20  39  64  88 122 158 194 253 307 350
#     4   9  18  34  59  92 120 150 193 241 303 363
#     4  11  22  38  60  90 123 154 199 255 300 351
#     4  11  22  41  62  83 122 167 202 245 293 356
#     4  11  22  35  61  95 118 153 205 247 297 358
#     4  10  21  37  61  94 125 155 198 251 303 354
#
# _framework density 21.628084999999999
#
# number of rings (size 3 to 8) (size 9 to 14) (size 15 to 20)
#    0.000    1.857    2.857    0.857    0.000    6.571 
#    0.000    3.571    0.000    0.000    0.000    0.000 
#    0.000    0.000    0.000    0.000    0.000    0.000 
#
# Total GULP energy -155969.303342 kJ/mol
# GULP energy per Si atom -5570.332262 kJ/mol
# Density = 2.157886 g / cm^3
# Si number density = 21.628085 Si / 1000 Ang^3
#
#
#
# Elastic Constant Matrix: (Units=GPa)
#
#
# Indices 1 2 3 4 5 6 
#
# 1 60.5337 22.5799 28.2813 0.0000 6.2856 0.0000
# 2 22.5799 137.6772 74.5857 0.0000 20.9708 0.0000
# 3 28.2813 74.5857 141.9665 0.0000 19.6272 0.0000
# 4 0.0000 0.0000 0.0000 -144.9198 0.0000 -31.9047
# 5 6.2856 20.9708 19.6272 0.0000 30.5839 0.0000
# 6 0.0000 0.0000 0.0000 -31.9047 0.0000 -0.8254
#
#
#
# Elastic Compliance Matrix: (Units=1/GPa)
#
#
# Indices 1 2 3 4 5 6 
#
# 1 0.018448 -0.001331 -0.002829 0.000000 -0.001063 0.000000
# 2 -0.001331 0.010688 -0.004800 0.000000 -0.003974 0.000000
# 3 -0.002829 -0.004800 0.010528 0.000000 -0.002883 0.000000
# 4 0.000000 0.000000 0.000000 0.000919 0.000000 -0.035517
# 5 -0.001063 -0.003974 -0.002883 0.000000 0.037491 0.000000
# 6 0.000000 0.000000 0.000000 -0.035517 0.000000 0.161328
#
#
# Mechanical properties :
#
#
# Convention : Reuss Voigt Hill
#
# Bulk Modulus (GPa) = 45.99113 65.67458 55.83285
# Shear Modulus (GPa) = 18.89860 -8.71690 5.09085
#
# Velocity S-wave (km/s) = 2.95922 -2.00975 1.53588
# Velocity P-wave (km/s) = 5.74340 5.00458 5.38667
#
# Compressibility (1/GPa) = 0.02174332
#
# Stress axis : x y z
#
# Youngs Moduli (GPa) = 54.20563 93.56646 94.98416
#
# Poissons Ratio (x) = 0.12456 0.26868
# Poissons Ratio (y) = 0.07216 0.45596
# Poissons Ratio (z) = 0.15333 0.44915
#
# Static dielectric constant tensor:
#      x y z
#    x 1.954130 0.000000 -0.045600 
#    y 0.000000 1.805110 0.000000 
#    z -0.045600 0.000000 1.805040 
# 
# From -- ./inp_files/113338.got.cif
#   From: 2010.05.17/outbox.cif.g08.bks.cpg/sg12_57_cif.got.tgz:113338.got - 2010.06.03 13:09:07.
