data_PCOD9203076
_publ_section_title
;
Structure prediction by ZEFSAII (Michael W. Deem and Ramdas Pophale) SiO2 
 PCOD9203076
Probable space group: C 2/M
;
_chemical_formula_sum "Si O2"
_cell_formula_units_Z 64
_cell_length_a 20.191386
_cell_length_b 8.661459
_cell_length_c 33.076797
_cell_angle_alpha 90.000000
_cell_angle_beta 146.494856
_cell_angle_gamma 90.000000
_cell_volume 3193.221416
_symmetry_space_group_name_H-M "C 2/M"
_symmetry_group_IT_number 12
_symmetry_cell_setting 'monoclinic'
loop_
_space_group_symop_operation_xyz
x,y,z
-x,y,-z
-x,-y,-z
x,-y,z
1/2+x,1/2+y,z
1/2-x,1/2+y,-z
1/2-x,1/2-y,-z
1/2+x,1/2-y,z
loop_
_atom_site_type_symbol
_atom_site_label
_atom_site_fract_x
_atom_site_fract_y
_atom_site_fract_z
Si Si1 0.425140 0.684280 0.779972
Si Si2 0.021083 0.682715 0.280245
Si Si3 0.035717 0.179255 0.065053
Si Si4 0.039112 0.312425 0.476371
Si Si5 0.117646 0.684536 0.941125
Si Si6 0.297787 0.680845 0.204970
Si Si7 0.331901 0.814332 0.309484
Si Si8 0.714138 0.685518 0.437918
O O1 0.442771 0.500000 0.789969
O O2 0.433810 0.741491 0.738373
O O3 0.526160 0.762981 0.859218
O O4 0.293969 0.716639 0.732045
O O5 0.034244 0.500000 0.284633
O O6 0.096749 0.745864 0.356970
O O7 0.882914 0.727911 0.217497
O O8 0.159836 0.269823 0.132239
O O9 0.937074 0.249552 0.044930
O O10 0.054955 0.000000 0.086558
O O11 0.000000 0.185128 0.000000
O O12 0.035250 0.500000 0.475511
O O13 0.173664 0.270775 0.533461
O O14 0.000000 0.253541 0.500000
O O15 0.943084 0.266284 0.393884
O O16 0.121960 0.500000 0.945097
O O17 0.250000 0.750000 0.000000
O O18 0.312179 0.500000 0.205130
O O19 0.336562 0.727010 0.269764
O O20 0.338578 0.000000 0.305807
O O21 0.703907 0.500000 0.434742
O O22 0.750000 0.750000 0.500000
#
# Coordination Sequence:
#
# PCOD9203076 Si02
#       8
#     8   8   8   8   8   8   8   8
#     4  11  23  42  68  97 132 171 218 271 328 392
#     4  12  26  43  64  91 130 175 224 276 333 391
#     4  11  25  46  71  99 134 172 217 267 322 386
#     4   9  18  34  59  90 120 159 207 258 313 379
#     4  12  26  45  70 100 137 176 219 265 321 384
#     4  12  25  42  66  95 129 167 218 270 325 390
#     4  10  20  38  66  94 127 167 211 262 325 392
#     4  11  22  39  63  92 128 168 217 270 331 395
#
# _framework density 20.042456000000001
#
# number of rings (size 3 to 8) (size 9 to 14) (size 15 to 20)
#    0.000    1.000    1.250    6.000    1.750    4.500 
#    0.000    0.625    0.000    2.625    0.000    0.000 
#    0.000    0.000    0.000    0.000    0.000    0.000 
#
# Total GULP energy -179056.377047 kJ/mol
# GULP energy per Si atom -5595.511783 kJ/mol
# Density = 1.999684 g / cm^3
# Si number density = 20.042456 Si / 1000 Ang^3
#
#
#
# Elastic Constant Matrix: (Units=GPa)
#
#
# Indices 1 2 3 4 5 6 
#
# 1 91.5945 24.0224 4.6534 -0.0001 2.6412 0.0000
# 2 24.0224 75.8503 6.1962 -0.0004 -2.4449 0.0002
# 3 4.6534 6.1962 60.0877 0.0000 6.4474 0.0000
# 4 -0.0001 -0.0004 0.0000 19.5456 0.0001 2.4741
# 5 2.6412 -2.4449 6.4474 0.0001 37.3937 -0.0001
# 6 0.0000 0.0002 0.0000 2.4741 -0.0001 28.8782
#
#
#
# Elastic Compliance Matrix: (Units=1/GPa)
#
#
# Indices 1 2 3 4 5 6 
#
# 1 0.011962 -0.003786 -0.000427 0.000000 -0.001019 0.000000
# 2 -0.003786 0.014541 -0.001362 0.000000 0.001453 0.000000
# 3 -0.000427 -0.001362 0.017139 0.000000 -0.003014 0.000000
# 4 0.000000 0.000000 0.000000 0.051723 0.000000 -0.004431
# 5 -0.001019 0.001453 -0.003014 0.000000 0.027429 0.000000
# 6 0.000000 0.000000 0.000000 -0.004431 0.000000 0.035008
#
#
# Mechanical properties :
#
#
# Convention : Reuss Voigt Hill
#
# Bulk Modulus (GPa) = 30.77685 33.03071 31.90378
# Shear Modulus (GPa) = 27.81121 30.00751 28.90936
#
# Velocity S-wave (km/s) = 3.72911 3.87356 3.80202
# Velocity P-wave (km/s) = 5.82502 6.04335 5.93519
#
# Compressibility (1/GPa) = 0.03249195
#
# Stress axis : x y z
#
# Youngs Moduli (GPa) = 83.59949 68.77028 58.34558
#
# Poissons Ratio (x) = 0.26039 0.02489
# Poissons Ratio (y) = 0.31654 0.07948
# Poissons Ratio (z) = 0.03566 0.09368
#
# Static dielectric constant tensor:
#      x y z
#    x 1.690520 0.000000 0.001100 
#    y 0.000000 1.675300 0.000000 
#    z 0.001100 0.000000 1.683170 
# 
# From -- ./inp_files/378367.got.cif
#   From: 2010.05.17/outbox.cif.g08.bks.cpg/sg12_190_cif.got.tgz:378367.got - 2010.06.03 13:09:07.
