data_PCOD9203091
_publ_section_title
;
Structure prediction by ZEFSAII (Michael W. Deem and Ramdas Pophale) SiO2 
 PCOD9203091
Probable space group: C 2/M
;
_chemical_formula_sum "Si O2"
_cell_formula_units_Z 64
_cell_length_a 9.664295
_cell_length_b 27.756298
_cell_length_c 24.278110
_cell_angle_alpha 90.000000
_cell_angle_beta 149.944754
_cell_angle_gamma 90.000000
_cell_volume 3261.678128
_symmetry_space_group_name_H-M "C 2/M"
_symmetry_group_IT_number 12
_symmetry_cell_setting 'monoclinic'
loop_
_space_group_symop_operation_xyz
x,y,z
-x,y,-z
-x,-y,-z
x,-y,z
1/2+x,1/2+y,z
1/2-x,1/2+y,-z
1/2-x,1/2-y,-z
1/2+x,1/2-y,z
loop_
_atom_site_type_symbol
_atom_site_label
_atom_site_fract_x
_atom_site_fract_y
_atom_site_fract_z
Si Si1 0.472292 0.804719 0.720657
Si Si2 0.677719 0.443651 0.240033
Si Si3 0.680919 0.110272 0.008804
Si Si4 0.585476 0.703628 0.965024
Si Si5 0.793830 0.054570 0.214737
Si Si6 0.253756 0.702532 0.628672
Si Si7 0.584326 0.137771 0.406652
Si Si8 0.904732 0.860656 0.334257
O O1 0.345593 0.752184 0.687340
O O2 0.366355 0.826045 0.626652
O O3 0.369302 0.841223 0.731589
O O4 0.799638 0.800442 0.833133
O O5 0.715515 0.500000 0.237833
O O6 0.460835 0.415770 0.125819
O O7 0.529343 0.443076 0.248780
O O8 0.956274 0.412209 0.340646
O O9 0.745574 0.155561 0.992293
O O10 0.500000 0.125991 0.000000
O O11 0.487377 0.072333 0.910790
O O12 0.500000 0.707128 0.000000
O O13 0.750000 0.750000 0.000000
O O14 0.864690 0.090286 0.288091
O O15 0.768926 0.000000 0.225034
O O16 0.492809 0.679140 0.674274
O O17 0.000000 0.712603 0.500000
O O18 0.148075 0.663380 0.635685
O O19 0.855571 0.133326 0.537470
#
# Coordination Sequence:
#
# PCOD9203091 Si02
#       8
#     8   8   8   8   8   8   8   8
#     4  12  25  40  64  87 130 170 208 258 316 381
#     4  10  20  38  66  97 123 162 215 270 321 374
#     4  10  21  42  67  92 126 165 214 267 316 382
#     4  12  28  42  63  97 132 171 210 257 322 380
#     4  10  21  38  66  95 124 163 213 271 323 372
#     4  10  22  39  63  91 121 166 215 255 303 377
#     4  11  22  40  63  95 126 169 209 261 319 377
#     4  11  23  40  63  93 129 164 215 261 315 384
#
# _framework density 19.621801000000001
#
# number of rings (size 3 to 8) (size 9 to 14) (size 15 to 20)
#    0.000    1.250    2.500    3.375    5.250    4.000 
#    0.000    1.875    0.000    3.000    0.000    0.000 
#    0.000    0.000    0.000    0.000    0.000    0.000 
#
# Total GULP energy -178912.708204 kJ/mol
# GULP energy per Si atom -5591.022131 kJ/mol
# Density = 1.957714 g / cm^3
# Si number density = 19.621801 Si / 1000 Ang^3
#
#
#
# Elastic Constant Matrix: (Units=GPa)
#
#
# Indices 1 2 3 4 5 6 
#
# 1 59.8158 23.8325 23.3204 0.0006 -6.2374 -0.0007
# 2 23.8325 125.5646 39.6698 0.0009 -1.7615 -0.0007
# 3 23.3204 39.6698 55.3501 0.0002 -5.3132 0.0026
# 4 0.0006 0.0009 0.0002 20.3398 0.0004 -5.2214
# 5 -6.2374 -1.7615 -5.3132 0.0004 27.4401 0.0010
# 6 -0.0007 -0.0007 0.0026 -5.2214 0.0010 18.6507
#
#
#
# Elastic Compliance Matrix: (Units=1/GPa)
#
#
# Indices 1 2 3 4 5 6 
#
# 1 0.020480 -0.001568 -0.007202 0.000000 0.003160 0.000001
# 2 -0.001568 0.010432 -0.006914 0.000000 -0.001025 0.000001
# 3 -0.007202 -0.006914 0.026347 -0.000001 0.003021 -0.000005
# 4 0.000000 0.000000 -0.000001 0.052972 -0.000002 0.014830
# 5 0.003160 -0.001025 0.003021 -0.000002 0.037680 -0.000003
# 6 0.000001 0.000001 -0.000005 0.014830 -0.000003 0.057769
#
#
# Mechanical properties :
#
#
# Convention : Reuss Voigt Hill
#
# Bulk Modulus (GPa) = 38.62413 46.04177 42.33295
# Shear Modulus (GPa) = 20.35189 23.54662 21.94925
#
# Velocity S-wave (km/s) = 3.22407 3.46789 3.34820
# Velocity P-wave (km/s) = 5.79539 6.28893 6.04719
#
# Compressibility (1/GPa) = 0.02589055
#
# Stress axis : x y z
#
# Youngs Moduli (GPa) = 48.82844 95.86216 37.95538
#
# Poissons Ratio (x) = 0.15026 0.27335
# Poissons Ratio (y) = 0.07654 0.26244
# Poissons Ratio (z) = 0.35166 0.66283
#
# Static dielectric constant tensor:
#      x y z
#    x 1.690190 0.000000 -0.003170 
#    y 0.000000 1.654920 0.000000 
#    z -0.003170 0.000000 1.687070 
# 
# From -- ./inp_files/334360.got.cif
#   From: 2010.05.17/outbox.cif.g08.bks.cpg/sg12_168_cif.got.tgz:334360.got - 2010.06.03 13:09:07.
