data_PCOD9203435
_publ_section_title
;
Structure prediction by ZEFSAII (Michael W. Deem and Ramdas Pophale) SiO2 
 PCOD9203435
Probable space group: C 2/M
;
_chemical_formula_sum "Si O2"
_cell_formula_units_Z 56
_cell_length_a 20.969457
_cell_length_b 8.733715
_cell_length_c 28.438995
_cell_angle_alpha 90.000000
_cell_angle_beta 145.136611
_cell_angle_gamma 90.000000
_cell_volume 2977.207799
_symmetry_space_group_name_H-M "C 2/M"
_symmetry_group_IT_number 12
_symmetry_cell_setting 'monoclinic'
loop_
_space_group_symop_operation_xyz
x,y,z
-x,y,-z
-x,-y,-z
x,-y,z
1/2+x,1/2+y,z
1/2-x,1/2+y,-z
1/2-x,1/2-y,-z
1/2+x,1/2-y,z
loop_
_atom_site_type_symbol
_atom_site_label
_atom_site_fract_x
_atom_site_fract_y
_atom_site_fract_z
Si Si1 0.501377 0.314898 0.555609
Si Si2 0.160104 0.315463 0.812946
Si Si3 0.186422 0.183596 0.006780
Si Si4 0.423867 0.184682 0.714922
Si Si5 0.216705 0.815376 0.745617
Si Si6 0.050489 0.684816 0.159489
Si Si7 0.221187 0.682374 0.533620
O O1 0.500000 0.270584 0.500000
O O2 0.491998 0.500000 0.552129
O O3 0.617210 0.269355 0.650254
O O4 0.397424 0.243730 0.520102
O O5 0.162218 0.500000 0.811241
O O6 0.191289 0.246870 0.781792
O O7 0.035749 0.271612 0.754412
O O8 0.247133 0.268671 0.906166
O O9 0.060109 0.241914 0.928902
O O10 0.189481 0.000000 0.006123
O O11 0.250000 0.250000 0.000000
O O12 0.439847 0.223784 0.779387
O O13 0.316502 0.262244 0.627281
O O14 0.410752 0.000000 0.704048
O O15 0.336892 0.766285 0.798737
O O16 0.217317 0.000000 0.747382
O O17 0.040895 0.500000 0.150868
O O18 0.219174 0.500000 0.529605
O O19 0.250000 0.750000 0.500000
#
# Coordination Sequence:
#
# PCOD9203435 Si02
#       7
#     8   8   8   8   8   8   8
#     4  10  21  41  66  89 118 160 203 248 304 363
#     4  10  22  39  60  85 119 159 196 243 300 350
#     4  11  22  39  62  90 119 155 199 245 297 352
#     4  10  20  39  63  85 114 156 201 247 300 356
#     4  10  22  38  60  89 120 156 198 243 294 355
#     4  10  21  40  63  89 120 154 195 243 295 352
#     4  12  25  39  58  88 122 157 201 252 303 358
#
# _framework density 18.809569
#
# number of rings (size 3 to 8) (size 9 to 14) (size 15 to 20)
#    0.000    1.571    1.429    3.429    0.000    8.857 
#    0.000    4.286    0.000    0.000    0.000    0.000 
#    0.000    0.000    0.000    0.000    0.000    0.000 
#
# Total GULP energy -156541.600667 kJ/mol
# GULP energy per Si atom -5590.771452 kJ/mol
# Density = 1.876676 g / cm^3
# Si number density = 18.809569 Si / 1000 Ang^3
#
#
#
# Elastic Constant Matrix: (Units=GPa)
#
#
# Indices 1 2 3 4 5 6 
#
# 1 148.2890 29.4066 64.4794 0.0000 17.5892 0.0001
# 2 29.4066 26.9959 34.0321 0.0000 5.8764 0.0003
# 3 64.4794 34.0321 149.3542 0.0000 17.9890 0.0000
# 4 0.0000 0.0000 0.0000 33.3009 0.0000 1.5502
# 5 17.5892 5.8764 17.9890 0.0000 39.1145 0.0000
# 6 0.0001 0.0003 0.0000 1.5502 0.0000 34.7486
#
#
#
# Elastic Compliance Matrix: (Units=1/GPa)
#
#
# Indices 1 2 3 4 5 6 
#
# 1 0.009324 -0.006932 -0.002187 0.000000 -0.002145 0.000000
# 2 -0.006932 0.057357 -0.009966 0.000000 -0.000916 -0.000001
# 3 -0.002187 -0.009966 0.010176 0.000000 -0.002199 0.000000
# 4 0.000000 0.000000 0.000000 0.030092 0.000000 -0.001342
# 5 -0.002145 -0.000916 -0.002199 0.000000 0.027680 0.000000
# 6 0.000000 -0.000001 0.000000 -0.001342 0.000000 0.028838
#
#
# Mechanical properties :
#
#
# Convention : Reuss Voigt Hill
#
# Bulk Modulus (GPa) = 25.84979 64.49729 45.17354
# Shear Modulus (GPa) = 23.30648 34.54754 28.92701
#
# Velocity S-wave (km/s) = 3.52387 4.29032 3.92585
# Velocity P-wave (km/s) = 5.50723 7.67506 6.67968
#
# Compressibility (1/GPa) = 0.03868504
#
# Stress axis : x y z
#
# Youngs Moduli (GPa) = 107.25209 17.43462 98.27379
#
# Poissons Ratio (x) = 0.12086 0.21496
# Poissons Ratio (y) = 0.74346 0.97944
# Poissons Ratio (z) = 0.23460 0.17376
#
# Static dielectric constant tensor:
#      x y z
#    x 1.616160 0.000000 0.000640 
#    y 0.000000 1.638380 0.000000 
#    z 0.000640 0.000000 1.627980 
# 
# From -- ./inp_files/380746.got.cif
#   From: 2010.05.17/outbox.cif.g08.bks.cpg/sg12_191_cif.got.tgz:380746.got - 2010.06.03 13:09:07.
