data_PCOD9203910
_publ_section_title
;
Structure prediction by ZEFSAII (Michael W. Deem and Ramdas Pophale) SiO2 
 PCOD9203910
Probable space group: C 2/M
;
_chemical_formula_sum "Si O2"
_cell_formula_units_Z 54
_cell_length_a 14.714156
_cell_length_b 11.982863
_cell_length_c 13.130219
_cell_angle_alpha 90.000000
_cell_angle_beta 94.153335
_cell_angle_gamma 90.000000
_cell_volume 2309.010319
_symmetry_space_group_name_H-M "C 2/M"
_symmetry_group_IT_number 12
_symmetry_cell_setting 'monoclinic'
loop_
_space_group_symop_operation_xyz
x,y,z
-x,y,-z
-x,-y,-z
x,-y,z
1/2+x,1/2+y,z
1/2-x,1/2+y,-z
1/2-x,1/2-y,-z
1/2+x,1/2-y,z
loop_
_atom_site_type_symbol
_atom_site_label
_atom_site_fract_x
_atom_site_fract_y
_atom_site_fract_z
Si Si1 0.529469 0.127432 0.703013
Si Si2 0.297384 0.628397 0.616023
Si Si3 0.649097 0.622745 0.999727
Si Si4 0.351774 0.153019 0.101471
Si Si5 0.423923 0.500000 0.286494
Si Si6 0.500000 0.000000 0.000000
Si Si7 0.934284 0.177933 0.796993
Si Si8 0.871987 0.206672 0.420241
O O1 0.620051 0.123925 0.781498
O O2 0.458107 0.194734 0.768108
O O3 0.550436 0.206249 0.609340
O O4 0.502771 0.000000 0.678495
O O5 0.267600 0.500000 0.599293
O O6 0.344090 0.643229 0.728413
O O7 0.217874 0.717576 0.597426
O O8 0.372290 0.658157 0.534924
O O9 0.628230 0.500000 0.958154
O O10 0.751437 0.621857 0.054521
O O11 0.583931 0.657739 0.086495
O O12 0.644419 0.714394 0.912518
O O13 0.427607 0.095214 0.036822
O O14 0.488447 0.597101 0.238964
O O15 0.371435 0.599788 0.346999
#
# Coordination Sequence:
#
# PCOD9203910 Si02
#       8
#     8   8   8   8   4   2   8   8
#     4  11  23  44  62  95 126 176 213 272 319 395
#     4  11  21  41  66  98 125 179 213 269 312 398
#     4  11  22  43  64 102 128 169 211 277 312 395
#     4  11  24  40  71  93 133 167 222 257 336 374
#     4  10  20  40  60  95 132 165 206 280 302 387
#     4  12  20  42  62  96 116 178 200 274 300 400
#     4  11  23  40  69  93 129 170 223 258 329 377
#     4  10  23  38  66  96 130 165 223 260 327 376
#
# _framework density 23.386641999999998
#
# number of rings (size 3 to 8) (size 9 to 14) (size 15 to 20)
#    0.000    1.185    3.704    2.222    0.000    2.963 
#    6.667    1.852    0.000    0.000    0.000    0.000 
#    0.000    0.000    0.000    0.000    0.000    0.000 
#
# Total GULP energy -150314.479469 kJ/mol
# GULP energy per Si atom -5567.202943 kJ/mol
# Density = 2.333341 g / cm^3
# Si number density = 23.386642 Si / 1000 Ang^3
#
#
#
# Elastic Constant Matrix: (Units=GPa)
#
#
# Indices 1 2 3 4 5 6 
#
# 1 69.8846 29.7650 21.4696 0.0000 -13.4396 0.0000
# 2 29.7650 231.4449 23.9781 0.0000 -15.5786 0.0000
# 3 21.4696 23.9781 45.6374 0.0000 2.5352 0.0000
# 4 0.0000 0.0000 0.0000 14.5935 0.0000 -11.1800
# 5 -13.4396 -15.5786 2.5352 0.0000 32.3952 0.0000
# 6 0.0000 0.0000 0.0000 -11.1800 0.0000 15.3712
#
#
#
# Elastic Compliance Matrix: (Units=1/GPa)
#
#
# Indices 1 2 3 4 5 6 
#
# 1 0.019015 -0.000979 -0.008882 0.000000 0.008113 0.000000
# 2 -0.000979 0.004813 -0.002183 0.000000 0.002079 0.000000
# 3 -0.008882 -0.002183 0.027620 0.000000 -0.006896 0.000000
# 4 0.000000 0.000000 0.000000 0.154752 0.000000 0.112556
# 5 0.008113 0.002079 -0.006896 0.000000 0.035774 0.000000
# 6 0.000000 0.000000 0.000000 0.112556 0.000000 0.146922
#
#
# Mechanical properties :
#
#
# Convention : Reuss Voigt Hill
#
# Bulk Modulus (GPa) = 36.55020 55.26581 45.90800
# Shear Modulus (GPa) = 11.84541 30.58893 21.21717
#
# Velocity S-wave (km/s) = 2.25300 3.62050 3.01530
# Velocity P-wave (km/s) = 4.73610 6.41561 5.63874
#
# Compressibility (1/GPa) = 0.02735963
#
# Stress axis : x y z
#
# Youngs Moduli (GPa) = 52.58962 207.78063 36.20510
#
# Poissons Ratio (x) = 0.20346 0.32156
# Poissons Ratio (y) = 0.05150 0.07905
# Poissons Ratio (z) = 0.46708 0.45369
#
# Static dielectric constant tensor:
#      x y z
#    x 1.916910 0.000000 0.002160 
#    y 0.000000 1.864090 0.000000 
#    z 0.002160 0.000000 1.898110 
# 
# From -- ./inp_files/213454.got.cif
#   From: 2010.05.17/outbox.cif.g08.bks.cpg/sg12_107_cif.got.tgz:213454.got - 2010.06.03 13:09:07.
