data_PCOD9203897
_publ_section_title
;
Structure prediction by ZEFSAII (Michael W. Deem and Ramdas Pophale) SiO2 
 PCOD9203897
Probable space group: C 2/M
;
_chemical_formula_sum "Si O2"
_cell_formula_units_Z 44
_cell_length_a 25.298683
_cell_length_b 14.396626
_cell_length_c 6.354029
_cell_angle_alpha 90.000000
_cell_angle_beta 81.322120
_cell_angle_gamma 90.000000
_cell_volume 2287.744078
_symmetry_space_group_name_H-M "C 2/M"
_symmetry_group_IT_number 12
_symmetry_cell_setting 'monoclinic'
loop_
_space_group_symop_operation_xyz
x,y,z
-x,y,-z
-x,-y,-z
x,-y,z
1/2+x,1/2+y,z
1/2-x,1/2+y,-z
1/2-x,1/2-y,-z
1/2+x,1/2-y,z
loop_
_atom_site_type_symbol
_atom_site_label
_atom_site_fract_x
_atom_site_fract_y
_atom_site_fract_z
Si Si1 0.380945 0.892843 0.600491
Si Si2 0.616256 0.607492 0.423522
Si Si3 0.310354 0.743318 0.388219
Si Si4 0.373029 0.751703 0.963344
Si Si5 0.534046 0.316968 0.796972
Si Si6 0.500000 0.172031 0.500000
O O1 0.345380 0.827217 0.470396
O O2 0.374532 0.847481 0.835218
O O3 0.444417 0.882118 0.514506
O O4 0.365539 0.000000 0.598016
O O5 0.621405 0.500000 0.371013
O O6 0.663739 0.648457 0.538433
O O7 0.618529 0.670825 0.214187
O O8 0.562911 0.624830 0.596324
O O9 0.250000 0.750000 0.500000
O O10 0.319168 0.744608 0.132635
O O11 0.419052 0.737078 0.108693
O O12 0.497973 0.240373 0.702172
O O13 0.500000 0.366912 0.000000
#
# Coordination Sequence:
#
# PCOD9203897 Si02
#       6
#     8   8   8   8   8   4
#     4  11  23  38  62  96 126 157 204 251 299 365
#     4  10  22  39  61  92 121 155 208 255 298 358
#     4  10  23  44  65  86 121 163 203 253 311 364
#     4  10  20  40  60  86 123 160 201 251 307 356
#     4  11  19  36  63  84 126 169 198 239 299 363
#     4  12  19  40  59  92 126 164 199 248 297 370
#
# _framework density 19.232921999999999
#
# number of rings (size 3 to 8) (size 9 to 14) (size 15 to 20)
#    0.000    1.455    7.273    0.273    0.000    7.636 
#    0.000    5.909    0.000    0.000    0.000    0.000 
#    0.000    0.000    0.000    0.000    0.000    0.000 
#
# Total GULP energy -122701.552670 kJ/mol
# GULP energy per Si atom -5577.343303 kJ/mol
# Density = 1.918915 g / cm^3
# Si number density = 19.232922 Si / 1000 Ang^3
#
#
#
# Elastic Constant Matrix: (Units=GPa)
#
#
# Indices 1 2 3 4 5 6 
#
# 1 99.6529 28.2114 36.6237 0.0000 -30.7946 0.0000
# 2 28.2114 119.7819 36.0100 0.0000 -6.5605 0.0000
# 3 36.6237 36.0100 117.7806 0.0000 -26.3144 0.0000
# 4 0.0000 0.0000 0.0000 6.4601 0.0000 -1.9776
# 5 -30.7946 -6.5605 -26.3144 0.0000 33.1879 0.0000
# 6 0.0000 0.0000 0.0000 -1.9776 0.0000 11.4002
#
#
#
# Elastic Compliance Matrix: (Units=1/GPa)
#
#
# Indices 1 2 3 4 5 6 
#
# 1 0.015042 -0.002525 -0.001092 0.000000 0.012593 0.000000
# 2 -0.002525 0.009624 -0.002741 0.000000 -0.002614 0.000000
# 3 -0.001092 -0.002741 0.011327 0.000000 0.007426 0.000000
# 4 0.000000 0.000000 0.000000 0.163477 0.000000 0.028358
# 5 0.012593 -0.002614 0.007426 0.000000 0.047187 0.000000
# 6 0.000000 0.000000 0.000000 0.028358 0.000000 0.092637
#
#
# Mechanical properties :
#
#
# Convention : Reuss Voigt Hill
#
# Bulk Modulus (GPa) = 42.96055 59.87839 51.41947
# Shear Modulus (GPa) = 13.89778 25.96768 19.93273
#
# Velocity S-wave (km/s) = 2.69104 3.67845 3.22279
# Velocity P-wave (km/s) = 5.66049 7.01728 6.37508
#
# Compressibility (1/GPa) = 0.02327717
#
# Stress axis : x y z
#
# Youngs Moduli (GPa) = 66.47935 103.90545 88.28330
#
# Poissons Ratio (x) = 0.26234 0.09641
# Poissons Ratio (y) = 0.16785 0.24202
# Poissons Ratio (z) = 0.07260 0.28484
#
# Static dielectric constant tensor:
#      x y z
#    x 1.728410 0.000000 -0.025630 
#    y 0.000000 1.632600 0.000000 
#    z -0.025630 0.000000 1.712470 
# 
# From -- ./inp_files/27971.got.cif
#   From: 2010.05.17/outbox.cif.g08.bks.cpg/sg12_14_cif.got.tgz:27971.got - 2010.06.03 13:09:07.
