data_PCOD9203900
_publ_section_title
;
Structure prediction by ZEFSAII (Michael W. Deem and Ramdas Pophale) SiO2 
 PCOD9203900
Probable space group: C 2/M
;
_chemical_formula_sum "Si O2"
_cell_formula_units_Z 64
_cell_length_a 21.733765
_cell_length_b 24.438637
_cell_length_c 18.111336
_cell_angle_alpha 90.000000
_cell_angle_beta 159.209586
_cell_angle_gamma 90.000000
_cell_volume 3414.524977
_symmetry_space_group_name_H-M "C 2/M"
_symmetry_group_IT_number 12
_symmetry_cell_setting 'monoclinic'
loop_
_space_group_symop_operation_xyz
x,y,z
-x,y,-z
-x,-y,-z
x,-y,z
1/2+x,1/2+y,z
1/2-x,1/2+y,-z
1/2-x,1/2-y,-z
1/2+x,1/2-y,z
loop_
_atom_site_type_symbol
_atom_site_label
_atom_site_fract_x
_atom_site_fract_y
_atom_site_fract_z
Si Si1 0.545286 0.935263 0.860660
Si Si2 0.672893 0.384905 0.403479
Si Si3 0.167858 0.745588 0.641213
Si Si4 0.987330 0.438542 0.572381
Si Si5 0.302680 0.436395 0.012788
Si Si6 0.248538 0.718015 0.421104
Si Si7 0.082076 0.664977 0.014475
Si Si8 0.337345 0.361248 0.775381
O O1 0.356682 0.917979 0.614059
O O2 0.536094 0.000000 0.872784
O O3 0.701184 0.930481 0.976221
O O4 0.590206 0.889000 0.972547
O O5 0.497517 0.417017 0.223511
O O6 0.685899 0.341501 0.483479
O O7 0.641787 0.354801 0.289556
O O8 0.141052 0.759797 0.524135
O O9 0.252353 0.798228 0.776925
O O10 0.295013 0.693758 0.773767
O O11 0.000000 0.729800 0.500000
O O12 0.963276 0.500000 0.578004
O O13 0.000000 0.444134 0.500000
O O14 0.825493 0.400964 0.405557
O O15 0.164278 0.411698 0.800273
O O16 0.310184 0.500000 0.002607
O O17 0.250000 0.750000 0.500000
O O18 0.052638 0.708008 0.173277
O O19 0.000000 0.647012 0.000000
O O20 0.500000 0.387134 0.000000
#
# Coordination Sequence:
#
# PCOD9203900 Si02
#       8
#     8   8   8   8   8   8   8   8
#     4  10  21  40  65  92 126 163 206 262 317 377
#     4  11  22  36  63  90 124 166 209 258 317 381
#     4  11  24  41  63  89 125 166 210 265 320 376
#     4  10  21  38  56  82 122 160 204 259 307 365
#     4  10  21  37  59  90 128 161 206 262 308 374
#     4  10  20  40  60  88 120 161 211 260 315 374
#     4   9  21  41  63  88 123 162 206 259 317 376
#     4  12  23  38  59  85 121 169 212 258 312 380
#
# _framework density 18.743455999999998
#
# number of rings (size 3 to 8) (size 9 to 14) (size 15 to 20)
#    0.000    1.625    2.500    2.625    1.750    1.000 
#    0.000    0.625    0.000    0.375    0.000    0.000 
#    0.000    0.000    0.000    0.000    0.000    0.000 
#
# Total GULP energy -178182.141244 kJ/mol
# GULP energy per Si atom -5568.191914 kJ/mol
# Density = 1.870080 g / cm^3
# Si number density = 18.743456 Si / 1000 Ang^3
#
#
#
# Elastic Constant Matrix: (Units=GPa)
#
#
# Indices 1 2 3 4 5 6 
#
# 1 80.0689 21.0706 37.1367 0.0000 -0.1393 0.0000
# 2 21.0706 66.6867 29.2762 0.0000 3.6701 0.0000
# 3 37.1367 29.2762 94.4863 0.0003 7.6081 0.0001
# 4 0.0000 0.0000 0.0003 26.0088 0.0001 -0.1647
# 5 -0.1393 3.6701 7.6081 0.0001 31.3551 0.0000
# 6 0.0000 0.0000 0.0001 -0.1647 0.0000 40.7204
#
#
#
# Elastic Compliance Matrix: (Units=1/GPa)
#
#
# Indices 1 2 3 4 5 6 
#
# 1 0.015743 -0.002652 -0.005504 0.000000 0.001716 0.000000
# 2 -0.002652 0.017820 -0.004396 0.000000 -0.001031 0.000000
# 3 -0.005504 -0.004396 0.014350 0.000000 -0.002992 0.000000
# 4 0.000000 0.000000 0.000000 0.038449 0.000000 0.000156
# 5 0.001716 -0.001031 -0.002992 0.000000 0.032747 0.000000
# 6 0.000000 0.000000 0.000000 0.000156 0.000000 0.024558
#
#
# Mechanical properties :
#
#
# Convention : Reuss Voigt Hill
#
# Bulk Modulus (GPa) = 43.84362 46.24543 45.04452
# Shear Modulus (GPa) = 28.34867 29.86743 29.10805
#
# Velocity S-wave (km/s) = 3.89325 3.99618 3.94505
# Velocity P-wave (km/s) = 6.60697 6.78373 6.69593
#
# Compressibility (1/GPa) = 0.02280834
#
# Stress axis : x y z
#
# Youngs Moduli (GPa) = 63.52037 56.11616 69.68747
#
# Poissons Ratio (x) = 0.14884 0.38356
# Poissons Ratio (y) = 0.16848 0.30635
# Poissons Ratio (z) = 0.34961 0.24669
#
# Static dielectric constant tensor:
#      x y z
#    x 1.656290 0.000000 0.029730 
#    y 0.000000 1.691680 0.000000 
#    z 0.029730 0.000000 1.582360 
# 
# From -- ./inp_files/286449.got.cif
#   From: 2010.05.17/outbox.cif.g08.bks.cpg/sg12_144_cif.got.tgz:286449.got - 2010.06.03 13:09:07.
