data_PCOD9203270
_publ_section_title
;
Structure prediction by ZEFSAII (Michael W. Deem and Ramdas Pophale) SiO2 
 PCOD9203270
Probable space group: C 2/M
;
_chemical_formula_sum "Si O2"
_cell_formula_units_Z 36
_cell_length_a 10.958967
_cell_length_b 14.328826
_cell_length_c 12.750306
_cell_angle_alpha 90.000000
_cell_angle_beta 60.717435
_cell_angle_gamma 90.000000
_cell_volume 1746.328556
_symmetry_space_group_name_H-M "C 2/M"
_symmetry_group_IT_number 12
_symmetry_cell_setting 'monoclinic'
loop_
_space_group_symop_operation_xyz
x,y,z
-x,y,-z
-x,-y,-z
x,-y,z
1/2+x,1/2+y,z
1/2-x,1/2+y,-z
1/2-x,1/2-y,-z
1/2+x,1/2-y,z
loop_
_atom_site_type_symbol
_atom_site_label
_atom_site_fract_x
_atom_site_fract_y
_atom_site_fract_z
Si Si1 0.151014 0.172087 0.455455
Si Si2 0.598046 0.198380 0.063811
Si Si3 0.152775 0.500000 0.573003
Si Si4 0.119093 0.500000 0.165202
Si Si5 0.627854 0.292931 0.696620
Si Si6 0.284412 0.500000 0.301937
O O1 0.260346 0.090436 0.428671
O O2 0.222618 0.242542 0.342180
O O3 0.117581 0.226698 0.577179
O O4 0.000000 0.128487 0.500000
O O5 0.499593 0.249390 0.189298
O O6 0.619222 0.092153 0.093713
O O7 0.500000 0.200684 0.000000
O O8 0.750000 0.250000 0.000000
O O9 0.160262 0.500000 0.442427
O O10 0.012845 0.500000 0.699590
O O11 0.243379 0.500000 0.197649
O O12 0.635794 0.403450 0.709990
#
# Coordination Sequence:
#
# PCOD9203270 Si02
#       6
#     8   8   4   4   8   4
#     4  10  21  36  66  96 138 170 218 281 353 403
#     4  12  28  48  71  99 138 187 237 282 337 399
#     4  10  20  39  61 106 132 170 219 274 357 411
#     4  12  24  44  71  97 135 177 233 289 329 404
#     4  10  23  41  62 100 133 177 226 280 340 411
#     4  10  23  39  68 101 137 177 218 278 355 416
#
# _framework density 20.614675999999999
#
# number of rings (size 3 to 8) (size 9 to 14) (size 15 to 20)
#    0.000    1.333    2.222    2.333    6.222    0.889 
#    0.000    2.222    0.000    0.000    0.000    0.000 
#    0.000    0.000    0.000    0.000    0.000    0.000 
#
# Total GULP energy -100334.063110 kJ/mol
# GULP energy per Si atom -5574.114617 kJ/mol
# Density = 2.056776 g / cm^3
# Si number density = 20.614676 Si / 1000 Ang^3
#
#
#
# Elastic Constant Matrix: (Units=GPa)
#
#
# Indices 1 2 3 4 5 6 
#
# 1 86.1584 43.0606 49.2076 0.0000 -11.5260 0.0000
# 2 43.0606 177.8932 60.7403 0.0000 -19.3058 0.0000
# 3 49.2076 60.7403 118.5935 0.0000 -20.7706 0.0000
# 4 0.0000 0.0000 0.0000 -1.1268 0.0000 -17.8662
# 5 -11.5260 -19.3058 -20.7706 0.0000 31.6642 0.0000
# 6 0.0000 0.0000 0.0000 -17.8662 0.0000 14.0627
#
#
#
# Elastic Compliance Matrix: (Units=1/GPa)
#
#
# Indices 1 2 3 4 5 6 
#
# 1 0.015762 -0.001855 -0.005404 0.000000 0.001062 0.000000
# 2 -0.001855 0.007158 -0.002542 0.000000 0.002021 0.000000
# 3 -0.005404 -0.002542 0.012835 0.000000 0.004902 0.000000
# 4 0.000000 0.000000 0.000000 -0.041972 0.000000 -0.053324
# 5 0.001062 0.002021 0.004902 0.000000 0.036416 0.000000
# 6 0.000000 0.000000 0.000000 -0.053324 0.000000 0.003363
#
#
# Mechanical properties :
#
#
# Convention : Reuss Voigt Hill
#
# Bulk Modulus (GPa) = 61.91107 76.51803 69.21455
# Shear Modulus (GPa) = 85.39893 24.22912 54.81403
#
# Velocity S-wave (km/s) = 6.44331 3.43203 5.16212
# Velocity P-wave (km/s) = 9.24406 7.27351 8.31735
#
# Compressibility (1/GPa) = 0.01615220
#
# Stress axis : x y z
#
# Youngs Moduli (GPa) = 63.44349 139.70827 77.91081
#
# Poissons Ratio (x) = 0.25915 0.42104
# Poissons Ratio (y) = 0.11768 0.19808
# Poissons Ratio (z) = 0.34286 0.35519
#
# Static dielectric constant tensor:
#      x y z
#    x 1.952290 0.000000 0.025250 
#    y 0.000000 1.743740 0.000000 
#    z 0.025250 0.000000 1.727780 
# 
# From -- ./inp_files/128981.got.cif
#   From: 2010.05.17/outbox.cif.g08.bks.cpg/sg12_65_cif.got.tgz:128981.got - 2010.06.03 13:09:07.
