data_PCOD9203777
_publ_section_title
;
Structure prediction by ZEFSAII (Michael W. Deem and Ramdas Pophale) SiO2 
 PCOD9203777
Probable space group: C 2/M
;
_chemical_formula_sum "Si O2"
_cell_formula_units_Z 42
_cell_length_a 18.891898
_cell_length_b 16.585156
_cell_length_c 16.062140
_cell_angle_alpha 90.000000
_cell_angle_beta 24.439456
_cell_angle_gamma 90.000000
_cell_volume 2082.174427
_symmetry_space_group_name_H-M "C 2/M"
_symmetry_group_IT_number 12
_symmetry_cell_setting 'monoclinic'
loop_
_space_group_symop_operation_xyz
x,y,z
-x,y,-z
-x,-y,-z
x,-y,z
1/2+x,1/2+y,z
1/2-x,1/2+y,-z
1/2-x,1/2-y,-z
1/2+x,1/2-y,z
loop_
_atom_site_type_symbol
_atom_site_label
_atom_site_fract_x
_atom_site_fract_y
_atom_site_fract_z
Si Si1 0.913030 0.679871 0.179913
Si Si2 0.663303 0.367593 0.712264
Si Si3 0.000000 0.000000 0.000000
Si Si4 0.597242 0.360733 0.152345
Si Si5 0.973473 0.669793 0.758218
Si Si6 0.930923 0.091671 0.487970
O O1 0.890951 0.776388 0.206668
O O2 0.727273 0.640506 0.378374
O O3 0.008051 0.653330 0.162562
O O4 0.000000 0.656720 0.000000
O O5 0.627261 0.429138 0.824655
O O6 0.533456 0.392636 0.776811
O O7 0.856792 0.360968 0.470015
O O8 0.545801 0.267184 0.224978
O O9 0.573511 0.405801 0.264489
O O10 0.795076 0.363878 0.914345
O O11 0.000000 0.127642 0.500000
O O12 0.876836 0.000000 0.562627
#
# Coordination Sequence:
#
# PCOD9203777 Si02
#       6
#     8   8   2   8   8   8
#     4  11  20  39  66  93 128 170 216 270 321 390
#     4  11  22  44  64  93 131 171 221 266 328 393
#     4  12  28  44  70 100 134 178 216 280 342 384
#     4  10  20  39  67  93 126 174 215 271 324 385
#     4  10  20  39  68  96 121 174 230 255 326 401
#     4  11  23  38  59  95 134 166 214 273 328 384
#
# _framework density 20.171220000000002
#
# number of rings (size 3 to 8) (size 9 to 14) (size 15 to 20)
#    0.000    1.333    4.762    2.286    1.333    0.381 
#    1.714    1.905    0.000    0.000    0.000    0.000 
#    0.000    0.000    0.000    0.000    0.000    0.000 
#
# Total GULP energy -116976.451672 kJ/mol
# GULP energy per Si atom -5570.307222 kJ/mol
# Density = 2.012531 g / cm^3
# Si number density = 20.171220 Si / 1000 Ang^3
#
#
#
# Elastic Constant Matrix: (Units=GPa)
#
#
# Indices 1 2 3 4 5 6 
#
# 1 51.6584 9.7175 29.7117 0.0003 -10.5269 0.0025
# 2 9.7175 41.9084 13.7152 0.0007 -8.0663 0.0008
# 3 29.7117 13.7152 157.2649 0.0019 -4.0597 -0.0003
# 4 0.0003 0.0007 0.0019 54.4898 -0.0022 97.3429
# 5 -10.5269 -8.0663 -4.0597 -0.0022 35.7881 -0.0008
# 6 0.0025 0.0008 -0.0003 97.3429 -0.0008 226.7102
#
#
#
# Elastic Compliance Matrix: (Units=1/GPa)
#
#
# Indices 1 2 3 4 5 6 
#
# 1 0.023402 -0.003007 -0.004011 0.000003 0.005751 -0.000002
# 2 -0.003007 0.025998 -0.001575 0.000000 0.004796 0.000000
# 3 -0.004011 -0.001575 0.007235 -0.000001 -0.000714 0.000001
# 4 0.000003 0.000000 -0.000001 0.078780 0.000005 -0.033826
# 5 0.005751 0.004796 -0.000714 0.000005 0.030634 -0.000002
# 6 -0.000002 0.000000 0.000001 -0.033826 -0.000002 0.018935
#
#
# Mechanical properties :
#
#
# Convention : Reuss Voigt Hill
#
# Bulk Modulus (GPa) = 25.34897 39.68005 32.51451
# Shear Modulus (GPa) = 23.22127 76.57678 49.89902
#
# Velocity S-wave (km/s) = 3.39663 6.16813 4.97910
# Velocity P-wave (km/s) = 5.28932 8.39298 7.01495
#
# Compressibility (1/GPa) = 0.03944933
#
# Stress axis : x y z
#
# Youngs Moduli (GPa) = 42.73096 38.46518 138.20981
#
# Poissons Ratio (x) = 0.11566 0.55431
# Poissons Ratio (y) = 0.12849 0.21773
# Poissons Ratio (z) = 0.17138 0.06060
#
# Static dielectric constant tensor:
#      x y z
#    x 1.765390 0.000000 0.028840 
#    y 0.000000 1.710110 0.000000 
#    z 0.028840 0.000000 1.730500 
# 
# From -- ./inp_files/285109.got.cif
#   From: 2010.05.17/outbox.cif.g08.bks.cpg/sg12_143_cif.got.tgz:285109.got - 2010.06.03 13:09:07.
