data_PCOD9203291
_publ_section_title
;
Structure prediction by ZEFSAII (Michael W. Deem and Ramdas Pophale) SiO2 
 PCOD9203291
Probable space group: C 2/M
;
_chemical_formula_sum "Si O2"
_cell_formula_units_Z 44
_cell_length_a 19.345037
_cell_length_b 22.355590
_cell_length_c 5.171094
_cell_angle_alpha 90.000000
_cell_angle_beta 113.939041
_cell_angle_gamma 90.000000
_cell_volume 2043.966268
_symmetry_space_group_name_H-M "C 2/M"
_symmetry_group_IT_number 12
_symmetry_cell_setting 'monoclinic'
loop_
_space_group_symop_operation_xyz
x,y,z
-x,y,-z
-x,-y,-z
x,-y,z
1/2+x,1/2+y,z
1/2-x,1/2+y,-z
1/2-x,1/2-y,-z
1/2+x,1/2-y,z
loop_
_atom_site_type_symbol
_atom_site_label
_atom_site_fract_x
_atom_site_fract_y
_atom_site_fract_z
Si Si1 0.802704 0.429729 0.301264
Si Si2 0.201809 0.070455 0.662154
Si Si3 0.909853 0.880568 0.885626
Si Si4 0.592065 0.247539 0.124534
Si Si5 0.591117 0.822810 0.625384
Si Si6 0.945728 0.000000 0.169032
O O1 0.820747 0.500000 0.290586
O O2 0.746775 0.410737 0.984189
O O3 0.759679 0.423677 0.507604
O O4 0.874095 0.386511 0.393354
O O5 0.128012 0.104315 0.446544
O O6 0.182122 0.000000 0.652263
O O7 0.882568 0.814295 0.914753
O O8 0.000000 0.875275 0.000000
O O9 0.899152 0.938601 0.053965
O O10 0.615633 0.224550 0.442168
O O11 0.500000 0.247621 0.000000
O O12 0.616448 0.201199 0.942328
O O13 0.500000 0.825849 0.500000
O O14 0.000000 0.000000 0.500000
O O15 0.000000 0.000000 0.000000
#
# Coordination Sequence:
#
# PCOD9203291 Si02
#       6
#     8   8   8   8   8   4
#     4  10  22  39  60  84 115 148 187 238 298 347
#     4  10  21  38  57  83 118 154 186 236 293 339
#     4  10  21  39  59  86 116 155 200 237 277 331
#     4   9  20  35  58  84 117 151 186 236 289 336
#     4  10  20  39  61  85 112 148 191 235 288 352
#     4  10  22  34  54  84 112 144 193 246 271 308
#
# _framework density 21.526775000000001
#
# number of rings (size 3 to 8) (size 9 to 14) (size 15 to 20)
#    0.000    2.182    0.909    1.091    0.000    9.818 
#    0.000    5.455    0.000    6.545    0.000    0.000 
#    0.000    0.000    0.000    0.000    0.000    0.000 
#
# Total GULP energy -122904.152414 kJ/mol
# GULP energy per Si atom -5586.552382 kJ/mol
# Density = 2.147778 g / cm^3
# Si number density = 21.526775 Si / 1000 Ang^3
#
#
#
# Elastic Constant Matrix: (Units=GPa)
#
#
# Indices 1 2 3 4 5 6 
#
# 1 53.5432 43.4099 22.9541 0.0000 -10.6978 0.0000
# 2 43.4099 110.5924 17.0492 0.0000 -2.4737 0.0000
# 3 22.9541 17.0492 85.0846 0.0000 -21.5117 0.0000
# 4 0.0000 0.0000 0.0000 -100.2097 0.0000 -127.3375
# 5 -10.6978 -2.4737 -21.5117 0.0000 24.5278 0.0000
# 6 0.0000 0.0000 0.0000 -127.3375 0.0000 -100.3631
#
#
#
# Elastic Compliance Matrix: (Units=1/GPa)
#
#
# Indices 1 2 3 4 5 6 
#
# 1 0.031571 -0.011590 -0.003866 0.000000 0.009210 0.000000
# 2 -0.011590 0.013601 -0.000681 0.000000 -0.004280 0.000000
# 3 -0.003866 -0.000681 0.016047 0.000000 0.012319 0.000000
# 4 0.000000 0.000000 0.000000 0.016299 0.000000 -0.020680
# 5 0.009210 -0.004280 0.012319 0.000000 0.055159 0.000000
# 6 0.000000 0.000000 0.000000 -0.020680 0.000000 0.016274
#
#
# Mechanical properties :
#
#
# Convention : Reuss Voigt Hill
#
# Bulk Modulus (GPa) = 34.54909 46.22742 40.38825
# Shear Modulus (GPa) = 26.19527 -24.15521 1.02003
#
# Velocity S-wave (km/s) = 3.49215 -3.35341 0.68911
# Velocity P-wave (km/s) = 5.68721 2.55483 4.40860
#
# Compressibility (1/GPa) = 0.02894432
#
# Stress axis : x y z
#
# Youngs Moduli (GPa) = 31.67484 73.52494 62.31707
#
# Poissons Ratio (x) = 0.85217 0.24093
# Poissons Ratio (y) = 0.36712 0.04242
# Poissons Ratio (z) = 0.12246 0.05005
#
# Static dielectric constant tensor:
#      x y z
#    x 1.892860 0.000000 -0.048590 
#    y 0.000000 1.773130 0.000000 
#    z -0.048590 0.000000 1.779230 
# 
# From -- ./inp_files/25066.got.cif
#   From: 2010.05.17/outbox.cif.g08.bks.cpg/sg12_13_cif.got.tgz:25066.got - 2010.06.03 13:09:07.
