data_PCOD9203881
_publ_section_title
;
Structure prediction by ZEFSAII (Michael W. Deem and Ramdas Pophale) SiO2 
 PCOD9203881
Probable space group: C 2/M
;
_chemical_formula_sum "Si O2"
_cell_formula_units_Z 64
_cell_length_a 26.283900
_cell_length_b 17.817862
_cell_length_c 11.279294
_cell_angle_alpha 90.000000
_cell_angle_beta 149.880855
_cell_angle_gamma 90.000000
_cell_volume 2650.682998
_symmetry_space_group_name_H-M "C 2/M"
_symmetry_group_IT_number 12
_symmetry_cell_setting 'monoclinic'
loop_
_space_group_symop_operation_xyz
x,y,z
-x,y,-z
-x,-y,-z
x,-y,z
1/2+x,1/2+y,z
1/2-x,1/2+y,-z
1/2-x,1/2-y,-z
1/2+x,1/2-y,z
loop_
_atom_site_type_symbol
_atom_site_label
_atom_site_fract_x
_atom_site_fract_y
_atom_site_fract_z
Si Si1 0.572529 0.080860 0.899241
Si Si2 0.265617 0.155347 0.931859
Si Si3 0.668460 0.302912 0.082340
Si Si4 0.932784 0.183196 0.573098
Si Si5 0.919586 0.340632 0.441124
Si Si6 0.783512 0.586471 0.455595
Si Si7 0.100272 0.296711 0.152595
Si Si8 0.896959 0.082250 0.717843
O O1 0.475474 0.091178 0.618591
O O2 0.576390 0.000000 0.963413
O O3 0.673889 0.095990 0.027205
O O4 0.569407 0.144132 0.990141
O O5 0.297369 0.236386 0.937975
O O6 0.144355 0.150045 0.681071
O O7 0.316607 0.147790 0.162370
O O8 0.736978 0.375962 0.243528
O O9 0.664448 0.262677 0.205520
O O10 0.553809 0.327420 0.816907
O O11 0.916851 0.271865 0.526361
O O12 0.890305 0.147467 0.608138
O O13 0.000000 0.316909 0.500000
O O14 0.820260 0.500000 0.513894
O O15 0.855977 0.649662 0.657570
O O16 0.694480 0.582607 0.374345
O O17 0.000000 0.257778 0.000000
O O18 0.897651 0.000000 0.658245
O O19 0.000000 0.087450 0.000000
#
# Coordination Sequence:
#
# PCOD9203881 Si02
#       8
#     8   8   8   8   8   8   8   8
#     4  10  21  40  62  88 123 157 197 247 298 354
#     4  10  23  39  60  89 119 153 198 250 301 343
#     4  11  23  38  60  90 119 156 205 244 289 357
#     4  12  21  37  64  86 115 159 196 244 293 353
#     4  10  20  40  59  89 118 150 197 246 304 347
#     4  11  24  40  59  87 125 161 197 244 293 345
#     4  11  24  39  60  89 123 162 199 240 291 352
#     4  10  21  36  57  85 117 153 194 238 285 341
#
# _framework density 24.14472
#
# number of rings (size 3 to 8) (size 9 to 14) (size 15 to 20)
#    0.000    1.375    5.000    2.625    3.500    4.750 
#    0.000    0.000    0.000    1.125    0.000    0.000 
#    0.000    0.000    0.000    0.000    0.000    0.000 
#
# Total GULP energy -178974.357252 kJ/mol
# GULP energy per Si atom -5592.948664 kJ/mol
# Density = 2.408977 g / cm^3
# Si number density = 24.144720 Si / 1000 Ang^3
#
#
#
# Elastic Constant Matrix: (Units=GPa)
#
#
# Indices 1 2 3 4 5 6 
#
# 1 68.4282 20.9118 4.6260 0.0000 -5.5855 0.0000
# 2 20.9118 101.3397 26.4850 0.0000 -5.7480 0.0000
# 3 4.6260 26.4850 157.8190 0.0000 -0.4482 0.0000
# 4 0.0000 0.0000 0.0000 -1.3277 0.0000 -1.5386
# 5 -5.5855 -5.7480 -0.4482 0.0000 27.7315 0.0000
# 6 0.0000 0.0000 0.0000 -1.5386 0.0000 23.2799
#
#
#
# Elastic Compliance Matrix: (Units=1/GPa)
#
#
# Indices 1 2 3 4 5 6 
#
# 1 0.015772 -0.003129 0.000070 0.000000 0.002529 0.000000
# 2 -0.003129 0.011066 -0.001761 0.000000 0.001635 0.000000
# 3 0.000070 -0.001761 0.006629 0.000000 -0.000244 0.000000
# 4 0.000000 0.000000 0.000000 -0.699598 0.000000 -0.046237
# 5 0.002529 0.001635 -0.000244 0.000000 0.036904 0.000000
# 6 0.000000 0.000000 0.000000 -0.046237 0.000000 0.039900
#
#
# Mechanical properties :
#
#
# Convention : Reuss Voigt Hill
#
# Bulk Modulus (GPa) = 41.96887 47.95917 44.96402
# Shear Modulus (GPa) = -8.74518 28.30767 9.78124
#
# Velocity S-wave (km/s) = -1.90522 3.42777 2.01492
# Velocity P-wave (km/s) = 3.54685 5.96427 4.90676
#
# Compressibility (1/GPa) = 0.02382718
#
# Stress axis : x y z
#
# Youngs Moduli (GPa) = 63.40371 90.36289 150.84956
#
# Poissons Ratio (x) = 0.28279 -0.01057
# Poissons Ratio (y) = 0.19842 0.26561
# Poissons Ratio (z) = -0.00444 0.15911
#
# Static dielectric constant tensor:
#      x y z
#    x 1.992850 0.000000 0.038720 
#    y 0.000000 1.886400 0.000000 
#    z 0.038720 0.000000 1.981470 
# 
# From -- ./inp_files/190083.got.cif
#   From: 2010.05.17/outbox.cif.g08.bks.cpg/sg12_96_cif.got.tgz:190083.got - 2010.06.03 13:09:07.
