data_PCOD9203194
_publ_section_title
;
Structure prediction by ZEFSAII (Michael W. Deem and Ramdas Pophale) SiO2 
 PCOD9203194
Probable space group: C 2/M
;
_chemical_formula_sum "Si O2"
_cell_formula_units_Z 56
_cell_length_a 23.884243
_cell_length_b 16.749461
_cell_length_c 24.432189
_cell_angle_alpha 90.000000
_cell_angle_beta 161.285023
_cell_angle_gamma 90.000000
_cell_volume 3136.108347
_symmetry_space_group_name_H-M "C 2/M"
_symmetry_group_IT_number 12
_symmetry_cell_setting 'monoclinic'
loop_
_space_group_symop_operation_xyz
x,y,z
-x,y,-z
-x,-y,-z
x,-y,z
1/2+x,1/2+y,z
1/2-x,1/2+y,-z
1/2-x,1/2-y,-z
1/2+x,1/2-y,z
loop_
_atom_site_type_symbol
_atom_site_label
_atom_site_fract_x
_atom_site_fract_y
_atom_site_fract_z
Si Si1 0.276571 0.329836 0.559825
Si Si2 0.078744 0.590084 0.784345
Si Si3 0.211781 0.500000 0.741570
Si Si4 0.883693 0.171072 0.774558
Si Si5 0.831834 0.678298 0.314930
Si Si6 0.034384 0.000000 0.123528
Si Si7 0.820080 0.165530 0.090702
Si Si8 0.751066 0.737112 0.123420
O O1 0.250000 0.250000 0.500000
O O2 0.253508 0.314492 0.603780
O O3 0.480441 0.351907 0.741139
O O4 0.127560 0.391216 0.402984
O O5 0.105998 0.500000 0.789397
O O6 0.155414 0.658586 0.815626
O O7 0.184974 0.603250 0.939328
O O8 0.123634 0.586863 0.663524
O O9 0.297739 0.500000 0.760860
O O10 0.368708 0.500000 0.930316
O O11 0.810394 0.174304 0.768321
O O12 0.956192 0.081048 0.834512
O O13 0.046419 0.229530 0.921015
O O14 0.775229 0.728599 0.210381
O O15 0.000000 0.712796 0.500000
O O16 0.817809 0.185331 0.153097
O O17 0.750000 0.250000 0.000000
#
# Coordination Sequence:
#
# PCOD9203194 Si02
#       8
#     8   8   4   8   8   4   8   8
#     4  12  21  38  59  78 109 150 191 230 288 333
#     4  11  24  37  57  87 111 144 198 238 271 333
#     4   9  17  32  44  60 102 150 182 220 260 293
#     4  11  21  33  51  72 105 148 190 228 269 319
#     4  11  22  32  45  74 108 145 189 232 262 319
#     4   9  18  30  46  66  96 144 188 217 260 307
#     4  10  20  39  58  78 109 154 181 232 290 332
#     4  11  20  36  55  75 110 153 187 226 280 326
#
# _framework density 17.856525999999999
#
# number of rings (size 3 to 8) (size 9 to 14) (size 15 to 20)
#    0.000    1.286    7.143    1.500    3.000    0.571 
#    2.571    0.000    0.000    0.000    0.000    0.000 
#    0.000    9.714    0.000    0.429    0.000    0.000 
#
# Total GULP energy -156130.962539 kJ/mol
# GULP energy per Si atom -5576.105805 kJ/mol
# Density = 1.781588 g / cm^3
# Si number density = 17.856526 Si / 1000 Ang^3
#
#
#
# Elastic Constant Matrix: (Units=GPa)
#
#
# Indices 1 2 3 4 5 6 
#
# 1 98.0057 20.1189 28.7370 -0.0003 -15.3162 -0.0006
# 2 20.1189 18.7992 11.1419 -0.0053 -3.3448 -0.0004
# 3 28.7370 11.1419 101.0478 -0.0071 -5.8340 -0.0025
# 4 -0.0003 -0.0053 -0.0071 19.5641 -0.0018 0.2756
# 5 -15.3162 -3.3448 -5.8340 -0.0018 35.7249 0.0008
# 6 -0.0006 -0.0004 -0.0025 0.2756 0.0008 21.7357
#
#
#
# Elastic Compliance Matrix: (Units=1/GPa)
#
#
# Indices 1 2 3 4 5 6 
#
# 1 0.014288 -0.013089 -0.002359 -0.000004 0.004515 0.000000
# 2 -0.013089 0.069580 -0.003935 0.000017 0.000260 0.000000
# 3 -0.002359 -0.003935 0.011025 0.000003 0.000421 0.000001
# 4 -0.000004 0.000017 0.000003 0.051123 0.000003 -0.000648
# 5 0.004515 0.000260 0.000421 0.000003 0.030020 -0.000001
# 6 0.000000 0.000000 0.000001 -0.000648 -0.000001 0.046016
#
#
# Mechanical properties :
#
#
# Convention : Reuss Voigt Hill
#
# Bulk Modulus (GPa) = 17.81681 37.53869 27.67775
# Shear Modulus (GPa) = 17.88730 25.92859 21.90794
#
# Velocity S-wave (km/s) = 3.16843 3.81471 3.50649
# Velocity P-wave (km/s) = 4.83578 6.36166 5.65046
#
# Compressibility (1/GPa) = 0.05612678
#
# Stress axis : x y z
#
# Youngs Moduli (GPa) = 69.98948 14.37193 90.69942
#
# Poissons Ratio (x) = 0.18812 0.21400
# Poissons Ratio (y) = 0.91611 0.35687
# Poissons Ratio (z) = 0.16513 0.05655
#
# Static dielectric constant tensor:
#      x y z
#    x 1.707480 0.000000 0.016860 
#    y 0.000000 1.591530 0.000000 
#    z 0.016860 0.000000 1.672270 
# 
# From -- ./inp_files/349973.got.cif
#   From: 2010.05.17/outbox.cif.g08.bks.cpg/sg12_175_cif.got.tgz:349973.got - 2010.06.03 13:09:07.
