data_PCOD9203163
_publ_section_title
;
Structure prediction by ZEFSAII (Michael W. Deem and Ramdas Pophale) SiO2 
 PCOD9203163
Probable space group: C 2/M
;
_chemical_formula_sum "Si O2"
_cell_formula_units_Z 40
_cell_length_a 12.502975
_cell_length_b 21.151097
_cell_length_c 6.943215
_cell_angle_alpha 90.000000
_cell_angle_beta 109.462744
_cell_angle_gamma 90.000000
_cell_volume 1731.224236
_symmetry_space_group_name_H-M "C 2/M"
_symmetry_group_IT_number 12
_symmetry_cell_setting 'monoclinic'
loop_
_space_group_symop_operation_xyz
x,y,z
-x,y,-z
-x,-y,-z
x,-y,z
1/2+x,1/2+y,z
1/2-x,1/2+y,-z
1/2-x,1/2-y,-z
1/2+x,1/2-y,z
loop_
_atom_site_type_symbol
_atom_site_label
_atom_site_fract_x
_atom_site_fract_y
_atom_site_fract_z
Si Si1 0.346685 0.500000 0.486977
Si Si2 0.000000 0.608484 0.500000
Si Si3 0.189070 0.638391 0.879932
Si Si4 0.592470 0.000000 0.298899
Si Si5 0.764622 0.500000 0.976234
Si Si6 0.500000 0.607887 0.500000
Si Si7 0.576929 0.686053 0.886757
Si Si8 0.500000 0.807448 0.000000
O O1 0.217508 0.500000 0.474387
O O2 0.417070 0.562481 0.571823
O O3 0.333894 0.500000 0.243908
O O4 0.890715 0.644891 0.355307
O O5 0.968843 0.561847 0.657557
O O6 0.234242 0.566205 0.913452
O O7 0.295890 0.684896 0.955795
O O8 0.110505 0.651093 0.022831
O O9 0.623191 0.000000 0.093287
O O10 0.573401 0.650909 0.684231
O O11 0.515694 0.754741 0.840308
O O12 0.500000 0.651223 0.000000
#
# Coordination Sequence:
#
# PCOD9203163 Si02
#       8
#     4   4   8   4   4   4   8   4
#     4   9  21  36  66 101 136 173 217 284 335 429
#     4  11  24  33  62  90 134 175 216 283 320 410
#     4  12  23  46  63 102 136 174 236 275 351 400
#     4   9  19  37  50  95 127 170 218 248 347 398
#     4  10  20  38  70  88 140 175 199 300 331 408
#     4  11  20  45  68 102 136 178 228 272 358 397
#     4  10  25  44  70  97 132 185 227 286 328 405
#     4  10  26  45  70  93 136 186 230 290 324 402
#
# _framework density 23.105038
#
# number of rings (size 3 to 8) (size 9 to 14) (size 15 to 20)
#    1.200    0.400    2.000    3.000    2.800    2.000 
#    0.000    4.500    0.000    0.000    0.000    0.000 
#    0.000    0.000    0.000    0.000    0.000    0.000 
#
# Total GULP energy -111455.894067 kJ/mol
# GULP energy per Si atom -5572.794703 kJ/mol
# Density = 2.305245 g / cm^3
# Si number density = 23.105038 Si / 1000 Ang^3
#
#
#
# Elastic Constant Matrix: (Units=GPa)
#
#
# Indices 1 2 3 4 5 6 
#
# 1 86.6234 0.8349 1.1734 0.0000 18.7720 0.0000
# 2 0.8349 81.9321 15.5963 0.0000 -2.1634 0.0000
# 3 1.1734 15.5963 90.2591 0.0000 22.2801 0.0000
# 4 0.0000 0.0000 0.0000 -2.7548 0.0000 -7.8161
# 5 18.7720 -2.1634 22.2801 0.0000 38.2332 0.0000
# 6 0.0000 0.0000 0.0000 -7.8161 0.0000 7.8852
#
#
#
# Elastic Compliance Matrix: (Units=1/GPa)
#
#
# Indices 1 2 3 4 5 6 
#
# 1 0.013164 -0.000679 0.001812 0.000000 -0.007557 0.000000
# 2 -0.000679 0.012834 -0.002885 0.000000 0.002741 0.000000
# 3 0.001812 -0.002885 0.013799 0.000000 -0.009094 0.000000
# 4 0.000000 0.000000 0.000000 -0.095215 0.000000 -0.094381
# 5 -0.007557 0.002741 -0.009094 0.000000 0.035320 0.000000
# 6 0.000000 0.000000 0.000000 -0.094381 0.000000 0.033265
#
#
# Mechanical properties :
#
#
# Convention : Reuss Voigt Hill
#
# Bulk Modulus (GPa) = 27.55404 32.66930 30.11167
# Shear Modulus (GPa) = 173.79782 24.75338 99.27560
#
# Velocity S-wave (km/s) = 8.68240 3.27669 6.56204
# Velocity P-wave (km/s) = 10.60488 5.33720 8.39492
#
# Compressibility (1/GPa) = 0.03629231
#
# Stress axis : x y z
#
# Youngs Moduli (GPa) = 75.96482 77.91949 72.46872
#
# Poissons Ratio (x) = 0.05287 -0.13129
# Poissons Ratio (y) = 0.05155 0.20910
# Poissons Ratio (z) = -0.13762 0.22482
#
# Static dielectric constant tensor:
#      x y z
#    x 1.878630 0.000000 -0.017830 
#    y 0.000000 1.903810 0.000000 
#    z -0.017830 0.000000 1.900820 
# 
# From -- ./inp_files/62978.got.cif
#   From: 2010.05.17/outbox.cif.g08.bks.cpg/sg12_32_cif.got.tgz:62978.got - 2010.06.03 13:09:07.
