data_PCOD9203375
_publ_section_title
;
Structure prediction by ZEFSAII (Michael W. Deem and Ramdas Pophale) SiO2 
 PCOD9203375
Probable space group: C 2/M
;
_chemical_formula_sum "Si O2"
_cell_formula_units_Z 64
_cell_length_a 11.195472
_cell_length_b 25.654734
_cell_length_c 20.304123
_cell_angle_alpha 90.000000
_cell_angle_beta 149.714195
_cell_angle_gamma 90.000000
_cell_volume 2940.999348
_symmetry_space_group_name_H-M "C 2/M"
_symmetry_group_IT_number 12
_symmetry_cell_setting 'monoclinic'
loop_
_space_group_symop_operation_xyz
x,y,z
-x,y,-z
-x,-y,-z
x,-y,z
1/2+x,1/2+y,z
1/2-x,1/2+y,-z
1/2-x,1/2-y,-z
1/2+x,1/2-y,z
loop_
_atom_site_type_symbol
_atom_site_label
_atom_site_fract_x
_atom_site_fract_y
_atom_site_fract_z
Si Si1 0.621989 0.358060 0.932684
Si Si2 0.051852 0.381738 0.797083
Si Si3 0.139621 0.300413 0.737806
Si Si4 0.132623 0.885194 0.789896
Si Si5 0.922959 0.559825 0.607639
Si Si6 0.859996 0.344318 0.494665
Si Si7 0.863714 0.058224 0.334913
Si Si8 0.541479 0.791587 0.090421
O O1 0.360440 0.337453 0.822166
O O2 0.623836 0.389351 0.864513
O O3 0.739092 0.387423 0.050217
O O4 0.793271 0.307242 0.004651
O O5 0.064778 0.323016 0.773614
O O6 0.057468 0.419095 0.735881
O O7 0.806962 0.398251 0.715691
O O8 0.255210 0.244058 0.782337
O O9 0.914825 0.309832 0.584176
O O10 0.145337 0.935119 0.748770
O O11 0.346580 0.847623 0.872288
O O12 0.902571 0.854246 0.654663
O O13 0.976922 0.500000 0.619034
O O14 0.961463 0.598881 0.565107
O O15 0.638651 0.564305 0.485977
O O16 0.000000 0.321993 0.500000
O O17 0.785736 0.000000 0.317326
O O18 0.500000 0.764377 0.000000
#
# Coordination Sequence:
#
# PCOD9203375 Si02
#       8
#     8   8   8   8   8   8   8   8
#     4  11  21  38  63  85 127 164 203 252 297 365
#     4  11  21  35  58  90 123 155 197 250 307 356
#     4  11  23  38  61  91 122 163 206 245 308 369
#     4  10  21  40  63  90 120 156 211 255 304 356
#     4   9  20  37  63  91 117 157 210 252 300 367
#     4  10  20  39  62  87 120 161 193 257 314 359
#     4  10  20  39  65  90 121 161 209 258 301 359
#     4  10  21  38  62  90 119 162 211 252 294 362
#
# _framework density 21.761310999999999
#
# number of rings (size 3 to 8) (size 9 to 14) (size 15 to 20)
#    0.000    1.750    2.500    2.250    0.000    2.750 
#    0.000    1.875    0.000   14.250    0.000    0.000 
#    0.000    0.000    0.000    0.000    0.000    0.000 
#
# Total GULP energy -178464.938883 kJ/mol
# GULP energy per Si atom -5577.029340 kJ/mol
# Density = 2.171178 g / cm^3
# Si number density = 21.761311 Si / 1000 Ang^3
#
#
#
# Elastic Constant Matrix: (Units=GPa)
#
#
# Indices 1 2 3 4 5 6 
#
# 1 67.5290 9.1774 22.8230 0.0033 -13.7670 0.0024
# 2 9.1774 50.0623 20.1419 -0.0086 3.3191 -0.0022
# 3 22.8230 20.1419 117.9438 -0.0341 -23.9224 -0.0047
# 4 0.0033 -0.0086 -0.0341 13.1620 0.0015 6.9707
# 5 -13.7670 3.3191 -23.9224 0.0015 38.5313 -0.0008
# 6 0.0024 -0.0022 -0.0047 6.9707 -0.0008 17.4105
#
#
#
# Elastic Compliance Matrix: (Units=1/GPa)
#
#
# Indices 1 2 3 4 5 6 
#
# 1 0.016820 -0.002725 -0.001742 -0.000012 0.005163 0.000002
# 2 -0.002725 0.022666 -0.004504 0.000005 -0.005722 0.000000
# 3 -0.001742 -0.004504 0.010911 0.000030 0.006540 -0.000009
# 4 -0.000012 0.000005 0.000030 0.096422 0.000009 -0.038605
# 5 0.005163 -0.005722 0.006540 0.000009 0.032351 -0.000002
# 6 0.000002 0.000000 -0.000009 -0.038605 -0.000002 0.072893
#
#
# Mechanical properties :
#
#
# Convention : Reuss Voigt Hill
#
# Bulk Modulus (GPa) = 30.81178 37.75775 34.28477
# Shear Modulus (GPa) = 17.80472 26.04695 21.92583
#
# Velocity S-wave (km/s) = 2.86349 3.46343 3.17765
# Velocity P-wave (km/s) = 5.01223 5.77775 5.40855
#
# Compressibility (1/GPa) = 0.03245512
#
# Stress axis : x y z
#
# Youngs Moduli (GPa) = 59.45257 44.11851 91.64648
#
# Poissons Ratio (x) = 0.12021 0.15968
# Poissons Ratio (y) = 0.16199 0.41280
# Poissons Ratio (z) = 0.10359 0.19872
#
# Static dielectric constant tensor:
#      x y z
#    x 1.840340 -0.000010 -0.020490 
#    y -0.000010 1.802690 -0.000020 
#    z -0.020490 -0.000020 1.823420 
# 
# From -- ./inp_files/307488.got.cif
#   From: 2010.05.17/outbox.cif.g08.bks.cpg/sg12_154_cif.got.tgz:307488.got - 2010.06.03 13:09:07.
