data_PCOD9203644
_publ_section_title
;
Structure prediction by ZEFSAII (Michael W. Deem and Ramdas Pophale) SiO2 
 PCOD9203644
Probable space group: C 2/M
;
_chemical_formula_sum "Si O2"
_cell_formula_units_Z 40
_cell_length_a 25.743469
_cell_length_b 15.861942
_cell_length_c 7.883085
_cell_angle_alpha 90.000000
_cell_angle_beta 143.999055
_cell_angle_gamma 90.000000
_cell_volume 1892.117837
_symmetry_space_group_name_H-M "C 2/M"
_symmetry_group_IT_number 12
_symmetry_cell_setting 'monoclinic'
loop_
_space_group_symop_operation_xyz
x,y,z
-x,y,-z
-x,-y,-z
x,-y,z
1/2+x,1/2+y,z
1/2-x,1/2+y,-z
1/2-x,1/2-y,-z
1/2+x,1/2-y,z
loop_
_atom_site_type_symbol
_atom_site_label
_atom_site_fract_x
_atom_site_fract_y
_atom_site_fract_z
Si Si1 0.923693 0.745625 0.666246
Si Si2 0.764612 0.679355 0.729818
Si Si3 0.823088 0.596088 0.230382
Si Si4 0.300816 0.362756 0.785733
Si Si5 0.505115 0.589678 0.715687
O O1 0.833310 0.780221 0.510930
O O2 0.894690 0.665854 0.477055
O O3 0.958916 0.827331 0.661117
O O4 0.000000 0.721681 0.000000
O O5 0.764861 0.633892 0.549067
O O6 0.823211 0.764108 0.880213
O O7 0.786757 0.623831 0.950759
O O8 0.855176 0.500000 0.311803
O O9 0.745218 0.602962 0.166260
O O10 0.391024 0.406426 0.971382
O O11 0.500000 0.590245 0.500000
O O12 0.467411 0.500000 0.679638
#
# Coordination Sequence:
#
# PCOD9203644 Si02
#       5
#     8   8   8   8   8
#     4  11  22  41  61  90 129 165 202 254 319 374
#     4  10  21  40  65  89 120 166 210 257 309 368
#     4  11  24  41  64  92 126 169 215 256 298 367
#     4  10  20  39  65  90 119 162 208 259 312 367
#     4  11  22  36  60  93 125 156 198 261 323 373
#
# _framework density 21.140332000000001
#
# number of rings (size 3 to 8) (size 9 to 14) (size 15 to 20)
#    0.000    1.400    2.000    5.400    0.000    4.800 
#    0.000    0.000    0.000    1.800    0.000    0.000 
#    0.000    0.000    0.000    0.000    0.000    0.000 
#
# Total GULP energy -111737.799274 kJ/mol
# GULP energy per Si atom -5586.889964 kJ/mol
# Density = 2.109222 g / cm^3
# Si number density = 21.140332 Si / 1000 Ang^3
#
#
#
# Elastic Constant Matrix: (Units=GPa)
#
#
# Indices 1 2 3 4 5 6 
#
# 1 68.8003 47.9490 19.0491 0.0000 -22.8580 0.0000
# 2 47.9490 151.3360 46.2178 0.0000 -8.5736 0.0000
# 3 19.0491 46.2178 71.6617 0.0000 -18.2622 0.0000
# 4 0.0000 0.0000 0.0000 50.5161 0.0000 -22.4421
# 5 -22.8580 -8.5736 -18.2622 0.0000 39.2830 0.0000
# 6 0.0000 0.0000 0.0000 -22.4421 0.0000 35.8333
#
#
#
# Elastic Compliance Matrix: (Units=1/GPa)
#
#
# Indices 1 2 3 4 5 6 
#
# 1 0.023320 -0.007181 0.001691 0.000000 0.012788 0.000000
# 2 -0.007181 0.010460 -0.006035 0.000000 -0.004701 0.000000
# 3 0.001691 -0.006035 0.019639 0.000000 0.008797 0.000000
# 4 0.000000 0.000000 0.000000 0.027427 0.000000 0.017177
# 5 0.012788 -0.004701 0.008797 0.000000 0.035961 0.000000
# 6 0.000000 0.000000 0.000000 0.017177 0.000000 0.038665
#
#
# Mechanical properties :
#
#
# Convention : Reuss Voigt Hill
#
# Bulk Modulus (GPa) = 32.92802 57.58110 45.25456
# Shear Modulus (GPa) = 26.50503 37.03193 31.76848
#
# Velocity S-wave (km/s) = 3.54470 4.18990 3.88073
# Velocity P-wave (km/s) = 5.68884 7.12065 6.44463
#
# Compressibility (1/GPa) = 0.03036927
#
# Stress axis : x y z
#
# Youngs Moduli (GPa) = 42.88224 95.60495 50.91892
#
# Poissons Ratio (x) = 0.68650 -0.08611
# Poissons Ratio (y) = 0.30792 0.30731
# Poissons Ratio (z) = -0.07252 0.57700
#
# Static dielectric constant tensor:
#      x y z
#    x 1.798520 0.000000 0.029490 
#    y 0.000000 1.824620 0.000000 
#    z 0.029490 0.000000 1.822630 
# 
# From -- ./inp_files/73330.got.cif
#   From: 2010.05.17/outbox.cif.g08.bks.cpg/sg12_37_cif.got.tgz:73330.got - 2010.06.03 13:09:07.
