data_PCOD9203687
_publ_section_title
;
Structure prediction by ZEFSAII (Michael W. Deem and Ramdas Pophale) SiO2 
 PCOD9203687
Probable space group: C 2/M
;
_chemical_formula_sum "Si O2"
_cell_formula_units_Z 52
_cell_length_a 18.646664
_cell_length_b 19.236053
_cell_length_c 8.986453
_cell_angle_alpha 90.000000
_cell_angle_beta 50.727089
_cell_angle_gamma 90.000000
_cell_volume 2495.311054
_symmetry_space_group_name_H-M "C 2/M"
_symmetry_group_IT_number 12
_symmetry_cell_setting 'monoclinic'
loop_
_space_group_symop_operation_xyz
x,y,z
-x,y,-z
-x,-y,-z
x,-y,z
1/2+x,1/2+y,z
1/2-x,1/2+y,-z
1/2-x,1/2-y,-z
1/2+x,1/2-y,z
loop_
_atom_site_type_symbol
_atom_site_label
_atom_site_fract_x
_atom_site_fract_y
_atom_site_fract_z
Si Si1 0.906831 0.672486 0.828140
Si Si2 0.000000 0.784111 0.500000
Si Si3 0.641978 0.682412 0.551840
Si Si4 0.413543 0.081210 0.370682
Si Si5 0.606777 0.416747 0.852088
Si Si6 0.271644 0.917962 0.834373
Si Si7 0.353137 0.194617 0.226400
O O1 0.931854 0.734028 0.683046
O O2 0.814042 0.631902 0.902626
O O3 0.990528 0.617108 0.708751
O O4 0.899541 0.699403 0.005694
O O5 0.936372 0.825543 0.468709
O O6 0.649132 0.616138 0.648564
O O7 0.617679 0.746179 0.694560
O O8 0.742358 0.699809 0.353988
O O9 0.339913 0.089107 0.601613
O O10 0.378073 0.122164 0.272876
O O11 0.426368 0.000000 0.325472
O O12 0.610431 0.500000 0.839732
O O13 0.670303 0.396389 0.908795
O O14 0.500000 0.394577 0.000000
O O15 0.271081 0.000000 0.877096
#
# Coordination Sequence:
#
# PCOD9203687 Si02
#       7
#     8   4   8   8   8   8   8
#     4  12  23  39  62 100 135 173 210 260 311 400
#     4  12  26  40  64  94 132 166 218 268 326 376
#     4  11  25  46  63  92 127 170 216 276 317 380
#     4  11  21  39  65  97 137 175 205 255 320 389
#     4  10  23  43  71  95 119 166 224 272 323 380
#     4  10  20  39  65  94 133 173 210 262 322 382
#     4  11  25  41  64  93 134 174 218 256 318 382
#
# _framework density 20.839085000000001
#
# number of rings (size 3 to 8) (size 9 to 14) (size 15 to 20)
#    0.000    1.077    4.615    0.923    4.308    4.923 
#    0.000    0.385    0.000    0.000    0.000    0.000 
#    0.000    0.000    0.000    0.000    0.000    0.000 
#
# Total GULP energy -145471.292174 kJ/mol
# GULP energy per Si atom -5595.049699 kJ/mol
# Density = 2.079165 g / cm^3
# Si number density = 20.839085 Si / 1000 Ang^3
#
#
#
# Elastic Constant Matrix: (Units=GPa)
#
#
# Indices 1 2 3 4 5 6 
#
# 1 117.2409 9.5456 -6.9899 0.0000 -14.7817 0.0000
# 2 9.5456 20.9802 0.0185 0.0000 -2.0760 0.0000
# 3 -6.9899 0.0185 51.9512 0.0000 -0.3929 0.0000
# 4 0.0000 0.0000 0.0000 13.7089 0.0000 0.5392
# 5 -14.7817 -2.0760 -0.3929 0.0000 31.8715 0.0000
# 6 0.0000 0.0000 0.0000 0.5392 0.0000 24.0687
#
#
#
# Elastic Compliance Matrix: (Units=1/GPa)
#
#
# Indices 1 2 3 4 5 6 
#
# 1 0.009446 -0.003889 0.001304 0.000000 0.004144 0.000000
# 2 -0.003889 0.049574 -0.000530 0.000000 0.001419 0.000000
# 3 0.001304 -0.000530 0.019431 0.000000 0.000810 0.000000
# 4 0.000000 0.000000 0.000000 0.073010 0.000000 -0.001636
# 5 0.004144 0.001419 0.000810 0.000000 0.033400 0.000000
# 6 0.000000 0.000000 0.000000 -0.001636 0.000000 0.041584
#
#
# Mechanical properties :
#
#
# Convention : Reuss Voigt Hill
#
# Bulk Modulus (GPa) = 13.84654 21.70228 17.77441
# Shear Modulus (GPa) = 19.47420 26.43636 22.95528
#
# Velocity S-wave (km/s) = 3.06028 3.56560 3.32256
# Velocity P-wave (km/s) = 4.37562 5.23337 4.82360
#
# Compressibility (1/GPa) = 0.07222022
#
# Stress axis : x y z
#
# Youngs Moduli (GPa) = 105.86203 20.17174 51.46529
#
# Poissons Ratio (x) = 0.07845 -0.06710
# Poissons Ratio (y) = 0.41170 0.02729
# Poissons Ratio (z) = -0.13801 0.01069
#
# Static dielectric constant tensor:
#      x y z
#    x 1.763170 0.000000 -0.035300 
#    y 0.000000 1.735380 0.000000 
#    z -0.035300 0.000000 1.736330 
# 
# From -- ./inp_files/77958.got.cif
#   From: 2010.05.17/outbox.cif.g08.bks.cpg/sg12_39_cif.got.tgz:77958.got - 2010.06.03 13:09:07.
