data_PCOD9203208
_publ_section_title
;
Structure prediction by ZEFSAII (Michael W. Deem and Ramdas Pophale) SiO2 
 PCOD9203208
Probable space group: C 2/M
;
_chemical_formula_sum "Si O2"
_cell_formula_units_Z 40
_cell_length_a 16.076748
_cell_length_b 27.124605
_cell_length_c 9.380952
_cell_angle_alpha 90.000000
_cell_angle_beta 29.180796
_cell_angle_gamma 90.000000
_cell_volume 1994.540643
_symmetry_space_group_name_H-M "C 2/M"
_symmetry_group_IT_number 12
_symmetry_cell_setting 'monoclinic'
loop_
_space_group_symop_operation_xyz
x,y,z
-x,y,-z
-x,-y,-z
x,-y,z
1/2+x,1/2+y,z
1/2-x,1/2+y,-z
1/2-x,1/2-y,-z
1/2+x,1/2-y,z
loop_
_atom_site_type_symbol
_atom_site_label
_atom_site_fract_x
_atom_site_fract_y
_atom_site_fract_z
Si Si1 0.164077 0.555859 0.859949
Si Si2 0.491538 0.295713 0.171360
Si Si3 0.127334 0.275630 0.425683
Si Si4 0.856353 0.093834 0.314365
Si Si5 0.482508 0.884328 0.358091
O O1 0.173914 0.500000 0.899413
O O2 0.315682 0.567815 0.524042
O O3 0.000000 0.559393 0.000000
O O4 0.133393 0.593420 0.035527
O O5 0.371195 0.264443 0.452758
O O6 0.421210 0.351037 0.258197
O O7 0.500000 0.274001 0.000000
O O8 0.692004 0.292040 0.911545
O O9 0.036403 0.325245 0.619179
O O10 0.000000 0.254103 0.500000
O O11 0.689850 0.097021 0.462030
O O12 0.000000 0.070261 0.000000
O O13 0.500000 0.897231 0.500000
#
# Coordination Sequence:
#
# PCOD9203208 Si02
#       5
#     8   8   8   8   8
#     4   9  20  38  64  90 112 152 200 240 294 350
#     4  11  22  37  56  85 115 155 196 232 285 341
#     4  11  23  38  57  85 118 154 196 236 290 339
#     4  10  20  39  58  86 119 150 195 242 288 347
#     4  10  21  38  60  85 119 153 194 241 292 345
#
# _framework density 20.054743999999999
#
# number of rings (size 3 to 8) (size 9 to 14) (size 15 to 20)
#    0.000    1.800    4.000    1.200    2.800    1.600 
#    0.000    1.000    0.000    1.200    0.000    0.000 
#    0.000    0.000    0.000    0.000    0.000    0.000 
#
# Total GULP energy -111469.310559 kJ/mol
# GULP energy per Si atom -5573.465528 kJ/mol
# Density = 2.000910 g / cm^3
# Si number density = 20.054744 Si / 1000 Ang^3
#
#
#
# Elastic Constant Matrix: (Units=GPa)
#
#
# Indices 1 2 3 4 5 6 
#
# 1 29.5961 -8.4416 -3.9223 -0.0002 -13.0006 0.0002
# 2 -8.4416 45.4371 23.9482 0.0000 14.1117 0.0000
# 3 -3.9223 23.9482 97.1806 -0.0003 8.6428 0.0002
# 4 -0.0002 0.0000 -0.0003 24.4146 0.0001 9.0366
# 5 -13.0006 14.1117 8.6428 0.0001 27.3505 -0.0001
# 6 0.0002 0.0000 0.0002 9.0366 -0.0001 11.5770
#
#
#
# Elastic Compliance Matrix: (Units=1/GPa)
#
#
# Indices 1 2 3 4 5 6 
#
# 1 0.042874 0.002226 -0.000544 0.000001 0.019403 -0.000001
# 2 0.002226 0.029411 -0.006073 0.000000 -0.012198 0.000000
# 3 -0.000544 -0.006073 0.011842 0.000000 -0.000867 0.000000
# 4 0.000001 0.000000 0.000000 0.057601 0.000000 -0.044961
# 5 0.019403 -0.012198 -0.000867 0.000000 0.052353 0.000000
# 6 -0.000001 0.000000 0.000000 -0.044961 0.000000 0.121474
#
#
# Mechanical properties :
#
#
# Convention : Reuss Voigt Hill
#
# Bulk Modulus (GPa) = 13.27221 21.70916 17.49068
# Shear Modulus (GPa) = 14.30814 23.37705 18.84259
#
# Velocity S-wave (km/s) = 2.67395 3.41788 3.06855
# Velocity P-wave (km/s) = 4.02066 5.14046 4.61465
#
# Compressibility (1/GPa) = 0.07534540
#
# Stress axis : x y z
#
# Youngs Moduli (GPa) = 23.32407 34.00060 84.44595
#
# Poissons Ratio (x) = -0.07568 0.04591
# Poissons Ratio (y) = -0.05192 0.51285
# Poissons Ratio (z) = 0.01268 0.20649
#
# Static dielectric constant tensor:
#      x y z
#    x 1.761520 0.000000 -0.038910 
#    y 0.000000 1.683610 0.000000 
#    z -0.038910 0.000000 1.773230 
# 
# From -- ./inp_files/41393.got.cif
#   From: 2010.05.17/outbox.cif.g08.bks.cpg/sg12_21_cif.got.tgz:41393.got - 2010.06.03 13:09:07.
