data_PCOD9203140
_publ_section_title
;
Structure prediction by ZEFSAII (Michael W. Deem and Ramdas Pophale) SiO2 
 PCOD9203140
Probable space group: C 2/M
;
_chemical_formula_sum "Si O2"
_cell_formula_units_Z 48
_cell_length_a 17.010067
_cell_length_b 18.345714
_cell_length_c 19.690449
_cell_angle_alpha 90.000000
_cell_angle_beta 21.606513
_cell_angle_gamma 90.000000
_cell_volume 2262.641324
_symmetry_space_group_name_H-M "C 2/M"
_symmetry_group_IT_number 12
_symmetry_cell_setting 'monoclinic'
loop_
_space_group_symop_operation_xyz
x,y,z
-x,y,-z
-x,-y,-z
x,-y,z
1/2+x,1/2+y,z
1/2-x,1/2+y,-z
1/2-x,1/2-y,-z
1/2+x,1/2-y,z
loop_
_atom_site_type_symbol
_atom_site_label
_atom_site_fract_x
_atom_site_fract_y
_atom_site_fract_z
Si Si1 0.242626 0.344977 0.061844
Si Si2 0.087742 0.500000 0.505355
Si Si3 0.115807 0.000000 0.479306
Si Si4 0.184822 0.222638 0.738533
Si Si5 0.769429 0.500000 0.103824
Si Si6 0.940401 0.338978 0.652032
Si Si7 0.902751 0.000000 0.912425
Si Si8 0.056747 0.621856 0.822888
O O1 0.111256 0.314601 0.230799
O O2 0.107164 0.348367 0.102218
O O3 0.465099 0.303219 0.881820
O O4 0.311833 0.428343 0.020487
O O5 0.342982 0.500000 0.295721
O O6 0.000000 0.500000 0.500000
O O7 0.007952 0.423825 0.600348
O O8 0.271938 0.929833 0.353200
O O9 0.000000 0.000000 0.500000
O O10 0.929388 0.000000 0.685283
O O11 0.369708 0.205328 0.536105
O O12 0.243246 0.176492 0.759100
O O13 0.168288 0.308466 0.766822
O O14 0.678208 0.500000 0.100308
O O15 0.923533 0.570637 0.981270
#
# Coordination Sequence:
#
# PCOD9203140 Si02
#       8
#     8   4   4   8   4   8   4   8
#     4  11  22  41  63  98 129 173 219 269 325 386
#     4  12  19  37  58  91 126 170 212 258 312 374
#     4  11  26  47  72 101 126 165 222 276 331 398
#     4  11  23  42  59  93 139 174 218 264 322 391
#     4   9  23  47  72  96 122 168 208 274 345 380
#     4  11  24  37  65  93 133 178 221 263 324 384
#     4  10  20  38  68  91 132 165 208 274 309 382
#     4  10  25  43  69  99 130 165 221 273 328 399
#
# _framework density 21.214144000000001
#
# number of rings (size 3 to 8) (size 9 to 14) (size 15 to 20)
#    0.000    1.333    3.333    2.000    4.667    3.333 
#    3.000    2.500    0.000    0.000    0.000    0.000 
#    0.000    0.000    0.000    0.000    0.000    0.000 
#
# Total GULP energy -134113.046094 kJ/mol
# GULP energy per Si atom -5588.043587 kJ/mol
# Density = 2.116586 g / cm^3
# Si number density = 21.214144 Si / 1000 Ang^3
#
#
#
# Elastic Constant Matrix: (Units=GPa)
#
#
# Indices 1 2 3 4 5 6 
#
# 1 72.7424 19.5311 46.9195 -0.2954 -3.6945 -0.3634
# 2 19.5311 141.6401 61.2636 0.0071 -17.4063 -0.1626
# 3 46.9195 61.2636 136.7582 0.1299 4.5003 -0.0662
# 4 -0.2954 0.0071 0.1299 64.5915 -0.1180 36.6207
# 5 -3.6945 -17.4063 4.5003 -0.1180 24.1483 -0.0292
# 6 -0.3634 -0.1626 -0.0662 36.6207 -0.0292 54.9878
#
#
#
# Elastic Compliance Matrix: (Units=1/GPa)
#
#
# Indices 1 2 3 4 5 6 
#
# 1 0.018127 0.001054 -0.006850 0.000062 0.004810 0.000076
# 2 0.001054 0.010216 -0.005218 0.000015 0.008498 0.000025
# 3 -0.006850 -0.005218 0.012233 -0.000064 -0.007089 -0.000007
# 4 0.000062 0.000015 -0.000064 0.024874 0.000134 -0.016565
# 5 0.004810 0.008498 -0.007089 0.000134 0.049594 -0.000015
# 6 0.000076 0.000025 -0.000007 -0.016565 -0.000015 0.029219
#
#
# Mechanical properties :
#
#
# Convention : Reuss Voigt Hill
#
# Bulk Modulus (GPa) = 53.90941 67.39657 60.65299
# Shear Modulus (GPa) = 28.99018 43.64062 36.31540
#
# Velocity S-wave (km/s) = 3.70070 4.54050 4.14194
# Velocity P-wave (km/s) = 6.61267 7.70239 7.17824
#
# Compressibility (1/GPa) = 0.01854964
#
# Stress axis : x y z
#
# Youngs Moduli (GPa) = 55.16586 97.88659 81.74635
#
# Poissons Ratio (x) = -0.10321 0.55994
# Poissons Ratio (y) = -0.05816 0.42653
# Poissons Ratio (z) = 0.37787 0.51075
#
# Static dielectric constant tensor:
#      x y z
#    x 1.760690 -0.000080 -0.027910 
#    y -0.000080 1.841410 0.000010 
#    z -0.027910 0.000010 1.771910 
# 
# From -- ./inp_files/317905.got.cif
#   From: 2010.05.17/outbox.cif.g08.bks.cpg/sg12_159_cif.got.tgz:317905.got - 2010.06.03 13:09:07.
