data_PCOD9203179
_publ_section_title
;
Structure prediction by ZEFSAII (Michael W. Deem and Ramdas Pophale) SiO2 
 PCOD9203179
Probable space group: C 2/M
;
_chemical_formula_sum "Si O2"
_cell_formula_units_Z 56
_cell_length_a 9.977621
_cell_length_b 25.153444
_cell_length_c 15.530773
_cell_angle_alpha 90.000000
_cell_angle_beta 60.477186
_cell_angle_gamma 90.000000
_cell_volume 3391.692141
_symmetry_space_group_name_H-M "C 2/M"
_symmetry_group_IT_number 12
_symmetry_cell_setting 'monoclinic'
loop_
_space_group_symop_operation_xyz
x,y,z
-x,y,-z
-x,-y,-z
x,-y,z
1/2+x,1/2+y,z
1/2-x,1/2+y,-z
1/2-x,1/2-y,-z
1/2+x,1/2-y,z
loop_
_atom_site_type_symbol
_atom_site_label
_atom_site_fract_x
_atom_site_fract_y
_atom_site_fract_z
Si Si1 0.547977 0.808120 0.580489
Si Si2 0.265369 0.936042 0.126057
Si Si3 0.410544 0.064084 0.895974
Si Si4 0.438637 0.596467 0.300416
Si Si5 0.107301 0.000000 0.550196
Si Si6 0.963143 0.500000 0.410275
Si Si7 0.089640 0.815015 0.553247
Si Si8 0.860643 0.600660 0.724546
O O1 0.500000 0.826341 0.500000
O O2 0.731135 0.814883 0.529783
O O3 0.526249 0.744511 0.590280
O O4 0.447411 0.844193 0.675406
O O5 0.410674 0.922086 0.140991
O O6 0.104889 0.911164 0.204906
O O7 0.248902 0.000000 0.135672
O O8 0.316045 0.922971 0.012483
O O9 0.348604 0.091730 0.830245
O O10 0.403417 0.000000 0.886970
O O11 0.415879 0.550417 0.379391
O O12 0.429680 0.650922 0.355646
O O13 0.301296 0.595806 0.274238
O O14 0.280532 0.000000 0.460274
O O15 0.000000 0.000000 0.500000
O O16 0.000000 0.500000 0.500000
O O17 0.035130 0.552385 0.344881
O O18 0.000000 0.838269 0.500000
#
# Coordination Sequence:
#
# PCOD9203179 Si02
#       8
#     8   8   8   8   4   4   8   8
#     4  10  20  39  55  76 112 149 184 230 263 321
#     4   9  20  38  57  78 113 141 185 231 266 325
#     4   9  20  38  57  80 106 149 185 222 275 327
#     4  12  22  36  53  84 112 145 182 228 271 324
#     4  12  26  34  49  80 119 149 178 217 272 322
#     4  12  22  36  49  78 119 151 172 209 274 338
#     4  10  22  36  56  79 107 148 194 224 267 313
#     4  12  22  34  57  81 112 148 181 220 277 330
#
# _framework density 16.510933000000001
#
# number of rings (size 3 to 8) (size 9 to 14) (size 15 to 20)
#    0.000    1.429    4.286    2.571    4.000    0.571 
#    0.000    1.429    0.000    0.857    0.000    0.000 
#    0.000    0.000    0.000    0.000    0.000    0.000 
#
# Total GULP energy -156287.291941 kJ/mol
# GULP energy per Si atom -5581.688998 kJ/mol
# Density = 1.647335 g / cm^3
# Si number density = 16.510933 Si / 1000 Ang^3
#
#
#
# Elastic Constant Matrix: (Units=GPa)
#
#
# Indices 1 2 3 4 5 6 
#
# 1 138.5832 27.8897 65.6270 0.0000 9.5296 0.0000
# 2 27.8897 49.7973 30.9345 0.0000 2.5982 0.0000
# 3 65.6270 30.9345 84.6829 0.0000 2.4613 0.0000
# 4 0.0000 0.0000 0.0000 9.8312 0.0000 3.6118
# 5 9.5296 2.5982 2.4613 0.0000 37.9180 0.0000
# 6 0.0000 0.0000 0.0000 3.6118 0.0000 10.3107
#
#
#
# Elastic Compliance Matrix: (Units=1/GPa)
#
#
# Indices 1 2 3 4 5 6 
#
# 1 0.011647 -0.001083 -0.008564 0.000000 -0.002297 0.000000
# 2 -0.001083 0.026128 -0.008677 0.000000 -0.000955 0.000000
# 3 -0.008564 -0.008677 0.021576 0.000000 0.001346 0.000000
# 4 0.000000 0.000000 0.000000 0.116740 0.000000 -0.040893
# 5 -0.002297 -0.000955 0.001346 0.000000 0.026928 0.000000
# 6 0.000000 0.000000 0.000000 -0.040893 0.000000 0.111311
#
#
# Mechanical properties :
#
#
# Convention : Reuss Voigt Hill
#
# Bulk Modulus (GPa) = 44.04739 57.99619 51.02179
# Shear Modulus (GPa) = 13.94515 21.51947 17.73231
#
# Velocity S-wave (km/s) = 2.90935 3.61411 3.28071
# Velocity P-wave (km/s) = 6.16615 7.25382 6.73199
#
# Compressibility (1/GPa) = 0.02270282
#
# Stress axis : x y z
#
# Youngs Moduli (GPa) = 85.85640 38.27253 46.34747
#
# Poissons Ratio (x) = 0.04147 0.39691
# Poissons Ratio (y) = 0.09302 0.40217
# Poissons Ratio (z) = 0.73526 0.33210
#
# Static dielectric constant tensor:
#      x y z
#    x 1.576630 0.000000 0.000790 
#    y 0.000000 1.558440 0.000000 
#    z 0.000790 0.000000 1.540230 
# 
# From -- ./inp_files/199721.got.cif
#   From: 2010.05.17/outbox.cif.g08.bks.cpg/sg12_100_cif.got.tgz:199721.got - 2010.06.03 13:09:07.
