data_PCOD9203893
_publ_section_title
;
Structure prediction by ZEFSAII (Michael W. Deem and Ramdas Pophale) SiO2 
 PCOD9203893
Probable space group: C 2/M
;
_chemical_formula_sum "Si O2"
_cell_formula_units_Z 42
_cell_length_a 18.944748
_cell_length_b 18.921828
_cell_length_c 17.982348
_cell_angle_alpha 90.000000
_cell_angle_beta 21.799017
_cell_angle_gamma 90.000000
_cell_volume 2393.778590
_symmetry_space_group_name_H-M "C 2/M"
_symmetry_group_IT_number 12
_symmetry_cell_setting 'monoclinic'
loop_
_space_group_symop_operation_xyz
x,y,z
-x,y,-z
-x,-y,-z
x,-y,z
1/2+x,1/2+y,z
1/2-x,1/2+y,-z
1/2-x,1/2-y,-z
1/2+x,1/2-y,z
loop_
_atom_site_type_symbol
_atom_site_label
_atom_site_fract_x
_atom_site_fract_y
_atom_site_fract_z
Si Si1 0.227347 0.827157 0.560854
Si Si2 0.408887 0.243479 0.514184
Si Si3 0.845922 0.812209 0.857810
Si Si4 0.000000 0.000000 0.500000
Si Si5 0.691167 0.885609 0.767249
Si Si6 0.003206 0.580941 0.194003
O O1 0.250000 0.750000 0.500000
O O2 0.277348 0.810802 0.597066
O O3 0.382287 0.880607 0.376608
O O4 0.015793 0.846392 0.741024
O O5 0.500000 0.213088 0.500000
O O6 0.563428 0.276266 0.304655
O O7 0.284872 0.310156 0.661060
O O8 0.750000 0.750000 0.000000
O O9 0.686948 0.870887 0.997180
O O10 0.835791 0.938250 0.665016
O O11 0.634250 0.916949 0.742885
O O12 0.500000 0.878092 0.000000
O O13 0.052939 0.500000 0.162335
#
# Coordination Sequence:
#
# PCOD9203893 Si02
#       6
#     8   8   8   2   8   8
#     4  10  20  40  60  84 120 154 207 253 296 361
#     4  11  21  38  63  90 120 160 208 248 308 362
#     4  11  20  39  63  84 121 163 200 256 300 357
#     4  12  26  40  48  82 140 172 194 240 300 372
#     4  12  24  38  55  87 129 168 201 244 295 372
#     4  12  24  37  61  89 120 164 207 248 305 358
#
# _framework density 17.545483000000001
#
# number of rings (size 3 to 8) (size 9 to 14) (size 15 to 20)
#    0.000    0.762    9.524    1.429    0.000    0.762 
#    0.000    0.000    0.000    0.571    0.000    1.333 
#    0.000    0.000    0.000    0.000    0.000    0.000 
#
# Total GULP energy -116957.254040 kJ/mol
# GULP energy per Si atom -5569.393050 kJ/mol
# Density = 1.750555 g / cm^3
# Si number density = 17.545483 Si / 1000 Ang^3
#
#
#
# Elastic Constant Matrix: (Units=GPa)
#
#
# Indices 1 2 3 4 5 6 
#
# 1 76.3712 -11.5256 2.1383 -0.0085 6.1344 -0.0012
# 2 -11.5256 36.7368 -3.3856 -0.0319 12.6024 0.0105
# 3 2.1383 -3.3856 81.4645 -0.0547 6.5058 0.0191
# 4 -0.0085 -0.0319 -0.0547 19.2458 0.0169 -1.7750
# 5 6.1344 12.6024 6.5058 0.0169 24.0959 0.0016
# 6 -0.0012 0.0105 0.0191 -1.7750 0.0016 9.0094
#
#
#
# Elastic Compliance Matrix: (Units=1/GPa)
#
#
# Indices 1 2 3 4 5 6 
#
# 1 0.014814 0.007361 0.000537 0.000027 -0.007766 -0.000001
# 2 0.007361 0.037479 0.003147 0.000091 -0.022326 -0.000027
# 3 0.000537 0.003147 0.012811 0.000044 -0.005242 -0.000021
# 4 0.000027 0.000091 0.000044 0.052921 -0.000105 0.010426
# 5 -0.007766 -0.022326 -0.005242 -0.000105 0.056570 0.000005
# 6 -0.000001 -0.000027 -0.000021 0.010426 0.000005 0.113049
#
#
# Mechanical properties :
#
#
# Convention : Reuss Voigt Hill
#
# Bulk Modulus (GPa) = 11.46847 18.78076 15.12461
# Shear Modulus (GPa) = 16.97116 24.29324 20.63220
#
# Velocity S-wave (km/s) = 3.11347 3.72504 3.43290
# Velocity P-wave (km/s) = 4.41311 5.40634 4.93478
#
# Compressibility (1/GPa) = 0.08719561
#
# Stress axis : x y z
#
# Youngs Moduli (GPa) = 67.50520 26.68152 78.06021
#
# Poissons Ratio (x) = -0.19641 -0.04195
# Poissons Ratio (y) = -0.49693 -0.24569
# Poissons Ratio (z) = -0.03627 -0.08398
#
# Static dielectric constant tensor:
#      x y z
#    x 1.658720 0.000010 -0.022960 
#    y 0.000010 1.577420 0.000010 
#    z -0.022960 0.000010 1.615920 
# 
# From -- ./inp_files/279062.got.cif
#   From: 2010.05.17/outbox.cif.g08.bks.cpg/sg12_140_cif.got.tgz:279062.got - 2010.06.03 13:09:07.
