data_PCOD9203872
_publ_section_title
;
Structure prediction by ZEFSAII (Michael W. Deem and Ramdas Pophale) SiO2 
 PCOD9203872
Probable space group: C 2/M
;
_chemical_formula_sum "Si O2"
_cell_formula_units_Z 64
_cell_length_a 11.858564
_cell_length_b 20.135558
_cell_length_c 17.255371
_cell_angle_alpha 90.000000
_cell_angle_beta 45.357686
_cell_angle_gamma 90.000000
_cell_volume 2931.564352
_symmetry_space_group_name_H-M "C 2/M"
_symmetry_group_IT_number 12
_symmetry_cell_setting 'monoclinic'
loop_
_space_group_symop_operation_xyz
x,y,z
-x,y,-z
-x,-y,-z
x,-y,z
1/2+x,1/2+y,z
1/2-x,1/2+y,-z
1/2-x,1/2-y,-z
1/2+x,1/2-y,z
loop_
_atom_site_type_symbol
_atom_site_label
_atom_site_fract_x
_atom_site_fract_y
_atom_site_fract_z
Si Si1 0.329992 0.208439 0.566368
Si Si2 0.058097 0.923395 0.288015
Si Si3 0.243389 0.665547 0.236684
Si Si4 0.902531 0.320747 0.354004
Si Si5 0.957970 0.078060 0.890778
Si Si6 0.660906 0.573818 0.470790
Si Si7 0.819410 0.322831 0.986043
Si Si8 0.826222 0.680768 0.169649
O O1 0.500000 0.246304 0.500000
O O2 0.308541 0.158185 0.647951
O O3 0.169472 0.251901 0.642226
O O4 0.360907 0.182289 0.465800
O O5 0.033086 0.917873 0.207919
O O6 0.185998 0.870347 0.255973
O O7 0.898276 0.912077 0.413251
O O8 0.108607 0.000000 0.279394
O O9 0.387528 0.615970 0.150887
O O10 0.291936 0.742616 0.204945
O O11 0.086430 0.662268 0.260089
O O12 0.788923 0.376631 0.376971
O O13 0.801597 0.121204 0.985614
O O14 0.950144 0.000000 0.915480
O O15 0.500000 0.576049 0.500000
O O16 0.726752 0.500000 0.436900
O O17 0.829028 0.325168 0.074891
O O18 0.750000 0.250000 0.000000
O O19 0.002808 0.333490 0.875136
#
# Coordination Sequence:
#
# PCOD9203872 Si02
#       8
#     8   8   8   8   8   8   8   8
#     4   9  20  34  50  78 114 144 189 238 279 316
#     4   9  20  37  57  83 113 147 193 239 282 329
#     4  11  22  34  54  87 113 148 188 230 279 335
#     4  10  21  32  51  78 111 155 189 231 274 326
#     4  10  21  38  62  86 114 149 184 231 285 342
#     4  10  21  36  53  75 112 158 194 231 280 327
#     4  10  20  40  59  83 113 141 179 228 286 347
#     4  10  22  34  60  87 109 140 182 235 287 338
#
# _framework density 21.831347000000001
#
# number of rings (size 3 to 8) (size 9 to 14) (size 15 to 20)
#    0.000    2.125    1.250    1.125   10.500    1.000 
#    0.000    2.500    0.000    6.000    0.000    0.000 
#    0.000    0.000    0.000    0.000    0.000    0.000 
#
# Total GULP energy -178642.657848 kJ/mol
# GULP energy per Si atom -5582.583058 kJ/mol
# Density = 2.178166 g / cm^3
# Si number density = 21.831347 Si / 1000 Ang^3
#
#
#
# Elastic Constant Matrix: (Units=GPa)
#
#
# Indices 1 2 3 4 5 6 
#
# 1 92.6182 38.3622 25.7816 0.0003 -31.2185 -0.0002
# 2 38.3622 125.2579 33.4141 0.0002 -39.0967 -0.0001
# 3 25.7816 33.4141 33.3485 0.0003 -22.7071 -0.0003
# 4 0.0003 0.0002 0.0003 -42.0249 -0.0003 28.4516
# 5 -31.2185 -39.0967 -22.7071 -0.0003 44.2349 0.0002
# 6 -0.0002 -0.0001 -0.0003 28.4516 0.0002 8.4190
#
#
#
# Elastic Compliance Matrix: (Units=1/GPa)
#
#
# Indices 1 2 3 4 5 6 
#
# 1 0.015169 -0.000877 -0.006283 0.000000 0.006705 0.000000
# 2 -0.000877 0.012173 -0.007094 0.000000 0.006499 0.000000
# 3 -0.006283 -0.007094 0.053289 0.000000 0.016651 0.000000
# 4 0.000000 0.000000 0.000000 -0.007237 0.000000 0.024458
# 5 0.006705 0.006499 0.016651 0.000000 0.041630 0.000000
# 6 0.000000 0.000000 0.000000 0.024458 0.000000 0.036126
#
#
# Mechanical properties :
#
#
# Convention : Reuss Voigt Hill
#
# Bulk Modulus (GPa) = 19.18518 49.59337 34.38927
# Shear Modulus (GPa) = 25.37652 12.37024 18.87338
#
# Velocity S-wave (km/s) = 3.41308 2.38298 2.94344
# Velocity P-wave (km/s) = 4.93347 5.50793 5.22860
#
# Compressibility (1/GPa) = 0.05212357
#
# Stress axis : x y z
#
# Youngs Moduli (GPa) = 65.92240 82.14980 18.76546
#
# Poissons Ratio (x) = 0.07203 0.11791
# Poissons Ratio (y) = 0.05780 0.13312
# Poissons Ratio (z) = 0.41420 0.58278
#
# Static dielectric constant tensor:
#      x y z
#    x 1.843210 0.000000 0.029220 
#    y 0.000000 1.761170 0.000000 
#    z 0.029220 0.000000 1.867270 
# 
# From -- ./inp_files/306767.got.cif
#   From: 2010.05.17/outbox.cif.g08.bks.cpg/sg12_154_cif.got.tgz:306767.got - 2010.06.03 13:09:07.
