data_PCOD9203938
_publ_section_title
;
Structure prediction by ZEFSAII (Michael W. Deem and Ramdas Pophale) SiO2 
 PCOD9203938
Probable space group: C 2/M
;
_chemical_formula_sum "Si O2"
_cell_formula_units_Z 48
_cell_length_a 31.632870
_cell_length_b 12.299629
_cell_length_c 10.601213
_cell_angle_alpha 90.000000
_cell_angle_beta 140.961338
_cell_angle_gamma 90.000000
_cell_volume 2597.883151
_symmetry_space_group_name_H-M "C 2/M"
_symmetry_group_IT_number 12
_symmetry_cell_setting 'monoclinic'
loop_
_space_group_symop_operation_xyz
x,y,z
-x,y,-z
-x,-y,-z
x,-y,z
1/2+x,1/2+y,z
1/2-x,1/2+y,-z
1/2-x,1/2-y,-z
1/2+x,1/2-y,z
loop_
_atom_site_type_symbol
_atom_site_label
_atom_site_fract_x
_atom_site_fract_y
_atom_site_fract_z
Si Si1 0.338334 0.810675 0.819914
Si Si2 0.168220 0.877009 0.795277
Si Si3 0.771893 0.623372 0.407579
Si Si4 0.382568 0.818089 0.451304
Si Si5 0.182697 0.660514 0.954187
Si Si6 0.479480 0.125627 0.097776
O O1 0.290112 0.705928 0.722266
O O2 0.311291 0.870428 0.632354
O O3 0.332966 0.872272 0.941043
O O4 0.417612 0.795568 0.984185
O O5 0.379420 0.689370 0.410920
O O6 0.241966 0.872990 0.904355
O O7 0.149199 0.000000 0.779278
O O8 0.175362 0.792850 0.927863
O O9 0.750296 0.500000 0.332827
O O10 0.824728 0.656792 0.420147
O O11 0.362371 0.872605 0.270418
O O12 0.454304 0.853397 0.667018
O O13 0.457617 0.000000 0.065465
O O14 0.500000 0.137768 0.000000
#
# Coordination Sequence:
#
# PCOD9203938 Si02
#       6
#     8   8   8   8   8   8
#     4  11  22  39  58  92 126 148 204 257 289 357
#     4   9  18  36  61  88 124 159 192 247 308 348
#     4  11  22  39  64  89 122 165 200 245 302 352
#     4  10  20  40  61  92 121 156 203 243 291 378
#     4   9  20  36  56  93 118 151 201 253 288 352
#     4  11  23  40  62  84 120 165 196 243 309 361
#
# _framework density 18.476582000000001
#
# number of rings (size 3 to 8) (size 9 to 14) (size 15 to 20)
#    1.000    0.833    3.333    1.000    0.000    5.333 
#    0.000    1.667    0.000    2.000    0.000    0.000 
#    0.000    0.000    0.000    0.000    0.000    0.000 
#
# Total GULP energy -133647.576335 kJ/mol
# GULP energy per Si atom -5568.649014 kJ/mol
# Density = 1.843453 g / cm^3
# Si number density = 18.476582 Si / 1000 Ang^3
#
#
#
# Elastic Constant Matrix: (Units=GPa)
#
#
# Indices 1 2 3 4 5 6 
#
# 1 79.0927 14.6375 51.2567 0.0000 -13.5728 0.0000
# 2 14.6375 106.8297 13.1209 0.0000 2.1244 0.0000
# 3 51.2567 13.1209 119.0749 0.0000 -3.2701 0.0000
# 4 0.0000 0.0000 0.0000 1.6109 0.0000 8.0376
# 5 -13.5728 2.1244 -3.2701 0.0000 41.2180 0.0000
# 6 0.0000 0.0000 0.0000 8.0376 0.0000 -7.0121
#
#
#
# Elastic Compliance Matrix: (Units=1/GPa)
#
#
# Indices 1 2 3 4 5 6 
#
# 1 0.019036 -0.001759 -0.007843 0.000000 0.005737 0.000000
# 2 -0.001759 0.009665 -0.000338 0.000000 -0.001104 0.000000
# 3 -0.007843 -0.000338 0.011767 0.000000 -0.001632 0.000000
# 4 0.000000 0.000000 0.000000 0.092388 0.000000 0.105899
# 5 0.005737 -0.001104 -0.001632 0.000000 0.026078 0.000000
# 6 0.000000 0.000000 0.000000 0.105899 0.000000 -0.021224
#
#
# Mechanical properties :
#
#
# Convention : Reuss Voigt Hill
#
# Bulk Modulus (GPa) = 48.57270 51.44751 50.01011
# Shear Modulus (GPa) = 30.40407 22.22883 26.31645
#
# Velocity S-wave (km/s) = 4.06093 3.47231 3.77810
# Velocity P-wave (km/s) = 6.95227 6.63182 6.79394
#
# Compressibility (1/GPa) = 0.02058770
#
# Stress axis : x y z
#
# Youngs Moduli (GPa) = 52.53196 103.46393 84.98680
#
# Poissons Ratio (x) = 0.18200 0.66654
# Poissons Ratio (y) = 0.09241 0.02874
# Poissons Ratio (z) = 0.41200 0.03498
#
# Static dielectric constant tensor:
#      x y z
#    x 1.645400 0.000000 -0.030080 
#    y 0.000000 1.657160 0.000000 
#    z -0.030080 0.000000 1.644280 
# 
# From -- ./inp_files/189051.got.cif
#   From: 2010.05.17/outbox.cif.g08.bks.cpg/sg12_95_cif.got.tgz:189051.got - 2010.06.03 13:09:07.
