data_PCOD9203847
_publ_section_title
;
Structure prediction by ZEFSAII (Michael W. Deem and Ramdas Pophale) SiO2 
 PCOD9203847
Probable space group: C 2/M
;
_chemical_formula_sum "Si O2"
_cell_formula_units_Z 44
_cell_length_a 7.854879
_cell_length_b 13.649394
_cell_length_c 22.114541
_cell_angle_alpha 90.000000
_cell_angle_beta 126.645885
_cell_angle_gamma 90.000000
_cell_volume 1902.344205
_symmetry_space_group_name_H-M "C 2/M"
_symmetry_group_IT_number 12
_symmetry_cell_setting 'monoclinic'
loop_
_space_group_symop_operation_xyz
x,y,z
-x,y,-z
-x,-y,-z
x,-y,z
1/2+x,1/2+y,z
1/2-x,1/2+y,-z
1/2-x,1/2-y,-z
1/2+x,1/2-y,z
loop_
_atom_site_type_symbol
_atom_site_label
_atom_site_fract_x
_atom_site_fract_y
_atom_site_fract_z
Si Si1 0.032879 0.612837 0.839084
Si Si2 0.912606 0.000000 0.747949
Si Si3 0.592960 0.000000 0.370868
Si Si4 0.294145 0.138451 0.498099
Si Si5 0.714392 0.885696 0.010214
Si Si6 0.402391 0.677640 0.832607
Si Si7 0.468012 0.500000 0.365587
O O1 0.954146 0.500000 0.822292
O O2 0.189886 0.634499 0.816880
O O3 0.880956 0.708563 0.808818
O O4 0.171477 0.618669 0.930058
O O5 0.656979 0.000000 0.690255
O O6 0.972761 0.900104 0.796155
O O7 0.998812 0.000000 0.698509
O O8 0.662680 0.910128 0.428056
O O9 0.729398 0.000000 0.339160
O O10 0.500000 0.121588 0.500000
O O11 0.250000 0.250000 0.500000
O O12 0.094520 0.090438 0.422251
O O13 0.913528 0.827214 0.077700
O O14 0.755579 0.000000 0.033993
O O15 0.500000 0.857021 0.000000
#
# Coordination Sequence:
#
# PCOD9203847 Si02
#       7
#     8   4   4   8   8   8   4
#     4  11  24  45  71  99 132 183 246 315 381 431
#     4  12  26  51  68 102 161 202 244 300 378 471
#     4  11  23  47  72 106 151 191 240 295 363 427
#     4  11  20  41  77 113 147 186 246 303 350 411
#     4  10  20  39  72 104 133 176 247 321 380 443
#     4  12  24  47  70 100 143 190 241 307 384 459
#     4  11  23  47  72 110 147 192 239 299 353 438
#
# _framework density 23.129358
#
# number of rings (size 3 to 8) (size 9 to 14) (size 15 to 20)
#    0.000    0.909    3.636    4.909    0.000    1.455 
#   11.455    0.000    0.000    0.000    0.000    0.000 
#    0.000    0.000    0.000    0.000    0.000    0.000 
#
# Total GULP energy -123198.298163 kJ/mol
# GULP energy per Si atom -5599.922644 kJ/mol
# Density = 2.307672 g / cm^3
# Si number density = 23.129358 Si / 1000 Ang^3
#
#
#
# Elastic Constant Matrix: (Units=GPa)
#
#
# Indices 1 2 3 4 5 6 
#
# 1 129.2526 29.3125 34.3686 0.0000 -18.9693 0.0000
# 2 29.3125 211.5513 45.9457 0.0000 -9.9248 0.0000
# 3 34.3686 45.9457 96.1023 0.0000 -17.9508 0.0000
# 4 0.0000 0.0000 0.0000 0.7791 0.0000 -3.4464
# 5 -18.9693 -9.9248 -17.9508 0.0000 41.7760 0.0000
# 6 0.0000 0.0000 0.0000 -3.4464 0.0000 33.7224
#
#
#
# Elastic Compliance Matrix: (Units=1/GPa)
#
#
# Indices 1 2 3 4 5 6 
#
# 1 0.008925 -0.000586 -0.002371 0.000000 0.002895 0.000000
# 2 -0.000586 0.005314 -0.002332 0.000000 -0.000006 0.000000
# 3 -0.002371 -0.002332 0.013117 0.000000 0.004005 0.000000
# 4 0.000000 0.000000 0.000000 2.342506 0.000000 0.239399
# 5 0.002895 -0.000006 0.004005 0.000000 0.026971 0.000000
# 6 0.000000 0.000000 0.000000 0.239399 0.000000 0.054120
#
#
# Mechanical properties :
#
#
# Convention : Reuss Voigt Hill
#
# Bulk Modulus (GPa) = 59.60292 72.90664 66.25478
# Shear Modulus (GPa) = 2.02665 37.07411 19.55038
#
# Velocity S-wave (km/s) = 0.93708 4.00797 2.91049
# Velocity P-wave (km/s) = 5.19578 7.28067 6.32472
#
# Compressibility (1/GPa) = 0.01677770
#
# Stress axis : x y z
#
# Youngs Moduli (GPa) = 112.04576 188.16630 76.23843
#
# Poissons Ratio (x) = 0.11025 0.18076
# Poissons Ratio (y) = 0.06565 0.17781
# Poissons Ratio (z) = 0.26566 0.43886
#
# Static dielectric constant tensor:
#      x y z
#    x 1.858900 0.000000 -0.002480 
#    y 0.000000 1.913670 0.000000 
#    z -0.002480 0.000000 1.820580 
# 
# From -- ./inp_files/332747.got.cif
#   From: 2010.05.17/outbox.cif.g08.bks.cpg/sg12_167_cif.got.tgz:332747.got - 2010.06.03 13:09:07.
