data_PCOD9203982
_publ_section_title
;
Structure prediction by ZEFSAII (Michael W. Deem and Ramdas Pophale) SiO2 
 PCOD9203982
Probable space group: C 2/M
;
_chemical_formula_sum "Si O2"
_cell_formula_units_Z 46
_cell_length_a 6.042249
_cell_length_b 28.576545
_cell_length_c 13.983321
_cell_angle_alpha 90.000000
_cell_angle_beta 56.180130
_cell_angle_gamma 90.000000
_cell_volume 2005.906609
_symmetry_space_group_name_H-M "C 2/M"
_symmetry_group_IT_number 12
_symmetry_cell_setting 'monoclinic'
loop_
_space_group_symop_operation_xyz
x,y,z
-x,y,-z
-x,-y,-z
x,-y,z
1/2+x,1/2+y,z
1/2-x,1/2+y,-z
1/2-x,1/2-y,-z
1/2+x,1/2-y,z
loop_
_atom_site_type_symbol
_atom_site_label
_atom_site_fract_x
_atom_site_fract_y
_atom_site_fract_z
Si Si1 0.000000 0.500000 0.000000
Si Si2 0.741404 0.644354 0.215788
Si Si3 0.519867 0.091687 0.300826
Si Si4 0.590015 0.413392 0.082880
Si Si5 0.813943 0.500000 0.449952
Si Si6 0.058580 0.742542 0.846507
Si Si7 0.822732 0.685102 0.632691
O O1 0.776141 0.458405 0.034525
O O2 0.709354 0.629529 0.113891
O O3 0.934435 0.687860 0.179235
O O4 0.459798 0.661179 0.326860
O O5 0.858110 0.600188 0.242569
O O6 0.524455 0.141720 0.353525
O O7 0.819567 0.076582 0.205341
O O8 0.395111 0.049499 0.386249
O O9 0.500000 0.398198 0.000000
O O10 0.500000 0.500000 0.500000
O O11 0.000000 0.500000 0.500000
O O12 0.250101 0.744568 0.895827
O O13 0.230851 0.774109 0.728466
O O14 0.000000 0.701383 0.500000
#
# Coordination Sequence:
#
# PCOD9203982 Si02
#       7
#     2   8   8   8   4   8   8
#     4  12  24  46  74 106 128 170 234 312 378 450
#     4  10  23  40  68 100 146 190 235 305 376 439
#     4  11  24  46  69 102 146 197 242 306 375 442
#     4  11  25  45  74 107 140 177 242 312 389 445
#     4  12  31  49  72 104 150 205 252 291 361 459
#     4  10  20  40  63 102 141 194 245 304 359 431
#     4  10  22  38  66 100 146 193 258 304 361 422
#
# _framework density 22.932276000000002
#
# number of rings (size 3 to 8) (size 9 to 14) (size 15 to 20)
#    0.000    1.391    1.739    2.348    7.304    4.870 
#    0.000    0.000    0.000    9.391    2.261    0.000 
#    0.000    0.000    0.000    0.000    0.000    0.000 
#
# Total GULP energy -128102.688846 kJ/mol
# GULP energy per Si atom -5569.682124 kJ/mol
# Density = 2.288008 g / cm^3
# Si number density = 22.932276 Si / 1000 Ang^3
#
#
#
# Elastic Constant Matrix: (Units=GPa)
#
#
# Indices 1 2 3 4 5 6 
#
# 1 159.0888 57.2833 61.4099 0.0000 8.2812 0.0000
# 2 57.2833 131.3175 38.8556 0.0000 12.6036 0.0000
# 3 61.4099 38.8556 62.0459 0.0000 -6.7595 0.0000
# 4 0.0000 0.0000 0.0000 -13.6131 0.0000 -11.0022
# 5 8.2812 12.6036 -6.7595 0.0000 27.2723 0.0000
# 6 0.0000 0.0000 0.0000 -11.0022 0.0000 110.6088
#
#
#
# Elastic Compliance Matrix: (Units=1/GPa)
#
#
# Indices 1 2 3 4 5 6 
#
# 1 0.011241 -0.001089 -0.011060 0.000000 -0.005651 0.000000
# 2 -0.001089 0.010489 -0.006150 0.000000 -0.006041 0.000000
# 3 -0.011060 -0.006150 0.032467 0.000000 0.014247 0.000000
# 4 0.000000 0.000000 0.000000 -0.067993 0.000000 -0.006763
# 5 -0.005651 -0.006041 0.014247 0.000000 0.044706 0.000000
# 6 0.000000 0.000000 0.000000 -0.006763 0.000000 0.008368
#
#
# Mechanical properties :
#
#
# Convention : Reuss Voigt Hill
#
# Bulk Modulus (GPa) = 56.81402 74.17220 65.49311
# Shear Modulus (GPa) = 61.16755 37.84716 49.50736
#
# Velocity S-wave (km/s) = 5.17021 4.06690 4.65138
# Velocity P-wave (km/s) = 7.77624 7.38019 7.58080
#
# Compressibility (1/GPa) = 0.01760129
#
# Stress axis : x y z
#
# Youngs Moduli (GPa) = 88.95833 95.33390 30.80067
#
# Poissons Ratio (x) = 0.10379 0.34065
# Poissons Ratio (y) = 0.09685 0.18941
# Poissons Ratio (z) = 0.98387 0.58626
#
# Static dielectric constant tensor:
#      x y z
#    x 1.929050 0.000000 -0.006300 
#    y 0.000000 1.776590 0.000000 
#    z -0.006300 0.000000 1.926350 
# 
# From -- ./inp_files/192546.got.cif
#   From: 2010.05.17/outbox.cif.g08.bks.cpg/sg12_97_cif.got.tgz:192546.got - 2010.06.03 13:09:07.
