data_PCOD9203151
_publ_section_title
;
Structure prediction by ZEFSAII (Michael W. Deem and Ramdas Pophale) SiO2 
 PCOD9203151
Probable space group: C 2/M
;
_chemical_formula_sum "Si O2"
_cell_formula_units_Z 32
_cell_length_a 31.719733
_cell_length_b 8.293591
_cell_length_c 5.151756
_cell_angle_alpha 90.000000
_cell_angle_beta 118.113837
_cell_angle_gamma 90.000000
_cell_volume 1195.370279
_symmetry_space_group_name_H-M "C 2/M"
_symmetry_group_IT_number 12
_symmetry_cell_setting 'monoclinic'
loop_
_space_group_symop_operation_xyz
x,y,z
-x,y,-z
-x,-y,-z
x,-y,z
1/2+x,1/2+y,z
1/2-x,1/2+y,-z
1/2-x,1/2-y,-z
1/2+x,1/2-y,z
loop_
_atom_site_type_symbol
_atom_site_label
_atom_site_fract_x
_atom_site_fract_y
_atom_site_fract_z
Si Si1 0.683577 0.500000 0.282137
Si Si2 0.031897 0.806400 0.852539
Si Si3 0.286280 0.185642 0.886941
Si Si4 0.118551 0.000000 0.582861
Si Si5 0.398853 0.175461 0.318080
O O1 0.709538 0.329642 0.309775
O O2 0.659016 0.500000 0.486766
O O3 0.643357 0.500000 0.937410
O O4 0.079774 0.710829 0.906414
O O5 0.000000 0.783747 0.500000
O O6 0.040836 0.000000 0.900709
O O7 0.000000 0.748928 0.000000
O O8 0.274981 0.000000 0.783516
O O9 0.250000 0.250000 0.000000
O O10 0.341076 0.174362 0.150710
O O11 0.089155 0.164431 0.483450
O O12 0.415421 0.000000 0.454332
#
# Coordination Sequence:
#
# PCOD9203151 Si02
#       5
#     4   8   8   4   8
#     4  10  22  40  64  91 130 174 210 271 320 382
#     4  10  22  41  66  97 131 172 219 271 331 395
#     4  10  20  38  68  99 135 174 225 269 330 394
#     4  10  22  42  64  93 130 170 214 263 332 380
#     4  10  22  41  67  98 134 176 223 274 331 396
#
# _framework density 26.769949
#
# number of rings (size 3 to 8) (size 9 to 14) (size 15 to 20)
#    0.000    2.000    2.500    0.000    0.000    6.000 
#    0.000   10.000    0.000    0.000    0.000    0.000 
#    0.000    0.000    0.000    0.000    0.000    0.000 
#
# Total GULP energy -89614.285955 kJ/mol
# GULP energy per Si atom -5600.892872 kJ/mol
# Density = 2.670902 g / cm^3
# Si number density = 26.769949 Si / 1000 Ang^3
#
#
#
# Elastic Constant Matrix: (Units=GPa)
#
#
# Indices 1 2 3 4 5 6 
#
# 1 199.8838 55.4722 50.4926 0.0000 -44.2328 0.0000
# 2 55.4722 263.5366 40.6781 0.0000 -22.5102 0.0000
# 3 50.4926 40.6781 83.6263 0.0000 -25.7575 0.0000
# 4 0.0000 0.0000 0.0000 30.5769 0.0000 -1.4613
# 5 -44.2328 -22.5102 -25.7575 0.0000 57.8657 0.0000
# 6 0.0000 0.0000 0.0000 -1.4613 0.0000 28.5078
#
#
#
# Elastic Compliance Matrix: (Units=1/GPa)
#
#
# Indices 1 2 3 4 5 6 
#
# 1 0.006653 -0.000693 -0.002546 0.000000 0.003683 0.000000
# 2 -0.000693 0.004209 -0.001492 0.000000 0.000443 0.000000
# 3 -0.002546 -0.001492 0.015579 0.000000 0.004408 0.000000
# 4 0.000000 0.000000 0.000000 0.032785 0.000000 0.001681
# 5 0.003683 0.000443 0.004408 0.000000 0.022231 0.000000
# 6 0.000000 0.000000 0.000000 0.001681 0.000000 0.035164
#
#
# Mechanical properties :
#
#
# Convention : Reuss Voigt Hill
#
# Bulk Modulus (GPa) = 58.89736 93.37029 76.13383
# Shear Modulus (GPa) = 37.95290 50.08366 44.01828
#
# Velocity S-wave (km/s) = 3.76938 4.33007 4.05942
# Velocity P-wave (km/s) = 6.40260 7.74299 7.10448
#
# Compressibility (1/GPa) = 0.01697869
#
# Stress axis : x y z
#
# Youngs Moduli (GPa) = 150.30067 237.60900 64.19061
#
# Poissons Ratio (x) = 0.16465 0.16341
# Poissons Ratio (y) = 0.10415 0.09579
# Poissons Ratio (z) = 0.38262 0.35458
#
# Static dielectric constant tensor:
#      x y z
#    x 2.144770 0.000000 0.142980 
#    y 0.000000 2.119850 0.000000 
#    z 0.142980 0.000000 2.208420 
# 
# From -- ./inp_files/30189.got.cif
#   From: 2010.05.17/outbox.cif.g08.bks.cpg/sg12_16_cif.got.tgz:30189.got - 2010.06.03 13:09:07.
