data_PCOD9203739
_publ_section_title
;
Structure prediction by ZEFSAII (Michael W. Deem and Ramdas Pophale) SiO2 
 PCOD9203739
Probable space group: C 2/M
;
_chemical_formula_sum "Si O2"
_cell_formula_units_Z 32
_cell_length_a 10.437569
_cell_length_b 19.993570
_cell_length_c 13.636488
_cell_angle_alpha 90.000000
_cell_angle_beta 33.545312
_cell_angle_gamma 90.000000
_cell_volume 1572.534576
_symmetry_space_group_name_H-M "C 2/M"
_symmetry_group_IT_number 12
_symmetry_cell_setting 'monoclinic'
loop_
_space_group_symop_operation_xyz
x,y,z
-x,y,-z
-x,-y,-z
x,-y,z
1/2+x,1/2+y,z
1/2-x,1/2+y,-z
1/2-x,1/2-y,-z
1/2+x,1/2-y,z
loop_
_atom_site_type_symbol
_atom_site_label
_atom_site_fract_x
_atom_site_fract_y
_atom_site_fract_z
Si Si1 0.771061 0.923078 0.527201
Si Si2 0.006578 0.766792 0.105876
Si Si3 0.685838 0.194431 0.460385
Si Si4 0.691921 0.881890 0.795497
O O1 0.621264 0.872882 0.557003
O O2 0.680181 0.916836 0.696751
O O3 0.037847 0.895424 0.350184
O O4 0.769052 0.000000 0.498666
O O5 0.899766 0.817058 0.252005
O O6 0.865100 0.696560 0.186906
O O7 0.250000 0.750000 0.000000
O O8 0.000000 0.794001 0.000000
O O9 0.500000 0.218490 0.500000
O O10 0.750000 0.250000 0.500000
O O11 0.500000 0.903001 0.000000
#
# Coordination Sequence:
#
# PCOD9203739 Si02
#       4
#     8   8   8   8
#     4  11  24  40  63  97 132 175 221 263 325 397
#     4  11  22  37  63  97 126 159 216 273 325 383
#     4  12  23  41  66  91 128 169 211 269 331 380
#     4  10  20  39  66  95 132 167 218 270 325 380
#
# _framework density 20.349314
#
# number of rings (size 3 to 8) (size 9 to 14) (size 15 to 20)
#    0.000    1.000    2.500    7.500    0.000    2.500 
#    0.000    0.000    0.000    0.750    0.000    0.000 
#    0.000    0.000    0.000    0.000    0.000    0.000 
#
# Total GULP energy -89220.627391 kJ/mol
# GULP energy per Si atom -5576.289212 kJ/mol
# Density = 2.030300 g / cm^3
# Si number density = 20.349314 Si / 1000 Ang^3
#
#
#
# Elastic Constant Matrix: (Units=GPa)
#
#
# Indices 1 2 3 4 5 6 
#
# 1 138.2618 35.4495 42.1164 0.0058 28.6924 -0.0032
# 2 35.4495 108.9839 13.6541 0.0052 17.3155 -0.0029
# 3 42.1164 13.6541 124.4620 0.0065 24.2097 -0.0015
# 4 0.0058 0.0052 0.0065 21.6016 -0.0051 -0.9497
# 5 28.6924 17.3155 24.2097 -0.0051 33.2845 0.0022
# 6 -0.0032 -0.0029 -0.0015 -0.9497 0.0022 13.2844
#
#
#
# Elastic Compliance Matrix: (Units=1/GPa)
#
#
# Indices 1 2 3 4 5 6 
#
# 1 0.009508 -0.001932 -0.001871 -0.000003 -0.005830 0.000002
# 2 -0.001932 0.010396 0.000281 -0.000003 -0.003947 0.000002
# 3 -0.001871 0.000281 0.009728 -0.000004 -0.005609 0.000001
# 4 -0.000003 -0.000003 -0.000004 0.046439 0.000013 0.003320
# 5 -0.005830 -0.003947 -0.005609 0.000013 0.041203 -0.000009
# 6 0.000002 0.000002 0.000001 0.003320 -0.000009 0.075513
#
#
# Mechanical properties :
#
#
# Convention : Reuss Voigt Hill
#
# Bulk Modulus (GPa) = 44.27260 61.57197 52.92228
# Shear Modulus (GPa) = 24.11261 32.33328 28.22294
#
# Velocity S-wave (km/s) = 3.44602 3.99044 3.72818
# Velocity P-wave (km/s) = 6.13490 7.18016 6.67801
#
# Compressibility (1/GPa) = 0.02258734
#
# Stress axis : x y z
#
# Youngs Moduli (GPa) = 105.17583 96.19074 102.79621
#
# Poissons Ratio (x) = 0.18583 0.19237
# Poissons Ratio (y) = 0.20319 -0.02889
# Poissons Ratio (z) = 0.19683 -0.02703
#
# Static dielectric constant tensor:
#      x y z
#    x 1.946860 0.000000 -0.125730 
#    y 0.000000 1.704990 0.000000 
#    z -0.125730 0.000000 1.880510 
# 
# From -- ./inp_files/121558.got.cif
#   From: 2010.05.17/outbox.cif.g08.bks.cpg/sg12_61_cif.got.tgz:121558.got - 2010.06.03 13:09:07.
