data_PCOD9203869
_publ_section_title
;
Structure prediction by ZEFSAII (Michael W. Deem and Ramdas Pophale) SiO2 
 PCOD9203869
Probable space group: C 2/M
;
_chemical_formula_sum "Si O2"
_cell_formula_units_Z 56
_cell_length_a 20.545821
_cell_length_b 19.307945
_cell_length_c 14.721239
_cell_angle_alpha 90.000000
_cell_angle_beta 147.870131
_cell_angle_gamma 90.000000
_cell_volume 3105.882448
_symmetry_space_group_name_H-M "C 2/M"
_symmetry_group_IT_number 12
_symmetry_cell_setting 'monoclinic'
loop_
_space_group_symop_operation_xyz
x,y,z
-x,y,-z
-x,-y,-z
x,-y,z
1/2+x,1/2+y,z
1/2-x,1/2+y,-z
1/2-x,1/2-y,-z
1/2+x,1/2-y,z
loop_
_atom_site_type_symbol
_atom_site_label
_atom_site_fract_x
_atom_site_fract_y
_atom_site_fract_z
Si Si1 0.956087 0.776750 0.551769
Si Si2 0.780186 0.919071 0.561049
Si Si3 0.020112 0.816100 0.124455
Si Si4 0.328985 0.922652 0.212966
Si Si5 0.713928 0.202341 0.368820
Si Si6 0.837302 0.810966 0.066853
Si Si7 0.094730 0.617077 0.499083
O O1 0.818733 0.798193 0.416087
O O2 0.950573 0.695332 0.570557
O O3 0.000000 0.783518 0.500000
O O4 0.052688 0.815015 0.730767
O O5 0.901201 0.873669 0.727134
O O6 0.708827 0.875826 0.398952
O O7 0.693285 0.910048 0.545438
O O8 0.802953 0.000000 0.569431
O O9 0.095829 0.744961 0.199004
O O10 0.902418 0.798630 0.046331
O O11 0.000000 0.845111 0.000000
O O12 0.344012 0.886639 0.329108
O O13 0.469600 0.925359 0.347221
O O14 0.280716 0.000000 0.168209
O O15 0.245502 0.878210 0.047659
O O16 0.750000 0.250000 0.500000
O O17 0.750000 0.750000 0.000000
#
# Coordination Sequence:
#
# PCOD9203869 Si02
#       7
#     8   8   8   8   8   8   8
#     4  12  21  38  64  86 113 155 205 253 287 340
#     4  11  21  36  60  84 118 157 193 236 292 357
#     4  11  23  37  60  89 120 149 191 246 300 352
#     4  11  23  35  54  86 127 156 186 239 301 367
#     4  10  20  40  59  81 116 153 202 241 283 346
#     4  12  23  37  56  87 118 156 201 242 293 352
#     4  11  18  36  59  89 118 154 193 235 298 369
#
# _framework density 18.030301999999999
#
# number of rings (size 3 to 8) (size 9 to 14) (size 15 to 20)
#    0.000    0.857    8.571    2.571    2.000    0.857 
#    0.000    0.000    0.000    2.143    0.000    0.000 
#    0.000    0.000    0.000    0.000    0.000    0.000 
#
# Total GULP energy -156089.431245 kJ/mol
# GULP energy per Si atom -5574.622544 kJ/mol
# Density = 1.798926 g / cm^3
# Si number density = 18.030302 Si / 1000 Ang^3
#
#
#
# Elastic Constant Matrix: (Units=GPa)
#
#
# Indices 1 2 3 4 5 6 
#
# 1 101.0641 9.4945 3.5462 0.0000 21.7319 0.0000
# 2 9.4945 108.1265 37.3565 0.0000 -1.1964 0.0000
# 3 3.5462 37.3565 55.8292 0.0000 2.3343 0.0000
# 4 0.0000 0.0000 0.0000 11.1352 0.0000 -3.0041
# 5 21.7319 -1.1964 2.3343 0.0000 22.5764 0.0000
# 6 0.0000 0.0000 0.0000 -3.0041 0.0000 9.8052
#
#
#
# Elastic Compliance Matrix: (Units=1/GPa)
#
#
# Indices 1 2 3 4 5 6 
#
# 1 0.012664 -0.001494 0.000712 0.000000 -0.012343 0.000000
# 2 -0.001494 0.012255 -0.008228 0.000000 0.002939 0.000000
# 3 0.000712 -0.008228 0.023521 0.000000 -0.003553 0.000000
# 4 0.000000 0.000000 0.000000 0.097897 0.000000 0.029994
# 5 -0.012343 0.002939 -0.003553 0.000000 0.056699 0.000000
# 6 0.000000 0.000000 0.000000 0.029994 0.000000 0.111177
#
#
# Mechanical properties :
#
#
# Convention : Reuss Voigt Hill
#
# Bulk Modulus (GPa) = 32.87491 40.64601 36.76046
# Shear Modulus (GPa) = 14.60395 23.01154 18.80774
#
# Velocity S-wave (km/s) = 2.84908 3.57637 3.23324
# Velocity P-wave (km/s) = 5.39405 6.29651 5.86267
#
# Compressibility (1/GPa) = 0.03041834
#
# Stress axis : x y z
#
# Youngs Moduli (GPa) = 78.96175 81.60045 42.51589
#
# Poissons Ratio (x) = 0.12195 -0.03026
# Poissons Ratio (y) = 0.11801 0.34982
# Poissons Ratio (z) = -0.05620 0.67140
#
# Static dielectric constant tensor:
#      x y z
#    x 1.644890 0.000000 0.020000 
#    y 0.000000 1.635370 0.000000 
#    z 0.020000 0.000000 1.644370 
# 
# From -- ./inp_files/234734.got.cif
#   From: 2010.05.17/outbox.cif.g08.bks.cpg/sg12_118_cif.got.tgz:234734.got - 2010.06.03 13:09:07.
