data_PCOD9203615
_publ_section_title
;
Structure prediction by ZEFSAII (Michael W. Deem and Ramdas Pophale) SiO2 
 PCOD9203615
Probable space group: C 2/M
;
_chemical_formula_sum "Si O2"
_cell_formula_units_Z 48
_cell_length_a 9.979565
_cell_length_b 14.743055
_cell_length_c 16.534798
_cell_angle_alpha 90.000000
_cell_angle_beta 88.875139
_cell_angle_gamma 90.000000
_cell_volume 2432.284033
_symmetry_space_group_name_H-M "C 2/M"
_symmetry_group_IT_number 12
_symmetry_cell_setting 'monoclinic'
loop_
_space_group_symop_operation_xyz
x,y,z
-x,y,-z
-x,-y,-z
x,-y,z
1/2+x,1/2+y,z
1/2-x,1/2+y,-z
1/2-x,1/2-y,-z
1/2+x,1/2-y,z
loop_
_atom_site_type_symbol
_atom_site_label
_atom_site_fract_x
_atom_site_fract_y
_atom_site_fract_z
Si Si1 0.664080 0.697249 0.234795
Si Si2 0.362706 0.307252 0.454972
Si Si3 0.360893 0.305011 0.951367
Si Si4 0.807876 0.000000 0.391059
Si Si5 0.061480 0.686292 0.689924
Si Si6 0.036472 0.000000 0.253355
Si Si7 0.499757 0.000000 0.400171
Si Si8 0.105732 0.000000 0.069700
O O1 0.623702 0.719736 0.142897
O O2 0.824939 0.687286 0.241670
O O3 0.586030 0.777011 0.284253
O O4 0.609972 0.597743 0.265269
O O5 0.500000 0.294756 0.500000
O O6 0.250000 0.250000 0.500000
O O7 0.330986 0.412071 0.445547
O O8 0.381346 0.264539 0.367732
O O9 0.312764 0.408962 0.942380
O O10 0.500000 0.301111 0.000000
O O11 0.250000 0.250000 0.000000
O O12 0.653353 0.000000 0.369319
O O13 0.907469 0.000000 0.312977
O O14 0.060428 0.592068 0.638980
O O15 0.025559 0.000000 0.155575
O O16 0.500000 0.000000 0.500000
O O17 0.000000 0.000000 0.000000
#
# Coordination Sequence:
#
# PCOD9203615 Si02
#       8
#     8   8   8   4   8   4   4   4
#     4  11  23  41  67  95 130 170 211 266 315 379
#     4  12  25  42  63  90 122 164 214 266 320 380
#     4  10  20  39  64  96 130 168 210 252 312 375
#     4  12  23  42  66  96 120 163 221 269 319 384
#     4  12  24  42  63  91 127 167 216 262 325 376
#     4  10  21  39  65  92 126 160 216 258 314 374
#     4  12  27  46  63  88 131 173 212 270 338 387
#     4   8  18  37  61  89 124 167 199 249 307 369
#
# _framework density 19.734537
#
# number of rings (size 3 to 8) (size 9 to 14) (size 15 to 20)
#    0.000    1.000    1.667    6.250    0.000    0.000 
#    3.000    0.417    0.000    0.000    0.000    0.000 
#    0.000    0.000    0.000    0.000    0.000    0.000 
#
# Total GULP energy -133805.527158 kJ/mol
# GULP energy per Si atom -5575.230298 kJ/mol
# Density = 1.968962 g / cm^3
# Si number density = 19.734537 Si / 1000 Ang^3
#
#
#
# Elastic Constant Matrix: (Units=GPa)
#
#
# Indices 1 2 3 4 5 6 
#
# 1 111.8982 42.1907 30.1417 0.0000 5.8760 0.0000
# 2 42.1907 133.9315 48.5219 0.0000 -17.1605 0.0000
# 3 30.1417 48.5219 70.1134 0.0000 3.1752 0.0000
# 4 0.0000 0.0000 0.0000 34.9865 0.0000 -1.3741
# 5 5.8760 -17.1605 3.1752 0.0000 35.9530 0.0000
# 6 0.0000 0.0000 0.0000 -1.3741 0.0000 33.9079
#
#
#
# Elastic Compliance Matrix: (Units=1/GPa)
#
#
# Indices 1 2 3 4 5 6 
#
# 1 0.010859 -0.002872 -0.002549 0.000000 -0.002920 0.000000
# 2 -0.002872 0.011884 -0.007297 0.000000 0.006786 0.000000
# 3 -0.002549 -0.007297 0.020630 0.000000 -0.004888 0.000000
# 4 0.000000 0.000000 0.000000 0.028628 0.000000 0.001160
# 5 -0.002920 0.006786 -0.004888 0.000000 0.031962 0.000000
# 6 0.000000 0.000000 0.000000 0.001160 0.000000 0.029539
#
#
# Mechanical properties :
#
#
# Convention : Reuss Voigt Hill
#
# Bulk Modulus (GPa) = 55.74802 61.96131 58.85466
# Shear Modulus (GPa) = 30.31818 33.97541 32.14679
#
# Velocity S-wave (km/s) = 3.92382 4.15374 4.04042
# Velocity P-wave (km/s) = 6.98847 7.38040 7.18711
#
# Compressibility (1/GPa) = 0.01793786
#
# Stress axis : x y z
#
# Youngs Moduli (GPa) = 92.08643 84.14393 48.47340
#
# Poissons Ratio (x) = 0.24163 0.12355
# Poissons Ratio (y) = 0.26444 0.35373
# Poissons Ratio (z) = 0.23472 0.61403
#
# Static dielectric constant tensor:
#      x y z
#    x 1.719270 0.000000 0.059630 
#    y 0.000000 1.717180 0.000000 
#    z 0.059630 0.000000 1.453010 
# 
# From -- ./inp_files/255848.got.cif
#   From: 2010.05.17/outbox.cif.g08.bks.cpg/sg12_128_cif.got.tgz:255848.got - 2010.06.03 13:09:07.
