data_PCOD9203767
_publ_section_title
;
Structure prediction by ZEFSAII (Michael W. Deem and Ramdas Pophale) SiO2 
 PCOD9203767
Probable space group: C 2/M
;
_chemical_formula_sum "Si O2"
_cell_formula_units_Z 42
_cell_length_a 31.326475
_cell_length_b 7.369639
_cell_length_c 9.322757
_cell_angle_alpha 90.000000
_cell_angle_beta 54.949913
_cell_angle_gamma 90.000000
_cell_volume 1761.978253
_symmetry_space_group_name_H-M "C 2/M"
_symmetry_group_IT_number 12
_symmetry_cell_setting 'monoclinic'
loop_
_space_group_symop_operation_xyz
x,y,z
-x,y,-z
-x,-y,-z
x,-y,z
1/2+x,1/2+y,z
1/2-x,1/2+y,-z
1/2-x,1/2-y,-z
1/2+x,1/2-y,z
loop_
_atom_site_type_symbol
_atom_site_label
_atom_site_fract_x
_atom_site_fract_y
_atom_site_fract_z
Si Si1 0.832592 0.281260 0.520042
Si Si2 0.000000 0.000000 0.500000
Si Si3 0.361613 0.223218 0.139922
Si Si4 0.933209 0.282318 0.512027
Si Si5 0.520653 0.780240 0.115889
Si Si6 0.771292 0.297653 0.115738
O O1 0.829482 0.500000 0.523695
O O2 0.847237 0.221748 0.330931
O O3 0.877639 0.237676 0.548857
O O4 0.777552 0.210737 0.682184
O O5 0.046325 0.840082 0.399816
O O6 0.319491 0.291747 0.105944
O O7 0.361304 0.000000 0.144731
O O8 0.419940 0.279443 0.987910
O O9 0.935496 0.500000 0.534416
O O10 0.976258 0.221349 0.311112
O O11 0.520648 0.000000 0.125178
O O12 0.500000 0.729375 0.000000
O O13 0.790560 0.500000 0.056588
O O14 0.750000 0.250000 0.000000
#
# Coordination Sequence:
#
# PCOD9203767 Si02
#       6
#     8   2   8   8   8   8
#     4  10  20  39  67  92 121 161 216 267 326 388
#     4  12  26  40  58  90 144 168 230 254 318 396
#     4   9  18  35  64  96 120 161 216 269 321 386
#     4  10  22  40  66  95 128 176 214 266 329 387
#     4   9  15  32  64  95 122 156 210 267 323 382
#     4  11  24  40  60  88 128 169 213 264 326 388
#
# _framework density 23.836843999999999
#
# number of rings (size 3 to 8) (size 9 to 14) (size 15 to 20)
#    0.000    2.095    1.905    1.429    1.333    1.524 
#    0.000    5.238    4.190    0.000    0.000    0.000 
#    0.000    0.000    0.000    0.000    0.000    0.000 
#
# Total GULP energy -117056.724755 kJ/mol
# GULP energy per Si atom -5574.129750 kJ/mol
# Density = 2.378259 g / cm^3
# Si number density = 23.836844 Si / 1000 Ang^3
#
#
#
# Elastic Constant Matrix: (Units=GPa)
#
#
# Indices 1 2 3 4 5 6 
#
# 1 186.3704 14.2099 11.1236 0.0000 -20.5788 0.0000
# 2 14.2099 87.3514 -19.7157 0.0000 5.7476 0.0000
# 3 11.1236 -19.7157 59.1839 0.0000 -13.0661 0.0000
# 4 0.0000 0.0000 0.0000 35.1742 0.0000 24.2338
# 5 -20.5788 5.7476 -13.0661 0.0000 31.5514 0.0000
# 6 0.0000 0.0000 0.0000 24.2338 0.0000 36.4470
#
#
#
# Elastic Compliance Matrix: (Units=1/GPa)
#
#
# Indices 1 2 3 4 5 6 
#
# 1 0.005937 -0.001383 -0.000733 0.000000 0.003820 0.000000
# 2 -0.001383 0.012711 0.004165 0.000000 -0.001493 0.000000
# 3 -0.000733 0.004165 0.019975 0.000000 0.007035 0.000000
# 4 0.000000 0.000000 0.000000 0.052463 0.000000 -0.034883
# 5 0.003820 -0.001493 0.007035 0.000000 0.037371 0.000000
# 6 0.000000 0.000000 0.000000 -0.034883 0.000000 0.050631
#
#
# Mechanical properties :
#
#
# Convention : Reuss Voigt Hill
#
# Bulk Modulus (GPa) = 23.40762 38.23793 30.82277
# Shear Modulus (GPa) = 26.42289 42.45372 34.43830
#
# Velocity S-wave (km/s) = 3.33301 4.22478 3.80511
# Velocity P-wave (km/s) = 4.96520 6.31464 5.68014
#
# Compressibility (1/GPa) = 0.04272114
#
# Stress axis : x y z
#
# Youngs Moduli (GPa) = 168.44485 78.67118 50.06310
#
# Poissons Ratio (x) = 0.10877 0.03669
# Poissons Ratio (y) = 0.23288 -0.20850
# Poissons Ratio (z) = 0.12346 -0.32765
#
# Static dielectric constant tensor:
#      x y z
#    x 1.980190 0.000000 0.114820 
#    y 0.000000 1.929820 0.000000 
#    z 0.114820 0.000000 1.954530 
# 
# From -- ./inp_files/108499.got.cif
#   From: 2010.05.17/outbox.cif.g08.bks.cpg/sg12_55_cif.got.tgz:108499.got - 2010.06.03 13:09:07.
