data_PCOD9203295
_publ_section_title
;
Structure prediction by ZEFSAII (Michael W. Deem and Ramdas Pophale) SiO2 
 PCOD9203295
Probable space group: C 2/M
;
_chemical_formula_sum "Si O2"
_cell_formula_units_Z 64
_cell_length_a 20.825830
_cell_length_b 8.592190
_cell_length_c 34.878171
_cell_angle_alpha 90.000000
_cell_angle_beta 147.418747
_cell_angle_gamma 90.000000
_cell_volume 3360.792166
_symmetry_space_group_name_H-M "C 2/M"
_symmetry_group_IT_number 12
_symmetry_cell_setting 'monoclinic'
loop_
_space_group_symop_operation_xyz
x,y,z
-x,y,-z
-x,-y,-z
x,-y,z
1/2+x,1/2+y,z
1/2-x,1/2+y,-z
1/2-x,1/2-y,-z
1/2+x,1/2-y,z
loop_
_atom_site_type_symbol
_atom_site_label
_atom_site_fract_x
_atom_site_fract_y
_atom_site_fract_z
Si Si1 0.135348 0.688063 0.557202
Si Si2 0.453276 0.189416 0.138968
Si Si3 0.712450 0.186558 0.296582
Si Si4 0.745448 0.313426 0.821267
Si Si5 0.514106 0.188047 0.932361
Si Si6 0.147046 0.687814 0.475417
Si Si7 0.383601 0.186631 0.316240
Si Si8 0.758095 0.186656 0.911823
O O1 0.138950 0.500000 0.560721
O O2 0.227689 0.752808 0.634498
O O3 0.161543 0.737921 0.526905
O O4 0.000000 0.734927 0.500000
O O5 0.576077 0.237955 0.221293
O O6 0.456729 0.239868 0.096408
O O7 0.337793 0.240279 0.104532
O O8 0.452454 0.000000 0.138013
O O9 0.791260 0.245860 0.300694
O O10 0.714222 0.000000 0.297377
O O11 0.738734 0.500000 0.816847
O O12 0.654482 0.243916 0.744726
O O13 0.725252 0.253254 0.853872
O O14 0.879659 0.267393 0.875883
O O15 0.520523 0.000000 0.937001
O O16 0.611747 0.256060 0.010089
O O17 0.149563 0.500000 0.476317
O O18 0.250000 0.750000 0.500000
O O19 0.016742 0.736636 0.394849
O O20 0.378500 0.000000 0.315453
O O21 0.756340 0.000000 0.909423
#
# Coordination Sequence:
#
# PCOD9203295 Si02
#       8
#     8   8   8   8   8   8   8   8
#     4  10  20  39  61  85 120 157 193 240 295 343
#     4   9  20  39  59  83 119 157 193 242 300 348
#     4  11  21  37  62  91 118 153 201 246 290 349
#     4  11  23  40  62  87 118 158 200 243 293 354
#     4  10  20  39  62  83 114 157 200 244 296 350
#     4  10  23  41  62  88 123 160 194 240 296 351
#     4  11  22  40  63  88 119 156 195 244 299 347
#     4  11  23  38  58  87 122 155 195 247 298 352
#
# _framework density 19.043130000000001
#
# number of rings (size 3 to 8) (size 9 to 14) (size 15 to 20)
#    0.000    1.625    2.500    2.250    0.000    5.250 
#    0.000    6.875    0.000    0.000    0.000    0.000 
#    0.000    0.000    0.000    0.000    0.000    0.000 
#
# Total GULP energy -178846.982663 kJ/mol
# GULP energy per Si atom -5588.968208 kJ/mol
# Density = 1.899979 g / cm^3
# Si number density = 19.043130 Si / 1000 Ang^3
#
#
#
# Elastic Constant Matrix: (Units=GPa)
#
#
# Indices 1 2 3 4 5 6 
#
# 1 61.2505 3.6154 -11.6138 0.0000 -18.2457 0.0001
# 2 3.6154 19.4284 7.9014 0.0000 -3.0081 -0.0001
# 3 -11.6138 7.9014 80.6126 -0.0001 -22.6611 0.0000
# 4 0.0000 0.0000 -0.0001 32.4120 0.0000 -7.7257
# 5 -18.2457 -3.0081 -22.6611 0.0000 34.9107 0.0000
# 6 0.0001 -0.0001 0.0000 -7.7257 0.0000 21.6867
#
#
#
# Elastic Compliance Matrix: (Units=1/GPa)
#
#
# Indices 1 2 3 4 5 6 
#
# 1 0.023565 -0.005262 0.008863 0.000000 0.017615 0.000000
# 2 -0.005262 0.054845 -0.006824 0.000000 -0.002454 0.000000
# 3 0.008863 -0.006824 0.018944 0.000000 0.016341 0.000000
# 4 0.000000 0.000000 0.000000 0.033716 0.000000 0.012011
# 5 0.017615 -0.002454 0.016341 0.000000 0.048247 0.000000
# 6 0.000000 0.000000 0.000000 0.012011 0.000000 0.050390
#
#
# Mechanical properties :
#
#
# Convention : Reuss Voigt Hill
#
# Bulk Modulus (GPa) = 11.00011 17.89974 14.44993
# Shear Modulus (GPa) = 18.76485 28.56113 23.66299
#
# Velocity S-wave (km/s) = 3.14249 3.87694 3.52888
# Velocity P-wave (km/s) = 4.35385 5.42779 4.92021
#
# Compressibility (1/GPa) = 0.09090817
#
# Stress axis : x y z
#
# Youngs Moduli (GPa) = 42.43622 18.23307 52.78640
#
# Poissons Ratio (x) = 0.09594 -0.46782
# Poissons Ratio (y) = 0.22330 0.36020
# Poissons Ratio (z) = -0.37609 0.12442
#
# Static dielectric constant tensor:
#      x y z
#    x 1.642290 0.000000 0.000240 
#    y 0.000000 1.650380 0.000000 
#    z 0.000240 0.000000 1.636090 
# 
# From -- ./inp_files/378491.got.cif
#   From: 2010.05.17/outbox.cif.g08.bks.cpg/sg12_190_cif.got.tgz:378491.got - 2010.06.03 13:09:07.
