data_PCOD9203695
_publ_section_title
;
Structure prediction by ZEFSAII (Michael W. Deem and Ramdas Pophale) SiO2 
 PCOD9203695
Probable space group: C 2/M
;
_chemical_formula_sum "Si O2"
_cell_formula_units_Z 34
_cell_length_a 20.359154
_cell_length_b 7.741815
_cell_length_c 10.345750
_cell_angle_alpha 90.000000
_cell_angle_beta 111.554138
_cell_angle_gamma 90.000000
_cell_volume 1516.633098
_symmetry_space_group_name_H-M "C 2/M"
_symmetry_group_IT_number 12
_symmetry_cell_setting 'monoclinic'
loop_
_space_group_symop_operation_xyz
x,y,z
-x,y,-z
-x,-y,-z
x,-y,z
1/2+x,1/2+y,z
1/2-x,1/2+y,-z
1/2-x,1/2-y,-z
1/2+x,1/2-y,z
loop_
_atom_site_type_symbol
_atom_site_label
_atom_site_fract_x
_atom_site_fract_y
_atom_site_fract_z
Si Si1 0.449956 0.685711 0.806919
Si Si2 0.000000 0.500000 0.000000
Si Si3 0.575957 0.208630 0.496656
Si Si4 0.845779 0.301905 0.939375
Si Si5 0.685611 0.790482 0.795069
O O1 0.486370 0.500000 0.837469
O O2 0.496979 0.845821 0.884828
O O3 0.419028 0.716125 0.642523
O O4 0.386824 0.691089 0.865278
O O5 0.500000 0.256985 0.500000
O O6 0.636801 0.261230 0.640589
O O7 0.578387 0.000000 0.489110
O O8 0.874631 0.500000 0.941277
O O9 0.762531 0.294569 0.848512
O O10 0.849646 0.249934 0.091831
O O11 0.694645 0.000000 0.801099
#
# Coordination Sequence:
#
# PCOD9203695 Si02
#       5
#     8   2   8   8   8
#     4  12  26  43  69  98 130 174 221 268 327 392
#     4  12  26  48  66  98 136 172 214 276 320 402
#     4  10  22  41  66  93 134 177 217 272 337 389
#     4  10  20  39  65  95 133 172 219 273 327 381
#     4   9  20  37  64  96 129 175 221 271 327 390
#
# _framework density 22.418078000000001
#
# number of rings (size 3 to 8) (size 9 to 14) (size 15 to 20)
#    0.000    1.647    2.353    1.059    3.294    3.294 
#    0.000    0.000    0.000    0.000    0.000    0.000 
#    0.000    0.000    0.000    0.000    0.000    0.000 
#
# Total GULP energy -94933.621236 kJ/mol
# GULP energy per Si atom -5584.330661 kJ/mol
# Density = 2.236705 g / cm^3
# Si number density = 22.418078 Si / 1000 Ang^3
#
#
#
# Elastic Constant Matrix: (Units=GPa)
#
#
# Indices 1 2 3 4 5 6 
#
# 1 62.4502 35.7390 48.4112 0.0000 -2.9962 0.0000
# 2 35.7390 130.7573 62.3505 0.0000 2.2338 0.0000
# 3 48.4112 62.3505 214.3366 0.0000 18.2802 0.0000
# 4 0.0000 0.0000 0.0000 -44.4250 0.0000 9.6699
# 5 -2.9962 2.2338 18.2802 0.0000 34.0153 0.0000
# 6 0.0000 0.0000 0.0000 9.6699 0.0000 20.6434
#
#
#
# Elastic Compliance Matrix: (Units=1/GPa)
#
#
# Indices 1 2 3 4 5 6 
#
# 1 0.021723 -0.004057 -0.004100 0.000000 0.004383 0.000000
# 2 -0.004057 0.009660 -0.001896 0.000000 0.000027 0.000000
# 3 -0.004100 -0.001896 0.006459 0.000000 -0.003708 0.000000
# 4 0.000000 0.000000 0.000000 -0.020427 0.000000 0.009569
# 5 0.004383 0.000027 -0.003708 0.000000 0.031776 0.000000
# 6 0.000000 0.000000 0.000000 0.009569 0.000000 0.043959
#
#
# Mechanical properties :
#
#
# Convention : Reuss Voigt Hill
#
# Bulk Modulus (GPa) = 56.38203 77.83839 67.11021
# Shear Modulus (GPa) = 41.95673 19.44964 30.70319
#
# Velocity S-wave (km/s) = 4.33084 2.94868 3.70479
# Velocity P-wave (km/s) = 7.08612 6.81099 6.94992
#
# Compressibility (1/GPa) = 0.01773615
#
# Stress axis : x y z
#
# Youngs Moduli (GPa) = 46.03332 103.51540 154.81133
#
# Poissons Ratio (x) = 0.41999 0.63475
# Poissons Ratio (y) = 0.18677 0.29354
# Poissons Ratio (z) = 0.18874 0.19628
#
# Static dielectric constant tensor:
#      x y z
#    x 1.610590 0.000000 -0.022480 
#    y 0.000000 1.836230 0.000000 
#    z -0.022480 0.000000 1.766700 
# 
# From -- ./inp_files/92481.got.cif
#   From: 2010.05.17/outbox.cif.g08.bks.cpg/sg12_47_cif.got.tgz:92481.got - 2010.06.03 13:09:07.
