data_PCOD9203782
_publ_section_title
;
Structure prediction by ZEFSAII (Michael W. Deem and Ramdas Pophale) SiO2 
 PCOD9203782
Probable space group: C 2/M
;
_chemical_formula_sum "Si O2"
_cell_formula_units_Z 56
_cell_length_a 20.173943
_cell_length_b 20.412615
_cell_length_c 16.298854
_cell_angle_alpha 90.000000
_cell_angle_beta 158.590156
_cell_angle_gamma 90.000000
_cell_volume 2450.095909
_symmetry_space_group_name_H-M "C 2/M"
_symmetry_group_IT_number 12
_symmetry_cell_setting 'monoclinic'
loop_
_space_group_symop_operation_xyz
x,y,z
-x,y,-z
-x,-y,-z
x,-y,z
1/2+x,1/2+y,z
1/2-x,1/2+y,-z
1/2-x,1/2-y,-z
1/2+x,1/2-y,z
loop_
_atom_site_type_symbol
_atom_site_label
_atom_site_fract_x
_atom_site_fract_y
_atom_site_fract_z
Si Si1 0.295623 0.572913 0.017718
Si Si2 0.977758 0.095038 0.567518
Si Si3 0.411984 0.286929 0.091867
Si Si4 0.100860 0.422823 0.380090
Si Si5 0.160805 0.826246 0.246708
Si Si6 0.915523 0.574305 0.821442
Si Si7 0.992335 0.246813 0.369181
O O1 0.335465 0.500000 0.030509
O O2 0.358770 0.574572 0.185298
O O3 0.390072 0.634890 0.084410
O O4 0.080075 0.583798 0.773763
O O5 0.796423 0.070549 0.402251
O O6 0.966617 0.173459 0.556328
O O7 0.000000 0.073225 0.500000
O O8 0.561512 0.276619 0.195002
O O9 0.471860 0.253536 0.246028
O O10 0.210152 0.264386 0.835190
O O11 0.141041 0.500000 0.417181
O O12 0.260822 0.385519 0.609483
O O13 0.064604 0.396080 0.246133
O O14 0.339401 0.792787 0.414017
O O15 0.000000 0.845819 0.000000
O O16 0.993860 0.500000 0.907311
O O17 0.000000 0.607302 0.000000
#
# Coordination Sequence:
#
# PCOD9203782 Si02
#       7
#     8   8   8   8   8   8   8
#     4  10  20  39  67  94 123 167 211 264 332 389
#     4  11  23  36  58  93 130 169 207 261 323 402
#     4  10  22  43  69  89 123 165 216 276 324 383
#     4  10  21  41  65  92 131 168 217 277 330 391
#     4  12  26  41  66  95 126 177 221 270 327 384
#     4  10  21  38  62  95 133 171 213 270 333 400
#     4  10  23  44  62  90 125 166 221 271 322 379
#
# _framework density 22.856248999999998
#
# number of rings (size 3 to 8) (size 9 to 14) (size 15 to 20)
#    0.000    1.571    1.429    3.429    2.000    4.857 
#    0.000    0.000    0.000    1.714    0.000    0.000 
#    0.000    0.000    0.000    0.000    0.000    0.000 
#
# Total GULP energy -156576.079130 kJ/mol
# GULP energy per Si atom -5592.002826 kJ/mol
# Density = 2.280423 g / cm^3
# Si number density = 22.856249 Si / 1000 Ang^3
#
#
#
# Elastic Constant Matrix: (Units=GPa)
#
#
# Indices 1 2 3 4 5 6 
#
# 1 41.2484 -11.2747 11.2087 0.0000 -12.7474 0.0000
# 2 -11.2747 72.8881 16.6248 0.0000 -13.4007 0.0000
# 3 11.2087 16.6248 133.8511 0.0000 -10.4126 0.0000
# 4 0.0000 0.0000 0.0000 14.5429 0.0000 8.0667
# 5 -12.7474 -13.4007 -10.4126 0.0000 34.8650 0.0000
# 6 0.0000 0.0000 0.0000 8.0667 0.0000 8.4117
#
#
#
# Elastic Compliance Matrix: (Units=1/GPa)
#
#
# Indices 1 2 3 4 5 6 
#
# 1 0.031367 0.007964 -0.002545 0.000000 0.013770 0.000000
# 2 0.007964 0.017055 -0.002098 0.000000 0.008841 0.000000
# 3 -0.002545 -0.002098 0.007995 0.000000 0.000651 0.000000
# 4 0.000000 0.000000 0.000000 0.146903 0.000000 -0.140877
# 5 0.013770 0.008841 0.000651 0.000000 0.037309 0.000000
# 6 0.000000 0.000000 0.000000 -0.140877 0.000000 0.253979
#
#
# Mechanical properties :
#
#
# Convention : Reuss Voigt Hill
#
# Bulk Modulus (GPa) = 15.85761 31.23394 23.54578
# Shear Modulus (GPa) = 9.82345 26.99252 18.40798
#
# Velocity S-wave (km/s) = 2.07539 3.44025 2.84100
# Velocity P-wave (km/s) = 3.56315 5.42913 4.59192
#
# Compressibility (1/GPa) = 0.06306119
#
# Stress axis : x y z
#
# Youngs Moduli (GPa) = 31.88067 58.63252 125.07409
#
# Poissons Ratio (x) = -0.46695 0.31827
# Poissons Ratio (y) = -0.25390 0.26234
# Poissons Ratio (z) = 0.08113 0.12298
#
# Static dielectric constant tensor:
#      x y z
#    x 1.878250 0.000000 -0.004900 
#    y 0.000000 1.872080 0.000000 
#    z -0.004900 0.000000 1.853160 
# 
# From -- ./inp_files/286049.got.cif
#   From: 2010.05.17/outbox.cif.g08.bks.cpg/sg12_144_cif.got.tgz:286049.got - 2010.06.03 13:09:07.
