data_PCOD9203345
_publ_section_title
;
Structure prediction by ZEFSAII (Michael W. Deem and Ramdas Pophale) SiO2 
 PCOD9203345
Probable space group: C 2/M
;
_chemical_formula_sum "Si O2"
_cell_formula_units_Z 56
_cell_length_a 19.363054
_cell_length_b 8.964133
_cell_length_c 19.003396
_cell_angle_alpha 90.000000
_cell_angle_beta 119.570107
_cell_angle_gamma 90.000000
_cell_volume 2868.858052
_symmetry_space_group_name_H-M "C 2/M"
_symmetry_group_IT_number 12
_symmetry_cell_setting 'monoclinic'
loop_
_space_group_symop_operation_xyz
x,y,z
-x,y,-z
-x,-y,-z
x,-y,z
1/2+x,1/2+y,z
1/2-x,1/2+y,-z
1/2-x,1/2-y,-z
1/2+x,1/2-y,z
loop_
_atom_site_type_symbol
_atom_site_label
_atom_site_fract_x
_atom_site_fract_y
_atom_site_fract_z
Si Si1 0.774041 0.824929 0.331493
Si Si2 0.898779 0.181365 0.146471
Si Si3 0.241075 0.319916 0.152628
Si Si4 0.820289 0.325281 0.579647
Si Si5 0.069940 0.672573 0.591232
Si Si6 0.511969 0.676917 0.325220
Si Si7 0.915780 0.819412 0.992608
O O1 0.755517 0.782579 0.241886
O O2 0.701886 0.808099 0.349077
O O3 0.846072 0.725251 0.395923
O O4 0.797084 0.000000 0.344271
O O5 0.816267 0.228638 0.142297
O O6 0.973201 0.227872 0.232176
O O7 0.897882 0.000000 0.147151
O O8 0.908886 0.227998 0.070938
O O9 0.235758 0.500000 0.145252
O O10 0.159657 0.247968 0.085365
O O11 0.823257 0.500000 0.563771
O O12 0.750000 0.250000 0.500000
O O13 0.905917 0.253248 0.612792
O O14 0.072584 0.500000 0.614476
O O15 0.000000 0.689709 0.500000
O O16 0.051303 0.778257 0.647437
O O17 0.523004 0.500000 0.328817
O O18 0.911346 0.000000 0.987943
O O19 0.000000 0.775957 0.000000
#
# Coordination Sequence:
#
# PCOD9203345 Si02
#       7
#     8   8   8   8   8   8   8
#     4  10  22  40  61  85 118 159 200 245 299 357
#     4   9  19  38  61  85 118 156 194 237 291 352
#     4  10  20  39  62  85 116 154 197 240 287 350
#     4  11  24  41  60  87 121 159 204 252 302 359
#     4  11  23  38  59  89 122 153 197 252 296 350
#     4  11  22  39  63  87 119 162 201 245 300 356
#     4  10  22  38  59  90 123 153 189 237 291 350
#
# _framework density 19.519962
#
# number of rings (size 3 to 8) (size 9 to 14) (size 15 to 20)
#    0.000    1.714    1.429    2.571    2.000    5.429 
#    0.000    1.429    0.000    0.000    0.000    0.000 
#    0.000    0.000    0.000    0.000    0.000    0.000 
#
# Total GULP energy -156408.824055 kJ/mol
# GULP energy per Si atom -5586.029431 kJ/mol
# Density = 1.947553 g / cm^3
# Si number density = 19.519962 Si / 1000 Ang^3
#
#
#
# Elastic Constant Matrix: (Units=GPa)
#
#
# Indices 1 2 3 4 5 6 
#
# 1 83.0066 19.8174 34.0243 0.0000 5.4639 0.0000
# 2 19.8174 29.3547 26.3606 0.0000 3.5181 0.0000
# 3 34.0243 26.3606 88.1014 0.0000 8.2804 0.0000
# 4 0.0000 0.0000 0.0000 28.0125 0.0000 7.1062
# 5 5.4639 3.5181 8.2804 0.0000 36.7777 0.0000
# 6 0.0000 0.0000 0.0000 7.1062 0.0000 24.2398
#
#
#
# Elastic Compliance Matrix: (Units=1/GPa)
#
#
# Indices 1 2 3 4 5 6 
#
# 1 0.015279 -0.006822 -0.003788 0.000000 -0.000765 0.000000
# 2 -0.006822 0.049694 -0.012140 0.000000 -0.001007 0.000000
# 3 -0.003788 -0.012140 0.016636 0.000000 -0.002021 0.000000
# 4 0.000000 0.000000 0.000000 0.038566 0.000000 -0.011306
# 5 -0.000765 -0.001007 -0.002021 0.000000 0.027855 0.000000
# 6 0.000000 0.000000 0.000000 -0.011306 0.000000 0.044569
#
#
# Mechanical properties :
#
#
# Convention : Reuss Voigt Hill
#
# Bulk Modulus (GPa) = 27.69312 40.09637 33.89475
# Shear Modulus (GPa) = 19.98935 25.82338 22.90636
#
# Velocity S-wave (km/s) = 3.20354 3.64114 3.42933
# Velocity P-wave (km/s) = 5.28218 6.18571 5.75172
#
# Compressibility (1/GPa) = 0.03611006
#
# Stress axis : x y z
#
# Youngs Moduli (GPa) = 65.45036 20.12333 60.11227
#
# Poissons Ratio (x) = 0.13728 0.22768
# Poissons Ratio (y) = 0.44649 0.72973
# Poissons Ratio (z) = 0.24790 0.24429
#
# Static dielectric constant tensor:
#      x y z
#    x 1.665610 0.000000 -0.028570 
#    y 0.000000 1.651830 0.000000 
#    z -0.028570 0.000000 1.673980 
# 
# From -- ./inp_files/314378.got.cif
#   From: 2010.05.17/outbox.cif.g08.bks.cpg/sg12_158_cif.got.tgz:314378.got - 2010.06.03 13:09:07.
