data_PCOD9203257
_publ_section_title
;
Structure prediction by ZEFSAII (Michael W. Deem and Ramdas Pophale) SiO2 
 PCOD9203257
Probable space group: C 2/M
;
_chemical_formula_sum "Si O2"
_cell_formula_units_Z 48
_cell_length_a 20.169818
_cell_length_b 17.295283
_cell_length_c 15.962213
_cell_angle_alpha 90.000000
_cell_angle_beta 29.160532
_cell_angle_gamma 90.000000
_cell_volume 2713.200827
_symmetry_space_group_name_H-M "C 2/M"
_symmetry_group_IT_number 12
_symmetry_cell_setting 'monoclinic'
loop_
_space_group_symop_operation_xyz
x,y,z
-x,y,-z
-x,-y,-z
x,-y,z
1/2+x,1/2+y,z
1/2-x,1/2+y,-z
1/2-x,1/2-y,-z
1/2+x,1/2-y,z
loop_
_atom_site_type_symbol
_atom_site_label
_atom_site_fract_x
_atom_site_fract_y
_atom_site_fract_z
Si Si1 0.698472 0.178027 0.456048
Si Si2 0.842824 0.725298 0.150027
Si Si3 0.293633 0.306153 0.027378
Si Si4 0.583237 0.659807 0.645560
Si Si5 0.960443 0.591119 0.637998
Si Si6 0.632019 0.590550 0.411459
O O1 0.778669 0.214596 0.288297
O O2 0.612763 0.250555 0.587614
O O3 0.804631 0.146072 0.406684
O O4 0.591360 0.113789 0.547665
O O5 0.827652 0.758755 0.073851
O O6 0.755715 0.646814 0.251385
O O7 0.000000 0.713039 0.000000
O O8 0.170157 0.362994 0.185394
O O9 0.250000 0.250000 0.000000
O O10 0.431803 0.348293 0.847343
O O11 0.600942 0.609385 0.542766
O O12 0.934664 0.500000 0.666814
O O13 0.000000 0.615788 0.500000
O O14 0.500000 0.609740 0.500000
O O15 0.662272 0.500000 0.366638
#
# Coordination Sequence:
#
# PCOD9203257 Si02
#       6
#     8   8   8   8   8   8
#     4  10  20  39  60  88 119 157 201 243 293 359
#     4  11  22  38  63  90 120 159 201 247 299 359
#     4  12  22  36  62  93 120 154 202 254 292 349
#     4  10  21  36  63  90 116 154 202 247 291 350
#     4  11  24  40  60  87 122 161 199 243 304 360
#     4  10  23  41  60  87 125 164 197 240 302 362
#
# _framework density 17.691282000000001
#
# number of rings (size 3 to 8) (size 9 to 14) (size 15 to 20)
#    0.000    1.333    5.000    1.000    2.333    1.667 
#    0.000    0.833    0.000    3.000    0.000    0.000 
#    0.000    0.000    0.000    0.000    0.000    0.000 
#
# Total GULP energy -134041.140713 kJ/mol
# GULP energy per Si atom -5585.047530 kJ/mol
# Density = 1.765102 g / cm^3
# Si number density = 17.691282 Si / 1000 Ang^3
#
#
#
# Elastic Constant Matrix: (Units=GPa)
#
#
# Indices 1 2 3 4 5 6 
#
# 1 131.6911 26.3450 37.8440 0.0000 -8.7783 0.0000
# 2 26.3450 42.5609 34.0909 -0.0001 -8.0880 0.0000
# 3 37.8440 34.0909 116.9215 0.0000 -14.2731 0.0000
# 4 0.0000 -0.0001 0.0000 17.3608 0.0000 0.0147
# 5 -8.7783 -8.0880 -14.2731 0.0000 30.0478 0.0000
# 6 0.0000 0.0000 0.0000 0.0147 0.0000 21.3036
#
#
#
# Elastic Compliance Matrix: (Units=1/GPa)
#
#
# Indices 1 2 3 4 5 6 
#
# 1 0.008924 -0.004099 -0.001603 0.000000 0.000742 0.000000
# 2 -0.004099 0.033058 -0.007826 0.000000 0.003984 0.000000
# 3 -0.001603 -0.007826 0.011718 0.000000 0.002992 0.000000
# 4 0.000000 0.000000 0.000000 0.057601 0.000000 -0.000040
# 5 0.000742 0.003984 0.002992 0.000000 0.035991 0.000000
# 6 0.000000 0.000000 0.000000 -0.000040 0.000000 0.046941
#
#
# Mechanical properties :
#
#
# Convention : Reuss Voigt Hill
#
# Bulk Modulus (GPa) = 37.52945 54.19259 45.86102
# Shear Modulus (GPa) = 21.72313 26.60199 24.16256
#
# Velocity S-wave (km/s) = 3.50794 3.88194 3.69967
# Velocity P-wave (km/s) = 6.13736 7.12681 6.65051
#
# Compressibility (1/GPa) = 0.02664574
#
# Stress axis : x y z
#
# Youngs Moduli (GPa) = 112.06327 30.24945 85.33551
#
# Poissons Ratio (x) = 0.12399 0.13675
# Poissons Ratio (y) = 0.45934 0.66783
# Poissons Ratio (z) = 0.17958 0.23673
#
# Static dielectric constant tensor:
#      x y z
#    x 1.612700 0.000000 0.010140 
#    y 0.000000 1.579000 0.000000 
#    z 0.010140 0.000000 1.586070 
# 
# From -- ./inp_files/88146.got.cif
#   From: 2010.05.17/outbox.cif.g08.bks.cpg/sg12_45_cif.got.tgz:88146.got - 2010.06.03 13:09:07.
