data_PCOD9203202
_publ_section_title
;
Structure prediction by ZEFSAII (Michael W. Deem and Ramdas Pophale) SiO2 
 PCOD9203202
Probable space group: C 2/M
;
_chemical_formula_sum "Si O2"
_cell_formula_units_Z 50
_cell_length_a 26.845912
_cell_length_b 12.817950
_cell_length_c 7.123018
_cell_angle_alpha 90.000000
_cell_angle_beta 57.225297
_cell_angle_gamma 90.000000
_cell_volume 2060.897638
_symmetry_space_group_name_H-M "C 2/M"
_symmetry_group_IT_number 12
_symmetry_cell_setting 'monoclinic'
loop_
_space_group_symop_operation_xyz
x,y,z
-x,y,-z
-x,-y,-z
x,-y,z
1/2+x,1/2+y,z
1/2-x,1/2+y,-z
1/2-x,1/2-y,-z
1/2+x,1/2-y,z
loop_
_atom_site_type_symbol
_atom_site_label
_atom_site_fract_x
_atom_site_fract_y
_atom_site_fract_z
Si Si1 0.741914 0.673236 0.805318
Si Si2 0.734155 0.888886 0.634480
Si Si3 0.000000 0.500000 0.000000
Si Si4 0.554545 0.386199 0.112780
Si Si5 0.421309 0.385522 0.484371
Si Si6 0.852147 0.284312 0.767267
Si Si7 0.401389 0.163687 0.047692
O O1 0.756100 0.791323 0.706817
O O2 0.733993 0.612178 0.630979
O O3 0.800418 0.640991 0.797074
O O4 0.684343 0.692812 0.046640
O O5 0.663845 0.867911 0.745374
O O6 0.741503 0.000000 0.713775
O O7 0.952494 0.591003 0.023620
O O8 0.574862 0.500000 0.004105
O O9 0.483326 0.380830 0.249441
O O10 0.565519 0.383683 0.316821
O O11 0.584033 0.286167 0.959020
O O12 0.393670 0.500000 0.502462
O O13 0.386757 0.276837 0.535218
O O14 0.892936 0.342432 0.836071
#
# Coordination Sequence:
#
# PCOD9203202 Si02
#       7
#     8   8   2   8   8   8   8
#     4   9  20  36  59  86 116 154 208 252 327 367
#     4  10  20  39  58  84 123 170 200 258 315 388
#     4  12  24  40  58  86 116 192 212 252 312 376
#     4   8  15  31  55  85 113 152 190 255 313 368
#     4   8  14  26  51  83 117 142 178 241 330 359
#     4   9  18  36  58  89 115 153 201 277 302 376
#     4  10  21  38  60  83 124 168 223 248 310 381
#
# _framework density 24.261272999999999
#
# number of rings (size 3 to 8) (size 9 to 14) (size 15 to 20)
#    0.000    2.880    0.800    0.960    0.000    2.560 
#    1.440   10.000    0.000    8.640    0.000    0.000 
#    0.000    0.000    0.000    0.000    0.000    0.000 
#
# Total GULP energy -139290.161263 kJ/mol
# GULP energy per Si atom -5571.606451 kJ/mol
# Density = 2.420605 g / cm^3
# Si number density = 24.261273 Si / 1000 Ang^3
#
#
#
# Elastic Constant Matrix: (Units=GPa)
#
#
# Indices 1 2 3 4 5 6 
#
# 1 123.8035 13.7160 2.1660 0.0000 -4.6285 0.0000
# 2 13.7160 123.1474 6.7960 0.0000 -1.0001 0.0000
# 3 2.1660 6.7960 73.2301 0.0000 7.6074 0.0000
# 4 0.0000 0.0000 0.0000 5.0241 0.0000 0.7075
# 5 -4.6285 -1.0001 7.6074 0.0000 21.3094 0.0000
# 6 0.0000 0.0000 0.0000 0.7075 0.0000 -10.7978
#
#
#
# Elastic Compliance Matrix: (Units=1/GPa)
#
#
# Indices 1 2 3 4 5 6 
#
# 1 0.008252 -0.000884 -0.000357 0.000000 0.001878 0.000000
# 2 -0.000884 0.008266 -0.000791 0.000000 0.000478 0.000000
# 3 -0.000357 -0.000791 0.014281 0.000000 -0.005213 0.000000
# 4 0.000000 0.000000 0.000000 0.197222 0.000000 0.012922
# 5 0.001878 0.000478 -0.005213 0.000000 0.049219 0.000000
# 6 0.000000 0.000000 0.000000 0.012922 0.000000 -0.091765
#
#
# Mechanical properties :
#
#
# Convention : Reuss Voigt Hill
#
# Bulk Modulus (GPa) = 37.40374 40.61523 39.00948
# Shear Modulus (GPa) = 25.19508 22.94067 24.06788
#
# Velocity S-wave (km/s) = 3.22606 3.07834 3.15307
# Velocity P-wave (km/s) = 5.41545 5.42329 5.41937
#
# Compressibility (1/GPa) = 0.02673530
#
# Stress axis : x y z
#
# Youngs Moduli (GPa) = 121.18665 120.97257 70.02278
#
# Poissons Ratio (x) = 0.10695 0.02501
# Poissons Ratio (y) = 0.10714 0.05537
# Poissons Ratio (z) = 0.04328 0.09565
#
# Static dielectric constant tensor:
#      x y z
#    x 2.005140 0.000000 0.046740 
#    y 0.000000 1.902140 0.000000 
#    z 0.046740 0.000000 1.960930 
# 
# From -- ./inp_files/109798.got.cif
#   From: 2010.05.17/outbox.cif.g08.bks.cpg/sg12_55_cif.got.tgz:109798.got - 2010.06.03 13:09:07.
