data_PCOD9203300
_publ_section_title
;
Structure prediction by ZEFSAII (Michael W. Deem and Ramdas Pophale) SiO2 
 PCOD9203300
Probable space group: C 2/M
;
_chemical_formula_sum "Si O2"
_cell_formula_units_Z 54
_cell_length_a 29.872213
_cell_length_b 17.922978
_cell_length_c 6.466664
_cell_angle_alpha 90.000000
_cell_angle_beta 49.206199
_cell_angle_gamma 90.000000
_cell_volume 2621.147509
_symmetry_space_group_name_H-M "C 2/M"
_symmetry_group_IT_number 12
_symmetry_cell_setting 'monoclinic'
loop_
_space_group_symop_operation_xyz
x,y,z
-x,y,-z
-x,-y,-z
x,-y,z
1/2+x,1/2+y,z
1/2-x,1/2+y,-z
1/2-x,1/2-y,-z
1/2+x,1/2-y,z
loop_
_atom_site_type_symbol
_atom_site_label
_atom_site_fract_x
_atom_site_fract_y
_atom_site_fract_z
Si Si1 0.361854 0.582431 0.400719
Si Si2 0.187092 0.672615 0.851822
Si Si3 0.742114 0.916371 0.026935
Si Si4 0.000000 0.500000 0.000000
Si Si5 0.579876 0.862220 0.910308
Si Si6 0.500000 0.214283 0.500000
Si Si7 0.802769 0.838917 0.230957
Si Si8 0.060446 0.781273 0.694251
O O1 0.389419 0.500000 0.327556
O O2 0.298691 0.577043 0.705157
O O3 0.349703 0.607745 0.201259
O O4 0.396967 0.649060 0.403320
O O5 0.193621 0.632419 0.052168
O O6 0.169817 0.759549 0.915566
O O7 0.252136 0.674653 0.555295
O O8 0.142864 0.629383 0.832887
O O9 0.720470 0.000000 0.137891
O O10 0.768202 0.876179 0.147574
O O11 0.950193 0.433987 0.099670
O O12 0.536429 0.835243 0.226947
O O13 0.584398 0.794073 0.732983
O O14 0.543088 0.263174 0.512302
O O15 0.000000 0.798391 0.000000
#
# Coordination Sequence:
#
# PCOD9203300 Si02
#       8
#     8   8   8   2   8   4   8   8
#     4  10  21  37  61  87 123 161 198 251 300 365
#     4  10  22  37  61  88 117 158 204 255 299 372
#     4  10  22  37  54  92 126 156 200 247 306 371
#     4  12  24  46  64  92 124 156 212 266 306 380
#     4  11  23  43  62  88 121 158 207 260 305 364
#     4  10  22  41  63  82 114 160 198 250 305 365
#     4  10  20  39  61  86 121 161 203 243 311 368
#     4  10  21  40  60  88 117 155 205 249 303 360
#
# _framework density 20.601662999999999
#
# number of rings (size 3 to 8) (size 9 to 14) (size 15 to 20)
#    0.000    1.778    3.704    0.889    3.111    2.370 
#    0.000    0.370    0.000    0.000    0.000    0.000 
#    0.000    0.000    0.000    0.000    0.000    0.000 
#
# Total GULP energy -150468.779034 kJ/mol
# GULP energy per Si atom -5572.917742 kJ/mol
# Density = 2.055477 g / cm^3
# Si number density = 20.601663 Si / 1000 Ang^3
#
#
#
# Elastic Constant Matrix: (Units=GPa)
#
#
# Indices 1 2 3 4 5 6 
#
# 1 62.7080 32.3695 2.8599 0.0000 19.8883 0.0000
# 2 32.3695 153.0090 21.6773 0.0000 18.4250 0.0000
# 3 2.8599 21.6773 30.5104 0.0000 14.6584 0.0000
# 4 0.0000 0.0000 0.0000 -2.0593 0.0000 -3.6993
# 5 19.8883 18.4250 14.6584 0.0000 40.7535 0.0000
# 6 0.0000 0.0000 0.0000 -3.6993 0.0000 28.4117
#
#
#
# Elastic Compliance Matrix: (Units=1/GPa)
#
#
# Indices 1 2 3 4 5 6 
#
# 1 0.021135 -0.004040 0.006005 0.000000 -0.010648 0.000000
# 2 -0.004040 0.008141 -0.005542 0.000000 0.000284 0.000000
# 3 0.006005 -0.005542 0.043949 0.000000 -0.016233 0.000000
# 4 0.000000 0.000000 0.000000 -0.393551 0.000000 -0.051242
# 5 -0.010648 0.000284 -0.016233 0.000000 0.035444 0.000000
# 6 0.000000 0.000000 0.000000 -0.051242 0.000000 0.028525
#
#
# Mechanical properties :
#
#
# Convention : Reuss Voigt Hill
#
# Bulk Modulus (GPa) = 15.13511 40.00452 27.56981
# Shear Modulus (GPa) = -22.00919 26.04255 2.01668
#
# Velocity S-wave (km/s) = -3.27206 3.55927 0.99046
# Velocity P-wave (km/s) = 2.62920 6.02922 3.83659
#
# Compressibility (1/GPa) = 0.06607156
#
# Stress axis : x y z
#
# Youngs Moduli (GPa) = 47.31389 122.83303 22.75355
#
# Poissons Ratio (x) = 0.49622 -0.13663
# Poissons Ratio (y) = 0.19114 0.12610
# Poissons Ratio (z) = -0.28411 0.68075
#
# Static dielectric constant tensor:
#      x y z
#    x 1.742290 0.000000 -0.008630 
#    y 0.000000 1.739880 0.000000 
#    z -0.008630 0.000000 1.762120 
# 
# From -- ./inp_files/31864.got.cif
#   From: 2010.05.17/outbox.cif.g08.bks.cpg/sg12_16_cif.got.tgz:31864.got - 2010.06.03 13:09:07.
