data_PCOD9203054
_publ_section_title
;
Structure prediction by ZEFSAII (Michael W. Deem and Ramdas Pophale) SiO2 
 PCOD9203054
Probable space group: C 2/M
;
_chemical_formula_sum "Si O2"
_cell_formula_units_Z 40
_cell_length_a 19.044433
_cell_length_b 15.286721
_cell_length_c 12.448338
_cell_angle_alpha 90.000000
_cell_angle_beta 150.665299
_cell_angle_gamma 90.000000
_cell_volume 1775.458521
_symmetry_space_group_name_H-M "C 2/M"
_symmetry_group_IT_number 12
_symmetry_cell_setting 'monoclinic'
loop_
_space_group_symop_operation_xyz
x,y,z
-x,y,-z
-x,-y,-z
x,-y,z
1/2+x,1/2+y,z
1/2-x,1/2+y,-z
1/2-x,1/2-y,-z
1/2+x,1/2-y,z
loop_
_atom_site_type_symbol
_atom_site_label
_atom_site_fract_x
_atom_site_fract_y
_atom_site_fract_z
Si Si1 0.650414 0.359393 0.452814
Si Si2 0.165681 0.896083 0.042666
Si Si3 0.617058 0.100544 0.075039
Si Si4 0.791623 0.657161 0.420992
Si Si5 0.894858 0.602787 0.178764
O O1 0.732878 0.400212 0.663409
O O2 0.732750 0.384157 0.452470
O O3 0.668130 0.256095 0.496090
O O4 0.485993 0.382960 0.217197
O O5 0.177470 0.849207 0.173290
O O6 0.291187 0.861199 0.131961
O O7 0.184796 0.000000 0.088563
O O8 0.568370 0.000000 0.992671
O O9 0.500000 0.141845 0.000000
O O10 0.625897 0.141328 0.968787
O O11 0.937233 0.612477 0.573992
O O12 0.857196 0.500000 0.123533
#
# Coordination Sequence:
#
# PCOD9203054 Si02
#       5
#     8   8   8   8   8
#     4  11  25  40  64  95 130 163 211 266 318 370
#     4  11  25  44  66  96 131 167 214 268 318 373
#     4  10  20  38  66  90 120 166 213 258 311 379
#     4  11  24  41  64  91 129 171 209 258 316 382
#     4  10  22  42  67  93 124 167 215 259 312 382
#
# _framework density 22.529391
#
# number of rings (size 3 to 8) (size 9 to 14) (size 15 to 20)
#    0.000    1.400    2.000    2.400    2.800    6.400 
#    3.600    3.000    0.000    0.000    0.000    0.000 
#    0.000    0.000    0.000    0.000    0.000    0.000 
#
# Total GULP energy -111840.552173 kJ/mol
# GULP energy per Si atom -5592.027609 kJ/mol
# Density = 2.247811 g / cm^3
# Si number density = 22.529391 Si / 1000 Ang^3
#
#
#
# Elastic Constant Matrix: (Units=GPa)
#
#
# Indices 1 2 3 4 5 6 
#
# 1 76.0993 19.2277 27.4355 0.0000 -2.3197 0.0000
# 2 19.2277 34.0635 -7.3268 0.0000 -4.0051 0.0000
# 3 27.4355 -7.3268 122.5668 0.0000 -10.1405 0.0000
# 4 0.0000 0.0000 0.0000 33.5625 0.0000 -3.0994
# 5 -2.3197 -4.0051 -10.1405 0.0000 41.1982 0.0000
# 6 0.0000 0.0000 0.0000 -3.0994 0.0000 12.4308
#
#
#
# Elastic Compliance Matrix: (Units=1/GPa)
#
#
# Indices 1 2 3 4 5 6 
#
# 1 0.017603 -0.011095 -0.004707 0.000000 -0.001246 0.000000
# 2 -0.011095 0.037206 0.005058 0.000000 0.004237 0.000000
# 3 -0.004707 0.005058 0.009732 0.000000 0.002622 0.000000
# 4 0.000000 0.000000 0.000000 0.030497 0.000000 0.007604
# 5 -0.001246 0.004237 0.002622 0.000000 0.025260 0.000000
# 6 0.000000 0.000000 0.000000 0.007604 0.000000 0.082341
#
#
# Mechanical properties :
#
#
# Convention : Reuss Voigt Hill
#
# Bulk Modulus (GPa) = 23.22687 34.60028 28.91357
# Shear Modulus (GPa) = 20.96632 30.33117 25.64874
#
# Velocity S-wave (km/s) = 3.05392 3.67317 3.37776
# Velocity P-wave (km/s) = 4.77150 5.77761 5.29849
#
# Compressibility (1/GPa) = 0.04305359
#
# Stress axis : x y z
#
# Youngs Moduli (GPa) = 56.80866 26.87735 102.75747
#
# Poissons Ratio (x) = 0.29821 0.48364
# Poissons Ratio (y) = 0.63030 -0.51977
# Poissons Ratio (z) = 0.26738 -0.13595
#
# Static dielectric constant tensor:
#      x y z
#    x 1.850660 0.000000 0.002880 
#    y 0.000000 1.864240 0.000000 
#    z 0.002880 0.000000 1.796350 
# 
# From -- ./inp_files/46899.got.cif
#   From: 2010.05.17/outbox.cif.g08.bks.cpg/sg12_24_cif.got.tgz:46899.got - 2010.06.03 13:09:07.
