data_PCOD9203350
_publ_section_title
;
Structure prediction by ZEFSAII (Michael W. Deem and Ramdas Pophale) SiO2 
 PCOD9203350
Probable space group: C 2/M
;
_chemical_formula_sum "Si O2"
_cell_formula_units_Z 64
_cell_length_a 9.338496
_cell_length_b 33.339403
_cell_length_c 17.715283
_cell_angle_alpha 90.000000
_cell_angle_beta 38.873071
_cell_angle_gamma 90.000000
_cell_volume 3461.496187
_symmetry_space_group_name_H-M "C 2/M"
_symmetry_group_IT_number 12
_symmetry_cell_setting 'monoclinic'
loop_
_space_group_symop_operation_xyz
x,y,z
-x,y,-z
-x,-y,-z
x,-y,z
1/2+x,1/2+y,z
1/2-x,1/2+y,-z
1/2-x,1/2-y,-z
1/2+x,1/2-y,z
loop_
_atom_site_type_symbol
_atom_site_label
_atom_site_fract_x
_atom_site_fract_y
_atom_site_fract_z
Si Si1 0.689729 0.546876 0.206172
Si Si2 0.347664 0.546313 0.487234
Si Si3 0.487322 0.889785 0.683640
Si Si4 0.377934 0.729388 0.660229
Si Si5 0.301437 0.826051 0.139299
Si Si6 0.845457 0.299448 0.398772
Si Si7 0.054030 0.397468 0.122079
Si Si8 0.031831 0.888031 0.152735
O O1 0.703415 0.500000 0.183392
O O2 0.513202 0.552762 0.348091
O O3 0.933031 0.564631 0.132190
O O4 0.599675 0.573454 0.174573
O O5 0.500000 0.551263 0.500000
O O6 0.266429 0.500000 0.518497
O O7 0.143278 0.577835 0.576774
O O8 0.600164 0.845909 0.632636
O O9 0.467466 0.901164 0.779895
O O10 0.233445 0.887648 0.755388
O O11 0.285368 0.710024 0.774468
O O12 0.208057 0.721192 0.660343
O O13 0.613697 0.707014 0.541084
O O14 0.452108 0.775166 0.643445
O O15 0.408535 0.859491 0.151454
O O16 0.111313 0.849312 0.168435
O O17 0.500000 0.813843 0.000000
O O18 0.308786 0.390615 0.986878
#
# Coordination Sequence:
#
# PCOD9203350 Si02
#       8
#     8   8   8   8   8   8   8   8
#     4  10  21  40  63  87 118 160 205 248 301 368
#     4  10  22  39  62  90 120 155 203 254 294 360
#     4  12  23  38  63  92 120 162 201 247 316 362
#     4  10  21  42  58  88 117 152 201 253 299 355
#     4   9  19  39  62  81 117 161 201 242 290 359
#     4  10  24  37  64  88 119 157 196 257 302 358
#     4  10  20  39  62  85 117 158 207 250 290 359
#     4  10  24  37  56  92 123 155 197 254 301 355
#
# _framework density 18.489114000000001
#
# number of rings (size 3 to 8) (size 9 to 14) (size 15 to 20)
#    0.000    1.875    2.500    1.500    7.000    2.000 
#    0.000    3.125    0.000    2.250    0.000    0.000 
#    0.000    0.000    0.000    0.000    0.000    0.000 
#
# Total GULP energy -178713.184783 kJ/mol
# GULP energy per Si atom -5584.787024 kJ/mol
# Density = 1.844703 g / cm^3
# Si number density = 18.489114 Si / 1000 Ang^3
#
#
#
# Elastic Constant Matrix: (Units=GPa)
#
#
# Indices 1 2 3 4 5 6 
#
# 1 56.5252 17.7553 17.0943 0.0000 -11.9568 0.0000
# 2 17.7553 58.8638 16.8731 0.0000 -8.3879 0.0000
# 3 17.0943 16.8731 47.7339 0.0000 -3.9977 0.0000
# 4 0.0000 0.0000 0.0000 26.5294 0.0000 6.5410
# 5 -11.9568 -8.3879 -3.9977 0.0000 27.7409 0.0000
# 6 0.0000 0.0000 0.0000 6.5410 0.0000 11.2683
#
#
#
# Elastic Compliance Matrix: (Units=1/GPa)
#
#
# Indices 1 2 3 4 5 6 
#
# 1 0.022339 -0.003948 -0.005970 0.000000 0.007575 0.000000
# 2 -0.003948 0.020258 -0.005442 0.000000 0.003639 0.000000
# 3 -0.005970 -0.005442 0.024959 0.000000 -0.000622 0.000000
# 4 0.000000 0.000000 0.000000 0.043990 0.000000 -0.025535
# 5 0.007575 0.003639 -0.000622 0.000000 0.040323 0.000000
# 6 0.000000 0.000000 0.000000 -0.025535 0.000000 0.103567
#
#
# Mechanical properties :
#
#
# Convention : Reuss Voigt Hill
#
# Bulk Modulus (GPa) = 27.14746 29.61869 28.38307
# Shear Modulus (GPa) = 16.75409 20.53442 18.64426
#
# Velocity S-wave (km/s) = 3.01351 3.33622 3.17896
# Velocity P-wave (km/s) = 5.17911 5.55830 5.37205
#
# Compressibility (1/GPa) = 0.03683586
#
# Stress axis : x y z
#
# Youngs Moduli (GPa) = 44.76492 49.36397 40.06547
#
# Poissons Ratio (x) = 0.19486 0.23920
# Poissons Ratio (y) = 0.17671 0.21805
# Poissons Ratio (z) = 0.26725 0.26865
#
# Static dielectric constant tensor:
#      x y z
#    x 1.630970 0.000000 0.004690 
#    y 0.000000 1.615740 0.000000 
#    z 0.004690 0.000000 1.626200 
# 
# From -- ./inp_files/260330.got.cif
#   From: 2010.05.17/outbox.cif.g08.bks.cpg/sg12_131_cif.got.tgz:260330.got - 2010.06.03 13:09:07.
