data_PCOD9203515
_publ_section_title
;
Structure prediction by ZEFSAII (Michael W. Deem and Ramdas Pophale) SiO2 
 PCOD9203515
Probable space group: C 2/M
;
_chemical_formula_sum "Si O2"
_cell_formula_units_Z 36
_cell_length_a 18.092550
_cell_length_b 10.912517
_cell_length_c 11.472282
_cell_angle_alpha 90.000000
_cell_angle_beta 137.903804
_cell_angle_gamma 90.000000
_cell_volume 1518.426816
_symmetry_space_group_name_H-M "C 2/M"
_symmetry_group_IT_number 12
_symmetry_cell_setting 'monoclinic'
loop_
_space_group_symop_operation_xyz
x,y,z
-x,y,-z
-x,-y,-z
x,-y,z
1/2+x,1/2+y,z
1/2-x,1/2+y,-z
1/2-x,1/2-y,-z
1/2+x,1/2-y,z
loop_
_atom_site_type_symbol
_atom_site_label
_atom_site_fract_x
_atom_site_fract_y
_atom_site_fract_z
Si Si1 0.186786 0.000000 0.666817
Si Si2 0.764599 0.753546 0.655202
Si Si3 0.091018 0.737707 0.877690
Si Si4 0.689953 0.860046 0.778910
Si Si5 0.548723 0.500000 0.733242
Si Si6 0.500000 0.764658 0.000000
O O1 0.249662 0.882635 0.689865
O O2 0.154732 0.000000 0.767788
O O3 0.064911 0.000000 0.469825
O O4 0.750000 0.750000 0.500000
O O5 0.676191 0.831384 0.626466
O O6 0.886335 0.803426 0.832661
O O7 0.094220 0.669124 0.758568
O O8 0.047096 0.874740 0.803817
O O9 0.214106 0.766833 0.068052
O O10 0.028916 0.671566 0.911050
O O11 0.724065 0.000000 0.833712
#
# Coordination Sequence:
#
# PCOD9203515 Si02
#       6
#     4   8   8   8   4   4
#     4  11  24  39  66  92 128 174 217 274 321 389
#     4  11  24  44  65  97 132 173 220 273 332 392
#     4  10  20  39  63  96 127 166 216 265 326 398
#     4  10  21  39  65  93 131 171 211 268 330 389
#     4  11  20  39  68  94 123 164 224 276 320 392
#     4  10  24  42  64  96 132 170 216 270 328 400
#
# _framework density 23.708749000000001
#
# number of rings (size 3 to 8) (size 9 to 14) (size 15 to 20)
#    0.000    1.556    3.333    1.333    1.556    0.889 
#    4.000    0.000    0.000    5.333    0.000    0.000 
#    0.000    0.000    0.000    0.000    0.000    0.000 
#
# Total GULP energy -100331.306419 kJ/mol
# GULP energy per Si atom -5573.961468 kJ/mol
# Density = 2.365479 g / cm^3
# Si number density = 23.708749 Si / 1000 Ang^3
#
#
#
# Elastic Constant Matrix: (Units=GPa)
#
#
# Indices 1 2 3 4 5 6 
#
# 1 205.8414 40.0387 49.8427 0.0000 -60.0245 0.0000
# 2 40.0387 92.6413 14.4223 0.0000 -16.8385 0.0000
# 3 49.8427 14.4223 96.1677 0.0000 -23.8795 0.0000
# 4 0.0000 0.0000 0.0000 20.8446 0.0000 -12.1065
# 5 -60.0245 -16.8385 -23.8795 0.0000 47.3338 0.0000
# 6 0.0000 0.0000 0.0000 -12.1065 0.0000 13.6926
#
#
#
# Elastic Compliance Matrix: (Units=1/GPa)
#
#
# Indices 1 2 3 4 5 6 
#
# 1 0.008217 -0.001649 -0.001794 0.000000 0.008928 0.000000
# 2 -0.001649 0.011927 -0.000457 0.000000 0.001921 0.000000
# 3 -0.001794 -0.000457 0.012337 0.000000 0.003786 0.000000
# 4 0.000000 0.000000 0.000000 0.098614 0.000000 0.087191
# 5 0.008928 0.001921 0.003786 0.000000 0.035041 0.000000
# 6 0.000000 0.000000 0.000000 0.087191 0.000000 0.150122
#
#
# Mechanical properties :
#
#
# Convention : Reuss Voigt Hill
#
# Bulk Modulus (GPa) = 40.51829 67.02866 53.77347
# Shear Modulus (GPa) = 15.04722 35.73066 25.38894
#
# Velocity S-wave (km/s) = 2.52200 3.88631 3.27596
# Velocity P-wave (km/s) = 5.06041 6.96211 6.08599
#
# Compressibility (1/GPa) = 0.02468021
#
# Stress axis : x y z
#
# Youngs Moduli (GPa) = 121.70153 83.84047 81.05598
#
# Poissons Ratio (x) = 0.13826 0.14545
# Poissons Ratio (y) = 0.20070 0.03704
# Poissons Ratio (z) = 0.21839 0.03831
#
# Static dielectric constant tensor:
#      x y z
#    x 2.046700 0.000000 -0.010900 
#    y 0.000000 1.898300 0.000000 
#    z -0.010900 0.000000 1.956120 
# 
# From -- ./inp_files/153978.got.cif
#   From: 2010.05.17/outbox.cif.g08.bks.cpg/sg12_77_cif.got.tgz:153978.got - 2010.06.03 13:09:07.
