data_PCOD9203743
_publ_section_title
;
Structure prediction by ZEFSAII (Michael W. Deem and Ramdas Pophale) SiO2 
 PCOD9203743
Probable space group: C 2/M
;
_chemical_formula_sum "Si O2"
_cell_formula_units_Z 64
_cell_length_a 15.913231
_cell_length_b 15.974618
_cell_length_c 21.936742
_cell_angle_alpha 90.000000
_cell_angle_beta 146.654112
_cell_angle_gamma 90.000000
_cell_volume 3065.352491
_symmetry_space_group_name_H-M "C 2/M"
_symmetry_group_IT_number 12
_symmetry_cell_setting 'monoclinic'
loop_
_space_group_symop_operation_xyz
x,y,z
-x,y,-z
-x,-y,-z
x,-y,z
1/2+x,1/2+y,z
1/2-x,1/2+y,-z
1/2-x,1/2-y,-z
1/2+x,1/2-y,z
loop_
_atom_site_type_symbol
_atom_site_label
_atom_site_fract_x
_atom_site_fract_y
_atom_site_fract_z
Si Si1 0.074580 0.907703 0.454450
Si Si2 0.842393 0.763771 0.330225
Si Si3 0.815880 0.600388 0.116352
Si Si4 0.475946 0.908231 0.557082
Si Si5 0.859069 0.682407 0.677451
Si Si6 0.621423 0.641230 0.350643
Si Si7 0.348513 0.305250 0.873579
Si Si8 0.512095 0.599025 0.862646
O O1 0.247081 0.884733 0.578715
O O2 0.056335 0.902518 0.370639
O O3 0.968309 0.834209 0.414271
O O4 0.033553 0.000000 0.450834
O O5 0.731636 0.774357 0.321243
O O6 0.745182 0.772313 0.209758
O O7 0.922756 0.673574 0.368274
O O8 0.830303 0.500000 0.129096
O O9 0.746470 0.637568 0.137130
O O10 0.980513 0.642404 0.205816
O O11 0.687598 0.620074 0.987022
O O12 0.500000 0.917523 0.500000
O O13 0.298301 0.886600 0.457111
O O14 0.512049 0.000000 0.607653
O O15 0.887019 0.758436 0.647652
O O16 0.538480 0.620156 0.236670
O O17 0.406112 0.356206 0.848843
O O18 0.500000 0.277717 0.000000
O O19 0.493339 0.500000 0.859720
#
# Coordination Sequence:
#
# PCOD9203743 Si02
#       8
#     8   8   8   8   8   8   8   8
#     4  12  27  44  66  94 130 175 221 271 326 380
#     4  12  24  45  65  94 129 172 222 267 321 390
#     4  10  23  40  65  99 130 170 220 266 317 381
#     4  11  21  36  61  94 128 161 201 258 327 388
#     4  12  24  43  66  92 131 170 221 274 317 385
#     4  12  23  42  63  95 132 166 215 269 325 391
#     4  10  21  41  66  98 131 167 208 266 330 387
#     4  10  20  39  66  96 133 170 209 262 327 395
#
# _framework density 20.878512000000001
#
# number of rings (size 3 to 8) (size 9 to 14) (size 15 to 20)
#    0.000    0.875    3.750    3.375    1.750    5.500 
#    2.250    0.000    0.000    0.375    0.000    0.000 
#    0.000    0.000    0.000    0.000    0.000    0.000 
#
# Total GULP energy -178824.279141 kJ/mol
# GULP energy per Si atom -5588.258723 kJ/mol
# Density = 2.083099 g / cm^3
# Si number density = 20.878512 Si / 1000 Ang^3
#
#
#
# Elastic Constant Matrix: (Units=GPa)
#
#
# Indices 1 2 3 4 5 6 
#
# 1 79.8137 19.2058 59.9283 0.0001 -3.8639 0.0000
# 2 19.2058 105.3988 58.6829 0.0001 14.9072 0.0000
# 3 59.9283 58.6829 143.7320 0.0008 2.4443 0.0002
# 4 0.0001 0.0001 0.0008 30.8093 0.0003 3.8545
# 5 -3.8639 14.9072 2.4443 0.0003 37.0256 0.0001
# 6 0.0000 0.0000 0.0002 3.8545 0.0001 10.4880
#
#
#
# Elastic Compliance Matrix: (Units=1/GPa)
#
#
# Indices 1 2 3 4 5 6 
#
# 1 0.018509 0.000832 -0.008093 0.000000 0.002131 0.000000
# 2 0.000832 0.013159 -0.005637 0.000000 -0.004839 0.000000
# 3 -0.008093 -0.005637 0.012623 0.000000 0.000592 0.000000
# 4 0.000000 0.000000 0.000000 0.034022 0.000000 -0.012504
# 5 0.002131 -0.004839 0.000592 0.000000 0.029140 0.000000
# 6 0.000000 0.000000 0.000000 -0.012504 0.000000 0.099943
#
#
# Mechanical properties :
#
#
# Convention : Reuss Voigt Hill
#
# Bulk Modulus (GPa) = 54.06987 67.17541 60.62264
# Shear Modulus (GPa) = 20.88925 28.40641 24.64783
#
# Velocity S-wave (km/s) = 3.16652 3.69257 3.43962
# Velocity P-wave (km/s) = 6.27079 7.10102 6.69877
#
# Compressibility (1/GPa) = 0.01849459
#
# Stress axis : x y z
#
# Youngs Moduli (GPa) = 54.02829 75.99217 79.21892
#
# Poissons Ratio (x) = -0.06322 0.64112
# Poissons Ratio (y) = -0.04495 0.44657
# Poissons Ratio (z) = 0.43725 0.42838
#
# Static dielectric constant tensor:
#      x y z
#    x 1.815860 0.000000 0.033300 
#    y 0.000000 1.786330 0.000000 
#    z 0.033300 0.000000 1.798970 
# 
# From -- ./inp_files/344096.got.cif
#   From: 2010.05.17/outbox.cif.g08.bks.cpg/sg12_173_cif.got.tgz:344096.got - 2010.06.03 13:09:07.
