data_PCOD9203074
_publ_section_title
;
Structure prediction by ZEFSAII (Michael W. Deem and Ramdas Pophale) SiO2 
 PCOD9203074
Probable space group: C 2/M
;
_chemical_formula_sum "Si O2"
_cell_formula_units_Z 40
_cell_length_a 13.631357
_cell_length_b 11.536636
_cell_length_c 12.222682
_cell_angle_alpha 90.000000
_cell_angle_beta 67.186018
_cell_angle_gamma 90.000000
_cell_volume 1771.767312
_symmetry_space_group_name_H-M "C 2/M"
_symmetry_group_IT_number 12
_symmetry_cell_setting 'monoclinic'
loop_
_space_group_symop_operation_xyz
x,y,z
-x,y,-z
-x,-y,-z
x,-y,z
1/2+x,1/2+y,z
1/2-x,1/2+y,-z
1/2-x,1/2-y,-z
1/2+x,1/2-y,z
loop_
_atom_site_type_symbol
_atom_site_label
_atom_site_fract_x
_atom_site_fract_y
_atom_site_fract_z
Si Si1 0.350649 0.130540 0.363425
Si Si2 0.319037 0.366556 0.001217
Si Si3 0.115106 0.199490 0.450944
Si Si4 0.663860 0.876449 0.242312
Si Si5 0.508570 0.803696 0.120048
O O1 0.222925 0.128953 0.418762
O O2 0.387141 0.209110 0.448327
O O3 0.398181 0.185110 0.231953
O O4 0.390320 0.000000 0.356624
O O5 0.299998 0.500000 0.967181
O O6 0.436658 0.322890 0.919129
O O7 0.250000 0.250000 0.000000
O O8 0.283600 0.373323 0.143087
O O9 0.133466 0.271522 0.332139
O O10 0.000000 0.140337 0.500000
O O11 0.588701 0.870647 0.167385
O O12 0.648658 0.000000 0.306160
O O13 0.500000 0.850671 0.000000
#
# Coordination Sequence:
#
# PCOD9203074 Si02
#       5
#     8   8   8   8   8
#     4  11  25  43  67  98 132 176 224 279 346 411
#     4   9  20  39  64  94 130 173 220 272 335 402
#     4  11  23  43  69  95 130 168 225 289 335 406
#     4  10  20  38  66  94 126 175 224 274 336 402
#     4  11  22  38  60  94 136 171 220 274 330 402
#
# _framework density 22.576328
#
# number of rings (size 3 to 8) (size 9 to 14) (size 15 to 20)
#    0.000    1.600    2.000    2.400    0.000    4.000 
#    0.000   17.000    0.000    0.000    0.000    0.000 
#    0.000    0.000    0.000    0.000    0.000    0.000 
#
# Total GULP energy -111392.228770 kJ/mol
# GULP energy per Si atom -5569.611439 kJ/mol
# Density = 2.252494 g / cm^3
# Si number density = 22.576328 Si / 1000 Ang^3
#
#
#
# Elastic Constant Matrix: (Units=GPa)
#
#
# Indices 1 2 3 4 5 6 
#
# 1 83.8741 26.2271 26.7000 0.0000 -23.4792 0.0000
# 2 26.2271 131.9921 29.4421 0.0000 -7.2027 0.0000
# 3 26.7000 29.4421 123.1201 0.0000 -7.0624 0.0000
# 4 0.0000 0.0000 0.0000 -75.7869 0.0000 -40.3320
# 5 -23.4792 -7.2027 -7.0624 0.0000 50.9325 0.0000
# 6 0.0000 0.0000 0.0000 -40.3320 0.0000 -9.3173
#
#
#
# Elastic Compliance Matrix: (Units=1/GPa)
#
#
# Indices 1 2 3 4 5 6 
#
# 1 0.015128 -0.002123 -0.002409 0.000000 0.006340 0.000000
# 2 -0.002123 0.008340 -0.001535 0.000000 -0.000012 0.000000
# 3 -0.002409 -0.001535 0.009007 0.000000 -0.000079 0.000000
# 4 0.000000 0.000000 0.000000 0.010122 0.000000 -0.043813
# 5 0.006340 -0.000012 -0.000079 0.000000 0.022544 0.000000
# 6 0.000000 0.000000 0.000000 -0.043813 0.000000 0.082329
#
#
# Mechanical properties :
#
#
# Convention : Reuss Voigt Hill
#
# Bulk Modulus (GPa) = 49.16079 55.96939 52.56509
# Shear Modulus (GPa) = 30.05127 10.27346 20.16236
#
# Velocity S-wave (km/s) = 3.65238 2.13551 2.99168
# Velocity P-wave (km/s) = 6.29358 5.56108 5.93863
#
# Compressibility (1/GPa) = 0.02034142
#
# Stress axis : x y z
#
# Youngs Moduli (GPa) = 66.10257 119.90919 111.02305
#
# Poissons Ratio (x) = 0.25452 0.26750
# Poissons Ratio (y) = 0.14031 0.17038
# Poissons Ratio (z) = 0.15927 0.18402
#
# Static dielectric constant tensor:
#      x y z
#    x 1.964850 0.000000 -0.043780 
#    y 0.000000 1.834860 0.000000 
#    z -0.043780 0.000000 1.826660 
# 
# From -- ./inp_files/140823.got.cif
#   From: 2010.05.17/outbox.cif.g08.bks.cpg/sg12_71_cif.got.tgz:140823.got - 2010.06.03 13:09:07.
