data_PCOD9203366
_publ_section_title
;
Structure prediction by ZEFSAII (Michael W. Deem and Ramdas Pophale) SiO2 
 PCOD9203366
Probable space group: C 2/M
;
_chemical_formula_sum "Si O2"
_cell_formula_units_Z 52
_cell_length_a 13.952214
_cell_length_b 30.237735
_cell_length_c 9.399571
_cell_angle_alpha 90.000000
_cell_angle_beta 41.605598
_cell_angle_gamma 90.000000
_cell_volume 2633.104052
_symmetry_space_group_name_H-M "C 2/M"
_symmetry_group_IT_number 12
_symmetry_cell_setting 'monoclinic'
loop_
_space_group_symop_operation_xyz
x,y,z
-x,y,-z
-x,-y,-z
x,-y,z
1/2+x,1/2+y,z
1/2-x,1/2+y,-z
1/2-x,1/2-y,-z
1/2+x,1/2-y,z
loop_
_atom_site_type_symbol
_atom_site_label
_atom_site_fract_x
_atom_site_fract_y
_atom_site_fract_z
Si Si1 0.000000 0.162039 0.000000
Si Si2 0.329807 0.450574 0.730565
Si Si3 0.739461 0.883140 0.620145
Si Si4 0.270155 0.270326 0.322794
Si Si5 0.301170 0.186615 0.091109
Si Si6 0.918627 0.129758 0.811994
Si Si7 0.954403 0.343888 0.403263
O O1 0.092411 0.133973 0.007034
O O2 0.899620 0.195294 0.196354
O O3 0.500000 0.452932 0.500000
O O4 0.284548 0.500000 0.821210
O O5 0.238440 0.430439 0.700653
O O6 0.332018 0.412311 0.847439
O O7 0.681938 0.846742 0.795076
O O8 0.649297 0.874846 0.577926
O O9 0.911412 0.874827 0.409747
O O10 0.250000 0.250000 0.500000
O O11 0.300423 0.234905 0.164390
O O12 0.133646 0.300996 0.445760
O O13 0.149275 0.172845 0.187421
O O14 0.420185 0.174695 0.840289
O O15 0.000000 0.366691 0.500000
#
# Coordination Sequence:
#
# PCOD9203366 Si02
#       7
#     4   8   8   8   8   8   8
#     4  12  22  36  55  84 122 170 195 246 308 348
#     4   8  16  34  65  96 114 145 197 249 301 366
#     4  10  20  39  62  86 121 153 199 252 302 357
#     4  12  24  38  58  81 118 160 216 257 291 344
#     4  11  23  40  61  82 115 163 209 254 296 344
#     4  10  21  38  62  87 122 156 197 250 309 362
#     4  12  25  39  56  87 118 162 205 249 302 359
#
# _framework density 19.748555
#
# number of rings (size 3 to 8) (size 9 to 14) (size 15 to 20)
#    0.000    1.385    3.077    3.692    0.000    4.923 
#    0.000    0.385    0.000    7.846    0.000    0.000 
#    0.000    0.000    0.000    0.000    0.000    0.000 
#
# Total GULP energy -145063.408305 kJ/mol
# GULP energy per Si atom -5579.361858 kJ/mol
# Density = 1.970361 g / cm^3
# Si number density = 19.748555 Si / 1000 Ang^3
#
#
#
# Elastic Constant Matrix: (Units=GPa)
#
#
# Indices 1 2 3 4 5 6 
#
# 1 152.2129 49.0011 26.7994 0.0000 24.8362 0.0000
# 2 49.0011 107.8938 20.4516 0.0000 12.3859 0.0000
# 3 26.7994 20.4516 64.9382 0.0000 2.8480 0.0000
# 4 0.0000 0.0000 0.0000 2.3109 0.0000 -4.5189
# 5 24.8362 12.3859 2.8480 0.0000 27.9114 0.0000
# 6 0.0000 0.0000 0.0000 -4.5189 0.0000 14.2365
#
#
#
# Elastic Compliance Matrix: (Units=1/GPa)
#
#
# Indices 1 2 3 4 5 6 
#
# 1 0.008992 -0.002862 -0.002526 0.000000 -0.006474 0.000000
# 2 -0.002862 0.011252 -0.002265 0.000000 -0.002215 0.000000
# 3 -0.002526 -0.002265 0.017089 0.000000 0.001509 0.000000
# 4 0.000000 0.000000 0.000000 1.140923 0.000000 0.362150
# 5 -0.006474 -0.002215 0.001509 0.000000 0.042417 0.000000
# 6 0.000000 0.000000 0.000000 0.362150 0.000000 0.185195
#
#
# Mechanical properties :
#
#
# Convention : Reuss Voigt Hill
#
# Bulk Modulus (GPa) = 45.39937 57.50545 51.45241
# Shear Modulus (GPa) = 3.50014 24.14462 13.82238
#
# Velocity S-wave (km/s) = 1.33274 3.50037 2.64847
# Velocity P-wave (km/s) = 5.04052 6.74676 5.95507
#
# Compressibility (1/GPa) = 0.02202674
#
# Stress axis : x y z
#
# Youngs Moduli (GPa) = 111.20948 88.87405 58.51760
#
# Poissons Ratio (x) = 0.25435 0.14780
# Poissons Ratio (y) = 0.31827 0.13257
# Poissons Ratio (z) = 0.28088 0.20134
#
# Static dielectric constant tensor:
#      x y z
#    x 1.768140 0.000000 -0.003520 
#    y 0.000000 1.855980 0.000000 
#    z -0.003520 0.000000 1.783480 
# 
# From -- ./inp_files/68514.got.cif
#   From: 2010.05.17/outbox.cif.g08.bks.cpg/sg12_35_cif.got.tgz:68514.got - 2010.06.03 13:09:07.
