data_PCOD9203636
_publ_section_title
;
Structure prediction by ZEFSAII (Michael W. Deem and Ramdas Pophale) SiO2 
 PCOD9203636
Probable space group: C 2/M
;
_chemical_formula_sum "Si O2"
_cell_formula_units_Z 48
_cell_length_a 18.389719
_cell_length_b 14.429893
_cell_length_c 18.348640
_cell_angle_alpha 90.000000
_cell_angle_beta 150.662822
_cell_angle_gamma 90.000000
_cell_volume 2385.570547
_symmetry_space_group_name_H-M "C 2/M"
_symmetry_group_IT_number 12
_symmetry_cell_setting 'monoclinic'
loop_
_space_group_symop_operation_xyz
x,y,z
-x,y,-z
-x,-y,-z
x,-y,z
1/2+x,1/2+y,z
1/2-x,1/2+y,-z
1/2-x,1/2-y,-z
1/2+x,1/2-y,z
loop_
_atom_site_type_symbol
_atom_site_label
_atom_site_fract_x
_atom_site_fract_y
_atom_site_fract_z
Si Si1 0.212785 0.605144 0.866313
Si Si2 0.608042 0.604688 0.694928
Si Si3 0.474721 0.399242 0.210543
Si Si4 0.813918 0.777402 0.434035
Si Si5 0.822131 0.242041 0.836986
Si Si6 0.925575 0.305486 0.674827
O O1 0.177778 0.500000 0.813366
O O2 0.245425 0.669982 0.825621
O O3 0.081469 0.644446 0.802560
O O4 0.359024 0.603691 0.043799
O O5 0.602430 0.500000 0.662853
O O6 0.604673 0.602030 0.780073
O O7 0.460562 0.662693 0.544544
O O8 0.755386 0.658092 0.800112
O O9 0.554970 0.500000 0.276702
O O10 0.555285 0.300738 0.281367
O O11 0.737570 0.731646 0.297536
O O12 0.866734 0.703735 0.540972
O O13 0.695704 0.842429 0.374352
O O14 0.000000 0.236198 0.000000
#
# Coordination Sequence:
#
# PCOD9203636 Si02
#       6
#     8   8   8   8   8   8
#     4  11  23  39  63  94 130 170 211 259 311 371
#     4  10  22  41  65  92 125 163 206 260 322 376
#     4   9  18  35  63  92 122 161 206 256 314 367
#     4  10  22  39  64  91 125 162 208 255 314 378
#     4  12  25  40  62  92 129 167 209 258 316 373
#     4  10  20  39  65  89 121 163 216 259 307 369
#
# _framework density 20.120971000000001
#
# number of rings (size 3 to 8) (size 9 to 14) (size 15 to 20)
#    0.000    1.667    3.333    2.000    2.333    2.667 
#    0.000    5.000    0.000    0.000    0.000    0.000 
#    0.000    0.000    0.000    0.000    0.000    0.000 
#
# Total GULP energy -133829.058646 kJ/mol
# GULP energy per Si atom -5576.210777 kJ/mol
# Density = 2.007518 g / cm^3
# Si number density = 20.120971 Si / 1000 Ang^3
#
#
#
# Elastic Constant Matrix: (Units=GPa)
#
#
# Indices 1 2 3 4 5 6 
#
# 1 80.5829 20.4294 19.6775 0.0000 -1.7258 0.0000
# 2 20.4294 72.3419 29.8253 0.0000 5.7352 -0.0001
# 3 19.6775 29.8253 71.9001 0.0004 -10.5421 0.0002
# 4 0.0000 0.0000 0.0004 10.8305 0.0002 -6.5211
# 5 -1.7258 5.7352 -10.5421 0.0002 48.2038 0.0001
# 6 0.0000 -0.0001 0.0002 -6.5211 0.0001 0.6336
#
#
#
# Elastic Compliance Matrix: (Units=1/GPa)
#
#
# Indices 1 2 3 4 5 6 
#
# 1 0.013761 -0.002862 -0.002538 0.000000 0.000278 0.000000
# 2 -0.002862 0.017902 -0.007201 -0.000001 -0.003807 -0.000002
# 3 -0.002538 -0.007201 0.018289 0.000001 0.004766 0.000003
# 4 0.000000 -0.000001 0.000001 -0.017768 0.000001 -0.182858
# 5 0.000278 -0.003807 0.004766 0.000001 0.022250 0.000002
# 6 0.000000 -0.000002 0.000003 -0.182858 0.000002 -0.303698
#
#
# Mechanical properties :
#
#
# Convention : Reuss Voigt Hill
#
# Bulk Modulus (GPa) = 40.40458 40.52103 40.46281
# Shear Modulus (GPa) = -23.16831 22.25977 -0.45427
#
# Velocity S-wave (km/s) = -3.39698 3.32971 -0.47567
# Velocity P-wave (km/s) = 2.17679 5.91313 4.45553
#
# Compressibility (1/GPa) = 0.02474967
#
# Stress axis : x y z
#
# Youngs Moduli (GPa) = 72.67003 55.85936 54.67854
#
# Poissons Ratio (x) = 0.15985 0.13879
# Poissons Ratio (y) = 0.20796 0.39375
# Poissons Ratio (z) = 0.18445 0.40225
#
# Static dielectric constant tensor:
#      x y z
#    x 1.759280 0.000000 0.011490 
#    y 0.000000 1.738260 0.000000 
#    z 0.011490 0.000000 1.736820 
# 
# From -- ./inp_files/278220.got.cif
#   From: 2010.05.17/outbox.cif.g08.bks.cpg/sg12_140_cif.got.tgz:278220.got - 2010.06.03 13:09:07.
