data_PCOD9203704
_publ_section_title
;
Structure prediction by ZEFSAII (Michael W. Deem and Ramdas Pophale) SiO2 
 PCOD9203704
Probable space group: C 2/M
;
_chemical_formula_sum "Si O2"
_cell_formula_units_Z 60
_cell_length_a 21.264401
_cell_length_b 26.164886
_cell_length_c 11.383872
_cell_angle_alpha 90.000000
_cell_angle_beta 156.486985
_cell_angle_gamma 90.000000
_cell_volume 2526.902586
_symmetry_space_group_name_H-M "C 2/M"
_symmetry_group_IT_number 12
_symmetry_cell_setting 'monoclinic'
loop_
_space_group_symop_operation_xyz
x,y,z
-x,y,-z
-x,-y,-z
x,-y,z
1/2+x,1/2+y,z
1/2-x,1/2+y,-z
1/2-x,1/2-y,-z
1/2+x,1/2-y,z
loop_
_atom_site_type_symbol
_atom_site_label
_atom_site_fract_x
_atom_site_fract_y
_atom_site_fract_z
Si Si1 0.539758 0.059946 0.930704
Si Si2 0.250699 0.444286 0.747942
Si Si3 0.500000 0.410318 0.000000
Si Si4 0.318130 0.757120 0.808142
Si Si5 0.317636 0.146836 0.974321
Si Si6 0.599810 0.321761 0.326510
Si Si7 0.588513 0.797498 0.550822
Si Si8 0.629063 0.356957 0.873127
O O1 0.390279 0.064970 0.586327
O O2 0.591750 0.000000 0.013596
O O3 0.500000 0.069954 0.000000
O O4 0.657002 0.101802 0.076170
O O5 0.224658 0.500000 0.756714
O O6 0.292972 0.403560 0.920058
O O7 0.402795 0.442605 0.924831
O O8 0.608156 0.370822 0.257830
O O9 0.322732 0.797567 0.922536
O O10 0.151434 0.728073 0.541420
O O11 0.269723 0.794602 0.619099
O O12 0.458770 0.716843 0.044914
O O13 0.474368 0.154915 0.325751
O O14 0.169841 0.135985 0.806324
O O15 0.534238 0.342433 0.341251
O O16 0.500000 0.765288 0.500000
O O17 0.754716 0.810764 0.894196
#
# Coordination Sequence:
#
# PCOD9203704 Si02
#       8
#     8   8   4   8   8   8   8   8
#     4  10  23  41  61  89 120 158 206 256 312 380
#     4  10  20  39  66  88 114 157 206 259 318 370
#     4  10  23  40  58  86 124 156 205 260 306 368
#     4  11  22  36  57  88 119 172 205 245 302 359
#     4  11  21  36  61  88 123 162 197 254 316 359
#     4  10  23  39  57  86 127 163 210 253 294 367
#     4   9  18  32  53  81 118 153 196 237 286 356
#     4   9  20  36  57  88 122 149 198 255 305 357
#
# _framework density 23.744485000000001
#
# number of rings (size 3 to 8) (size 9 to 14) (size 15 to 20)
#    0.000    2.000    2.667    0.200    3.733    2.667 
#    1.200    1.333    0.000    0.000    0.000    2.800 
#    0.000    0.000    0.000    0.000    0.000    0.000 
#
# Total GULP energy -167251.262944 kJ/mol
# GULP energy per Si atom -5575.042098 kJ/mol
# Density = 2.369044 g / cm^3
# Si number density = 23.744485 Si / 1000 Ang^3
#
#
#
# Elastic Constant Matrix: (Units=GPa)
#
#
# Indices 1 2 3 4 5 6 
#
# 1 133.8738 55.9882 3.0464 0.0000 -14.8434 0.0000
# 2 55.9882 108.4793 27.9197 0.0000 -1.9210 0.0000
# 3 3.0464 27.9197 59.3604 0.0000 -2.1955 0.0000
# 4 0.0000 0.0000 0.0000 23.2863 0.0000 -12.1244
# 5 -14.8434 -1.9210 -2.1955 0.0000 15.5071 0.0000
# 6 0.0000 0.0000 0.0000 -12.1244 0.0000 23.7918
#
#
#
# Elastic Compliance Matrix: (Units=1/GPa)
#
#
# Indices 1 2 3 4 5 6 
#
# 1 0.011188 -0.006305 0.002773 0.000000 0.010321 0.000000
# 2 -0.006305 0.014047 -0.006476 0.000000 -0.005212 0.000000
# 3 0.002773 -0.006476 0.019923 0.000000 0.004673 0.000000
# 4 0.000000 0.000000 0.000000 0.058453 0.000000 0.029788
# 5 0.010321 -0.005212 0.004673 0.000000 0.074381 0.000000
# 6 0.000000 0.000000 0.000000 0.029788 0.000000 0.057212
#
#
# Mechanical properties :
#
#
# Convention : Reuss Voigt Hill
#
# Bulk Modulus (GPa) = 39.77519 52.84690 46.31104
# Shear Modulus (GPa) = 18.96808 26.83432 22.90120
#
# Velocity S-wave (km/s) = 2.82944 3.36539 3.10898
# Velocity P-wave (km/s) = 5.24042 6.11604 5.69508
#
# Compressibility (1/GPa) = 0.02514130
#
# Stress axis : x y z
#
# Youngs Moduli (GPa) = 89.38247 71.18910 50.19387
#
# Poissons Ratio (x) = 0.44886 -0.13920
# Poissons Ratio (y) = 0.56358 0.32506
# Poissons Ratio (z) = -0.24787 0.46103
#
# Static dielectric constant tensor:
#      x y z
#    x 2.040840 0.000000 -0.058360 
#    y 0.000000 1.890280 0.000000 
#    z -0.058360 0.000000 2.001420 
# 
# From -- ./inp_files/170390.got.cif
#   From: 2010.05.17/outbox.cif.g08.bks.cpg/sg12_86_cif.got.tgz:170390.got - 2010.06.03 13:09:07.
