data_PCOD9203923
_publ_section_title
;
Structure prediction by ZEFSAII (Michael W. Deem and Ramdas Pophale) SiO2 
 PCOD9203923
Probable space group: C 2/M
;
_chemical_formula_sum "Si O2"
_cell_formula_units_Z 52
_cell_length_a 17.131922
_cell_length_b 19.274760
_cell_length_c 15.290458
_cell_angle_alpha 90.000000
_cell_angle_beta 29.931642
_cell_angle_gamma 90.000000
_cell_volume 2519.340540
_symmetry_space_group_name_H-M "C 2/M"
_symmetry_group_IT_number 12
_symmetry_cell_setting 'monoclinic'
loop_
_space_group_symop_operation_xyz
x,y,z
-x,y,-z
-x,-y,-z
x,-y,z
1/2+x,1/2+y,z
1/2-x,1/2+y,-z
1/2-x,1/2-y,-z
1/2+x,1/2-y,z
loop_
_atom_site_type_symbol
_atom_site_label
_atom_site_fract_x
_atom_site_fract_y
_atom_site_fract_z
Si Si1 0.567171 0.500000 0.725148
Si Si2 0.927380 0.219482 0.165407
Si Si3 0.634999 0.763589 0.191760
Si Si4 0.262840 0.500000 0.145902
Si Si5 0.544612 0.647855 0.681360
Si Si6 0.682761 0.143789 0.307883
Si Si7 0.440427 0.000000 0.335106
Si Si8 0.406181 0.151486 0.296653
O O1 0.530047 0.566761 0.703421
O O2 0.760571 0.500000 0.554534
O O3 0.431543 0.500000 0.931872
O O4 0.991348 0.177858 0.186918
O O5 0.757965 0.183619 0.316594
O O6 0.941866 0.300608 0.177077
O O7 0.000000 0.206369 0.000000
O O8 0.562919 0.688539 0.282068
O O9 0.701425 0.803179 0.209282
O O10 0.500951 0.812083 0.282165
O O11 0.750000 0.750000 0.000000
O O12 0.255436 0.569815 0.211090
O O13 0.099056 0.500000 0.243837
O O14 0.723351 0.663361 0.487467
O O15 0.500000 0.131801 0.500000
O O16 0.442465 0.930133 0.273791
#
# Coordination Sequence:
#
# PCOD9203923 Si02
#       8
#     4   8   8   4   8   8   4   8
#     4  10  22  38  62  90 118 160 210 256 310 358
#     4  11  22  37  57  87 122 160 200 254 314 374
#     4  11  20  35  58  85 114 159 207 254 299 363
#     4  12  23  41  58  97 130 163 210 256 312 388
#     4  10  21  38  60  81 115 163 210 248 299 376
#     4  12  24  37  57  90 129 163 198 257 326 373
#     4  10  22  39  71  88 120 166 214 268 305 364
#     4  10  20  40  61  84 114 162 215 249 302 376
#
# _framework density 20.640322000000001
#
# number of rings (size 3 to 8) (size 9 to 14) (size 15 to 20)
#    0.000    1.231    1.538    7.615    2.154    0.615 
#    0.000    1.923    0.000    0.923    0.000    4.308 
#    0.000    0.000    0.000    0.000    0.000    0.000 
#
# Total GULP energy -144964.456245 kJ/mol
# GULP energy per Si atom -5575.556009 kJ/mol
# Density = 2.059334 g / cm^3
# Si number density = 20.640322 Si / 1000 Ang^3
#
#
#
# Elastic Constant Matrix: (Units=GPa)
#
#
# Indices 1 2 3 4 5 6 
#
# 1 68.1048 38.7272 -3.1064 0.0035 -9.2177 0.0250
# 2 38.7272 157.3979 11.5594 0.0016 1.1670 0.0102
# 3 -3.1064 11.5594 54.6355 -0.0003 -8.3466 0.0074
# 4 0.0035 0.0016 -0.0003 26.6689 -0.0055 16.1317
# 5 -9.2177 1.1670 -8.3466 -0.0055 27.4746 -0.0393
# 6 0.0250 0.0102 0.0074 16.1317 -0.0393 -188.9645
#
#
#
# Elastic Compliance Matrix: (Units=1/GPa)
#
#
# Indices 1 2 3 4 5 6 
#
# 1 0.018604 -0.004869 0.003223 -0.000001 0.007428 0.000001
# 2 -0.004869 0.007742 -0.002322 -0.000001 -0.002668 0.000000
# 3 0.003223 -0.002322 0.020090 0.000002 0.007283 0.000000
# 4 -0.000001 -0.000001 0.000002 0.035656 0.000012 0.003044
# 5 0.007428 -0.002668 0.007283 0.000012 0.041215 -0.000006
# 6 0.000001 0.000000 0.000000 0.003044 -0.000006 -0.005032
#
#
# Mechanical properties :
#
#
# Convention : Reuss Voigt Hill
#
# Bulk Modulus (GPa) = 25.97498 41.61096 33.79297
# Shear Modulus (GPa) = 35.95933 -11.43367 12.26283
#
# Velocity S-wave (km/s) = 4.17848 -2.35616 2.44010
# Velocity P-wave (km/s) = 5.99095 3.57796 4.93423
#
# Compressibility (1/GPa) = 0.03849858
#
# Stress axis : x y z
#
# Youngs Moduli (GPa) = 53.75063 129.16986 49.77509
#
# Poissons Ratio (x) = 0.62897 -0.16041
# Poissons Ratio (y) = 0.26173 0.11560
# Poissons Ratio (z) = -0.17322 0.29998
#
# Static dielectric constant tensor:
#      x y z
#    x 1.777070 0.000000 -0.082070 
#    y 0.000000 1.765060 0.000000 
#    z -0.082070 0.000000 1.847220 
# 
# From -- ./inp_files/227407.got.cif
#   From: 2010.05.17/outbox.cif.g08.bks.cpg/sg12_114_cif.got.tgz:227407.got - 2010.06.03 13:09:07.
