data_PCOD9203692
_publ_section_title
;
Structure prediction by ZEFSAII (Michael W. Deem and Ramdas Pophale) SiO2 
 PCOD9203692
Probable space group: C 2/M
;
_chemical_formula_sum "Si O2"
_cell_formula_units_Z 44
_cell_length_a 8.385778
_cell_length_b 19.307168
_cell_length_c 11.905592
_cell_angle_alpha 90.000000
_cell_angle_beta 97.388736
_cell_angle_gamma 90.000000
_cell_volume 1911.576560
_symmetry_space_group_name_H-M "C 2/M"
_symmetry_group_IT_number 12
_symmetry_cell_setting 'monoclinic'
loop_
_space_group_symop_operation_xyz
x,y,z
-x,y,-z
-x,-y,-z
x,-y,z
1/2+x,1/2+y,z
1/2-x,1/2+y,-z
1/2-x,1/2-y,-z
1/2+x,1/2-y,z
loop_
_atom_site_type_symbol
_atom_site_label
_atom_site_fract_x
_atom_site_fract_y
_atom_site_fract_z
Si Si1 0.632675 0.156117 0.424959
Si Si2 0.310610 0.576580 0.013798
Si Si3 0.378002 0.312907 0.639045
Si Si4 0.168552 0.084123 0.735537
Si Si5 0.500000 0.744215 0.000000
Si Si6 0.300374 0.825155 0.147596
O O1 0.500000 0.129680 0.500000
O O2 0.578810 0.231812 0.373801
O O3 0.791285 0.167276 0.515460
O O4 0.682611 0.105229 0.329927
O O5 0.258151 0.500000 0.037716
O O6 0.297324 0.611604 0.134842
O O7 0.500000 0.574542 0.000000
O O8 0.202693 0.597446 0.897959
O O9 0.517917 0.367661 0.681932
O O10 0.250313 0.316111 0.730024
O O11 0.135721 0.000000 0.727547
O O12 0.449165 0.786875 0.105440
O O13 0.650154 0.700579 0.056447
#
# Coordination Sequence:
#
# PCOD9203692 Si02
#       6
#     8   8   8   8   4   8
#     4  11  26  42  62  93 134 175 219 277 336 379
#     4  10  20  39  65  95 128 162 205 264 327 387
#     4  11  23  40  66  95 130 175 220 272 329 392
#     4  11  24  44  71  98 129 174 226 271 321 399
#     4  10  24  34  56  96 130 160 204 260 310 378
#     4  11  22  38  61  95 128 168 209 259 317 393
#
# _framework density 23.017648999999999
#
# number of rings (size 3 to 8) (size 9 to 14) (size 15 to 20)
#    0.000    1.273    2.727    2.727   10.182    1.818 
#    0.000    0.455    0.000    0.000    0.000    0.000 
#    0.000    0.000    0.000    0.000    0.000    0.000 
#
# Total GULP energy -122821.919357 kJ/mol
# GULP energy per Si atom -5582.814516 kJ/mol
# Density = 2.296526 g / cm^3
# Si number density = 23.017649 Si / 1000 Ang^3
#
#
#
# Elastic Constant Matrix: (Units=GPa)
#
#
# Indices 1 2 3 4 5 6 
#
# 1 61.9526 22.5480 27.3732 0.0000 -27.4018 0.0000
# 2 22.5480 63.4339 24.8453 0.0000 -5.3768 0.0000
# 3 27.3732 24.8453 142.8964 0.0000 -39.5116 0.0000
# 4 0.0000 0.0000 0.0000 23.8295 0.0000 -2.7886
# 5 -27.4018 -5.3768 -39.5116 0.0000 47.7535 0.0000
# 6 0.0000 0.0000 0.0000 -2.7886 0.0000 -12.2981
#
#
#
# Elastic Compliance Matrix: (Units=1/GPa)
#
#
# Indices 1 2 3 4 5 6 
#
# 1 0.024891 -0.007837 0.000389 0.000000 0.013722 0.000000
# 2 -0.007837 0.019401 -0.003256 0.000000 -0.005007 0.000000
# 3 0.000389 -0.003256 0.009660 0.000000 0.007849 0.000000
# 4 0.000000 0.000000 0.000000 0.040880 0.000000 -0.009270
# 5 0.013722 -0.005007 0.007849 0.000000 0.034746 0.000000
# 6 0.000000 0.000000 0.000000 -0.009270 0.000000 -0.079211
#
#
# Mechanical properties :
#
#
# Convention : Reuss Voigt Hill
#
# Bulk Modulus (GPa) = 30.72823 46.42399 38.57611
# Shear Modulus (GPa) = 60.51478 24.75807 42.63642
#
# Velocity S-wave (km/s) = 5.13300 3.28321 4.30855
# Velocity P-wave (km/s) = 6.96485 5.88093 6.44571
#
# Compressibility (1/GPa) = 0.03254337
#
# Stress axis : x y z
#
# Youngs Moduli (GPa) = 40.17462 51.54323 103.51772
#
# Poissons Ratio (x) = 0.40394 -0.04024
# Poissons Ratio (y) = 0.31484 0.33710
# Poissons Ratio (z) = -0.01562 0.16785
#
# Static dielectric constant tensor:
#      x y z
#    x 1.934140 0.000000 0.058540 
#    y 0.000000 2.137230 0.000000 
#    z 0.058540 0.000000 1.840000 
# 
# From -- ./inp_files/120835.got.cif
#   From: 2010.05.17/outbox.cif.g08.bks.cpg/sg12_61_cif.got.tgz:120835.got - 2010.06.03 13:09:07.
