data_PCOD9203059
_publ_section_title
;
Structure prediction by ZEFSAII (Michael W. Deem and Ramdas Pophale) SiO2 
 PCOD9203059
Probable space group: C 2/M
;
_chemical_formula_sum "Si O2"
_cell_formula_units_Z 60
_cell_length_a 19.443543
_cell_length_b 29.798848
_cell_length_c 10.892731
_cell_angle_alpha 90.000000
_cell_angle_beta 30.593134
_cell_angle_gamma 90.000000
_cell_volume 3212.009078
_symmetry_space_group_name_H-M "C 2/M"
_symmetry_group_IT_number 12
_symmetry_cell_setting 'monoclinic'
loop_
_space_group_symop_operation_xyz
x,y,z
-x,y,-z
-x,-y,-z
x,-y,z
1/2+x,1/2+y,z
1/2-x,1/2+y,-z
1/2-x,1/2-y,-z
1/2+x,1/2-y,z
loop_
_atom_site_type_symbol
_atom_site_label
_atom_site_fract_x
_atom_site_fract_y
_atom_site_fract_z
Si Si1 0.162201 0.447524 0.267892
Si Si2 0.929055 0.169422 0.834048
Si Si3 0.267358 0.336063 0.701323
Si Si4 0.773025 0.635111 0.691695
Si Si5 0.840078 0.296019 0.370025
Si Si6 0.000000 0.683832 0.500000
Si Si7 0.391455 0.769469 0.905879
Si Si8 0.151048 0.095112 0.234469
O O1 0.190204 0.500000 0.242855
O O2 0.202125 0.417776 0.326209
O O3 0.000000 0.442334 0.500000
O O4 0.249252 0.431497 0.012663
O O5 0.860335 0.217540 0.946095
O O6 0.886424 0.139455 0.785097
O O7 0.087748 0.174364 0.578946
O O8 0.879006 0.143726 0.030695
O O9 0.167066 0.324732 0.744074
O O10 0.275402 0.384541 0.756694
O O11 0.231128 0.299093 0.858407
O O12 0.797779 0.666640 0.536842
O O13 0.878995 0.654166 0.630740
O O14 0.750000 0.250000 0.500000
O O15 0.985310 0.277825 0.189267
O O16 0.056020 0.713494 0.304383
O O17 0.000000 0.075232 0.500000
#
# Coordination Sequence:
#
# PCOD9203059 Si02
#       8
#     8   8   8   8   8   4   8   8
#     4  10  20  38  66  92 112 138 186 251 311 361
#     4  10  21  34  53  74 108 147 196 239 282 328
#     4  11  22  36  49  75 113 151 191 236 276 336
#     4  10  21  37  56  82 112 148 189 235 295 341
#     4  11  22  36  53  79 115 164 203 229 271 337
#     4  10  22  34  53  76 108 142 183 242 280 332
#     4  11  22  33  51  73 108 151 199 239 272 324
#     4   9  21  37  57  84 114 147 185 236 304 356
#
# _framework density 18.679897
#
# number of rings (size 3 to 8) (size 9 to 14) (size 15 to 20)
#    0.000    1.733    2.000    2.800    6.533    1.867 
#    0.000    0.000    0.000    0.800    0.000   10.267 
#    0.000    0.000    0.000    0.000    0.000    0.000 
#
# Total GULP energy -167169.803062 kJ/mol
# GULP energy per Si atom -5572.326769 kJ/mol
# Density = 1.863738 g / cm^3
# Si number density = 18.679897 Si / 1000 Ang^3
#
#
#
# Elastic Constant Matrix: (Units=GPa)
#
#
# Indices 1 2 3 4 5 6 
#
# 1 72.7645 24.6185 19.4168 -0.0002 4.6673 0.0000
# 2 24.6185 110.1006 40.5470 0.0000 -1.7356 0.0000
# 3 19.4168 40.5470 108.1779 -0.0003 -5.3077 0.0001
# 4 -0.0002 0.0000 -0.0003 35.7412 0.0001 2.1541
# 5 4.6673 -1.7356 -5.3077 0.0001 19.2158 -0.0001
# 6 0.0000 0.0000 0.0001 2.1541 -0.0001 20.4917
#
#
#
# Elastic Compliance Matrix: (Units=1/GPa)
#
#
# Indices 1 2 3 4 5 6 
#
# 1 0.015511 -0.002822 -0.001950 0.000000 -0.004561 0.000000
# 2 -0.002822 0.011051 -0.003602 0.000000 0.000689 0.000000
# 3 -0.001950 -0.003602 0.011102 0.000000 0.003215 0.000000
# 4 0.000000 0.000000 0.000000 0.028157 0.000000 -0.002960
# 5 -0.004561 0.000689 0.003215 0.000000 0.054099 0.000000
# 6 0.000000 0.000000 0.000000 -0.002960 0.000000 0.049111
#
#
# Mechanical properties :
#
#
# Convention : Reuss Voigt Hill
#
# Bulk Modulus (GPa) = 47.81080 51.13418 49.47249
# Shear Modulus (GPa) = 25.94034 28.85379 27.39706
#
# Velocity S-wave (km/s) = 3.73054 3.93446 3.83385
# Velocity P-wave (km/s) = 6.64878 6.93349 6.79263
#
# Compressibility (1/GPa) = 0.02091578
#
# Stress axis : x y z
#
# Youngs Moduli (GPa) = 64.47190 90.49062 90.07557
#
# Poissons Ratio (x) = 0.25536 0.17565
# Poissons Ratio (y) = 0.18193 0.32443
# Poissons Ratio (z) = 0.12572 0.32593
#
# Static dielectric constant tensor:
#      x y z
#    x 1.833730 0.000000 -0.115770 
#    y 0.000000 1.664170 0.000000 
#    z -0.115770 0.000000 1.808170 
# 
# From -- ./inp_files/170771.got.cif
#   From: 2010.05.17/outbox.cif.g08.bks.cpg/sg12_86_cif.got.tgz:170771.got - 2010.06.03 13:09:07.
