data_PCOD9203169
_publ_section_title
;
Structure prediction by ZEFSAII (Michael W. Deem and Ramdas Pophale) SiO2 
 PCOD9203169
Probable space group: C 2/M
;
_chemical_formula_sum "Si O2"
_cell_formula_units_Z 44
_cell_length_a 19.961607
_cell_length_b 12.384630
_cell_length_c 9.184754
_cell_angle_alpha 90.000000
_cell_angle_beta 56.062589
_cell_angle_gamma 90.000000
_cell_volume 1883.822157
_symmetry_space_group_name_H-M "C 2/M"
_symmetry_group_IT_number 12
_symmetry_cell_setting 'monoclinic'
loop_
_space_group_symop_operation_xyz
x,y,z
-x,y,-z
-x,-y,-z
x,-y,z
1/2+x,1/2+y,z
1/2-x,1/2+y,-z
1/2-x,1/2-y,-z
1/2+x,1/2-y,z
loop_
_atom_site_type_symbol
_atom_site_label
_atom_site_fract_x
_atom_site_fract_y
_atom_site_fract_z
Si Si1 0.904005 0.272744 0.152145
Si Si2 0.625803 0.308594 0.112808
Si Si3 0.797836 0.500000 0.623208
Si Si4 0.909218 0.676512 0.600512
Si Si5 0.760416 0.000000 0.959536
Si Si6 0.560266 0.374826 0.629042
Si Si7 0.816201 0.500000 0.276827
O O1 0.898204 0.185298 0.286912
O O2 0.868486 0.390395 0.223643
O O3 0.857915 0.219055 0.073237
O O4 0.000000 0.283928 0.000000
O O5 0.624112 0.193791 0.197797
O O6 0.687431 0.390968 0.106313
O O7 0.535884 0.359929 0.228528
O O8 0.854487 0.605233 0.565900
O O9 0.764396 0.500000 0.495315
O O10 0.763387 0.500000 0.834056
O O11 0.916506 0.798211 0.532358
O O12 0.000000 0.632376 0.500000
O O13 0.716598 0.000000 0.852189
O O14 0.578684 0.500000 0.587208
#
# Coordination Sequence:
#
# PCOD9203169 Si02
#       7
#     8   8   4   8   4   8   4
#     4  10  22  41  71 102 134 174 227 300 357 399
#     4  10  23  42  66 100 137 183 228 287 347 408
#     4  12  25  47  68 100 143 191 236 273 338 419
#     4  10  22  41  71 102 134 174 227 300 357 399
#     4  12  28  48  70 100 146 196 232 272 332 426
#     4  10  20  38  71 107 133 166 225 301 367 402
#     4  12  25  47  68 100 143 191 236 273 338 419
#
# _framework density 23.356770000000001
#
# number of rings (size 3 to 8) (size 9 to 14) (size 15 to 20)
#    0.000    1.455    2.727    1.636    2.545    5.091 
#    6.545    1.818    0.000    0.000    0.000    0.000 
#    0.000    0.000    0.000    0.000    0.000    0.000 
#
# Total GULP energy -122725.590249 kJ/mol
# GULP energy per Si atom -5578.435920 kJ/mol
# Density = 2.330361 g / cm^3
# Si number density = 23.356770 Si / 1000 Ang^3
#
#
#
# Elastic Constant Matrix: (Units=GPa)
#
#
# Indices 1 2 3 4 5 6 
#
# 1 67.9226 33.1323 41.3577 0.0000 26.0978 0.0000
# 2 33.1323 128.7022 16.2113 0.0000 7.6630 0.0000
# 3 41.3577 16.2113 116.5588 0.0000 32.5863 0.0000
# 4 0.0000 0.0000 0.0000 27.1180 0.0000 -4.1744
# 5 26.0978 7.6630 32.5863 0.0000 39.4127 0.0000
# 6 0.0000 0.0000 0.0000 -4.1744 0.0000 58.2622
#
#
#
# Elastic Compliance Matrix: (Units=1/GPa)
#
#
# Indices 1 2 3 4 5 6 
#
# 1 0.024411 -0.005009 -0.004836 0.000000 -0.011192 0.000000
# 2 -0.005009 0.008956 0.000119 0.000000 0.001477 0.000000
# 3 -0.004836 0.000119 0.012213 0.000000 -0.006918 0.000000
# 4 0.000000 0.000000 0.000000 0.037287 0.000000 0.002672
# 5 -0.011192 0.001477 -0.006918 0.000000 0.038216 0.000000
# 6 0.000000 0.000000 0.000000 0.002672 0.000000 0.017355
#
#
# Mechanical properties :
#
#
# Convention : Reuss Voigt Hill
#
# Bulk Modulus (GPa) = 38.27333 54.95401 46.61367
# Shear Modulus (GPa) = 30.01203 39.79074 34.90139
#
# Velocity S-wave (km/s) = 3.58849 4.13195 3.86978
# Velocity P-wave (km/s) = 5.79583 6.80759 6.32198
#
# Compressibility (1/GPa) = 0.02612785
#
# Stress axis : x y z
#
# Youngs Moduli (GPa) = 40.96590 111.65229 81.88016
#
# Poissons Ratio (x) = 0.55922 0.39597
# Poissons Ratio (y) = 0.20518 -0.00970
# Poissons Ratio (z) = 0.19811 -0.01323
#
# Static dielectric constant tensor:
#      x y z
#    x 1.895240 0.000000 -0.002200 
#    y 0.000000 1.814640 0.000000 
#    z -0.002200 0.000000 1.986760 
# 
# From -- ./inp_files/84014.got.cif
#   From: 2010.05.17/outbox.cif.g08.bks.cpg/sg12_43_cif.got.tgz:84014.got - 2010.06.03 13:09:07.
