data_PCOD9203589
_publ_section_title
;
Structure prediction by ZEFSAII (Michael W. Deem and Ramdas Pophale) SiO2 
 PCOD9203589
Probable space group: C 2/M
;
_chemical_formula_sum "Si O2"
_cell_formula_units_Z 64
_cell_length_a 18.333148
_cell_length_b 13.514531
_cell_length_c 15.266536
_cell_angle_alpha 90.000000
_cell_angle_beta 136.959778
_cell_angle_gamma 90.000000
_cell_volume 2581.597732
_symmetry_space_group_name_H-M "C 2/M"
_symmetry_group_IT_number 12
_symmetry_cell_setting 'monoclinic'
loop_
_space_group_symop_operation_xyz
x,y,z
-x,y,-z
-x,-y,-z
x,-y,z
1/2+x,1/2+y,z
1/2-x,1/2+y,-z
1/2-x,1/2-y,-z
1/2+x,1/2-y,z
loop_
_atom_site_type_symbol
_atom_site_label
_atom_site_fract_x
_atom_site_fract_y
_atom_site_fract_z
Si Si1 0.831268 0.617348 0.743215
Si Si2 0.626581 0.616694 0.665439
Si Si3 0.235689 0.117155 0.402998
Si Si4 0.046025 0.880928 0.351826
Si Si5 0.470700 0.118715 0.570890
Si Si6 0.987158 0.688586 0.213565
Si Si7 0.383608 0.311480 0.875173
Si Si8 0.212053 0.714444 0.060693
O O1 0.841812 0.500000 0.766952
O O2 0.706365 0.643511 0.654391
O O3 0.897621 0.643880 0.713641
O O4 0.889492 0.693989 0.859154
O O5 0.615827 0.500000 0.645114
O O6 0.509393 0.645445 0.603123
O O7 0.704003 0.645538 0.815297
O O8 0.169218 0.139144 0.432604
O O9 0.353298 0.158293 0.491257
O O10 0.168004 0.142763 0.256584
O O11 0.248990 0.000000 0.416731
O O12 0.992163 0.807092 0.233373
O O13 0.030339 0.000000 0.326015
O O14 0.500000 0.154505 0.500000
O O15 0.542291 0.148086 0.716349
O O16 0.470482 0.000000 0.566865
O O17 0.900933 0.664266 0.064160
O O18 0.500000 0.351289 0.000000
O O19 0.309268 0.308837 0.895023
O O20 0.250000 0.750000 0.000000
#
# Coordination Sequence:
#
# PCOD9203589 Si02
#       8
#     8   8   8   8   8   8   8   8
#     4  10  21  37  60  93 130 171 215 263 323 392
#     4   9  20  36  57  88 132 172 205 261 329 390
#     4  10  22  42  67  91 125 175 224 274 327 386
#     4  10  20  39  64  92 129 171 215 264 327 390
#     4  10  25  46  67  96 131 172 226 280 328 385
#     4  12  22  41  67  95 128 175 219 274 330 384
#     4  11  21  39  60  90 133 167 212 267 332 395
#     4  11  22  35  58  94 131 165 216 266 321 394
#
# _framework density 24.790849000000001
#
# number of rings (size 3 to 8) (size 9 to 14) (size 15 to 20)
#    0.000    1.625    3.750    0.375    1.750    2.000 
#    0.000    1.250    0.000    0.375    0.000    0.000 
#    0.000    0.000    0.000    0.000    0.000    0.000 
#
# Total GULP energy -178483.111162 kJ/mol
# GULP energy per Si atom -5577.597224 kJ/mol
# Density = 2.473442 g / cm^3
# Si number density = 24.790849 Si / 1000 Ang^3
#
#
#
# Elastic Constant Matrix: (Units=GPa)
#
#
# Indices 1 2 3 4 5 6 
#
# 1 197.9557 8.3620 55.6304 0.0000 -10.9132 0.0000
# 2 8.3620 75.8076 -7.6929 0.0000 1.7795 0.0000
# 3 55.6304 -7.6929 79.9703 0.0000 0.2337 0.0000
# 4 0.0000 0.0000 0.0000 8.5029 0.0000 -10.7975
# 5 -10.9132 1.7795 0.2337 0.0000 54.6426 0.0000
# 6 0.0000 0.0000 0.0000 -10.7975 0.0000 29.0412
#
#
#
# Elastic Compliance Matrix: (Units=1/GPa)
#
#
# Indices 1 2 3 4 5 6 
#
# 1 0.006478 -0.001216 -0.004627 0.000000 0.001353 0.000000
# 2 -0.001216 0.013560 0.002152 0.000000 -0.000694 0.000000
# 3 -0.004627 0.002152 0.015934 0.000000 -0.001062 0.000000
# 4 0.000000 0.000000 0.000000 0.222795 0.000000 0.082835
# 5 0.001353 -0.000694 -0.001062 0.000000 0.018598 0.000000
# 6 0.000000 0.000000 0.000000 0.082835 0.000000 0.065232
#
#
# Mechanical properties :
#
#
# Convention : Reuss Voigt Hill
#
# Bulk Modulus (GPa) = 34.97718 51.81474 43.39596
# Shear Modulus (GPa) = 13.90790 38.26628 26.08709
#
# Velocity S-wave (km/s) = 2.37113 3.93308 3.24742
# Velocity P-wave (km/s) = 4.65144 6.44761 5.62172
#
# Compressibility (1/GPa) = 0.02859007
#
# Stress axis : x y z
#
# Youngs Moduli (GPa) = 154.36954 73.74570 62.76014
#
# Poissons Ratio (x) = 0.08967 0.29041
# Poissons Ratio (y) = 0.18770 -0.13508
# Poissons Ratio (z) = 0.71430 -0.15872
#
# Static dielectric constant tensor:
#      x y z
#    x 2.130950 0.000000 0.041680 
#    y 0.000000 1.918400 0.000000 
#    z 0.041680 0.000000 2.032900 
# 
# From -- ./inp_files/225755.got.cif
#   From: 2010.05.17/outbox.cif.g08.bks.cpg/sg12_113_cif.got.tgz:225755.got - 2010.06.03 13:09:07.
