data_PCOD9203993
_publ_section_title
;
Structure prediction by ZEFSAII (Michael W. Deem and Ramdas Pophale) SiO2 
 PCOD9203993
Probable space group: C 2/M
;
_chemical_formula_sum "Si O2"
_cell_formula_units_Z 64
_cell_length_a 25.763203
_cell_length_b 20.693144
_cell_length_c 13.790802
_cell_angle_alpha 90.000000
_cell_angle_beta 156.665198
_cell_angle_gamma 90.000000
_cell_volume 2912.220952
_symmetry_space_group_name_H-M "C 2/M"
_symmetry_group_IT_number 12
_symmetry_cell_setting 'monoclinic'
loop_
_space_group_symop_operation_xyz
x,y,z
-x,y,-z
-x,-y,-z
x,-y,z
1/2+x,1/2+y,z
1/2-x,1/2+y,-z
1/2-x,1/2-y,-z
1/2+x,1/2-y,z
loop_
_atom_site_type_symbol
_atom_site_label
_atom_site_fract_x
_atom_site_fract_y
_atom_site_fract_z
Si Si1 0.855123 0.295144 0.731397
Si Si2 0.689528 0.071035 0.322733
Si Si3 0.192512 0.837644 0.084039
Si Si4 0.949750 0.227081 0.306036
Si Si5 0.492811 0.875106 0.597049
Si Si6 0.722022 0.300659 0.706881
Si Si7 0.000033 0.924410 0.114780
Si Si8 0.329485 0.070230 0.936231
O O1 0.750000 0.250000 0.500000
O O2 0.864634 0.368508 0.707932
O O3 0.787178 0.308836 0.716070
O O4 0.000000 0.268131 0.000000
O O5 0.848260 0.078048 0.591519
O O6 0.637249 0.069325 0.121973
O O7 0.662488 0.000000 0.319259
O O8 0.338784 0.862925 0.350388
O O9 0.200587 0.760867 0.119799
O O10 0.151440 0.827933 0.901328
O O11 0.092005 0.877958 0.978255
O O12 0.931829 0.305002 0.275853
O O13 0.000000 0.213359 0.500000
O O14 0.071377 0.217513 0.442023
O O15 0.500000 0.902429 0.500000
O O16 0.553863 0.916500 0.788367
O O17 0.736582 0.367631 0.787753
O O18 0.957575 0.000000 0.049941
O O19 0.000000 0.906971 0.000000
O O20 0.269979 0.000000 0.854721
#
# Coordination Sequence:
#
# PCOD9203993 Si02
#       8
#     8   8   8   8   8   8   8   8
#     4  11  26  39  63  96 137 174 215 281 338 394
#     4   9  21  43  67  90 126 176 221 265 320 400
#     4  11  22  38  67  94 131 169 220 279 321 402
#     4  10  22  40  68  96 128 174 220 281 339 397
#     4  10  23  38  62  97 133 171 222 277 341 398
#     4  10  23  38  63  95 129 164 229 265 330 394
#     4  10  23  44  69  99 135 177 218 268 337 402
#     4  10  20  40  63  84 129 175 212 264 334 393
#
# _framework density 21.976355000000002
#
# number of rings (size 3 to 8) (size 9 to 14) (size 15 to 20)
#    0.000    1.875    1.250    1.500    7.000    3.500 
#    0.000    0.000    0.000    0.750    0.000    0.000 
#    0.000    0.000    0.000    0.000    0.000    0.000 
#
# Total GULP energy -178344.406184 kJ/mol
# GULP energy per Si atom -5573.262693 kJ/mol
# Density = 2.192634 g / cm^3
# Si number density = 21.976355 Si / 1000 Ang^3
#
#
#
# Elastic Constant Matrix: (Units=GPa)
#
#
# Indices 1 2 3 4 5 6 
#
# 1 58.8239 25.9396 40.7005 0.0000 -0.7899 0.0000
# 2 25.9396 126.7204 51.0083 0.0000 -7.0882 0.0000
# 3 40.7005 51.0083 119.1486 0.0000 -5.4334 0.0000
# 4 0.0000 0.0000 0.0000 32.1803 0.0000 -6.9416
# 5 -0.7899 -7.0882 -5.4334 0.0000 35.9117 0.0000
# 6 0.0000 0.0000 0.0000 -6.9416 0.0000 22.3497
#
#
#
# Elastic Compliance Matrix: (Units=1/GPa)
#
#
# Indices 1 2 3 4 5 6 
#
# 1 0.022640 -0.001880 -0.006971 0.000000 -0.000928 0.000000
# 2 -0.001880 0.009749 -0.003469 0.000000 0.001358 0.000000
# 3 -0.006971 -0.003469 0.012306 0.000000 0.001024 0.000000
# 4 0.000000 0.000000 0.000000 0.033306 0.000000 0.010345
# 5 -0.000928 0.001358 0.001024 0.000000 0.028249 0.000000
# 6 0.000000 0.000000 0.000000 0.010345 0.000000 0.047956
#
#
# Mechanical properties :
#
#
# Convention : Reuss Voigt Hill
#
# Bulk Modulus (GPa) = 49.86654 59.99885 54.93270
# Shear Modulus (GPa) = 26.94959 30.55796 28.75377
#
# Velocity S-wave (km/s) = 3.50566 3.73298 3.62110
# Velocity P-wave (km/s) = 6.25511 6.77798 6.52179
#
# Compressibility (1/GPa) = 0.02005353
#
# Stress axis : x y z
#
# Youngs Moduli (GPa) = 44.16991 102.57763 81.26090
#
# Poissons Ratio (x) = 0.19287 0.56647
# Poissons Ratio (y) = 0.08305 0.28192
# Poissons Ratio (z) = 0.30791 0.35587
#
# Static dielectric constant tensor:
#      x y z
#    x 1.835090 0.000000 -0.063360 
#    y 0.000000 2.025650 0.000000 
#    z -0.063360 0.000000 1.893580 
# 
# From -- ./inp_files/251952.got.cif
#   From: 2010.05.17/outbox.cif.g08.bks.cpg/sg12_126_cif.got.tgz:251952.got - 2010.06.03 13:09:07.
