data_PCOD9203447
_publ_section_title
;
Structure prediction by ZEFSAII (Michael W. Deem and Ramdas Pophale) SiO2 
 PCOD9203447
Probable space group: C 2/M
;
_chemical_formula_sum "Si O2"
_cell_formula_units_Z 56
_cell_length_a 15.287943
_cell_length_b 7.907204
_cell_length_c 25.224262
_cell_angle_alpha 90.000000
_cell_angle_beta 62.818355
_cell_angle_gamma 90.000000
_cell_volume 2712.483226
_symmetry_space_group_name_H-M "C 2/M"
_symmetry_group_IT_number 12
_symmetry_cell_setting 'monoclinic'
loop_
_space_group_symop_operation_xyz
x,y,z
-x,y,-z
-x,-y,-z
x,-y,z
1/2+x,1/2+y,z
1/2-x,1/2+y,-z
1/2-x,1/2-y,-z
1/2+x,1/2-y,z
loop_
_atom_site_type_symbol
_atom_site_label
_atom_site_fract_x
_atom_site_fract_y
_atom_site_fract_z
Si Si1 0.427698 0.201627 0.065749
Si Si2 0.380842 0.299472 0.288773
Si Si3 0.454753 0.291896 0.382192
Si Si4 0.332233 0.297445 0.636687
Si Si5 0.770711 0.297954 0.933312
Si Si6 0.988868 0.295489 0.846741
Si Si7 0.613947 0.695376 0.488852
O O1 0.317291 0.232650 0.078391
O O2 0.453968 0.266731 0.116653
O O3 0.444557 0.000000 0.062870
O O4 0.500000 0.271167 0.000000
O O5 0.376704 0.500000 0.294616
O O6 0.415858 0.231990 0.336409
O O7 0.270528 0.238882 0.307196
O O8 0.456760 0.255754 0.221660
O O9 0.453281 0.500000 0.383439
O O10 0.568106 0.239685 0.361852
O O11 0.390660 0.232073 0.450668
O O12 0.342464 0.500000 0.628989
O O13 0.329428 0.226684 0.576885
O O14 0.771504 0.500000 0.930592
O O15 0.876737 0.235590 0.884350
O O16 0.750000 0.250000 0.000000
O O17 0.987570 0.500000 0.847901
O O18 0.500000 0.693733 0.500000
O O19 0.645626 0.500000 0.485678
#
# Coordination Sequence:
#
# PCOD9203447 Si02
#       7
#     8   8   8   8   8   8   8
#     4  10  20  39  63  87 114 145 180 223 279 332
#     4  11  23  36  52  78 112 146 184 228 273 326
#     4   8  16  32  53  77 107 143 183 227 275 327
#     4   9  17  33  57  79 103 141 188 229 275 331
#     4  11  22  38  62  91 118 146 181 225 276 329
#     4  10  23  42  59  78 113 151 185 224 271 332
#     4   7  11  24  50  79 101 131 181 232 270 321
#
# _framework density 20.645289999999999
#
# number of rings (size 3 to 8) (size 9 to 14) (size 15 to 20)
#    0.000    2.571    1.429    2.571    0.000    3.714 
#    0.000    5.714    0.000    4.714    0.000    0.000 
#    0.000    0.000    0.000    0.000    0.000    0.000 
#
# Total GULP energy -156237.964432 kJ/mol
# GULP energy per Si atom -5579.927301 kJ/mol
# Density = 2.059830 g / cm^3
# Si number density = 20.645290 Si / 1000 Ang^3
#
#
#
# Elastic Constant Matrix: (Units=GPa)
#
#
# Indices 1 2 3 4 5 6 
#
# 1 80.5240 -8.0240 23.3313 0.0000 -0.4617 0.0000
# 2 -8.0240 16.4562 -3.7725 0.0000 4.4581 0.0000
# 3 23.3313 -3.7725 81.1447 0.0000 -7.7828 0.0000
# 4 0.0000 0.0000 0.0000 -2.9805 0.0000 3.2612
# 5 -0.4617 4.4581 -7.7828 0.0000 36.0135 0.0000
# 6 0.0000 0.0000 0.0000 3.2612 0.0000 19.0008
#
#
#
# Elastic Compliance Matrix: (Units=1/GPa)
#
#
# Indices 1 2 3 4 5 6 
#
# 1 0.014185 0.006413 -0.003920 0.000000 -0.001459 0.000000
# 2 0.006413 0.066170 0.000464 0.000000 -0.008009 0.000000
# 3 -0.003920 0.000464 0.013747 0.000000 0.002863 0.000000
# 4 0.000000 0.000000 0.000000 -0.282467 0.000000 0.048481
# 5 -0.001459 -0.008009 0.002863 0.000000 0.029359 0.000000
# 6 0.000000 0.000000 0.000000 0.048481 0.000000 0.044308
#
#
# Mechanical properties :
#
#
# Convention : Reuss Voigt Hill
#
# Bulk Modulus (GPa) = 9.99832 22.35496 16.17664
# Shear Modulus (GPa) = -57.29234 21.51276 -17.88979
#
# Velocity S-wave (km/s) = -5.27362 3.23153 -2.94688
# Velocity P-wave (km/s) = 5.67697 4.97748 1.93037
#
# Compressibility (1/GPa) = 0.10001685
#
# Stress axis : x y z
#
# Youngs Moduli (GPa) = 70.49559 15.11248 72.74267
#
# Poissons Ratio (x) = -0.09692 0.28518
# Poissons Ratio (y) = -0.45211 -0.03377
# Poissons Ratio (z) = 0.27638 -0.00701
#
# Static dielectric constant tensor:
#      x y z
#    x 1.732130 0.000000 0.004800 
#    y 0.000000 1.761690 0.000000 
#    z 0.004800 0.000000 1.742000 
# 
# From -- ./inp_files/338523.got.cif
#   From: 2010.05.17/outbox.cif.g08.bks.cpg/sg12_170_cif.got.tgz:338523.got - 2010.06.03 13:09:07.
