data_PCOD9203877
_publ_section_title
;
Structure prediction by ZEFSAII (Michael W. Deem and Ramdas Pophale) SiO2 
 PCOD9203877
Probable space group: C 2/M
;
_chemical_formula_sum "Si O2"
_cell_formula_units_Z 64
_cell_length_a 20.678116
_cell_length_b 21.534634
_cell_length_c 11.468576
_cell_angle_alpha 90.000000
_cell_angle_beta 142.455089
_cell_angle_gamma 90.000000
_cell_volume 3112.062931
_symmetry_space_group_name_H-M "C 2/M"
_symmetry_group_IT_number 12
_symmetry_cell_setting 'monoclinic'
loop_
_space_group_symop_operation_xyz
x,y,z
-x,y,-z
-x,-y,-z
x,-y,z
1/2+x,1/2+y,z
1/2-x,1/2+y,-z
1/2-x,1/2-y,-z
1/2+x,1/2-y,z
loop_
_atom_site_type_symbol
_atom_site_label
_atom_site_fract_x
_atom_site_fract_y
_atom_site_fract_z
Si Si1 0.081108 0.609119 0.518803
Si Si2 0.456428 0.428939 0.194430
Si Si3 0.794812 0.928021 0.498017
Si Si4 0.694081 0.569630 0.229622
Si Si5 0.327990 0.812944 0.764522
Si Si6 0.596469 0.699635 0.798965
Si Si7 0.202312 0.732656 0.750606
Si Si8 0.515399 0.193652 0.221884
O O1 0.187442 0.569473 0.652237
O O2 0.129575 0.673155 0.634926
O O3 0.029228 0.632547 0.323214
O O4 0.000000 0.584463 0.500000
O O5 0.420729 0.500000 0.170480
O O6 0.582117 0.430512 0.359287
O O7 0.431775 0.372489 0.243872
O O8 0.393791 0.408225 0.986890
O O9 0.795532 0.899610 0.630145
O O10 0.728182 0.879747 0.327260
O O11 0.753998 0.000000 0.437739
O O12 0.657887 0.500000 0.205813
O O13 0.246301 0.760992 0.693818
O O14 0.385956 0.797806 0.725276
O O15 0.416251 0.815325 0.992840
O O16 0.633779 0.718642 0.724653
O O17 0.509751 0.746597 0.731820
O O18 0.698134 0.711860 0.027837
#
# Coordination Sequence:
#
# PCOD9203877 Si02
#       8
#     8   8   8   8   8   8   8   8
#     4  12  22  37  61  92 123 162 206 248 307 368
#     4  10  21  38  63  91 120 160 207 255 304 363
#     4  10  21  39  62  88 121 163 207 252 305 366
#     4  10  21  39  60  87 125 162 203 254 306 361
#     4  10  22  40  59  89 126 157 205 257 298 364
#     4  10  20  40  59  86 126 161 198 244 308 369
#     4  10  22  36  59  88 120 164 196 246 309 362
#     4  10  22  39  59  90 126 160 200 253 305 365
#
# _framework density 20.565137
#
# number of rings (size 3 to 8) (size 9 to 14) (size 15 to 20)
#    0.000    1.750    3.750    0.375    1.750    3.250 
#    4.500    2.500    0.000    1.500    0.000    0.000 
#    0.000    0.000    0.000    0.000    0.000    0.000 
#
# Total GULP energy -178503.538182 kJ/mol
# GULP energy per Si atom -5578.235568 kJ/mol
# Density = 2.051833 g / cm^3
# Si number density = 20.565137 Si / 1000 Ang^3
#
#
#
# Elastic Constant Matrix: (Units=GPa)
#
#
# Indices 1 2 3 4 5 6 
#
# 1 94.5997 27.2901 15.7526 0.0000 5.2298 0.0000
# 2 27.2901 81.6302 9.5397 0.0000 4.2621 0.0000
# 3 15.7526 9.5397 53.4169 0.0000 4.7847 0.0000
# 4 0.0000 0.0000 0.0000 23.1786 0.0000 3.5391
# 5 5.2298 4.2621 4.7847 0.0000 22.8617 0.0000
# 6 0.0000 0.0000 0.0000 3.5391 0.0000 33.0308
#
#
#
# Elastic Compliance Matrix: (Units=1/GPa)
#
#
# Indices 1 2 3 4 5 6 
#
# 1 0.012178 -0.003665 -0.002801 0.000000 -0.001516 0.000000
# 2 -0.003665 0.013696 -0.001235 0.000000 -0.001457 0.000000
# 3 -0.002801 -0.001235 0.020065 0.000000 -0.003328 0.000000
# 4 0.000000 0.000000 0.000000 0.043861 0.000000 -0.004700
# 5 -0.001516 -0.001457 -0.003328 0.000000 0.045056 0.000000
# 6 0.000000 0.000000 0.000000 -0.004700 0.000000 0.030778
#
#
# Mechanical properties :
#
#
# Convention : Reuss Voigt Hill
#
# Bulk Modulus (GPa) = 32.74571 37.20130 34.97350
# Shear Modulus (GPa) = 26.14846 27.61851 26.88348
#
# Velocity S-wave (km/s) = 3.56967 3.66864 3.61949
# Velocity P-wave (km/s) = 5.74000 6.00616 5.87459
#
# Compressibility (1/GPa) = 0.03053835
#
# Stress axis : x y z
#
# Youngs Moduli (GPa) = 82.11277 73.01441 49.83716
#
# Poissons Ratio (x) = 0.26759 0.13960
# Poissons Ratio (y) = 0.30093 0.06153
# Poissons Ratio (z) = 0.23000 0.09015
#
# Static dielectric constant tensor:
#      x y z
#    x 1.768220 0.000000 -0.018600 
#    y 0.000000 1.735430 0.000000 
#    z -0.018600 0.000000 1.784490 
# 
# From -- ./inp_files/169691.got.cif
#   From: 2010.05.17/outbox.cif.g08.bks.cpg/sg12_85_cif.got.tgz:169691.got - 2010.06.03 13:09:07.
