data_PCOD9203629
_publ_section_title
;
Structure prediction by ZEFSAII (Michael W. Deem and Ramdas Pophale) SiO2 
 PCOD9203629
Probable space group: C 2/M
;
_chemical_formula_sum "Si O2"
_cell_formula_units_Z 64
_cell_length_a 19.684229
_cell_length_b 9.037188
_cell_length_c 31.597973
_cell_angle_alpha 90.000000
_cell_angle_beta 36.029886
_cell_angle_gamma 90.000000
_cell_volume 3306.292396
_symmetry_space_group_name_H-M "C 2/M"
_symmetry_group_IT_number 12
_symmetry_cell_setting 'monoclinic'
loop_
_space_group_symop_operation_xyz
x,y,z
-x,y,-z
-x,-y,-z
x,-y,z
1/2+x,1/2+y,z
1/2-x,1/2+y,-z
1/2-x,1/2-y,-z
1/2+x,1/2-y,z
loop_
_atom_site_type_symbol
_atom_site_label
_atom_site_fract_x
_atom_site_fract_y
_atom_site_fract_z
Si Si1 0.689688 0.676673 0.989640
Si Si2 0.254307 0.173228 0.268107
Si Si3 0.837103 0.673818 0.321491
Si Si4 0.009949 0.675220 0.377901
Si Si5 0.593317 0.676592 0.488831
Si Si6 0.760724 0.676996 0.122248
Si Si7 0.556468 0.824361 0.900287
Si Si8 0.981975 0.825460 0.713713
O O1 0.696015 0.500000 0.989429
O O2 0.747669 0.735125 0.917111
O O3 0.750000 0.750000 0.000000
O O4 0.557570 0.732193 0.051880
O O5 0.309235 0.197478 0.286379
O O6 0.141463 0.271959 0.319593
O O7 0.349598 0.196987 0.184131
O O8 0.217553 0.000000 0.284137
O O9 0.866164 0.500000 0.312510
O O10 0.720273 0.704438 0.406560
O O11 0.938943 0.774211 0.287472
O O12 0.001681 0.500000 0.381952
O O13 0.978612 0.739807 0.347905
O O14 0.933773 0.742161 0.453987
O O15 0.500000 0.720691 0.500000
O O16 0.580013 0.500000 0.501899
O O17 0.761715 0.500000 0.113405
O O18 0.876915 0.713246 0.089782
O O19 0.650807 0.707652 0.207454
O O20 0.527203 0.000000 0.916514
O O21 0.991087 0.000000 0.701772
#
# Coordination Sequence:
#
# PCOD9203629 Si02
#       8
#     8   8   8   8   8   8   8   8
#     4  12  27  44  64  94 132 168 209 255 308 366
#     4  10  20  40  66  93 125 165 210 253 313 376
#     4  10  22  39  63  94 125 161 209 260 315 376
#     4  12  24  38  62  94 128 162 210 264 309 365
#     4  10  20  39  65  88 120 167 211 256 315 379
#     4  10  22  43  69  94 124 166 210 253 309 375
#     4  10  21  41  69  96 126 165 209 255 308 371
#     4  11  24  43  65  91 127 167 208 255 315 376
#
# _framework density 19.357030999999999
#
# number of rings (size 3 to 8) (size 9 to 14) (size 15 to 20)
#    0.000    1.375    2.500    3.000    1.750    5.250 
#    0.000    0.000    0.000    0.000    0.000    0.000 
#    0.000    0.000    0.000    0.000    0.000    0.000 
#
# Total GULP energy -178954.566733 kJ/mol
# GULP energy per Si atom -5592.330210 kJ/mol
# Density = 1.931297 g / cm^3
# Si number density = 19.357031 Si / 1000 Ang^3
#
#
#
# Elastic Constant Matrix: (Units=GPa)
#
#
# Indices 1 2 3 4 5 6 
#
# 1 79.2915 48.6641 25.5693 -0.0029 12.3102 0.0153
# 2 48.6641 70.8809 35.2746 0.0006 9.9789 0.0024
# 3 25.5693 35.2746 57.2448 -0.0022 19.9717 -0.0004
# 4 -0.0029 0.0006 -0.0022 20.2396 0.0008 -5.8363
# 5 12.3102 9.9789 19.9717 0.0008 35.2939 -0.0004
# 6 0.0153 0.0024 -0.0004 -5.8363 -0.0004 30.3514
#
#
#
# Elastic Compliance Matrix: (Units=1/GPa)
#
#
# Indices 1 2 3 4 5 6 
#
# 1 0.022239 -0.015076 0.000717 0.000001 -0.003900 -0.000010
# 2 -0.015076 0.030648 -0.013660 -0.000003 0.004323 0.000004
# 3 0.000717 -0.013660 0.030284 0.000005 -0.013525 0.000002
# 4 0.000001 -0.000003 0.000005 0.052308 -0.000003 0.010058
# 5 -0.003900 0.004323 -0.013525 -0.000003 0.036125 0.000001
# 6 -0.000010 0.000004 0.000002 0.010058 0.000001 0.034882
#
#
# Mechanical properties :
#
#
# Convention : Reuss Voigt Hill
#
# Bulk Modulus (GPa) = 36.85387 47.38147 42.11767
# Shear Modulus (GPa) = 18.41162 23.70426 21.05794
#
# Velocity S-wave (km/s) = 3.08743 3.50320 3.30187
# Velocity P-wave (km/s) = 5.63826 6.39484 6.02843
#
# Compressibility (1/GPa) = 0.02713419
#
# Stress axis : x y z
#
# Youngs Moduli (GPa) = 44.96682 32.62831 33.02053
#
# Poissons Ratio (x) = 0.49191 -0.02369
# Poissons Ratio (y) = 0.67793 0.45105
# Poissons Ratio (z) = -0.03226 0.44569
#
# Static dielectric constant tensor:
#      x y z
#    x 1.661570 0.000000 0.000280 
#    y 0.000000 1.643700 0.000000 
#    z 0.000280 0.000000 1.667010 
# 
# From -- ./inp_files/378089.got.cif
#   From: 2010.05.17/outbox.cif.g08.bks.cpg/sg12_190_cif.got.tgz:378089.got - 2010.06.03 13:09:07.
