data_PCOD9203459
_publ_section_title
;
Structure prediction by ZEFSAII (Michael W. Deem and Ramdas Pophale) SiO2 
 PCOD9203459
Probable space group: C 2/M
;
_chemical_formula_sum "Si O2"
_cell_formula_units_Z 48
_cell_length_a 16.158502
_cell_length_b 8.649587
_cell_length_c 30.186719
_cell_angle_alpha 90.000000
_cell_angle_beta 34.654787
_cell_angle_gamma 90.000000
_cell_volume 2399.068182
_symmetry_space_group_name_H-M "C 2/M"
_symmetry_group_IT_number 12
_symmetry_cell_setting 'monoclinic'
loop_
_space_group_symop_operation_xyz
x,y,z
-x,y,-z
-x,-y,-z
x,-y,z
1/2+x,1/2+y,z
1/2-x,1/2+y,-z
1/2-x,1/2-y,-z
1/2+x,1/2-y,z
loop_
_atom_site_type_symbol
_atom_site_label
_atom_site_fract_x
_atom_site_fract_y
_atom_site_fract_z
Si Si1 0.154514 0.317003 0.172053
Si Si2 0.645380 0.320874 0.669715
Si Si3 0.812152 0.188639 0.188522
Si Si4 0.128758 0.680689 0.351066
Si Si5 0.126469 0.185187 0.086473
Si Si6 0.327112 0.317045 0.509525
O O1 0.171221 0.500000 0.158105
O O2 0.274502 0.263808 0.155112
O O3 0.155091 0.236956 0.124166
O O4 0.998755 0.280525 0.262810
O O5 0.733557 0.312899 0.676892
O O6 0.752660 0.262929 0.584328
O O7 0.416548 0.000000 0.632333
O O8 0.684744 0.236637 0.278668
O O9 0.967965 0.239358 0.138717
O O10 0.811247 0.000000 0.189832
O O11 0.394510 0.500000 0.320395
O O12 0.996473 0.775233 0.429765
O O13 0.126265 0.000000 0.084951
O O14 0.250000 0.250000 0.000000
O O15 0.307138 0.500000 0.521188
O O16 0.250000 0.250000 0.500000
#
# Coordination Sequence:
#
# PCOD9203459 Si02
#       6
#     8   8   8   8   8   8
#     4  11  22  39  66  97 126 166 213 258 308 376
#     4  11  22  39  63  90 123 166 209 258 315 374
#     4   9  20  40  65  90 124 168 208 248 310 382
#     4  10  20  39  63  87 120 167 210 253 314 379
#     4  11  23  44  67  93 127 165 206 257 318 381
#     4  12  25  39  56  85 123 164 213 267 315 368
#
# _framework density 20.007770000000001
#
# number of rings (size 3 to 8) (size 9 to 14) (size 15 to 20)
#    0.000    1.333    1.667    4.500    0.000    5.333 
#    0.000    7.500    0.000    0.000    0.000    0.000 
#    0.000    0.000    0.000    0.000    0.000    0.000 
#
# Total GULP energy -134184.643960 kJ/mol
# GULP energy per Si atom -5591.026832 kJ/mol
# Density = 1.996223 g / cm^3
# Si number density = 20.007770 Si / 1000 Ang^3
#
#
#
# Elastic Constant Matrix: (Units=GPa)
#
#
# Indices 1 2 3 4 5 6 
#
# 1 110.5715 19.5109 44.3144 0.0000 29.9148 -0.0001
# 2 19.5109 44.1130 1.9448 0.0000 7.9461 -0.0005
# 3 44.3144 1.9448 109.4600 0.0000 19.6030 0.0001
# 4 0.0000 0.0000 0.0000 35.4655 0.0000 1.6031
# 5 29.9148 7.9461 19.6030 0.0000 14.9539 0.0000
# 6 -0.0001 -0.0005 0.0001 1.6031 0.0000 28.4331
#
#
#
# Elastic Compliance Matrix: (Units=1/GPa)
#
#
# Indices 1 2 3 4 5 6 
#
# 1 0.020008 -0.002117 -0.001432 0.000000 -0.037023 0.000000
# 2 -0.002117 0.025843 0.002743 0.000000 -0.013092 0.000000
# 3 -0.001432 0.002743 0.012303 0.000000 -0.014721 0.000000
# 4 0.000000 0.000000 0.000000 0.028268 0.000000 -0.001594
# 5 -0.037023 -0.013092 -0.014721 0.000000 0.167190 0.000000
# 6 0.000000 0.000000 0.000000 -0.001594 0.000000 0.035260
#
#
# Mechanical properties :
#
#
# Convention : Reuss Voigt Hill
#
# Bulk Modulus (GPa) = 17.68646 43.96498 30.82572
# Shear Modulus (GPa) = 16.16383 28.99545 22.57964
#
# Velocity S-wave (km/s) = 2.84540 3.81098 3.36302
# Velocity P-wave (km/s) = 4.43329 6.43323 5.52451
#
# Compressibility (1/GPa) = 0.05654043
#
# Stress axis : x y z
#
# Youngs Moduli (GPa) = 49.98014 38.69537 81.28037
#
# Poissons Ratio (x) = 0.08193 0.11641
# Poissons Ratio (y) = 0.10582 -0.22292
# Poissons Ratio (z) = 0.07158 -0.10613
#
# Static dielectric constant tensor:
#      x y z
#    x 1.547180 0.000000 0.176690 
#    y 0.000000 1.684700 0.000000 
#    z 0.176690 0.000000 1.500750 
# 
# From -- ./inp_files/274620.got.cif
#   From: 2010.05.17/outbox.cif.g08.bks.cpg/sg12_138_cif.got.tgz:274620.got - 2010.06.03 13:09:07.
