data_PCOD9203501
_publ_section_title
;
Structure prediction by ZEFSAII (Michael W. Deem and Ramdas Pophale) SiO2 
 PCOD9203501
Probable space group: C 2/M
;
_chemical_formula_sum "Si O2"
_cell_formula_units_Z 64
_cell_length_a 15.815938
_cell_length_b 8.699496
_cell_length_c 33.946992
_cell_angle_alpha 90.000000
_cell_angle_beta 45.743735
_cell_angle_gamma 90.000000
_cell_volume 3345.339576
_symmetry_space_group_name_H-M "C 2/M"
_symmetry_group_IT_number 12
_symmetry_cell_setting 'monoclinic'
loop_
_space_group_symop_operation_xyz
x,y,z
-x,y,-z
-x,-y,-z
x,-y,z
1/2+x,1/2+y,z
1/2-x,1/2+y,-z
1/2-x,1/2-y,-z
1/2+x,1/2-y,z
loop_
_atom_site_type_symbol
_atom_site_label
_atom_site_fract_x
_atom_site_fract_y
_atom_site_fract_z
Si Si1 0.300695 0.183139 0.943052
Si Si2 0.131963 0.315151 0.558674
Si Si3 0.031019 0.815425 0.833555
Si Si4 0.329219 0.814575 0.363501
Si Si5 0.941474 0.814368 0.561153
Si Si6 0.015152 0.183471 0.241345
Si Si7 0.878487 0.683909 0.061620
Si Si8 0.271650 0.317851 0.173073
O O1 0.435220 0.230528 0.891637
O O2 0.227002 0.260283 0.931907
O O3 0.287641 0.000000 0.946757
O O4 0.250000 0.250000 0.000000
O O5 0.135023 0.500000 0.556162
O O6 0.250000 0.250000 0.500000
O O7 0.136416 0.267477 0.603143
O O8 0.018930 0.255947 0.571122
O O9 0.160766 0.784559 0.808290
O O10 0.013593 0.767563 0.794108
O O11 0.010499 0.000000 0.843140
O O12 0.195512 0.766002 0.396166
O O13 0.422490 0.752806 0.301962
O O14 0.330400 0.000000 0.362433
O O15 0.000000 0.773732 0.500000
O O16 0.946163 0.000000 0.563051
O O17 0.147385 0.234789 0.208713
O O18 0.007817 0.000000 0.244956
O O19 0.874710 0.500000 0.067833
O O20 0.858033 0.764385 0.109894
O O21 0.000000 0.724193 0.000000
O O22 0.252584 0.500000 0.176071
#
# Coordination Sequence:
#
# PCOD9203501 Si02
#       8
#     8   8   8   8   8   8   8   8
#     4  12  24  38  61  91 125 164 205 256 315 377
#     4  11  22  38  62  93 128 168 211 260 315 375
#     4  10  23  43  65  90 125 163 205 260 316 372
#     4  10  23  42  63  89 128 170 209 259 314 373
#     4  10  20  39  63  91 129 169 207 256 317 373
#     4  11  24  43  66  91 126 168 213 265 311 369
#     4  11  23  39  60  90 127 163 205 258 313 375
#     4  11  23  41  66  93 123 165 209 257 317 376
#
# _framework density 19.131091999999999
#
# number of rings (size 3 to 8) (size 9 to 14) (size 15 to 20)
#    0.000    1.250    2.500    3.375    0.000    7.250 
#    0.000    3.750    0.000    0.000    0.000    0.000 
#    0.000    0.000    0.000    0.000    0.000    0.000 
#
# Total GULP energy -178907.957211 kJ/mol
# GULP energy per Si atom -5590.873663 kJ/mol
# Density = 1.908755 g / cm^3
# Si number density = 19.131092 Si / 1000 Ang^3
#
#
#
# Elastic Constant Matrix: (Units=GPa)
#
#
# Indices 1 2 3 4 5 6 
#
# 1 143.9401 17.0409 56.0672 0.0002 3.7278 -0.0003
# 2 17.0409 9.1558 17.6081 0.0004 2.8284 -0.0003
# 3 56.0672 17.6081 129.4442 0.0003 1.0673 0.0000
# 4 0.0002 0.0004 0.0003 30.6188 0.0004 -1.8438
# 5 3.7278 2.8284 1.0673 0.0004 25.5164 0.0002
# 6 -0.0003 -0.0003 0.0000 -1.8438 0.0002 30.5544
#
#
#
# Elastic Compliance Matrix: (Units=1/GPa)
#
#
# Indices 1 2 3 4 5 6 
#
# 1 0.009386 -0.013142 -0.002279 0.000000 0.000181 0.000000
# 2 -0.013142 0.172762 -0.017672 -0.000001 -0.016491 0.000002
# 3 -0.002279 -0.017672 0.011101 0.000000 0.001828 0.000000
# 4 0.000000 -0.000001 0.000000 0.032779 0.000000 0.001978
# 5 0.000181 -0.016491 0.001828 0.000000 0.040916 0.000000
# 6 0.000000 0.000002 0.000000 0.001978 0.000000 0.032848
#
#
# Mechanical properties :
#
#
# Convention : Reuss Voigt Hill
#
# Bulk Modulus (GPa) = 7.87018 51.55250 29.71134
# Shear Modulus (GPa) = 12.24490 30.12619 21.18555
#
# Velocity S-wave (km/s) = 2.53267 3.97258 3.33135
# Velocity P-wave (km/s) = 3.56024 6.93162 5.51011
#
# Compressibility (1/GPa) = 0.12706192
#
# Stress axis : x y z
#
# Youngs Moduli (GPa) = 106.53706 5.78833 90.07837
#
# Poissons Ratio (x) = 0.07607 0.20532
# Poissons Ratio (y) = 1.40014 1.59187
# Poissons Ratio (z) = 0.24284 0.10229
#
# Static dielectric constant tensor:
#      x y z
#    x 1.650050 0.000000 0.005560 
#    y 0.000000 1.645620 0.000000 
#    z 0.005560 0.000000 1.644540 
# 
# From -- ./inp_files/375458.got.cif
#   From: 2010.05.17/outbox.cif.g08.bks.cpg/sg12_188_cif.got.tgz:375458.got - 2010.06.03 13:09:07.
