data_PCOD9203499
_publ_section_title
;
Structure prediction by ZEFSAII (Michael W. Deem and Ramdas Pophale) SiO2 
 PCOD9203499
Probable space group: C 2/M
;
_chemical_formula_sum "Si O2"
_cell_formula_units_Z 48
_cell_length_a 11.253329
_cell_length_b 24.032900
_cell_length_c 8.689674
_cell_angle_alpha 90.000000
_cell_angle_beta 62.765778
_cell_angle_gamma 90.000000
_cell_volume 2089.596291
_symmetry_space_group_name_H-M "C 2/M"
_symmetry_group_IT_number 12
_symmetry_cell_setting 'monoclinic'
loop_
_space_group_symop_operation_xyz
x,y,z
-x,y,-z
-x,-y,-z
x,-y,z
1/2+x,1/2+y,z
1/2-x,1/2+y,-z
1/2-x,1/2-y,-z
1/2+x,1/2-y,z
loop_
_atom_site_type_symbol
_atom_site_label
_atom_site_fract_x
_atom_site_fract_y
_atom_site_fract_z
Si Si1 0.023939 0.227108 0.671099
Si Si2 0.734339 0.673349 0.035864
Si Si3 0.390812 0.866744 0.693783
Si Si4 0.177171 0.113345 0.592777
Si Si5 0.568812 0.438392 0.127821
Si Si6 0.614075 0.844535 0.754868
O O1 0.119850 0.175408 0.655136
O O2 0.087735 0.285391 0.684899
O O3 0.000000 0.225285 0.500000
O O4 0.887866 0.212552 0.844478
O O5 0.674268 0.610982 0.072199
O O6 0.848331 0.673832 0.097105
O O7 0.798467 0.679660 0.829370
O O8 0.500000 0.851823 0.500000
O O9 0.284700 0.902962 0.661259
O O10 0.487337 0.882638 0.779057
O O11 0.258667 0.122078 0.388006
O O12 0.049726 0.074049 0.680281
O O13 0.624485 0.500000 0.115746
O O14 0.500000 0.435101 0.000000
#
# Coordination Sequence:
#
# PCOD9203499 Si02
#       6
#     8   8   8   8   8   8
#     4  11  22  37  63  92 130 180 216 263 318 377
#     4  11  23  41  63  95 130 167 220 277 315 385
#     4  10  22  40  61  86 128 177 215 260 326 381
#     4  10  20  39  63  91 128 169 208 271 316 381
#     4  10  21  41  72  98 122 165 215 277 336 381
#     4  11  23  38  61  88 136 177 210 257 321 389
#
# _framework density 22.970945
#
# number of rings (size 3 to 8) (size 9 to 14) (size 15 to 20)
#    0.000    1.500    3.333    2.500    2.333    0.667 
#    3.000    1.667    0.000   12.000    0.000    0.000 
#    0.000    0.000    0.000    0.000    0.000    0.000 
#
# Total GULP energy -133843.796384 kJ/mol
# GULP energy per Si atom -5576.824849 kJ/mol
# Density = 2.291866 g / cm^3
# Si number density = 22.970945 Si / 1000 Ang^3
#
#
#
# Elastic Constant Matrix: (Units=GPa)
#
#
# Indices 1 2 3 4 5 6 
#
# 1 83.3676 12.2414 12.4285 0.0000 5.7998 0.0000
# 2 12.2414 98.9082 -14.5479 0.0000 -6.6041 0.0000
# 3 12.4285 -14.5479 134.4607 0.0000 -16.6515 0.0000
# 4 0.0000 0.0000 0.0000 9.6400 0.0000 4.9579
# 5 5.7998 -6.6041 -16.6515 0.0000 43.7534 0.0000
# 6 0.0000 0.0000 0.0000 4.9579 0.0000 8.3745
#
#
#
# Elastic Compliance Matrix: (Units=1/GPa)
#
#
# Indices 1 2 3 4 5 6 
#
# 1 0.012730 -0.002005 -0.001721 0.000000 -0.002645 0.000000
# 2 -0.002005 0.010772 0.001663 0.000000 0.002525 0.000000
# 3 -0.001721 0.001663 0.008223 0.000000 0.003609 0.000000
# 4 0.000000 0.000000 0.000000 0.149148 0.000000 -0.088300
# 5 -0.002645 0.002525 0.003609 0.000000 0.024960 0.000000
# 6 0.000000 0.000000 0.000000 -0.088300 0.000000 0.171686
#
#
# Mechanical properties :
#
#
# Convention : Reuss Voigt Hill
#
# Bulk Modulus (GPa) = 36.23332 37.44229 36.83780
# Shear Modulus (GPa) = 12.79279 32.79454 22.79367
#
# Velocity S-wave (km/s) = 2.36246 3.78253 3.15347
# Velocity P-wave (km/s) = 4.82176 5.95079 5.41578
#
# Compressibility (1/GPa) = 0.02759891
#
# Stress axis : x y z
#
# Youngs Moduli (GPa) = 78.55370 92.83473 121.60864
#
# Poissons Ratio (x) = 0.18617 0.20932
# Poissons Ratio (y) = 0.15753 -0.20229
# Poissons Ratio (z) = 0.13521 -0.15443
#
# Static dielectric constant tensor:
#      x y z
#    x 1.892050 0.000000 -0.018700 
#    y 0.000000 1.808390 0.000000 
#    z -0.018700 0.000000 1.979710 
# 
# From -- ./inp_files/52455.got.cif
#   From: 2010.05.17/outbox.cif.g08.bks.cpg/sg12_27_cif.got.tgz:52455.got - 2010.06.03 13:09:07.
