data_PCOD9203474
_publ_section_title
;
Structure prediction by ZEFSAII (Michael W. Deem and Ramdas Pophale) SiO2 
 PCOD9203474
Probable space group: C 2/M
;
_chemical_formula_sum "Si O2"
_cell_formula_units_Z 36
_cell_length_a 18.155039
_cell_length_b 10.150444
_cell_length_c 11.031041
_cell_angle_alpha 90.000000
_cell_angle_beta 46.673330
_cell_angle_gamma 90.000000
_cell_volume 1478.781229
_symmetry_space_group_name_H-M "C 2/M"
_symmetry_group_IT_number 12
_symmetry_cell_setting 'monoclinic'
loop_
_space_group_symop_operation_xyz
x,y,z
-x,y,-z
-x,-y,-z
x,-y,z
1/2+x,1/2+y,z
1/2-x,1/2+y,-z
1/2-x,1/2-y,-z
1/2+x,1/2-y,z
loop_
_atom_site_type_symbol
_atom_site_label
_atom_site_fract_x
_atom_site_fract_y
_atom_site_fract_z
Si Si1 0.486967 0.789995 0.327237
Si Si2 0.639308 0.500000 0.767522
Si Si3 0.659894 0.000000 0.111800
Si Si4 0.240755 0.000000 0.248877
Si Si5 0.395103 0.788455 0.170323
Si Si6 0.147593 0.500000 0.400268
Si Si7 0.534662 0.500000 0.623181
O O1 0.412611 0.786659 0.294543
O O2 0.422143 0.872990 0.497601
O O3 0.516488 0.642474 0.330253
O O4 0.585597 0.874360 0.181952
O O5 0.615133 0.637016 0.860822
O O6 0.759616 0.500000 0.611829
O O7 0.580258 0.500000 0.707974
O O8 0.692697 0.000000 0.214577
O O9 0.742926 0.000000 0.913889
O O10 0.300805 0.125908 0.234982
O O11 0.127896 0.000000 0.424644
O O12 0.500000 0.844122 0.000000
#
# Coordination Sequence:
#
# PCOD9203474 Si02
#       7
#     8   4   4   4   8   4   4
#     4  10  20  39  63  89 117 159 198 250 298 361
#     4  10  22  38  58  92 126 157 188 248 320 355
#     4  11  23  41  63  84 121 168 210 235 288 361
#     4  12  21  36  61  96 119 156 200 257 296 348
#     4  11  20  35  62  92 124 150 197 256 308 355
#     4  11  22  40  62  82 119 167 208 234 286 376
#     4  10  22  38  65  96 123 142 199 262 316 342
#
# _framework density 24.344373000000001
#
# number of rings (size 3 to 8) (size 9 to 14) (size 15 to 20)
#    0.000    1.333    2.222    6.000    0.000    3.556 
#    0.000    6.667    0.000    0.000    0.000    0.000 
#    0.000    0.000    0.000    0.000    0.000    0.000 
#
# Total GULP energy -100794.705942 kJ/mol
# GULP energy per Si atom -5599.705886 kJ/mol
# Density = 2.428896 g / cm^3
# Si number density = 24.344373 Si / 1000 Ang^3
#
#
#
# Elastic Constant Matrix: (Units=GPa)
#
#
# Indices 1 2 3 4 5 6 
#
# 1 35.2560 21.7287 -12.0129 0.0000 9.4992 0.0000
# 2 21.7287 206.2624 35.9926 0.0000 -5.9729 0.0000
# 3 -12.0129 35.9926 79.3432 0.0000 2.7497 0.0000
# 4 0.0000 0.0000 0.0000 6.2155 0.0000 -16.0903
# 5 9.4992 -5.9729 2.7497 0.0000 40.0165 0.0000
# 6 0.0000 0.0000 0.0000 -16.0903 0.0000 -11.9933
#
#
#
# Elastic Compliance Matrix: (Units=1/GPa)
#
#
# Indices 1 2 3 4 5 6 
#
# 1 0.037701 -0.005790 0.008696 0.000000 -0.010411 0.000000
# 2 -0.005790 0.006191 -0.003774 0.000000 0.002558 0.000000
# 3 0.008696 -0.003774 0.015760 0.000000 -0.003710 0.000000
# 4 0.000000 0.000000 0.000000 0.035968 0.000000 -0.048255
# 5 -0.010411 0.002558 -0.003710 0.000000 0.028098 0.000000
# 6 0.000000 0.000000 0.000000 -0.048255 0.000000 -0.018641
#
#
# Mechanical properties :
#
#
# Convention : Reuss Voigt Hill
#
# Bulk Modulus (GPa) = 17.26675 45.80873 31.53774
# Shear Modulus (GPa) = 39.64501 25.19130 32.41815
#
# Velocity S-wave (km/s) = 4.03986 3.22030 3.65314
# Velocity P-wave (km/s) = 5.37296 5.71708 5.54769
#
# Compressibility (1/GPa) = 0.05791477
#
# Stress axis : x y z
#
# Youngs Moduli (GPa) = 26.52476 161.53114 63.44991
#
# Poissons Ratio (x) = 0.93533 -0.55173
# Poissons Ratio (y) = 0.15359 0.23944
# Poissons Ratio (z) = -0.23065 0.60956
#
# Static dielectric constant tensor:
#      x y z
#    x 1.951390 0.000000 0.046570 
#    y 0.000000 1.937180 0.000000 
#    z 0.046570 0.000000 1.903930 
# 
# From -- ./inp_files/151593.got.cif
#   From: 2010.05.17/outbox.cif.g08.bks.cpg/sg12_76_cif.got.tgz:151593.got - 2010.06.03 13:09:07.
