data_PCOD9203205
_publ_section_title
;
Structure prediction by ZEFSAII (Michael W. Deem and Ramdas Pophale) SiO2 
 PCOD9203205
Probable space group: C 2/M
;
_chemical_formula_sum "Si O2"
_cell_formula_units_Z 64
_cell_length_a 14.135959
_cell_length_b 24.967592
_cell_length_c 9.026737
_cell_angle_alpha 90.000000
_cell_angle_beta 87.433537
_cell_angle_gamma 90.000000
_cell_volume 3182.708673
_symmetry_space_group_name_H-M "C 2/M"
_symmetry_group_IT_number 12
_symmetry_cell_setting 'monoclinic'
loop_
_space_group_symop_operation_xyz
x,y,z
-x,y,-z
-x,-y,-z
x,-y,z
1/2+x,1/2+y,z
1/2-x,1/2+y,-z
1/2-x,1/2-y,-z
1/2+x,1/2-y,z
loop_
_atom_site_type_symbol
_atom_site_label
_atom_site_fract_x
_atom_site_fract_y
_atom_site_fract_z
Si Si1 0.718648 0.416221 0.025250
Si Si2 0.423847 0.560151 0.706442
Si Si3 0.604414 0.630441 0.778002
Si Si4 0.899888 0.761451 0.038415
Si Si5 0.785755 0.128314 0.522316
Si Si6 0.080381 0.560613 0.096457
Si Si7 0.394445 0.935996 0.572818
Si Si8 0.237138 0.195919 0.187490
O O1 0.665437 0.410443 0.873260
O O2 0.820590 0.441954 0.996181
O O3 0.645990 0.440925 0.146895
O O4 0.740542 0.357442 0.087533
O O5 0.457401 0.500000 0.673948
O O6 0.509115 0.600808 0.734088
O O7 0.359636 0.584558 0.581140
O O8 0.582507 0.681414 0.882736
O O9 0.668904 0.647233 0.634822
O O10 0.832337 0.728307 0.151052
O O11 0.846303 0.770471 0.885670
O O12 0.000000 0.735008 0.000000
O O13 0.685493 0.098653 0.504367
O O14 0.778479 0.175192 0.645293
O O15 0.045763 0.500000 0.131435
O O16 0.100358 0.583701 0.257054
O O17 0.000000 0.586676 0.000000
O O18 0.500000 0.930533 0.500000
O O19 0.369467 0.000000 0.569731
#
# Coordination Sequence:
#
# PCOD9203205 Si02
#       8
#     8   8   8   8   8   8   8   8
#     4  10  20  39  58  85 120 158 199 261 303 353
#     4  11  24  37  58  91 127 169 210 247 298 373
#     4  11  22  38  62  87 121 160 204 249 306 368
#     4  10  20  42  64  88 118 155 201 257 309 370
#     4  11  22  40  59  89 125 162 199 256 310 364
#     4  10  21  35  56  84 112 156 208 249 300 366
#     4  10  22  39  57  81 120 166 203 246 308 372
#     4   9  22  38  62  89 115 155 205 247 314 374
#
# _framework density 20.108657999999998
#
# number of rings (size 3 to 8) (size 9 to 14) (size 15 to 20)
#    0.000    1.750    1.250    3.750    3.500    4.000 
#    0.000    0.000    0.000    1.500    0.000    0.000 
#    0.000    0.000    0.000    0.000    0.000    0.000 
#
# Total GULP energy -178648.815625 kJ/mol
# GULP energy per Si atom -5582.775488 kJ/mol
# Density = 2.006289 g / cm^3
# Si number density = 20.108658 Si / 1000 Ang^3
#
#
#
# Elastic Constant Matrix: (Units=GPa)
#
#
# Indices 1 2 3 4 5 6 
#
# 1 124.7475 20.1031 34.6961 0.0000 -2.2983 0.0000
# 2 20.1031 43.8037 0.7274 0.0000 -1.8372 0.0000
# 3 34.6961 0.7274 102.9021 0.0000 -7.1359 0.0000
# 4 0.0000 0.0000 0.0000 -3.5065 0.0000 -3.9772
# 5 -2.2983 -1.8372 -7.1359 0.0000 32.5106 0.0000
# 6 0.0000 0.0000 0.0000 -3.9772 0.0000 25.1273
#
#
#
# Elastic Compliance Matrix: (Units=1/GPa)
#
#
# Indices 1 2 3 4 5 6 
#
# 1 0.009614 -0.004370 -0.003230 0.000000 -0.000276 0.000000
# 2 -0.004370 0.024870 0.001395 0.000000 0.001403 0.000000
# 3 -0.003230 0.001395 0.010953 0.000000 0.002255 0.000000
# 4 0.000000 0.000000 0.000000 -0.241779 0.000000 -0.038270
# 5 -0.000276 0.001403 0.002255 0.000000 0.031314 0.000000
# 6 0.000000 0.000000 0.000000 -0.038270 0.000000 0.033740
#
#
# Mechanical properties :
#
#
# Convention : Reuss Voigt Hill
#
# Bulk Modulus (GPa) = 30.27752 42.50072 36.38912
# Shear Modulus (GPa) = -46.35241 25.22139 -10.56551
#
# Velocity S-wave (km/s) = -4.80635 3.54539 -2.29469
# Velocity P-wave (km/s) = 3.96380 6.15964 3.33387
#
# Compressibility (1/GPa) = 0.03302781
#
# Stress axis : x y z
#
# Youngs Moduli (GPa) = 104.01913 40.20852 91.29537
#
# Poissons Ratio (x) = 0.17571 0.29486
# Poissons Ratio (y) = 0.45456 -0.12735
# Poissons Ratio (z) = 0.33595 -0.05609
#
# Static dielectric constant tensor:
#      x y z
#    x 1.709140 0.000000 0.003990 
#    y 0.000000 1.727850 0.000000 
#    z 0.003990 0.000000 1.729070 
# 
# From -- ./inp_files/65906.got.cif
#   From: 2010.05.17/outbox.cif.g08.bks.cpg/sg12_33_cif.got.tgz:65906.got - 2010.06.03 13:09:07.
