data_PCOD9203418
_publ_section_title
;
Structure prediction by ZEFSAII (Michael W. Deem and Ramdas Pophale) SiO2 
 PCOD9203418
Probable space group: C 2/M
;
_chemical_formula_sum "Si O2"
_cell_formula_units_Z 40
_cell_length_a 14.724111
_cell_length_b 18.187995
_cell_length_c 9.036690
_cell_angle_alpha 90.000000
_cell_angle_beta 53.585319
_cell_angle_gamma 90.000000
_cell_volume 1947.510506
_symmetry_space_group_name_H-M "C 2/M"
_symmetry_group_IT_number 12
_symmetry_cell_setting 'monoclinic'
loop_
_space_group_symop_operation_xyz
x,y,z
-x,y,-z
-x,-y,-z
x,-y,z
1/2+x,1/2+y,z
1/2-x,1/2+y,-z
1/2-x,1/2-y,-z
1/2+x,1/2-y,z
loop_
_atom_site_type_symbol
_atom_site_label
_atom_site_fract_x
_atom_site_fract_y
_atom_site_fract_z
Si Si1 0.984600 0.328759 0.841072
Si Si2 0.149725 0.771046 0.211420
Si Si3 0.196935 0.683410 0.461070
Si Si4 0.250158 0.915506 0.062526
Si Si5 0.373387 0.584583 0.136671
O O1 0.957332 0.252372 0.781952
O O2 0.098347 0.354723 0.651200
O O3 0.878125 0.384045 0.927073
O O4 0.000000 0.316464 0.000000
O O5 0.152348 0.718940 0.350921
O O6 0.176931 0.855324 0.224510
O O7 0.250000 0.750000 0.000000
O O8 0.250000 0.750000 0.500000
O O9 0.296372 0.628745 0.322778
O O10 0.250025 0.000000 0.115044
O O11 0.190480 0.913792 0.959469
O O12 0.383242 0.500000 0.174613
O O13 0.500000 0.614637 0.000000
#
# Coordination Sequence:
#
# PCOD9203418 Si02
#       5
#     8   8   8   8   8
#     4  11  24  41  67 101 133 177 222 281 339 392
#     4  10  20  39  62  94 131 165 216 270 326 395
#     4  12  24  38  67 102 131 176 224 277 338 398
#     4  10  22  41  67  95 133 180 221 274 340 400
#     4  10  23  42  65  95 134 181 225 273 334 409
#
# _framework density 20.539042999999999
#
# number of rings (size 3 to 8) (size 9 to 14) (size 15 to 20)
#    0.000    1.400    4.000    3.000    2.800    1.200 
#    0.000    5.000    0.000    2.400    0.000    0.000 
#    0.000    0.000    0.000    0.000    0.000    0.000 
#
# Total GULP energy -111644.608836 kJ/mol
# GULP energy per Si atom -5582.230442 kJ/mol
# Density = 2.049230 g / cm^3
# Si number density = 20.539043 Si / 1000 Ang^3
#
#
#
# Elastic Constant Matrix: (Units=GPa)
#
#
# Indices 1 2 3 4 5 6 
#
# 1 118.0405 33.5776 55.7273 0.0000 -9.5299 0.0000
# 2 33.5776 118.3903 36.3993 0.0000 -15.9974 0.0000
# 3 55.7273 36.3993 124.6578 0.0000 -11.4409 0.0000
# 4 0.0000 0.0000 0.0000 28.0258 0.0000 -3.7996
# 5 -9.5299 -15.9974 -11.4409 0.0000 38.6838 0.0000
# 6 0.0000 0.0000 0.0000 -3.7996 0.0000 27.2601
#
#
#
# Elastic Compliance Matrix: (Units=1/GPa)
#
#
# Indices 1 2 3 4 5 6 
#
# 1 0.011087 -0.001695 -0.004395 0.000000 0.000731 0.000000
# 2 -0.001695 0.009920 -0.001851 0.000000 0.003138 0.000000
# 3 -0.004395 -0.001851 0.010646 0.000000 0.001301 0.000000
# 4 0.000000 0.000000 0.000000 0.036369 0.000000 0.005069
# 5 0.000731 0.003138 0.001301 0.000000 0.027713 0.000000
# 6 0.000000 0.000000 0.000000 0.005069 0.000000 0.037390
#
#
# Mechanical properties :
#
#
# Convention : Reuss Voigt Hill
#
# Bulk Modulus (GPa) = 63.39817 68.05523 65.72670
# Shear Modulus (GPa) = 32.41184 34.48624 33.44904
#
# Velocity S-wave (km/s) = 3.97679 4.10208 4.03992
# Velocity P-wave (km/s) = 7.21253 7.45939 7.33700
#
# Compressibility (1/GPa) = 0.01577333
#
# Stress axis : x y z
#
# Youngs Moduli (GPa) = 90.19184 100.80270 93.92818
#
# Poissons Ratio (x) = 0.17083 0.41278
# Poissons Ratio (y) = 0.15285 0.17387
# Poissons Ratio (z) = 0.39636 0.18660
#
# Static dielectric constant tensor:
#      x y z
#    x 1.794600 0.000000 -0.025860 
#    y 0.000000 1.782330 0.000000 
#    z -0.025860 0.000000 1.735840 
# 
# From -- ./inp_files/60827.got.cif
#   From: 2010.05.17/outbox.cif.g08.bks.cpg/sg12_31_cif.got.tgz:60827.got - 2010.06.03 13:09:07.
