data_PCOD9203931
_publ_section_title
;
Structure prediction by ZEFSAII (Michael W. Deem and Ramdas Pophale) SiO2 
 PCOD9203931
Probable space group: C 2/M
;
_chemical_formula_sum "Si O2"
_cell_formula_units_Z 50
_cell_length_a 31.226195
_cell_length_b 9.502834
_cell_length_c 30.944381
_cell_angle_alpha 90.000000
_cell_angle_beta 163.371579
_cell_angle_gamma 90.000000
_cell_volume 2627.656251
_symmetry_space_group_name_H-M "C 2/M"
_symmetry_group_IT_number 12
_symmetry_cell_setting 'monoclinic'
loop_
_space_group_symop_operation_xyz
x,y,z
-x,y,-z
-x,-y,-z
x,-y,z
1/2+x,1/2+y,z
1/2-x,1/2+y,-z
1/2-x,1/2-y,-z
1/2+x,1/2-y,z
loop_
_atom_site_type_symbol
_atom_site_label
_atom_site_fract_x
_atom_site_fract_y
_atom_site_fract_z
Si Si1 0.178286 0.163772 0.665915
Si Si2 0.726843 0.835720 0.021197
Si Si3 0.500000 0.000000 0.000000
Si Si4 0.433570 0.655319 0.300885
Si Si5 0.515624 0.655819 0.875389
Si Si6 0.658315 0.225012 0.095583
Si Si7 0.315039 0.836320 0.414628
O O1 0.248937 0.261659 0.771349
O O2 0.202360 0.234164 0.643315
O O3 0.000000 0.151972 0.500000
O O4 0.243030 0.000000 0.733561
O O5 0.592276 0.769988 0.919114
O O6 0.701343 0.000000 0.987977
O O7 0.750000 0.750000 0.000000
O O8 0.870136 0.824240 0.191577
O O9 0.535180 0.122563 0.996632
O O10 0.504389 0.500000 0.373554
O O11 0.288888 0.656435 0.192425
O O12 0.545484 0.775921 0.423905
O O13 0.554564 0.500000 0.896859
O O14 0.338055 0.671321 0.706603
O O15 0.579440 0.670448 0.986051
O O16 0.338116 0.000000 0.424419
#
# Coordination Sequence:
#
# PCOD9203931 Si02
#       7
#     8   8   2   8   8   8   8
#     4  11  21  36  56  79 114 158 212 260 298 353
#     4  10  22  41  71  99 123 152 195 244 305 377
#     4  12  20  32  56  88 116 152 216 260 300 356
#     4  10  20  40  61  87 120 154 201 243 300 364
#     4  10  24  42  60  86 126 161 203 255 312 361
#     4  11  21  36  58  83 114 162 208 259 303 353
#     4  11  24  39  56  85 121 163 203 253 305 354
#
# _framework density 19.028364
#
# number of rings (size 3 to 8) (size 9 to 14) (size 15 to 20)
#    0.000    1.440    3.200    1.920    1.120    5.440 
#    0.000    2.800    0.000    0.000    0.000    0.000 
#    0.000    0.000    0.000    0.000    0.000    0.000 
#
# Total GULP energy -139250.856087 kJ/mol
# GULP energy per Si atom -5570.034243 kJ/mol
# Density = 1.898505 g / cm^3
# Si number density = 19.028364 Si / 1000 Ang^3
#
#
#
# Elastic Constant Matrix: (Units=GPa)
#
#
# Indices 1 2 3 4 5 6 
#
# 1 100.7089 57.9530 29.0583 0.0002 -11.1776 -0.0038
# 2 57.9530 114.8063 37.7150 0.0253 0.0409 0.0083
# 3 29.0583 37.7150 62.8166 0.0100 4.5173 0.0040
# 4 0.0002 0.0253 0.0100 16.7523 0.0051 -8.1621
# 5 -11.1776 0.0409 4.5173 0.0051 19.1534 0.0027
# 6 -0.0038 0.0083 0.0040 -8.1621 0.0027 27.9390
#
#
#
# Elastic Compliance Matrix: (Units=1/GPa)
#
#
# Indices 1 2 3 4 5 6 
#
# 1 0.016217 -0.006824 -0.004156 0.000013 0.010459 0.000008
# 2 -0.006824 0.013767 -0.004904 -0.000022 -0.002855 -0.000010
# 3 -0.004156 -0.004904 0.021321 -0.000004 -0.007444 -0.000003
# 4 0.000013 -0.000022 -0.000004 0.069600 -0.000012 0.020333
# 5 0.010459 -0.002855 -0.007444 -0.000012 0.060075 -0.000006
# 6 0.000008 -0.000010 -0.000003 0.020333 -0.000006 0.041732
#
#
# Mechanical properties :
#
#
# Convention : Reuss Voigt Hill
#
# Bulk Modulus (GPa) = 51.18593 58.64270 54.91431
# Shear Modulus (GPa) = 19.15755 23.00930 21.08343
#
# Velocity S-wave (km/s) = 3.17644 3.48114 3.33227
# Velocity P-wave (km/s) = 6.35698 6.85881 6.61266
#
# Compressibility (1/GPa) = 0.01953662
#
# Stress axis : x y z
#
# Youngs Moduli (GPa) = 61.66450 72.63717 46.90114
#
# Poissons Ratio (x) = 0.49570 0.19494
# Poissons Ratio (y) = 0.42082 0.22998
# Poissons Ratio (z) = 0.25631 0.35618
#
# Static dielectric constant tensor:
#      x y z
#    x 1.613140 -0.000010 -0.070890 
#    y -0.000010 1.660730 -0.000020 
#    z -0.070890 -0.000020 1.478520 
# 
# From -- ./inp_files/384846.got.cif
#   From: 2010.05.17/outbox.cif.g08.bks.cpg/sg12_193_cif.got.tgz:384846.got - 2010.06.03 13:09:07.
