data_PCOD9203884
_publ_section_title
;
Structure prediction by ZEFSAII (Michael W. Deem and Ramdas Pophale) SiO2 
 PCOD9203884
Probable space group: C 2/M
;
_chemical_formula_sum "Si O2"
_cell_formula_units_Z 40
_cell_length_a 9.988726
_cell_length_b 30.043626
_cell_length_c 7.357423
_cell_angle_alpha 90.000000
_cell_angle_beta 46.743685
_cell_angle_gamma 90.000000
_cell_volume 1608.036000
_symmetry_space_group_name_H-M "C 2/M"
_symmetry_group_IT_number 12
_symmetry_cell_setting 'monoclinic'
loop_
_space_group_symop_operation_xyz
x,y,z
-x,y,-z
-x,-y,-z
x,-y,z
1/2+x,1/2+y,z
1/2-x,1/2+y,-z
1/2-x,1/2-y,-z
1/2+x,1/2-y,z
loop_
_atom_site_type_symbol
_atom_site_label
_atom_site_fract_x
_atom_site_fract_y
_atom_site_fract_z
Si Si1 0.289921 0.303691 0.626708
Si Si2 0.789900 0.210968 0.202974
Si Si3 0.236106 0.377646 0.109502
Si Si4 0.862428 0.106469 0.404424
Si Si5 0.052186 0.548546 0.742638
O O1 0.500000 0.298457 0.500000
O O2 0.207079 0.264170 0.826993
O O3 0.237866 0.293217 0.464131
O O4 0.272674 0.357095 0.625860
O O5 0.690898 0.175666 0.161176
O O6 0.000000 0.195922 0.000000
O O7 0.293072 0.384968 0.264838
O O8 0.070858 0.411050 0.220993
O O9 0.417680 0.388606 0.819829
O O10 0.768670 0.059886 0.534981
O O11 0.012761 0.500000 0.697340
O O12 0.000000 0.546777 0.000000
#
# Coordination Sequence:
#
# PCOD9203884 Si02
#       5
#     8   8   8   8   8
#     4  10  22  36  60  93 128 172 220 270 326 384
#     4  10  20  40  59  90 130 172 224 265 322 391
#     4  10  21  44  70  94 136 178 225 276 329 401
#     4  10  22  43  68  97 134 178 225 272 336 400
#     4  11  27  45  69 104 133 169 223 284 351 404
#
# _framework density 24.875066
#
# number of rings (size 3 to 8) (size 9 to 14) (size 15 to 20)
#    0.000    1.800    4.000    0.600    2.800    8.800 
#    0.000    4.000    0.000    0.000    0.000    0.000 
#    0.000    0.000    0.000    0.000    0.000    0.000 
#
# Total GULP energy -111397.522225 kJ/mol
# GULP energy per Si atom -5569.876111 kJ/mol
# Density = 2.481845 g / cm^3
# Si number density = 24.875066 Si / 1000 Ang^3
#
#
#
# Elastic Constant Matrix: (Units=GPa)
#
#
# Indices 1 2 3 4 5 6 
#
# 1 93.2099 66.5609 30.5163 0.0000 -0.4719 0.0000
# 2 66.5609 182.2263 71.9808 0.0000 -2.3891 0.0000
# 3 30.5163 71.9808 84.1584 0.0000 -12.9481 0.0000
# 4 0.0000 0.0000 0.0000 -18.6379 0.0000 -47.1313
# 5 -0.4719 -2.3891 -12.9481 0.0000 32.0991 0.0000
# 6 0.0000 0.0000 0.0000 -47.1313 0.0000 -36.1560
#
#
#
# Elastic Compliance Matrix: (Units=1/GPa)
#
#
# Indices 1 2 3 4 5 6 
#
# 1 0.014594 -0.004847 -0.001246 0.000000 -0.000649 0.000000
# 2 -0.004847 0.010073 -0.007201 0.000000 -0.002226 0.000000
# 3 -0.001246 -0.007201 0.019626 0.000000 0.007362 0.000000
# 4 0.000000 0.000000 0.000000 0.023364 0.000000 -0.030457
# 5 -0.000649 -0.002226 0.007362 0.000000 0.033948 0.000000
# 6 0.000000 0.000000 0.000000 -0.030457 0.000000 0.012044
#
#
# Mechanical properties :
#
#
# Convention : Reuss Voigt Hill
#
# Bulk Modulus (GPa) = 56.47902 77.52342 67.00122
# Shear Modulus (GPa) = 34.21389 8.16346 21.18867
#
# Velocity S-wave (km/s) = 3.71270 1.81353 2.92173
# Velocity P-wave (km/s) = 6.41352 5.96808 6.19480
#
# Compressibility (1/GPa) = 0.01770569
#
# Stress axis : x y z
#
# Youngs Moduli (GPa) = 68.51902 99.27262 50.95391
#
# Poissons Ratio (x) = 0.48119 0.06349
# Poissons Ratio (y) = 0.33212 0.36690
# Poissons Ratio (z) = 0.08538 0.71482
#
# Static dielectric constant tensor:
#      x y z
#    x 1.985630 0.000000 0.022890 
#    y 0.000000 2.096530 0.000000 
#    z 0.022890 0.000000 2.007500 
# 
# From -- ./inp_files/54013.got.cif
#   From: 2010.05.17/outbox.cif.g08.bks.cpg/sg12_28_cif.got.tgz:54013.got - 2010.06.03 13:09:07.
