data_PCOD9203461
_publ_section_title
;
Structure prediction by ZEFSAII (Michael W. Deem and Ramdas Pophale) SiO2 
 PCOD9203461
Probable space group: C 2/M
;
_chemical_formula_sum "Si O2"
_cell_formula_units_Z 48
_cell_length_a 8.826129
_cell_length_b 16.143838
_cell_length_c 16.650515
_cell_angle_alpha 90.000000
_cell_angle_beta 103.162722
_cell_angle_gamma 90.000000
_cell_volume 2310.160022
_symmetry_space_group_name_H-M "C 2/M"
_symmetry_group_IT_number 12
_symmetry_cell_setting 'monoclinic'
loop_
_space_group_symop_operation_xyz
x,y,z
-x,y,-z
-x,-y,-z
x,-y,z
1/2+x,1/2+y,z
1/2-x,1/2+y,-z
1/2-x,1/2-y,-z
1/2+x,1/2-y,z
loop_
_atom_site_type_symbol
_atom_site_label
_atom_site_fract_x
_atom_site_fract_y
_atom_site_fract_z
Si Si1 0.608196 0.657027 0.290631
Si Si2 0.329409 0.338533 0.516976
Si Si3 0.554763 0.000000 0.219008
Si Si4 0.147821 0.325107 0.960037
Si Si5 0.171302 0.000000 0.562865
Si Si6 0.396893 0.500000 0.254805
Si Si7 0.932881 0.672506 0.237010
Si Si8 0.347641 0.000000 0.038199
O O1 0.654727 0.638079 0.387990
O O2 0.495588 0.582462 0.248739
O O3 0.764636 0.663486 0.257599
O O4 0.520230 0.745396 0.278172
O O5 0.500000 0.327950 0.500000
O O6 0.250000 0.250000 0.500000
O O7 0.252898 0.415022 0.459438
O O8 0.529214 0.087062 0.261425
O O9 0.419410 0.000000 0.136214
O O10 0.723740 0.000000 0.197203
O O11 0.092284 0.316752 0.861653
O O12 0.235739 0.412873 0.981657
O O13 0.250000 0.250000 0.000000
O O14 0.000000 0.327360 0.000000
O O15 0.000000 0.000000 0.500000
O O16 0.144110 0.000000 0.654518
O O17 0.500000 0.000000 0.000000
#
# Coordination Sequence:
#
# PCOD9203461 Si02
#       8
#     8   8   4   8   4   4   8   4
#     4  12  23  39  62  90 126 162 203 267 313 370
#     4  11  22  40  62  86 118 162 207 253 314 370
#     4  10  23  40  62  89 126 163 207 259 313 373
#     4  10  20  39  63  87 123 167 201 249 308 368
#     4  10  20  42  62  84 119 160 210 252 313 376
#     4  12  23  41  66  89 122 172 209 262 321 372
#     4  11  24  40  61  97 128 161 213 259 312 377
#     4   8  18  37  60  84 117 158 199 242 298 368
#
# _framework density 20.777781999999998
#
# number of rings (size 3 to 8) (size 9 to 14) (size 15 to 20)
#    0.000    1.333    3.333    3.500    2.333    2.667 
#    0.000    0.833    0.000    0.000    0.000    0.000 
#    0.000    0.000    0.000    0.000    0.000    0.000 
#
# Total GULP energy -134032.835523 kJ/mol
# GULP energy per Si atom -5584.701480 kJ/mol
# Density = 2.073049 g / cm^3
# Si number density = 20.777782 Si / 1000 Ang^3
#
#
#
# Elastic Constant Matrix: (Units=GPa)
#
#
# Indices 1 2 3 4 5 6 
#
# 1 96.9003 45.8411 10.7451 0.0000 -21.5164 0.0000
# 2 45.8411 181.0171 -8.9835 0.0000 5.7090 0.0000
# 3 10.7451 -8.9835 77.6339 0.0000 -22.5884 0.0000
# 4 0.0000 0.0000 0.0000 26.8244 0.0000 0.6743
# 5 -21.5164 5.7090 -22.5884 0.0000 29.3061 0.0000
# 6 0.0000 0.0000 0.0000 0.6743 0.0000 46.0759
#
#
#
# Elastic Compliance Matrix: (Units=1/GPa)
#
#
# Indices 1 2 3 4 5 6 
#
# 1 0.014961 -0.004132 0.001136 0.000000 0.012665 0.000000
# 2 -0.004132 0.006710 0.000110 0.000000 -0.004256 0.000000
# 3 0.001136 0.000110 0.016723 0.000000 0.013703 0.000000
# 4 0.000000 0.000000 0.000000 0.037293 0.000000 -0.000546
# 5 0.012665 -0.004256 0.013703 0.000000 0.054812 0.000000
# 6 0.000000 0.000000 0.000000 -0.000546 0.000000 0.021711
#
#
# Mechanical properties :
#
#
# Convention : Reuss Voigt Hill
#
# Bulk Modulus (GPa) = 30.65283 50.08408 40.36845
# Shear Modulus (GPa) = 29.61104 40.97120 35.29112
#
# Velocity S-wave (km/s) = 3.77918 4.44540 4.12576
# Velocity P-wave (km/s) = 5.81616 7.10674 6.49359
#
# Compressibility (1/GPa) = 0.03262342
#
# Stress axis : x y z
#
# Youngs Moduli (GPa) = 66.84211 149.02374 59.79645
#
# Poissons Ratio (x) = 0.61572 -0.06794
# Poissons Ratio (y) = 0.27617 -0.00658
# Poissons Ratio (z) = -0.07594 -0.01640
#
# Static dielectric constant tensor:
#      x y z
#    x 1.717610 0.000000 0.035870 
#    y 0.000000 1.801850 0.000000 
#    z 0.035870 0.000000 1.753390 
# 
# From -- ./inp_files/255862.got.cif
#   From: 2010.05.17/outbox.cif.g08.bks.cpg/sg12_128_cif.got.tgz:255862.got - 2010.06.03 13:09:07.
