data_PCOD9203057
_publ_section_title
;
Structure prediction by ZEFSAII (Michael W. Deem and Ramdas Pophale) SiO2 
 PCOD9203057
Probable space group: C 2/M
;
_chemical_formula_sum "Si O2"
_cell_formula_units_Z 56
_cell_length_a 9.444471
_cell_length_b 18.738617
_cell_length_c 17.493517
_cell_angle_alpha 90.000000
_cell_angle_beta 123.572091
_cell_angle_gamma 90.000000
_cell_volume 2579.507042
_symmetry_space_group_name_H-M "C 2/M"
_symmetry_group_IT_number 12
_symmetry_cell_setting 'monoclinic'
loop_
_space_group_symop_operation_xyz
x,y,z
-x,y,-z
-x,-y,-z
x,-y,z
1/2+x,1/2+y,z
1/2-x,1/2+y,-z
1/2-x,1/2-y,-z
1/2+x,1/2-y,z
loop_
_atom_site_type_symbol
_atom_site_label
_atom_site_fract_x
_atom_site_fract_y
_atom_site_fract_z
Si Si1 0.175362 0.579702 0.100956
Si Si2 0.521358 0.802099 0.870136
Si Si3 0.491177 0.185109 0.681335
Si Si4 0.647636 0.272435 0.607105
Si Si5 0.868806 0.415441 0.523438
Si Si6 0.107484 0.849802 0.958453
Si Si7 0.014074 0.079870 0.595700
O O1 0.198004 0.500000 0.141872
O O2 0.336368 0.598382 0.094568
O O3 0.126948 0.647053 0.140114
O O4 0.000000 0.575054 0.000000
O O5 0.526173 0.811846 0.780706
O O6 0.511153 0.720303 0.896427
O O7 0.706336 0.826726 0.955506
O O8 0.636449 0.216582 0.671821
O O9 0.326294 0.234548 0.618983
O O10 0.427427 0.112562 0.623217
O O11 0.500000 0.267688 0.500000
O O12 0.632959 0.351634 0.641015
O O13 0.876000 0.500000 0.527919
O O14 0.677996 0.398487 0.440494
O O15 0.000000 0.387891 0.500000
O O16 0.000000 0.876985 0.000000
O O17 0.000000 0.072245 0.500000
O O18 0.056734 0.000000 0.638013
#
# Coordination Sequence:
#
# PCOD9203057 Si02
#       7
#     8   8   8   8   8   8   8
#     4   9  19  38  64  93 123 159 200 245 303 368
#     4  10  22  38  60  92 122 165 201 252 300 379
#     4  12  25  36  59  88 122 152 205 253 300 351
#     4  11  23  38  56  84 118 158 194 253 301 349
#     4  10  21  38  60  83 113 159 207 252 305 364
#     4  10  20  38  66  90 127 159 201 242 311 377
#     4   9  17  35  58  78 104 147 200 238 291 363
#
# _framework density 21.709574
#
# number of rings (size 3 to 8) (size 9 to 14) (size 15 to 20)
#    0.000    1.857    2.857    3.000    6.000    0.857 
#    0.000    0.000    0.000    0.000    0.000    0.000 
#    0.000    0.000    0.000    0.000    0.000    0.000 
#
# Total GULP energy -156124.496857 kJ/mol
# GULP energy per Si atom -5575.874888 kJ/mol
# Density = 2.166016 g / cm^3
# Si number density = 21.709574 Si / 1000 Ang^3
#
#
#
# Elastic Constant Matrix: (Units=GPa)
#
#
# Indices 1 2 3 4 5 6 
#
# 1 113.2473 17.9500 -3.2273 0.0000 -15.1772 0.0000
# 2 17.9500 112.8849 15.5673 0.0000 -5.9245 0.0000
# 3 -3.2273 15.5673 82.5628 0.0000 -15.6461 0.0000
# 4 0.0000 0.0000 0.0000 -4.6666 0.0000 -6.4071
# 5 -15.1772 -5.9245 -15.6461 0.0000 23.1761 0.0000
# 6 0.0000 0.0000 0.0000 -6.4071 0.0000 26.1867
#
#
#
# Elastic Compliance Matrix: (Units=1/GPa)
#
#
# Indices 1 2 3 4 5 6 
#
# 1 0.010165 -0.001507 0.002144 0.000000 0.007719 0.000000
# 2 -0.001507 0.009355 -0.001785 0.000000 0.000200 0.000000
# 3 0.002144 -0.001785 0.014577 0.000000 0.010789 0.000000
# 4 0.000000 0.000000 0.000000 -0.160404 0.000000 -0.039246
# 5 0.007719 0.000200 0.010789 0.000000 0.055537 0.000000
# 6 0.000000 0.000000 0.000000 -0.039246 0.000000 0.028585
#
#
# Mechanical properties :
#
#
# Convention : Reuss Voigt Hill
#
# Bulk Modulus (GPa) = 31.44544 41.03054 36.23799
# Shear Modulus (GPa) = -170.70785 27.49956 -71.60414
#
# Velocity S-wave (km/s) = -8.87712 3.56294 -5.74929
# Velocity P-wave (km/s) = 9.51604 5.98889 5.22916
#
# Compressibility (1/GPa) = 0.03180112
#
# Stress axis : x y z
#
# Youngs Moduli (GPa) = 98.38021 106.89684 68.60173
#
# Poissons Ratio (x) = 0.16108 -0.14710
# Poissons Ratio (y) = 0.14825 0.12245
# Poissons Ratio (z) = -0.21095 0.19080
#
# Static dielectric constant tensor:
#      x y z
#    x 1.902260 0.000000 0.036500 
#    y 0.000000 1.832650 0.000000 
#    z 0.036500 0.000000 1.799740 
# 
# From -- ./inp_files/258214.got.cif
#   From: 2010.05.17/outbox.cif.g08.bks.cpg/sg12_130_cif.got.tgz:258214.got - 2010.06.03 13:09:07.
