data_PCOD9203215
_publ_section_title
;
Structure prediction by ZEFSAII (Michael W. Deem and Ramdas Pophale) SiO2 
 PCOD9203215
Probable space group: C 2/M
;
_chemical_formula_sum "Si O2"
_cell_formula_units_Z 64
_cell_length_a 14.689912
_cell_length_b 7.660377
_cell_length_c 30.691844
_cell_angle_alpha 90.000000
_cell_angle_beta 50.282199
_cell_angle_gamma 90.000000
_cell_volume 2656.636865
_symmetry_space_group_name_H-M "C 2/M"
_symmetry_group_IT_number 12
_symmetry_cell_setting 'monoclinic'
loop_
_space_group_symop_operation_xyz
x,y,z
-x,y,-z
-x,-y,-z
x,-y,z
1/2+x,1/2+y,z
1/2-x,1/2+y,-z
1/2-x,1/2-y,-z
1/2+x,1/2-y,z
loop_
_atom_site_type_symbol
_atom_site_label
_atom_site_fract_x
_atom_site_fract_y
_atom_site_fract_z
Si Si1 0.628044 0.796149 0.727537
Si Si2 0.489638 0.706866 0.365943
Si Si3 0.625433 0.207144 0.513648
Si Si4 0.620987 0.698898 0.188070
Si Si5 0.281613 0.284902 0.756024
Si Si6 0.253265 0.788303 0.606101
Si Si7 0.591528 0.206580 0.007765
Si Si8 0.138481 0.788670 0.086284
O O1 0.508984 0.699109 0.750514
O O2 0.669780 0.731488 0.761895
O O3 0.735047 0.773901 0.660731
O O4 0.599329 0.000000 0.738090
O O5 0.490437 0.500000 0.359459
O O6 0.475476 0.735404 0.422010
O O7 0.604500 0.776416 0.306498
O O8 0.369407 0.771196 0.379676
O O9 0.750000 0.250000 0.500000
O O10 0.643812 0.271998 0.458469
O O11 0.614399 0.000000 0.513999
O O12 0.661493 0.500000 0.169025
O O13 0.706927 0.777654 0.198026
O O14 0.606226 0.775014 0.144528
O O15 0.282363 0.500000 0.756179
O O16 0.257062 0.000000 0.606126
O O17 0.562882 0.230346 0.067628
O O18 0.599285 0.000000 0.997263
O O19 0.500000 0.278330 0.000000
O O20 0.725511 0.274382 0.961316
O O21 0.134623 0.000000 0.086270
#
# Coordination Sequence:
#
# PCOD9203215 Si02
#       8
#     8   8   8   8   8   8   8   8
#     4  11  22  34  54  82 105 132 181 233 271 310
#     4   9  16  31  53  72  95 133 174 211 263 326
#     4   9  17  28  46  73 100 130 168 212 265 325
#     4  10  20  39  59  74 107 151 184 214 263 327
#     4   9  19  36  55  75 103 141 177 217 272 329
#     4   9  17  32  52  71  99 139 172 207 269 336
#     4   9  18  34  57  86 118 149 181 221 265 306
#     4   9  19  34  56  84 110 147 188 219 261 314
#
# _framework density 24.090606999999999
#
# number of rings (size 3 to 8) (size 9 to 14) (size 15 to 20)
#    0.000    2.625    1.250    1.500    0.000    4.250 
#    0.000    5.625    0.000    3.750    0.000    0.000 
#    0.000    0.000    0.000    0.000    0.000    0.000 
#
# Total GULP energy -178585.580301 kJ/mol
# GULP energy per Si atom -5580.799384 kJ/mol
# Density = 2.403578 g / cm^3
# Si number density = 24.090607 Si / 1000 Ang^3
#
#
#
# Elastic Constant Matrix: (Units=GPa)
#
#
# Indices 1 2 3 4 5 6 
#
# 1 105.1301 -0.4430 29.8767 0.0005 41.1711 0.0004
# 2 -0.4430 43.5757 -11.3976 0.0051 -1.9936 0.0014
# 3 29.8767 -11.3976 95.4038 0.0012 37.0694 0.0010
# 4 0.0005 0.0051 0.0012 19.5778 0.0007 3.0764
# 5 41.1711 -1.9936 37.0694 0.0007 39.2654 0.0005
# 6 0.0004 0.0014 0.0010 3.0764 0.0005 4.0457
#
#
#
# Elastic Compliance Matrix: (Units=1/GPa)
#
#
# Indices 1 2 3 4 5 6 
#
# 1 0.016496 -0.000091 0.002441 0.000000 -0.019606 0.000000
# 2 -0.000091 0.023824 0.003739 -0.000006 -0.002225 -0.000004
# 3 0.002441 0.003739 0.017507 -0.000001 -0.018897 -0.000003
# 4 0.000000 -0.000006 -0.000001 0.058010 0.000000 -0.044112
# 5 -0.019606 -0.002225 -0.018897 0.000000 0.063753 0.000000
# 6 0.000000 -0.000004 -0.000003 -0.044112 0.000000 0.280718
#
#
# Mechanical properties :
#
#
# Convention : Reuss Voigt Hill
#
# Bulk Modulus (GPa) = 14.28451 31.13132 22.70791
# Shear Modulus (GPa) = 10.60527 27.64934 19.12731
#
# Velocity S-wave (km/s) = 2.10043 3.39148 2.82081
# Velocity P-wave (km/s) = 3.43872 5.31854 4.47837
#
# Compressibility (1/GPa) = 0.07000591
#
# Stress axis : x y z
#
# Youngs Moduli (GPa) = 60.62084 41.97474 57.12122
#
# Poissons Ratio (x) = 0.00381 -0.13944
# Poissons Ratio (y) = 0.00550 -0.21359
# Poissons Ratio (z) = -0.14799 -0.15695
#
# Static dielectric constant tensor:
#      x y z
#    x 1.943480 0.000000 0.026170 
#    y 0.000000 1.911270 0.000000 
#    z 0.026170 0.000000 1.982560 
# 
# From -- ./inp_files/375020.got.cif
#   From: 2010.05.17/outbox.cif.g08.bks.cpg/sg12_188_cif.got.tgz:375020.got - 2010.06.03 13:09:07.
