data_PCOD9203041
_publ_section_title
;
Structure prediction by ZEFSAII (Michael W. Deem and Ramdas Pophale) SiO2 
 PCOD9203041
Probable space group: C 2/M
;
_chemical_formula_sum "Si O2"
_cell_formula_units_Z 64
_cell_length_a 11.083912
_cell_length_b 16.069606
_cell_length_c 21.069116
_cell_angle_alpha 90.000000
_cell_angle_beta 138.762844
_cell_angle_gamma 90.000000
_cell_volume 2473.698854
_symmetry_space_group_name_H-M "C 2/M"
_symmetry_group_IT_number 12
_symmetry_cell_setting 'monoclinic'
loop_
_space_group_symop_operation_xyz
x,y,z
-x,y,-z
-x,-y,-z
x,-y,z
1/2+x,1/2+y,z
1/2-x,1/2+y,-z
1/2-x,1/2-y,-z
1/2+x,1/2-y,z
loop_
_atom_site_type_symbol
_atom_site_label
_atom_site_fract_x
_atom_site_fract_y
_atom_site_fract_z
Si Si1 0.742922 0.842819 0.630568
Si Si2 0.580162 0.143923 0.844672
Si Si3 0.581688 0.904931 0.683881
Si Si4 0.855818 0.175674 0.194515
Si Si5 0.898858 0.864395 0.898755
Si Si6 0.786886 0.900234 0.507965
Si Si7 0.812643 0.163644 0.328618
Si Si8 0.724518 0.095496 0.024353
O O1 0.617187 0.901527 0.622629
O O2 0.740369 0.851831 0.554487
O O3 0.701263 0.749885 0.638550
O O4 0.947915 0.867645 0.730515
O O5 0.617066 0.235101 0.829276
O O6 0.750190 0.090072 0.885990
O O7 0.381175 0.115683 0.744068
O O8 0.599031 0.148989 0.927470
O O9 0.743965 0.852692 0.781384
O O10 0.371214 0.874387 0.604505
O O11 0.595699 0.000000 0.710346
O O12 0.818401 0.180099 0.254485
O O13 0.723885 0.125102 0.096325
O O14 0.069464 0.894171 0.923882
O O15 0.000000 0.816736 0.000000
O O16 0.998480 0.880024 0.577254
O O17 0.771347 0.000000 0.510173
O O18 0.669903 0.000000 0.997703
#
# Coordination Sequence:
#
# PCOD9203041 Si02
#       8
#     8   8   8   8   8   8   8   8
#     4  10  20  38  65  97 132 173 224 282 336 396
#     4  10  23  41  63  91 132 176 222 270 337 408
#     4  11  21  37  65  98 134 175 224 279 341 404
#     4  10  21  38  64  94 132 170 225 276 335 400
#     4  10  22  40  65  97 132 169 222 279 332 393
#     4  10  23  42  67 100 137 178 226 281 343 404
#     4  10  23  43  65  96 132 182 225 276 339 413
#     4  11  23  40  64  97 129 170 225 285 337 390
#
# _framework density 25.872188000000001
#
# number of rings (size 3 to 8) (size 9 to 14) (size 15 to 20)
#    0.000    1.750    1.250    2.250    1.750    9.000 
#    2.250    3.750    0.000    1.500    0.000    0.000 
#    0.000    0.000    0.000    0.000    0.000    0.000 
#
# Total GULP energy -178352.242422 kJ/mol
# GULP energy per Si atom -5573.507576 kJ/mol
# Density = 2.581330 g / cm^3
# Si number density = 25.872188 Si / 1000 Ang^3
#
#
#
# Elastic Constant Matrix: (Units=GPa)
#
#
# Indices 1 2 3 4 5 6 
#
# 1 95.7631 17.6579 64.5494 0.0000 -11.3286 0.0000
# 2 17.6579 46.6796 14.4020 0.0000 -1.5389 0.0000
# 3 64.5494 14.4020 189.9236 0.0000 21.1398 0.0001
# 4 0.0000 0.0000 0.0000 13.2664 0.0000 5.9142
# 5 -11.3286 -1.5389 21.1398 0.0000 56.3639 0.0000
# 6 0.0000 0.0000 0.0001 5.9142 0.0000 -16.1394
#
#
#
# Elastic Compliance Matrix: (Units=1/GPa)
#
#
# Indices 1 2 3 4 5 6 
#
# 1 0.015511 -0.003992 -0.005535 0.000000 0.005084 0.000000
# 2 -0.003992 0.023052 -0.000388 0.000000 -0.000027 0.000000
# 3 -0.005535 -0.000388 0.007619 0.000000 -0.003981 0.000000
# 4 0.000000 0.000000 0.000000 0.064794 0.000000 0.023743
# 5 0.005084 -0.000027 -0.003981 0.000000 0.020256 0.000000
# 6 0.000000 0.000000 0.000000 0.023743 0.000000 -0.053260
#
#
# Mechanical properties :
#
#
# Convention : Reuss Voigt Hill
#
# Bulk Modulus (GPa) = 37.94915 58.39832 48.17374
# Shear Modulus (GPa) = 46.91085 26.41534 36.66309
#
# Velocity S-wave (km/s) = 4.26276 3.19877 3.76850
# Velocity P-wave (km/s) = 6.23923 6.02193 6.13154
#
# Compressibility (1/GPa) = 0.02635105
#
# Stress axis : x y z
#
# Youngs Moduli (GPa) = 64.47109 43.38088 131.25220
#
# Poissons Ratio (x) = 0.17318 0.72647
# Poissons Ratio (y) = 0.25738 0.05095
# Poissons Ratio (z) = 0.35684 0.01684
#
# Static dielectric constant tensor:
#      x y z
#    x 2.129240 0.000000 0.004970 
#    y 0.000000 2.011640 0.000000 
#    z 0.004970 0.000000 2.150700 
# 
# From -- ./inp_files/336698.got.cif
#   From: 2010.05.17/outbox.cif.g08.bks.cpg/sg12_169_cif.got.tgz:336698.got - 2010.06.03 13:09:07.
