data_PCOD9203144
_publ_section_title
;
Structure prediction by ZEFSAII (Michael W. Deem and Ramdas Pophale) SiO2 
 PCOD9203144
Probable space group: C 2/M
;
_chemical_formula_sum "Si O2"
_cell_formula_units_Z 52
_cell_length_a 8.849037
_cell_length_b 13.135642
_cell_length_c 32.980223
_cell_angle_alpha 90.000000
_cell_angle_beta 41.834872
_cell_angle_gamma 90.000000
_cell_volume 2556.923085
_symmetry_space_group_name_H-M "C 2/M"
_symmetry_group_IT_number 12
_symmetry_cell_setting 'monoclinic'
loop_
_space_group_symop_operation_xyz
x,y,z
-x,y,-z
-x,-y,-z
x,-y,z
1/2+x,1/2+y,z
1/2-x,1/2+y,-z
1/2-x,1/2-y,-z
1/2+x,1/2-y,z
loop_
_atom_site_type_symbol
_atom_site_label
_atom_site_fract_x
_atom_site_fract_y
_atom_site_fract_z
Si Si1 0.030796 0.111838 0.143200
Si Si2 0.017243 0.385747 0.895331
Si Si3 0.288686 0.119527 0.288914
Si Si4 0.220154 0.624929 0.981442
Si Si5 0.294579 0.734749 0.771561
Si Si6 0.450282 0.380593 0.432400
Si Si7 0.500000 0.757462 0.500000
O O1 0.882445 0.176075 0.203389
O O2 0.278765 0.106129 0.112957
O O3 0.063901 0.149490 0.090132
O O4 0.931663 0.000000 0.160321
O O5 0.955034 0.500000 0.893919
O O6 0.137805 0.327807 0.834619
O O7 0.810808 0.345535 0.965166
O O8 0.496248 0.198758 0.253627
O O9 0.156561 0.161505 0.275745
O O10 0.131283 0.125332 0.359922
O O11 0.353146 0.000000 0.270349
O O12 0.216202 0.500000 0.982705
O O13 0.000000 0.659301 0.000000
O O14 0.416964 0.500000 0.449110
O O15 0.531507 0.315679 0.454847
O O16 0.217278 0.328400 0.464382
#
# Coordination Sequence:
#
# PCOD9203144 Si02
#       7
#     8   8   8   8   8   8   4
#     4   9  17  31  51  74 100 136 186 240 292 350
#     4   9  17  31  51  74 100 136 186 240 292 350
#     4  11  25  41  58  87 124 157 193 236 279 334
#     4   7  12  25  46  71  97 126 173 239 298 345
#     4  12  21  37  56  79 111 158 194 234 288 342
#     4  10  21  39  62  91 126 157 190 236 282 326
#     4  10  20  38  68  96 118 154 198 232 276 336
#
# _framework density 20.336942000000001
#
# number of rings (size 3 to 8) (size 9 to 14) (size 15 to 20)
#    0.000    2.308    1.538    4.154    0.000    0.615 
#    0.000    0.000    0.000    7.385    0.000    5.385 
#    0.000    0.000    0.000    0.000    0.000    0.000 
#
# Total GULP energy -144736.200224 kJ/mol
# GULP energy per Si atom -5566.776932 kJ/mol
# Density = 2.029065 g / cm^3
# Si number density = 20.336942 Si / 1000 Ang^3
#
#
#
# Elastic Constant Matrix: (Units=GPa)
#
#
# Indices 1 2 3 4 5 6 
#
# 1 25.5580 20.8839 0.4187 0.0008 6.2147 -0.0013
# 2 20.8839 106.7544 42.4620 0.0003 13.6291 -0.0001
# 3 0.4187 42.4620 67.7075 0.0003 16.3984 -0.0011
# 4 0.0008 0.0003 0.0003 38.1977 -0.0001 6.3896
# 5 6.2147 13.6291 16.3984 -0.0001 24.1912 0.0003
# 6 -0.0013 -0.0001 -0.0011 6.3896 0.0003 18.0029
#
#
#
# Elastic Compliance Matrix: (Units=1/GPa)
#
#
# Indices 1 2 3 4 5 6 
#
# 1 0.052982 -0.013057 0.011218 -0.000002 -0.013859 0.000006
# 2 -0.013057 0.015785 -0.010142 0.000001 0.001336 -0.000002
# 3 0.011218 -0.010142 0.024377 -0.000001 -0.013692 0.000003
# 4 -0.000002 0.000001 -0.000001 0.027832 0.000001 -0.009878
# 5 -0.013859 0.001336 -0.013692 0.000001 0.053426 -0.000003
# 6 0.000006 -0.000002 0.000003 -0.009878 -0.000003 0.059053
#
#
# Mechanical properties :
#
#
# Convention : Reuss Voigt Hill
#
# Bulk Modulus (GPa) = 14.45503 36.39435 25.42469
# Shear Modulus (GPa) = 17.82664 25.16203 21.49434
#
# Velocity S-wave (km/s) = 2.96390 3.52128 3.25454
# Velocity P-wave (km/s) = 4.34006 5.87087 5.16252
#
# Compressibility (1/GPa) = 0.06918007
#
# Stress axis : x y z
#
# Youngs Moduli (GPa) = 18.87432 63.35048 41.02247
#
# Poissons Ratio (x) = 0.82718 -0.46017
# Poissons Ratio (y) = 0.24645 0.41607
# Poissons Ratio (z) = -0.21172 0.64253
#
# Static dielectric constant tensor:
#      x y z
#    x 1.740310 0.000000 0.016980 
#    y 0.000000 1.805460 0.000000 
#    z 0.016980 0.000000 1.736330 
# 
# From -- ./inp_files/372491.got.cif
#   From: 2010.05.17/outbox.cif.g08.bks.cpg/sg12_187_cif.got.tgz:372491.got - 2010.06.03 13:09:07.
