data_PCOD9203845
_publ_section_title
;
Structure prediction by ZEFSAII (Michael W. Deem and Ramdas Pophale) SiO2 
 PCOD9203845
Probable space group: C 2/M
;
_chemical_formula_sum "Si O2"
_cell_formula_units_Z 48
_cell_length_a 9.646229
_cell_length_b 27.134647
_cell_length_c 7.502203
_cell_angle_alpha 90.000000
_cell_angle_beta 101.163483
_cell_angle_gamma 90.000000
_cell_volume 1926.524003
_symmetry_space_group_name_H-M "C 2/M"
_symmetry_group_IT_number 12
_symmetry_cell_setting 'monoclinic'
loop_
_space_group_symop_operation_xyz
x,y,z
-x,y,-z
-x,-y,-z
x,-y,z
1/2+x,1/2+y,z
1/2-x,1/2+y,-z
1/2-x,1/2-y,-z
1/2+x,1/2-y,z
loop_
_atom_site_type_symbol
_atom_site_label
_atom_site_fract_x
_atom_site_fract_y
_atom_site_fract_z
Si Si1 0.972867 0.557384 0.757103
Si Si2 0.237607 0.586867 0.620928
Si Si3 0.697350 0.194559 0.524762
Si Si4 0.638418 0.208974 0.908349
Si Si5 0.771533 0.631232 0.825133
Si Si6 0.033131 0.945272 0.797020
O O1 0.974524 0.500000 0.790823
O O2 0.865836 0.569363 0.564183
O O3 0.888087 0.589590 0.873562
O O4 0.129727 0.575087 0.752273
O O5 0.274760 0.645021 0.618591
O O6 0.381930 0.557691 0.664715
O O7 0.750000 0.250000 0.500000
O O8 0.604664 0.205739 0.685887
O O9 0.682921 0.169721 0.321618
O O10 0.500000 0.213556 0.000000
O O11 0.750000 0.250000 0.000000
O O12 0.723992 0.161275 0.993225
O O13 0.628228 0.600797 0.760223
O O14 0.097207 0.000000 0.783708
O O15 0.000000 0.940460 0.000000
#
# Coordination Sequence:
#
# PCOD9203845 Si02
#       6
#     8   8   8   8   8   8
#     4  10  20  39  71 103 141 192 245 306 378 448
#     4  10  21  40  67 105 147 189 251 314 373 451
#     4  11  24  48  71 106 142 198 247 308 378 450
#     4  12  27  50  76 106 149 196 248 321 383 454
#     4  11  25  47  70 108 149 194 252 307 373 458
#     4  11  24  44  71 106 155 205 255 318 389 458
#
# _framework density 24.915337999999998
#
# number of rings (size 3 to 8) (size 9 to 14) (size 15 to 20)
#    0.000    1.167    1.667    4.500    0.000    6.667 
#    3.000    4.167    0.000    8.000    0.000    0.000 
#    0.000    0.000    0.000    0.000    0.000    0.000 
#
# Total GULP energy -133698.169579 kJ/mol
# GULP energy per Si atom -5570.757066 kJ/mol
# Density = 2.485863 g / cm^3
# Si number density = 24.915338 Si / 1000 Ang^3
#
#
#
# Elastic Constant Matrix: (Units=GPa)
#
#
# Indices 1 2 3 4 5 6 
#
# 1 140.2985 54.1005 40.7246 0.0000 6.5395 0.0000
# 2 54.1005 232.1997 32.4463 0.0000 -3.8715 0.0000
# 3 40.7246 32.4463 169.3896 0.0000 -20.3417 0.0000
# 4 0.0000 0.0000 0.0000 -217.2050 0.0000 -86.7864
# 5 6.5395 -3.8715 -20.3417 0.0000 24.3162 0.0000
# 6 0.0000 0.0000 0.0000 -86.7864 0.0000 8.2221
#
#
#
# Elastic Compliance Matrix: (Units=1/GPa)
#
#
# Indices 1 2 3 4 5 6 
#
# 1 0.008692 -0.001780 -0.002294 0.000000 -0.004540 0.000000
# 2 -0.001780 0.004790 -0.000378 0.000000 0.000925 0.000000
# 3 -0.002294 -0.000378 0.007331 0.000000 0.006689 0.000000
# 4 0.000000 0.000000 0.000000 -0.000882 0.000000 -0.009314
# 5 -0.004540 0.000925 0.006689 0.000000 0.048089 0.000000
# 6 0.000000 0.000000 0.000000 -0.009314 0.000000 0.023311
#
#
# Mechanical properties :
#
#
# Convention : Reuss Voigt Hill
#
# Bulk Modulus (GPa) = 83.98263 88.49227 86.23745
# Shear Modulus (GPa) = 47.98313 -9.29223 19.34545
#
# Velocity S-wave (km/s) = 4.39321 -1.93329 2.78950
# Velocity P-wave (km/s) = 7.71454 5.53270 6.71286
#
# Compressibility (1/GPa) = 0.01190722
#
# Stress axis : x y z
#
# Youngs Moduli (GPa) = 115.05409 208.78089 136.41069
#
# Poissons Ratio (x) = 0.37168 0.31290
# Poissons Ratio (y) = 0.20482 0.05162
# Poissons Ratio (z) = 0.26391 0.07900
#
# Static dielectric constant tensor:
#      x y z
#    x 1.944530 0.000000 0.023600 
#    y 0.000000 1.923790 0.000000 
#    z 0.023600 0.000000 2.121620 
# 
# From -- ./inp_files/42173.got.cif
#   From: 2010.05.17/outbox.cif.g08.bks.cpg/sg12_22_cif.got.tgz:42173.got - 2010.06.03 13:09:07.
