data_PCOD9203148
_publ_section_title
;
Structure prediction by ZEFSAII (Michael W. Deem and Ramdas Pophale) SiO2 
 PCOD9203148
Probable space group: C 2/M
;
_chemical_formula_sum "Si O2"
_cell_formula_units_Z 52
_cell_length_a 13.047682
_cell_length_b 13.436571
_cell_length_c 23.679858
_cell_angle_alpha 90.000000
_cell_angle_beta 137.827086
_cell_angle_gamma 90.000000
_cell_volume 2787.167298
_symmetry_space_group_name_H-M "C 2/M"
_symmetry_group_IT_number 12
_symmetry_cell_setting 'monoclinic'
loop_
_space_group_symop_operation_xyz
x,y,z
-x,y,-z
-x,-y,-z
x,-y,z
1/2+x,1/2+y,z
1/2-x,1/2+y,-z
1/2-x,1/2-y,-z
1/2+x,1/2-y,z
loop_
_atom_site_type_symbol
_atom_site_label
_atom_site_fract_x
_atom_site_fract_y
_atom_site_fract_z
Si Si1 0.857696 0.881560 0.485155
Si Si2 0.920472 0.000000 0.789221
Si Si3 0.179320 0.500000 0.593101
Si Si4 0.585418 0.500000 0.975974
Si Si5 0.673048 0.177216 0.924727
Si Si6 0.647127 0.310705 0.389887
Si Si7 0.941429 0.613590 0.917233
Si Si8 0.393840 0.327370 0.197349
O O1 0.731987 0.796145 0.420325
O O2 0.894974 0.848200 0.564502
O O3 0.000000 0.871876 0.500000
O O4 0.812235 0.000000 0.465909
O O5 0.008832 0.903259 0.801321
O O6 0.752452 0.000000 0.688184
O O7 0.963475 0.000000 0.873864
O O8 0.250004 0.399560 0.594606
O O9 0.000000 0.500000 0.500000
O O10 0.500000 0.500000 0.000000
O O11 0.704398 0.590296 0.024882
O O12 0.511799 0.153903 0.888484
O O13 0.648106 0.230095 0.855309
O O14 0.750000 0.250000 0.000000
O O15 0.494815 0.302382 0.291949
O O16 0.996875 0.500000 0.941434
O O17 0.761133 0.620429 0.846700
O O18 0.000000 0.662195 0.000000
#
# Coordination Sequence:
#
# PCOD9203148 Si02
#       8
#     8   4   4   4   8   8   8   8
#     4  10  21  41  69  96 128 167 203 258 329 387
#     4  10  20  41  64  92 124 162 223 271 296 376
#     4  10  20  38  68  98 127 169 218 262 319 383
#     4  12  26  43  59  90 131 169 206 265 332 369
#     4  12  24  40  62  88 126 165 213 260 312 374
#     4  10  22  41  64  96 130 163 212 262 313 389
#     4  11  21  37  62  88 118 161 215 263 303 362
#     4  11  23  39  65  93 121 166 214 263 308 363
#
# _framework density 18.656936000000002
#
# number of rings (size 3 to 8) (size 9 to 14) (size 15 to 20)
#    0.000    1.231    5.385    0.462    2.154    1.231 
#    1.385    7.692    0.000    0.000    0.000    0.000 
#    0.000    0.000    0.000    0.000    0.000    0.000 
#
# Total GULP energy -144794.566259 kJ/mol
# GULP energy per Si atom -5569.021779 kJ/mol
# Density = 1.861447 g / cm^3
# Si number density = 18.656936 Si / 1000 Ang^3
#
#
#
# Elastic Constant Matrix: (Units=GPa)
#
#
# Indices 1 2 3 4 5 6 
#
# 1 83.7082 26.2111 34.8593 0.0000 -3.6445 0.0000
# 2 26.2111 114.0370 33.9531 0.0000 -3.7846 0.0000
# 3 34.8593 33.9531 141.2151 0.0000 3.4268 0.0000
# 4 0.0000 0.0000 0.0000 20.4609 0.0000 0.5867
# 5 -3.6445 -3.7846 3.4268 0.0000 23.0187 0.0000
# 6 0.0000 0.0000 0.0000 0.5867 0.0000 25.0609
#
#
#
# Elastic Compliance Matrix: (Units=1/GPa)
#
#
# Indices 1 2 3 4 5 6 
#
# 1 0.013987 -0.002256 -0.002966 0.000000 0.002285 0.000000
# 2 -0.002256 0.009892 -0.001859 0.000000 0.001546 0.000000
# 3 -0.002966 -0.001859 0.008309 0.000000 -0.002012 0.000000
# 4 0.000000 0.000000 0.000000 0.048907 0.000000 -0.001145
# 5 0.002285 0.001546 -0.002012 0.000000 0.044359 0.000000
# 6 0.000000 0.000000 0.000000 -0.001145 0.000000 0.039930
#
#
# Mechanical properties :
#
#
# Convention : Reuss Voigt Hill
#
# Bulk Modulus (GPa) = 55.47195 58.77857 57.12526
# Shear Modulus (GPa) = 26.94621 29.97054 28.45837
#
# Velocity S-wave (km/s) = 3.80452 4.01234 3.90981
# Velocity P-wave (km/s) = 7.00688 7.28276 7.14615
#
# Compressibility (1/GPa) = 0.01802713
#
# Stress axis : x y z
#
# Youngs Moduli (GPa) = 71.49364 101.08703 120.34654
#
# Poissons Ratio (x) = 0.22806 0.35692
# Poissons Ratio (y) = 0.16129 0.22374
# Poissons Ratio (z) = 0.21204 0.18793
#
# Static dielectric constant tensor:
#      x y z
#    x 1.649560 0.000000 -0.035370 
#    y 0.000000 1.651240 0.000000 
#    z -0.035370 0.000000 1.594210 
# 
# From -- ./inp_files/305541.got.cif
#   From: 2010.05.17/outbox.cif.g08.bks.cpg/sg12_153_cif.got.tgz:305541.got - 2010.06.03 13:09:07.
