data_PCOD9203382
_publ_section_title
;
Structure prediction by ZEFSAII (Michael W. Deem and Ramdas Pophale) SiO2 
 PCOD9203382
Probable space group: C 2/M
;
_chemical_formula_sum "Si O2"
_cell_formula_units_Z 42
_cell_length_a 27.266824
_cell_length_b 12.342301
_cell_length_c 21.321493
_cell_angle_alpha 90.000000
_cell_angle_beta 165.391477
_cell_angle_gamma 90.000000
_cell_volume 1809.740462
_symmetry_space_group_name_H-M "C 2/M"
_symmetry_group_IT_number 12
_symmetry_cell_setting 'monoclinic'
loop_
_space_group_symop_operation_xyz
x,y,z
-x,y,-z
-x,-y,-z
x,-y,z
1/2+x,1/2+y,z
1/2-x,1/2+y,-z
1/2-x,1/2-y,-z
1/2+x,1/2-y,z
loop_
_atom_site_type_symbol
_atom_site_label
_atom_site_fract_x
_atom_site_fract_y
_atom_site_fract_z
Si Si1 0.169319 0.117459 0.302359
Si Si2 0.111386 0.378409 0.559722
Si Si3 0.500000 0.000000 0.000000
Si Si4 0.142279 0.308707 0.081322
Si Si5 0.430575 0.840057 0.146472
Si Si6 0.302454 0.615797 0.016831
O O1 0.263924 0.122792 0.350183
O O2 0.353265 0.117297 0.576329
O O3 0.068530 0.000000 0.183208
O O4 0.034749 0.221384 0.142316
O O5 0.139358 0.500000 0.621597
O O6 0.182121 0.272567 0.683697
O O7 0.886745 0.370954 0.261193
O O8 0.402354 0.902825 0.924163
O O9 0.155589 0.358154 0.028347
O O10 0.285377 0.878980 0.021690
O O11 0.445045 0.712179 0.178824
O O12 0.395166 0.500000 0.121077
#
# Coordination Sequence:
#
# PCOD9203382 Si02
#       6
#     8   8   2   8   8   8
#     4  10  20  39  62  88 116 154 207 260 297 349
#     4   9  18  37  66  87 119 153 203 257 304 345
#     4  12  28  40  58  86 144 160 198 234 306 384
#     4  12  23  40  59  92 124 167 196 244 305 371
#     4  10  22  38  61  89 125 157 206 247 304 359
#     4   9  20  41  63  91 118 157 201 263 301 352
#
# _framework density 23.207747000000001
#
# number of rings (size 3 to 8) (size 9 to 14) (size 15 to 20)
#    0.000    1.905    1.905    2.857    2.667    3.810 
#    1.714    1.905    2.095    1.143    0.000    0.000 
#    0.000    0.000    0.000    0.000    0.000    0.000 
#
# Total GULP energy -117152.473170 kJ/mol
# GULP energy per Si atom -5578.689199 kJ/mol
# Density = 2.315493 g / cm^3
# Si number density = 23.207747 Si / 1000 Ang^3
#
#
#
# Elastic Constant Matrix: (Units=GPa)
#
#
# Indices 1 2 3 4 5 6 
#
# 1 104.0644 38.1777 19.8102 -0.0002 -22.1411 0.0006
# 2 38.1777 198.7950 41.9269 0.0020 -5.0163 0.0033
# 3 19.8102 41.9269 47.4702 0.0068 -12.0817 0.0020
# 4 -0.0002 0.0020 0.0068 36.5129 0.0009 -12.8059
# 5 -22.1411 -5.0163 -12.0817 0.0009 24.9894 0.0017
# 6 0.0006 0.0033 0.0020 -12.8059 0.0017 -39.5992
#
#
#
# Elastic Compliance Matrix: (Units=1/GPa)
#
#
# Indices 1 2 3 4 5 6 
#
# 1 0.012734 -0.001993 -0.000894 0.000000 0.010451 0.000000
# 2 -0.001993 0.006550 -0.005779 0.000001 -0.003245 0.000000
# 3 -0.000894 -0.005779 0.029701 -0.000004 0.012408 0.000003
# 4 0.000000 0.000001 -0.000004 0.024598 -0.000002 -0.007955
# 5 0.010451 -0.003245 0.012408 -0.000002 0.054624 0.000004
# 6 0.000000 0.000000 0.000003 -0.007955 0.000004 -0.022681
#
#
# Mechanical properties :
#
#
# Convention : Reuss Voigt Hill
#
# Bulk Modulus (GPa) = 31.59306 61.12880 46.36093
# Shear Modulus (GPa) = 37.47819 21.07494 29.27656
#
# Velocity S-wave (km/s) = 4.02294 3.01674 3.55561
# Velocity P-wave (km/s) = 5.93477 6.20736 6.07259
#
# Compressibility (1/GPa) = 0.03165252
#
# Stress axis : x y z
#
# Youngs Moduli (GPa) = 78.52737 152.66862 33.66854
#
# Poissons Ratio (x) = 0.30432 0.03010
# Poissons Ratio (y) = 0.15653 0.19458
# Poissons Ratio (z) = 0.07020 0.88233
#
# Static dielectric constant tensor:
#      x y z
#    x 1.909990 0.000000 -0.037490 
#    y 0.000000 1.860020 0.000000 
#    z -0.037490 0.000000 1.838910 
# 
# From -- ./inp_files/327873.got.cif
#   From: 2010.05.17/outbox.cif.g08.bks.cpg/sg12_164_cif.got.tgz:327873.got - 2010.06.03 13:09:07.
