data_PCOD9203087
_publ_section_title
;
Structure prediction by ZEFSAII (Michael W. Deem and Ramdas Pophale) SiO2 
 PCOD9203087
Probable space group: C 2/M
;
_chemical_formula_sum "Si O2"
_cell_formula_units_Z 60
_cell_length_a 14.857009
_cell_length_b 9.374206
_cell_length_c 23.380993
_cell_angle_alpha 90.000000
_cell_angle_beta 66.278557
_cell_angle_gamma 90.000000
_cell_volume 2981.212406
_symmetry_space_group_name_H-M "C 2/M"
_symmetry_group_IT_number 12
_symmetry_cell_setting 'monoclinic'
loop_
_space_group_symop_operation_xyz
x,y,z
-x,y,-z
-x,-y,-z
x,-y,z
1/2+x,1/2+y,z
1/2-x,1/2+y,-z
1/2-x,1/2-y,-z
1/2+x,1/2-y,z
loop_
_atom_site_type_symbol
_atom_site_label
_atom_site_fract_x
_atom_site_fract_y
_atom_site_fract_z
Si Si1 0.000000 0.228484 0.000000
Si Si2 0.725452 0.833159 0.768155
Si Si3 0.584728 0.164527 0.320494
Si Si4 0.796894 0.840556 0.115913
Si Si5 0.158285 0.333551 0.050026
Si Si6 0.889603 0.662363 0.316610
Si Si7 0.421914 0.336180 0.570555
Si Si8 0.257478 0.328936 0.436874
O O1 0.899182 0.161940 0.052823
O O2 0.055789 0.295560 0.043115
O O3 0.816704 0.739387 0.724140
O O4 0.692542 0.776050 0.837754
O O5 0.646474 0.813893 0.738129
O O6 0.750995 0.000000 0.764485
O O7 0.506163 0.167028 0.290198
O O8 0.539443 0.260298 0.382746
O O9 0.599183 0.000000 0.334701
O O10 0.693707 0.815354 0.107432
O O11 0.789318 0.000000 0.142545
O O12 0.171543 0.500000 0.034972
O O13 0.250000 0.250000 0.000000
O O14 0.859284 0.500000 0.341642
O O15 0.843714 0.771326 0.373847
O O16 0.500000 0.341721 0.500000
O O17 0.389369 0.500000 0.590022
O O18 0.336730 0.230411 0.572568
O O19 0.260354 0.500000 0.443110
O O20 0.250000 0.250000 0.500000
#
# Coordination Sequence:
#
# PCOD9203087 Si02
#       8
#     4   8   8   8   8   8   8   8
#     4  10  20  38  66  96 126 166 212 262 314 376
#     4  11  24  43  65  90 126 171 214 264 319 381
#     4  11  23  41  65  91 120 161 207 260 319 380
#     4  10  22  40  62  91 128 166 210 261 317 378
#     4   9  19  35  58  88 123 162 202 253 308 367
#     4  10  23  43  65  90 125 164 210 266 325 384
#     4  11  23  39  60  89 125 163 205 257 316 380
#     4  12  24  38  61  91 126 166 211 265 324 385
#
# _framework density 20.126038999999999
#
# number of rings (size 3 to 8) (size 9 to 14) (size 15 to 20)
#    0.000    1.467    1.333    3.600    0.000    9.067 
#    0.000    4.000    0.000    0.000    0.000    0.000 
#    0.000    0.000    0.000    0.000    0.000    0.000 
#
# Total GULP energy -167003.943318 kJ/mol
# GULP energy per Si atom -5566.798111 kJ/mol
# Density = 2.008023 g / cm^3
# Si number density = 20.126039 Si / 1000 Ang^3
#
#
#
# Elastic Constant Matrix: (Units=GPa)
#
#
# Indices 1 2 3 4 5 6 
#
# 1 139.7670 46.1232 18.5353 0.0000 29.7254 0.0000
# 2 46.1232 126.6486 43.1888 0.0000 29.4547 0.0000
# 3 18.5353 43.1888 56.1942 0.0000 15.9492 0.0000
# 4 0.0000 0.0000 0.0000 27.8549 0.0000 4.1087
# 5 29.7254 29.4547 15.9492 0.0000 12.7397 0.0000
# 6 0.0000 0.0000 0.0000 4.1087 0.0000 21.2399
#
#
#
# Elastic Compliance Matrix: (Units=1/GPa)
#
#
# Indices 1 2 3 4 5 6 
#
# 1 0.018429 0.006207 0.008421 0.000000 -0.067894 0.000000
# 2 0.006207 0.019498 -0.000198 0.000000 -0.059315 0.000000
# 3 0.008421 -0.000198 0.031980 0.000000 -0.059228 0.000000
# 4 0.000000 0.000000 0.000000 0.036955 0.000000 -0.007149
# 5 -0.067894 -0.059315 -0.059228 0.000000 0.448199 0.000000
# 6 0.000000 0.000000 0.000000 -0.007149 0.000000 0.048464
#
#
# Mechanical properties :
#
#
# Convention : Reuss Voigt Hill
#
# Bulk Modulus (GPa) = 10.12483 59.81160 34.96822
# Shear Modulus (GPa) = 8.22927 26.68440 17.45683
#
# Velocity S-wave (km/s) = 2.02429 3.64519 2.94832
# Velocity P-wave (km/s) = 3.24119 6.89200 5.38539
#
# Compressibility (1/GPa) = 0.09876705
#
# Stress axis : x y z
#
# Youngs Moduli (GPa) = 54.26152 51.28825 31.26936
#
# Poissons Ratio (x) = -0.31834 -0.26331
# Poissons Ratio (y) = -0.33679 0.00618
# Poissons Ratio (z) = -0.45692 0.01013
#
# Static dielectric constant tensor:
#      x y z
#    x 1.767990 0.000000 0.052230 
#    y 0.000000 1.698810 0.000000 
#    z 0.052230 0.000000 1.791090 
# 
# From -- ./inp_files/338622.got.cif
#   From: 2010.05.17/outbox.cif.g08.bks.cpg/sg12_170_cif.got.tgz:338622.got - 2010.06.03 13:09:07.
