data_PCOD9203462
_publ_section_title
;
Structure prediction by ZEFSAII (Michael W. Deem and Ramdas Pophale) SiO2 
 PCOD9203462
Probable space group: C 2/M
;
_chemical_formula_sum "Si O2"
_cell_formula_units_Z 42
_cell_length_a 8.938968
_cell_length_b 14.883611
_cell_length_c 17.305946
_cell_angle_alpha 90.000000
_cell_angle_beta 115.634966
_cell_angle_gamma 90.000000
_cell_volume 2075.820747
_symmetry_space_group_name_H-M "C 2/M"
_symmetry_group_IT_number 12
_symmetry_cell_setting 'monoclinic'
loop_
_space_group_symop_operation_xyz
x,y,z
-x,y,-z
-x,-y,-z
x,-y,z
1/2+x,1/2+y,z
1/2-x,1/2+y,-z
1/2-x,1/2-y,-z
1/2+x,1/2-y,z
loop_
_atom_site_type_symbol
_atom_site_label
_atom_site_fract_x
_atom_site_fract_y
_atom_site_fract_z
Si Si1 0.000000 0.500000 0.500000
Si Si2 0.266973 0.156009 0.402168
Si Si3 0.850397 0.000000 0.905935
Si Si4 0.752671 0.148146 0.217188
Si Si5 0.074311 0.152717 0.591979
Si Si6 0.388503 0.347622 0.787502
Si Si7 0.010699 0.500000 0.094962
O O1 0.858775 0.579909 0.470283
O O2 0.351870 0.252629 0.419222
O O3 0.237681 0.121008 0.308487
O O4 0.086496 0.173767 0.394155
O O5 0.870417 0.086819 0.855580
O O6 0.672223 0.000000 0.908323
O O7 0.000000 0.000000 0.000000
O O8 0.799268 0.115004 0.315186
O O9 0.673105 0.247118 0.207182
O O10 0.618074 0.084590 0.147984
O O11 0.923505 0.150152 0.204953
O O12 0.000000 0.103699 0.500000
O O13 0.000000 0.500000 0.000000
#
# Coordination Sequence:
#
# PCOD9203462 Si02
#       7
#     2   8   4   8   8   8   4
#     4  12  22  34  52  86 118 162 210 258 316 346
#     4  10  22  37  61  84 124 167 213 260 311 365
#     4  12  25  43  69  96 126 166 210 265 326 388
#     4  10  22  41  68  94 130 172 213 267 323 380
#     4  10  20  39  63  87 123 170 216 255 307 370
#     4  10  21  42  64  94 128 168 215 263 322 380
#     4  12  26  46  67  98 130 164 209 267 324 394
#
# _framework density 20.232962000000001
#
# number of rings (size 3 to 8) (size 9 to 14) (size 15 to 20)
#    0.000    1.524    0.952    4.000    0.000    4.571 
#    3.429    4.762    0.000    0.000    0.000    0.000 
#    0.000    0.000    0.000    0.000    0.000    0.000 
#
# Total GULP energy -116926.099980 kJ/mol
# GULP energy per Si atom -5567.909523 kJ/mol
# Density = 2.018691 g / cm^3
# Si number density = 20.232962 Si / 1000 Ang^3
#
#
#
# Elastic Constant Matrix: (Units=GPa)
#
#
# Indices 1 2 3 4 5 6 
#
# 1 103.0782 20.3978 42.7286 0.0000 6.5082 0.0000
# 2 20.3978 74.2568 25.5098 0.0000 -2.9420 0.0000
# 3 42.7286 25.5098 152.3085 0.0000 -8.2525 0.0000
# 4 0.0000 0.0000 0.0000 197.5025 0.0000 114.4245
# 5 6.5082 -2.9420 -8.2525 0.0000 32.0530 0.0000
# 6 0.0000 0.0000 0.0000 114.4245 0.0000 92.5136
#
#
#
# Elastic Compliance Matrix: (Units=1/GPa)
#
#
# Indices 1 2 3 4 5 6 
#
# 1 0.011634 -0.002276 -0.003065 0.000000 -0.003360 0.000000
# 2 -0.002276 0.014750 -0.001758 0.000000 0.001363 0.000000
# 3 -0.003065 -0.001758 0.007854 0.000000 0.002483 0.000000
# 4 0.000000 0.000000 0.000000 0.017864 0.000000 -0.022095
# 5 -0.003360 0.001363 0.002483 0.000000 0.032645 0.000000
# 6 0.000000 0.000000 0.000000 -0.022095 0.000000 0.038137
#
#
# Mechanical properties :
#
#
# Convention : Reuss Voigt Hill
#
# Bulk Modulus (GPa) = 49.89795 56.32399 53.11097
# Shear Modulus (GPa) = 34.77929 80.48097 57.63013
#
# Velocity S-wave (km/s) = 4.15051 6.31376 5.34276
# Velocity P-wave (km/s) = 6.90538 9.00275 8.02290
#
# Compressibility (1/GPa) = 0.02004090
#
# Stress axis : x y z
#
# Youngs Moduli (GPa) = 85.95220 67.79667 127.31728
#
# Poissons Ratio (x) = 0.15432 0.39019
# Poissons Ratio (y) = 0.19564 0.22383
# Poissons Ratio (z) = 0.26342 0.11919
#
# Static dielectric constant tensor:
#      x y z
#    x 1.695270 0.000000 -0.009860 
#    y 0.000000 1.701920 0.000000 
#    z -0.009860 0.000000 1.796320 
# 
# From -- ./inp_files/255908.got.cif
#   From: 2010.05.17/outbox.cif.g08.bks.cpg/sg12_128_cif.got.tgz:255908.got - 2010.06.03 13:09:07.
