data_PCOD9203282
_publ_section_title
;
Structure prediction by ZEFSAII (Michael W. Deem and Ramdas Pophale) SiO2 
 PCOD9203282
Probable space group: C 2/M
;
_chemical_formula_sum "Si O2"
_cell_formula_units_Z 64
_cell_length_a 20.561709
_cell_length_b 8.534422
_cell_length_c 32.065993
_cell_angle_alpha 90.000000
_cell_angle_beta 36.879610
_cell_angle_gamma 90.000000
_cell_volume 3376.971585
_symmetry_space_group_name_H-M "C 2/M"
_symmetry_group_IT_number 12
_symmetry_cell_setting 'monoclinic'
loop_
_space_group_symop_operation_xyz
x,y,z
-x,y,-z
-x,-y,-z
x,-y,z
1/2+x,1/2+y,z
1/2-x,1/2+y,-z
1/2-x,1/2-y,-z
1/2+x,1/2-y,z
loop_
_atom_site_type_symbol
_atom_site_label
_atom_site_fract_x
_atom_site_fract_y
_atom_site_fract_z
Si Si1 0.791744 0.310745 0.155921
Si Si2 0.173224 0.690769 0.417956
Si Si3 0.433344 0.814845 0.848185
Si Si4 0.018481 0.310887 0.423290
Si Si5 0.798724 0.313116 0.054361
Si Si6 0.057826 0.188797 0.310949
Si Si7 0.997508 0.184647 0.100175
Si Si8 0.579749 0.309767 0.697791
O O1 0.798739 0.500000 0.155075
O O2 0.795566 0.270501 0.104968
O O3 0.677030 0.260765 0.234356
O O4 0.891603 0.237766 0.129367
O O5 0.174072 0.500000 0.417607
O O6 0.116571 0.739023 0.403655
O O7 0.296288 0.743035 0.360284
O O8 0.092436 0.738907 0.496659
O O9 0.316288 0.732351 0.906415
O O10 0.491898 0.771809 0.861211
O O11 0.504648 0.754782 0.773032
O O12 0.417377 0.000000 0.853438
O O13 0.018848 0.500000 0.422088
O O14 0.031369 0.249178 0.370325
O O15 0.814753 0.500000 0.042844
O O16 0.896993 0.228482 0.980959
O O17 0.970968 0.237923 0.320541
O O18 0.058037 0.000000 0.311691
O O19 0.994112 0.000000 0.109599
O O20 0.576875 0.500000 0.701368
#
# Coordination Sequence:
#
# PCOD9203282 Si02
#       8
#     8   8   8   8   8   8   8   8
#     4  10  22  41  61  86 121 159 197 244 300 355
#     4   8  17  35  60  85 116 153 197 242 290 347
#     4  12  25  41  61  89 122 156 198 250 298 353
#     4   9  18  35  58  88 118 152 195 245 291 343
#     4  11  22  43  68  88 118 159 197 242 299 358
#     4  10  21  37  57  84 119 156 194 241 296 351
#     4  12  26  41  61  90 120 155 200 248 298 356
#     4  10  20  39  61  83 114 161 203 240 294 356
#
# _framework density 18.951891
#
# number of rings (size 3 to 8) (size 9 to 14) (size 15 to 20)
#    0.000    1.750    1.250    4.125    1.750    4.000 
#    0.000    1.875    0.000    0.000    0.000    0.000 
#    0.000    0.000    0.000    0.000    0.000    0.000 
#
# Total GULP energy -178827.689073 kJ/mol
# GULP energy per Si atom -5588.365284 kJ/mol
# Density = 1.890876 g / cm^3
# Si number density = 18.951891 Si / 1000 Ang^3
#
#
#
# Elastic Constant Matrix: (Units=GPa)
#
#
# Indices 1 2 3 4 5 6 
#
# 1 73.3424 19.2862 26.9636 0.0025 -5.5010 0.0194
# 2 19.2862 2.7759 20.4270 0.0127 4.4963 0.0062
# 3 26.9636 20.4270 81.4204 0.0022 -2.8276 -0.0004
# 4 0.0025 0.0127 0.0022 22.4836 0.0003 14.6078
# 5 -5.5010 4.4963 -2.8276 0.0003 42.4068 0.0002
# 6 0.0194 0.0062 -0.0004 14.6078 0.0002 21.8996
#
#
#
# Elastic Compliance Matrix: (Units=1/GPa)
#
#
# Indices 1 2 3 4 5 6 
#
# 1 0.008252 0.036116 -0.011917 -0.000015 -0.003553 -0.000007
# 2 0.036116 -0.176455 0.033198 0.000142 0.025608 -0.000077
# 3 -0.011917 0.033198 0.007742 -0.000034 -0.004550 0.000024
# 4 -0.000015 0.000142 -0.000034 0.078495 -0.000020 -0.052359
# 5 -0.003553 0.025608 -0.004550 -0.000020 0.020102 0.000009
# 6 -0.000007 -0.000077 0.000024 -0.052359 0.000009 0.080588
#
#
# Mechanical properties :
#
#
# Convention : Reuss Voigt Hill
#
# Bulk Modulus (GPa) = -21.89809 32.32136 5.21163
# Shear Modulus (GPa) = -44.92640 23.41546 -10.75547
#
# Velocity S-wave (km/s) = -4.87411 3.51881 -2.38484
# Velocity P-wave (km/s) = 6.57690 5.79662 2.19713
#
# Compressibility (1/GPa) = -0.04566607
#
# Stress axis : x y z
#
# Youngs Moduli (GPa) = 121.17918 -5.66718 129.17227
#
# Poissons Ratio (x) = 0.20468 1.53937
# Poissons Ratio (y) = -4.37654 -4.28831
# Poissons Ratio (z) = 1.44412 0.18814
#
# Static dielectric constant tensor:
#      x y z
#    x 1.634130 0.000000 -0.006800 
#    y 0.000000 1.645560 0.000000 
#    z -0.006800 0.000000 1.627420 
# 
# From -- ./inp_files/378235.got.cif
#   From: 2010.05.17/outbox.cif.g08.bks.cpg/sg12_190_cif.got.tgz:378235.got - 2010.06.03 13:09:07.
