data_PCOD9203587
_publ_section_title
;
Structure prediction by ZEFSAII (Michael W. Deem and Ramdas Pophale) SiO2 
 PCOD9203587
Probable space group: C 2/M
;
_chemical_formula_sum "Si O2"
_cell_formula_units_Z 64
_cell_length_a 12.133526
_cell_length_b 14.048052
_cell_length_c 26.162390
_cell_angle_alpha 90.000000
_cell_angle_beta 134.387299
_cell_angle_gamma 90.000000
_cell_volume 3186.841241
_symmetry_space_group_name_H-M "C 2/M"
_symmetry_group_IT_number 12
_symmetry_cell_setting 'monoclinic'
loop_
_space_group_symop_operation_xyz
x,y,z
-x,y,-z
-x,-y,-z
x,-y,z
1/2+x,1/2+y,z
1/2-x,1/2+y,-z
1/2-x,1/2-y,-z
1/2+x,1/2-y,z
loop_
_atom_site_type_symbol
_atom_site_label
_atom_site_fract_x
_atom_site_fract_y
_atom_site_fract_z
Si Si1 0.825333 0.796424 0.698132
Si Si2 0.401939 0.107432 0.301401
Si Si3 0.527988 0.887948 0.238726
Si Si4 0.749252 0.892224 0.458625
Si Si5 0.855340 0.296674 0.988031
Si Si6 0.939293 0.611417 0.863217
Si Si7 0.172247 0.319088 0.544040
Si Si8 0.654821 0.615644 0.832061
O O1 0.697406 0.822982 0.697467
O O2 0.778414 0.834756 0.627661
O O3 0.837478 0.682404 0.700741
O O4 0.987685 0.840377 0.768340
O O5 0.398607 0.127104 0.239752
O O6 0.578219 0.110761 0.377975
O O7 0.344521 0.000000 0.291309
O O8 0.492427 0.857374 0.169126
O O9 0.565953 0.000000 0.253724
O O10 0.831673 0.795490 0.466855
O O11 0.731485 0.873331 0.513395
O O12 0.810047 0.000000 0.468835
O O13 0.737562 0.343778 0.909759
O O14 0.750000 0.250000 0.000000
O O15 0.000000 0.250083 0.000000
O O16 0.953026 0.369842 0.053783
O O17 0.922148 0.500000 0.851721
O O18 0.769363 0.646819 0.822978
O O19 0.000000 0.352010 0.500000
O O20 0.647385 0.500000 0.832164
#
# Coordination Sequence:
#
# PCOD9203587 Si02
#       8
#     8   8   8   8   8   8   8   8
#     4  12  23  37  64  90 127 159 207 261 311 373
#     4  10  21  39  61  85 120 164 201 249 319 380
#     4  10  22  39  60  88 122 164 207 250 312 374
#     4  10  22  41  62  85 117 155 202 254 316 380
#     4  10  20  39  64  92 125 168 214 259 316 378
#     4   9  19  38  63  88 121 162 207 251 302 368
#     4  11  23  40  61  88 117 157 207 257 311 375
#     4  10  22  39  62  96 129 162 209 265 315 366
#
# _framework density 20.082583
#
# number of rings (size 3 to 8) (size 9 to 14) (size 15 to 20)
#    0.000    1.750    2.500    1.500    1.750    3.000 
#    2.250    0.000    0.000    0.750    0.000    0.000 
#    0.000    0.000    0.000    0.000    0.000    0.000 
#
# Total GULP energy -178231.004619 kJ/mol
# GULP energy per Si atom -5569.718894 kJ/mol
# Density = 2.003687 g / cm^3
# Si number density = 20.082583 Si / 1000 Ang^3
#
#
#
# Elastic Constant Matrix: (Units=GPa)
#
#
# Indices 1 2 3 4 5 6 
#
# 1 106.0813 31.1480 36.0540 0.0000 -25.4342 0.0000
# 2 31.1480 68.9815 7.2300 0.0000 -1.8944 0.0000
# 3 36.0540 7.2300 102.3891 0.0000 -22.5150 0.0000
# 4 0.0000 0.0000 0.0000 18.8808 0.0000 0.2537
# 5 -25.4342 -1.8944 -22.5150 0.0000 29.8652 0.0000
# 6 0.0000 0.0000 0.0000 0.2537 0.0000 23.2000
#
#
#
# Elastic Compliance Matrix: (Units=1/GPa)
#
#
# Indices 1 2 3 4 5 6 
#
# 1 0.014427 -0.005982 -0.002445 0.000000 0.010064 0.000000
# 2 -0.005982 0.017086 0.000022 0.000000 -0.003994 0.000000
# 3 -0.002445 0.000022 0.012189 0.000000 0.007109 0.000000
# 4 0.000000 0.000000 0.000000 0.052972 0.000000 -0.000579
# 5 0.010064 -0.003994 0.007109 0.000000 0.047160 0.000000
# 6 0.000000 0.000000 0.000000 -0.000579 0.000000 0.043110
#
#
# Mechanical properties :
#
#
# Convention : Reuss Voigt Hill
#
# Bulk Modulus (GPa) = 37.18573 47.36842 42.27708
# Shear Modulus (GPa) = 23.50537 27.92387 25.71462
#
# Velocity S-wave (km/s) = 3.42487 3.73292 3.58221
# Velocity P-wave (km/s) = 5.84776 6.49751 6.18118
#
# Compressibility (1/GPa) = 0.02689203
#
# Stress axis : x y z
#
# Youngs Moduli (GPa) = 69.31466 58.52849 82.04015
#
# Poissons Ratio (x) = 0.35010 0.20056
# Poissons Ratio (y) = 0.41462 -0.00177
# Poissons Ratio (z) = 0.16945 -0.00126
#
# Static dielectric constant tensor:
#      x y z
#    x 1.774550 0.000000 -0.020910 
#    y 0.000000 1.749080 0.000000 
#    z -0.020910 0.000000 1.691600 
# 
# From -- ./inp_files/358489.got.cif
#   From: 2010.05.17/outbox.cif.g08.bks.cpg/sg12_180_cif.got.tgz:358489.got - 2010.06.03 13:09:07.
