data_PCOD9203741
_publ_section_title
;
Structure prediction by ZEFSAII (Michael W. Deem and Ramdas Pophale) SiO2 
 PCOD9203741
Probable space group: C 2/M
;
_chemical_formula_sum "Si O2"
_cell_formula_units_Z 42
_cell_length_a 9.644809
_cell_length_b 16.910074
_cell_length_c 13.593082
_cell_angle_alpha 90.000000
_cell_angle_beta 57.387466
_cell_angle_gamma 90.000000
_cell_volume 1867.418570
_symmetry_space_group_name_H-M "C 2/M"
_symmetry_group_IT_number 12
_symmetry_cell_setting 'monoclinic'
loop_
_space_group_symop_operation_xyz
x,y,z
-x,y,-z
-x,-y,-z
x,-y,z
1/2+x,1/2+y,z
1/2-x,1/2+y,-z
1/2-x,1/2-y,-z
1/2+x,1/2-y,z
loop_
_atom_site_type_symbol
_atom_site_label
_atom_site_fract_x
_atom_site_fract_y
_atom_site_fract_z
Si Si1 0.136414 0.092834 0.271313
Si Si2 0.220912 0.136992 0.810478
Si Si3 0.819481 0.706634 0.069909
Si Si4 0.577072 0.094667 0.680990
Si Si5 0.500000 0.500000 0.000000
Si Si6 0.732753 0.595062 0.579259
O O1 0.184906 0.144521 0.159021
O O2 0.275266 0.106813 0.299517
O O3 0.955255 0.111390 0.380606
O O4 0.136744 0.000000 0.244318
O O5 0.156328 0.223225 0.860608
O O6 0.406738 0.131134 0.781178
O O7 0.243842 0.125428 0.685459
O O8 0.107785 0.069472 0.900678
O O9 0.750000 0.750000 0.000000
O O10 0.000000 0.666702 0.000000
O O11 0.638893 0.124452 0.550921
O O12 0.549301 0.000000 0.683931
O O13 0.753223 0.500000 0.575426
#
# Coordination Sequence:
#
# PCOD9203741 Si02
#       6
#     8   8   8   8   2   8
#     4  10  23  42  64  92 124 167 214 255 320 385
#     4  12  23  40  65  95 127 166 216 258 315 371
#     4  12  26  44  61  89 131 169 210 267 313 370
#     4  10  20  39  66  96 128 163 210 265 313 377
#     4  12  24  40  66  94 134 168 216 252 304 388
#     4  10  20  39  66  96 127 164 210 263 318 374
#
# _framework density 22.490939999999998
#
# number of rings (size 3 to 8) (size 9 to 14) (size 15 to 20)
#    0.000    1.143    2.857    3.429    0.000    4.190 
#    0.000    5.714    0.000    0.000    0.000    0.000 
#    0.000    0.000    0.000    0.000    0.000    0.000 
#
# Total GULP energy -117241.146404 kJ/mol
# GULP energy per Si atom -5582.911734 kJ/mol
# Density = 2.243975 g / cm^3
# Si number density = 22.490940 Si / 1000 Ang^3
#
#
#
# Elastic Constant Matrix: (Units=GPa)
#
#
# Indices 1 2 3 4 5 6 
#
# 1 67.8626 5.8459 20.0965 0.0000 -8.8740 0.0000
# 2 5.8459 40.6559 33.2989 0.0000 -6.0698 0.0000
# 3 20.0965 33.2989 116.8864 0.0000 -1.7227 0.0000
# 4 0.0000 0.0000 0.0000 14.6655 0.0000 1.9797
# 5 -8.8740 -6.0698 -1.7227 0.0000 16.3951 0.0000
# 6 0.0000 0.0000 0.0000 1.9797 0.0000 22.3534
#
#
#
# Elastic Compliance Matrix: (Units=1/GPa)
#
#
# Indices 1 2 3 4 5 6 
#
# 1 0.016766 0.001605 -0.003202 0.000000 0.009333 0.000000
# 2 0.001605 0.034320 -0.009869 0.000000 0.012538 0.000000
# 3 -0.003202 -0.009869 0.011856 0.000000 -0.004141 0.000000
# 4 0.000000 0.000000 0.000000 0.069012 0.000000 -0.006112
# 5 0.009333 0.012538 -0.004141 0.000000 0.070252 0.000000
# 6 0.000000 0.000000 0.000000 -0.006112 0.000000 0.045277
#
#
# Mechanical properties :
#
#
# Convention : Reuss Voigt Hill
#
# Bulk Modulus (GPa) = 24.99264 38.20973 31.60119
# Shear Modulus (GPa) = 17.62099 21.76038 19.69069
#
# Velocity S-wave (km/s) = 2.80209 3.11387 2.96208
# Velocity P-wave (km/s) = 4.64816 5.47303 5.07737
#
# Compressibility (1/GPa) = 0.04001178
#
# Stress axis : x y z
#
# Youngs Moduli (GPa) = 59.64426 29.13713 84.34368
#
# Poissons Ratio (x) = -0.04678 0.27011
# Poissons Ratio (y) = -0.09576 0.83235
# Poissons Ratio (z) = 0.19101 0.28754
#
# Static dielectric constant tensor:
#      x y z
#    x 1.906820 0.000000 0.007530 
#    y 0.000000 1.787610 0.000000 
#    z 0.007530 0.000000 1.831880 
# 
# From -- ./inp_files/184755.got.cif
#   From: 2010.05.17/outbox.cif.g08.bks.cpg/sg12_93_cif.got.tgz:184755.got - 2010.06.03 13:09:07.
