data_PCOD9203349
_publ_section_title
;
Structure prediction by ZEFSAII (Michael W. Deem and Ramdas Pophale) SiO2 
 PCOD9203349
Probable space group: C 2/M
;
_chemical_formula_sum "Si O2"
_cell_formula_units_Z 64
_cell_length_a 30.326541
_cell_length_b 8.125275
_cell_length_c 12.276118
_cell_angle_alpha 90.000000
_cell_angle_beta 93.237581
_cell_angle_gamma 90.000000
_cell_volume 3020.148414
_symmetry_space_group_name_H-M "C 2/M"
_symmetry_group_IT_number 12
_symmetry_cell_setting 'monoclinic'
loop_
_space_group_symop_operation_xyz
x,y,z
-x,y,-z
-x,-y,-z
x,-y,z
1/2+x,1/2+y,z
1/2-x,1/2+y,-z
1/2-x,1/2-y,-z
1/2+x,1/2-y,z
loop_
_atom_site_type_symbol
_atom_site_label
_atom_site_fract_x
_atom_site_fract_y
_atom_site_fract_z
Si Si1 0.343208 0.308526 0.062545
Si Si2 0.082341 0.196727 0.758018
Si Si3 0.330590 0.190156 0.830308
Si Si4 0.391367 0.801419 0.478004
Si Si5 0.232593 0.308015 0.811994
Si Si6 0.291634 0.198346 0.433416
Si Si7 0.584342 0.798527 0.285838
Si Si8 0.004207 0.697347 0.124673
O O1 0.351947 0.500000 0.040142
O O2 0.375227 0.251888 0.164123
O O3 0.293359 0.287803 0.098212
O O4 0.349966 0.206365 0.954294
O O5 0.088448 0.250536 0.634471
O O6 0.039346 0.265882 0.811706
O O7 0.080247 0.000000 0.760232
O O8 0.284945 0.286825 0.822112
O O9 0.367799 0.250578 0.753037
O O10 0.320609 0.000000 0.803733
O O11 0.340124 0.744319 0.477700
O O12 0.418125 0.746317 0.588655
O O13 0.390449 0.000000 0.479986
O O14 0.221242 0.500000 0.822409
O O15 0.216167 0.247023 0.691899
O O16 0.250000 0.250000 0.500000
O O17 0.292276 0.000000 0.433516
O O18 0.546121 0.739279 0.199509
O O19 0.583256 0.000000 0.283272
O O20 0.009321 0.500000 0.117252
O O21 0.000000 0.761614 0.000000
#
# Coordination Sequence:
#
# PCOD9203349 Si02
#       8
#     8   8   8   8   8   8   8   8
#     4  11  23  39  58  83 118 157 200 247 297 357
#     4  11  24  40  61  90 122 158 198 248 307 358
#     4  11  22  38  61  87 119 156 197 247 302 356
#     4  10  20  39  62  85 117 157 203 247 293 355
#     4  11  22  37  56  84 118 155 202 245 297 358
#     4  10  21  35  56  83 115 158 203 250 299 352
#     4   9  20  38  62  90 117 152 199 247 295 351
#     4  10  21  40  66  93 120 155 200 246 296 361
#
# _framework density 21.191012000000001
#
# number of rings (size 3 to 8) (size 9 to 14) (size 15 to 20)
#    0.000    1.625    1.250    3.375    0.000    5.750 
#    0.000    5.625    0.000    0.000    0.000    0.000 
#    0.000    0.000    0.000    0.000    0.000    0.000 
#
# Total GULP energy -178872.400877 kJ/mol
# GULP energy per Si atom -5589.762527 kJ/mol
# Density = 2.114278 g / cm^3
# Si number density = 21.191012 Si / 1000 Ang^3
#
#
#
# Elastic Constant Matrix: (Units=GPa)
#
#
# Indices 1 2 3 4 5 6 
#
# 1 75.6303 -6.4237 38.1897 0.0000 2.2308 0.0000
# 2 -6.4237 14.5171 -2.1217 0.0000 7.0493 0.0000
# 3 38.1897 -2.1217 133.5439 0.0000 12.2540 0.0000
# 4 0.0000 0.0000 0.0000 17.7318 0.0000 -3.8992
# 5 2.2308 7.0493 12.2540 0.0000 35.3452 0.0000
# 6 0.0000 0.0000 0.0000 -3.8992 0.0000 19.2271
#
#
#
# Elastic Compliance Matrix: (Units=1/GPa)
#
#
# Indices 1 2 3 4 5 6 
#
# 1 0.016055 0.006878 -0.004403 0.000000 -0.000858 0.000000
# 2 0.006878 0.080167 0.000841 0.000000 -0.016714 0.000000
# 3 -0.004403 0.000841 0.009038 0.000000 -0.003023 0.000000
# 4 0.000000 0.000000 0.000000 0.059028 0.000000 0.011971
# 5 -0.000858 -0.016714 -0.003023 0.000000 0.032728 0.000000
# 6 0.000000 0.000000 0.000000 0.011971 0.000000 0.054438
#
#
# Mechanical properties :
#
#
# Convention : Reuss Voigt Hill
#
# Bulk Modulus (GPa) = 8.93737 31.44221 20.18979
# Shear Modulus (GPa) = 17.72289 27.39727 22.56008
#
# Velocity S-wave (km/s) = 2.89509 3.59955 3.26637
# Velocity P-wave (km/s) = 3.92455 5.66970 4.87584
#
# Compressibility (1/GPa) = 0.11188973
#
# Stress axis : x y z
#
# Youngs Moduli (GPa) = 62.28538 12.47400 110.64208
#
# Poissons Ratio (x) = -0.08579 0.48719
# Poissons Ratio (y) = -0.42837 -0.09300
# Poissons Ratio (z) = 0.27426 -0.01049
#
# Static dielectric constant tensor:
#      x y z
#    x 1.752600 0.000000 0.028860 
#    y 0.000000 1.743210 0.000000 
#    z 0.028860 0.000000 1.765610 
# 
# From -- ./inp_files/187501.got.cif
#   From: 2010.05.17/outbox.cif.g08.bks.cpg/sg12_94_cif.got.tgz:187501.got - 2010.06.03 13:09:07.
