data_PCOD9203716
_publ_section_title
;
Structure prediction by ZEFSAII (Michael W. Deem and Ramdas Pophale) SiO2 
 PCOD9203716
Probable space group: C 2/M
;
_chemical_formula_sum "Si O2"
_cell_formula_units_Z 58
_cell_length_a 7.793322
_cell_length_b 25.647818
_cell_length_c 19.961109
_cell_angle_alpha 90.000000
_cell_angle_beta 143.643621
_cell_angle_gamma 90.000000
_cell_volume 2365.212935
_symmetry_space_group_name_H-M "C 2/M"
_symmetry_group_IT_number 12
_symmetry_cell_setting 'monoclinic'
loop_
_space_group_symop_operation_xyz
x,y,z
-x,y,-z
-x,-y,-z
x,-y,z
1/2+x,1/2+y,z
1/2-x,1/2+y,-z
1/2-x,1/2-y,-z
1/2+x,1/2-y,z
loop_
_atom_site_type_symbol
_atom_site_label
_atom_site_fract_x
_atom_site_fract_y
_atom_site_fract_z
Si Si1 0.299535 0.642987 0.056949
Si Si2 0.260911 0.441250 0.780346
Si Si3 0.968269 0.916793 0.667922
Si Si4 0.113499 0.558377 0.893598
Si Si5 0.229092 0.880796 0.620372
Si Si6 0.000000 0.500000 0.500000
Si Si7 0.641951 0.205085 0.754081
Si Si8 0.754735 0.302877 0.367125
O O1 0.487345 0.599588 0.156520
O O2 0.530050 0.690291 0.121806
O O3 0.771036 0.609274 0.031529
O O4 0.000000 0.656629 0.000000
O O5 0.322683 0.500000 0.781125
O O6 0.203675 0.440101 0.843614
O O7 0.959956 0.418706 0.658203
O O8 0.708491 0.954999 0.597869
O O9 0.879507 0.858363 0.657420
O O10 0.269672 0.936878 0.791883
O O11 0.043257 0.915149 0.612372
O O12 0.199531 0.500000 0.946216
O O13 0.423238 0.837088 0.717980
O O14 0.000000 0.854252 0.500000
O O15 0.507546 0.261536 0.722106
O O16 0.613037 0.195166 0.665401
O O17 0.000000 0.289496 0.500000
#
# Coordination Sequence:
#
# PCOD9203716 Si02
#       8
#     8   8   8   8   8   2   8   8
#     4  11  23  41  60  90 131 168 217 289 342 394
#     4   9  20  37  59  90 125 177 238 278 332 409
#     4  11  23  42  67 102 145 186 226 276 340 413
#     4  10  20  39  66  90 128 184 234 277 332 407
#     4  10  21  39  62  95 139 180 223 279 341 409
#     4  12  24  44  66 108 156 176 240 270 338 412
#     4  11  25  44  68 103 135 171 237 286 341 415
#     4  12  23  43  74 102 137 180 220 282 348 411
#
# _framework density 24.522105
#
# number of rings (size 3 to 8) (size 9 to 14) (size 15 to 20)
#    0.000    1.379    1.379    4.138    0.966    2.483 
#    0.000    4.138    0.000    1.655    0.000    0.000 
#    0.000    0.000    0.000    0.000    0.000    0.000 
#
# Total GULP energy -161945.656121 kJ/mol
# GULP energy per Si atom -5584.332970 kJ/mol
# Density = 2.446629 g / cm^3
# Si number density = 24.522105 Si / 1000 Ang^3
#
#
#
# Elastic Constant Matrix: (Units=GPa)
#
#
# Indices 1 2 3 4 5 6 
#
# 1 71.3481 2.5861 34.0045 0.0001 6.8972 0.0000
# 2 2.5861 156.9042 65.0644 0.0001 22.2396 0.0000
# 3 34.0045 65.0644 138.7137 0.0018 13.2763 0.0015
# 4 0.0001 0.0001 0.0018 39.5721 0.0001 -6.4422
# 5 6.8972 22.2396 13.2763 0.0001 25.1376 0.0001
# 6 0.0000 0.0000 0.0015 -6.4422 0.0001 12.0576
#
#
#
# Elastic Compliance Matrix: (Units=1/GPa)
#
#
# Indices 1 2 3 4 5 6 
#
# 1 0.016585 0.002267 -0.004741 0.000000 -0.004052 0.000001
# 2 0.002267 0.008957 -0.004149 0.000000 -0.006355 0.000001
# 3 -0.004741 -0.004149 0.010366 -0.000001 -0.000503 -0.000002
# 4 0.000000 0.000000 -0.000001 0.027678 0.000000 0.014788
# 5 -0.004052 -0.006355 -0.000503 0.000000 0.046781 -0.000001
# 6 0.000001 0.000001 -0.000002 0.014788 -0.000001 0.090836
#
#
# Mechanical properties :
#
#
# Convention : Reuss Voigt Hill
#
# Bulk Modulus (GPa) = 44.12731 63.36400 53.74566
# Shear Modulus (GPa) = 22.52221 33.04085 27.78153
#
# Velocity S-wave (km/s) = 3.03387 3.67466 3.36954
# Velocity P-wave (km/s) = 5.50513 6.62570 6.09124
#
# Compressibility (1/GPa) = 0.02266170
#
# Stress axis : x y z
#
# Youngs Moduli (GPa) = 60.29542 111.64182 96.47320
#
# Poissons Ratio (x) = -0.25310 0.45740
# Poissons Ratio (y) = -0.13669 0.40026
# Poissons Ratio (z) = 0.28587 0.46319
#
# Static dielectric constant tensor:
#      x y z
#    x 1.998920 0.000000 -0.026680 
#    y 0.000000 1.891120 0.000000 
#    z -0.026680 0.000000 1.985110 
# 
# From -- ./inp_files/357080.got.cif
#   From: 2010.05.17/outbox.cif.g08.bks.cpg/sg12_179_cif.got.tgz:357080.got - 2010.06.03 13:09:07.
