data_PCOD9203489
_publ_section_title
;
Structure prediction by ZEFSAII (Michael W. Deem and Ramdas Pophale) SiO2 
 PCOD9203489
Probable space group: C 2/M
;
_chemical_formula_sum "Si O2"
_cell_formula_units_Z 32
_cell_length_a 15.924838
_cell_length_b 10.828349
_cell_length_c 7.310033
_cell_angle_alpha 90.000000
_cell_angle_beta 103.417959
_cell_angle_gamma 90.000000
_cell_volume 1226.131206
_symmetry_space_group_name_H-M "C 2/M"
_symmetry_group_IT_number 12
_symmetry_cell_setting 'monoclinic'
loop_
_space_group_symop_operation_xyz
x,y,z
-x,y,-z
-x,-y,-z
x,-y,z
1/2+x,1/2+y,z
1/2-x,1/2+y,-z
1/2-x,1/2-y,-z
1/2+x,1/2-y,z
loop_
_atom_site_type_symbol
_atom_site_label
_atom_site_fract_x
_atom_site_fract_y
_atom_site_fract_z
Si Si1 0.732573 0.000000 0.770794
Si Si2 0.510523 0.729595 0.785887
Si Si3 0.678588 0.733753 0.307449
Si Si4 0.790367 0.500000 0.665817
Si Si5 0.945095 0.500000 0.160410
Si Si6 0.910131 0.000000 0.342179
O O1 0.788991 0.124446 0.805580
O O2 0.658124 0.000000 0.879984
O O3 0.690582 0.000000 0.543777
O O4 0.414974 0.698006 0.664081
O O5 0.579257 0.626716 0.766700
O O6 0.531815 0.868469 0.737172
O O7 0.500000 0.727065 0.000000
O O8 0.750000 0.750000 0.500000
O O9 0.672461 0.873533 0.231918
O O10 0.686001 0.500000 0.624467
O O11 0.000000 0.500000 0.000000
O O12 0.000000 0.000000 0.500000
#
# Coordination Sequence:
#
# PCOD9203489 Si02
#       6
#     4   8   8   4   4   4
#     4  10  20  39  63  90 124 165 212 270 323 377
#     4  11  24  44  66  96 134 176 219 271 329 387
#     4  10  20  39  63  92 125 166 213 262 318 383
#     4  10  21  37  60  93 124 162 212 267 321 379
#     4  10  23  43  64  93 130 174 218 264 324 393
#     4  12  23  41  68 100 132 171 220 273 327 395
#
# _framework density 26.09835
#
# number of rings (size 3 to 8) (size 9 to 14) (size 15 to 20)
#    0.000    1.500    0.000    6.375    0.000    2.000 
#    0.000   21.875    0.000    0.000    0.000    0.000 
#    0.000    0.000    0.000    0.000    0.000    0.000 
#
# Total GULP energy -89576.858806 kJ/mol
# GULP energy per Si atom -5598.553675 kJ/mol
# Density = 2.603895 g / cm^3
# Si number density = 26.098350 Si / 1000 Ang^3
#
#
#
# Elastic Constant Matrix: (Units=GPa)
#
#
# Indices 1 2 3 4 5 6 
#
# 1 112.3130 66.3630 7.1225 0.0000 -22.5177 0.0000
# 2 66.3630 210.8705 32.1484 0.0000 -29.7574 0.0000
# 3 7.1225 32.1484 76.0804 0.0000 -10.5804 0.0000
# 4 0.0000 0.0000 0.0000 -4.5889 0.0000 27.7621
# 5 -22.5177 -29.7574 -10.5804 0.0000 34.0335 0.0000
# 6 0.0000 0.0000 0.0000 27.7621 0.0000 -5.2805
#
#
#
# Elastic Compliance Matrix: (Units=1/GPa)
#
#
# Indices 1 2 3 4 5 6 
#
# 1 0.011741 -0.003082 0.000950 0.000000 0.005369 0.000000
# 2 -0.003082 0.006438 -0.002020 0.000000 0.002962 0.000000
# 3 0.000950 -0.002020 0.014372 0.000000 0.003330 0.000000
# 4 0.000000 0.000000 0.000000 0.007074 0.000000 0.037190
# 5 0.005369 0.002962 0.003330 0.000000 0.036560 0.000000
# 6 0.000000 0.000000 0.000000 0.037190 0.000000 0.006147
#
#
# Mechanical properties :
#
#
# Convention : Reuss Voigt Hill
#
# Bulk Modulus (GPa) = 41.24368 67.83687 54.54027
# Shear Modulus (GPa) = 50.64898 24.40816 37.52857
#
# Velocity S-wave (km/s) = 4.41011 3.06148 3.79617
# Velocity P-wave (km/s) = 6.46294 6.20855 6.33702
#
# Compressibility (1/GPa) = 0.02424614
#
# Stress axis : x y z
#
# Youngs Moduli (GPa) = 85.17158 155.32275 69.58082
#
# Poissons Ratio (x) = 0.47874 -0.06609
# Poissons Ratio (y) = 0.26252 0.14056
# Poissons Ratio (z) = -0.08090 0.31376
#
# Static dielectric constant tensor:
#      x y z
#    x 1.956950 0.000000 0.072920 
#    y 0.000000 2.146260 0.000000 
#    z 0.072920 0.000000 2.117630 
# 
# From -- ./inp_files/56956.got.cif
#   From: 2010.05.17/outbox.cif.g08.bks.cpg/sg12_29_cif.got.tgz:56956.got - 2010.06.03 13:09:07.
