data_PCOD9203143
_publ_section_title
;
Structure prediction by ZEFSAII (Michael W. Deem and Ramdas Pophale) SiO2 
 PCOD9203143
Probable space group: C 2/M
;
_chemical_formula_sum "Si O2"
_cell_formula_units_Z 40
_cell_length_a 8.197898
_cell_length_b 17.951032
_cell_length_c 14.343586
_cell_angle_alpha 90.000000
_cell_angle_beta 57.817509
_cell_angle_gamma 90.000000
_cell_volume 1786.498822
_symmetry_space_group_name_H-M "C 2/M"
_symmetry_group_IT_number 12
_symmetry_cell_setting 'monoclinic'
loop_
_space_group_symop_operation_xyz
x,y,z
-x,y,-z
-x,-y,-z
x,-y,z
1/2+x,1/2+y,z
1/2-x,1/2+y,-z
1/2-x,1/2-y,-z
1/2+x,1/2-y,z
loop_
_atom_site_type_symbol
_atom_site_label
_atom_site_fract_x
_atom_site_fract_y
_atom_site_fract_z
Si Si1 0.983602 0.808208 0.854787
Si Si2 0.399934 0.859540 0.936950
Si Si3 0.977835 0.188231 0.639715
Si Si4 0.666230 0.080576 0.236537
Si Si5 0.326639 0.152712 0.428258
O O1 0.927788 0.813974 0.763113
O O2 0.184036 0.851525 0.801583
O O3 0.986341 0.721888 0.884089
O O4 0.822943 0.845655 0.968539
O O5 0.415250 0.911518 0.843315
O O6 0.500000 0.887448 0.000000
O O7 0.169024 0.140158 0.556635
O O8 0.052253 0.271452 0.593192
O O9 0.804452 0.166311 0.624334
O O10 0.486912 0.091715 0.359989
O O11 0.759344 0.000000 0.221650
#
# Coordination Sequence:
#
# PCOD9203143 Si02
#       5
#     8   8   8   8   8
#     4  11  22  39  65  97 127 172 218 276 323 380
#     4  11  23  40  66  93 124 171 227 275 319 387
#     4  10  20  38  68  95 129 164 221 273 314 387
#     4  12  26  43  64  96 140 174 215 273 336 396
#     4  10  21  38  63 100 128 171 214 263 329 385
#
# _framework density 22.390160999999999
#
# number of rings (size 3 to 8) (size 9 to 14) (size 15 to 20)
#    0.000    1.200    2.000    5.400    0.000    4.400 
#    0.000    7.000    0.000    0.000    0.000    0.000 
#    0.000    0.000    0.000    0.000    0.000    0.000 
#
# Total GULP energy -111914.096051 kJ/mol
# GULP energy per Si atom -5595.704803 kJ/mol
# Density = 2.233920 g / cm^3
# Si number density = 22.390161 Si / 1000 Ang^3
#
#
#
# Elastic Constant Matrix: (Units=GPa)
#
#
# Indices 1 2 3 4 5 6 
#
# 1 83.5976 14.8949 15.0875 0.0000 -11.8333 0.0000
# 2 14.8949 54.1785 13.5789 0.0000 -17.6376 0.0000
# 3 15.0875 13.5789 112.7794 0.0000 -14.7719 0.0000
# 4 0.0000 0.0000 0.0000 -7.6847 0.0000 -0.0897
# 5 -11.8333 -17.6376 -14.7719 0.0000 43.6919 0.0000
# 6 0.0000 0.0000 0.0000 -0.0897 0.0000 7.4801
#
#
#
# Elastic Compliance Matrix: (Units=1/GPa)
#
#
# Indices 1 2 3 4 5 6 
#
# 1 0.012923 -0.002593 -0.001146 0.000000 0.002066 0.000000
# 2 -0.002593 0.022016 -0.001289 0.000000 0.007750 0.000000
# 3 -0.001146 -0.001289 0.009487 0.000000 0.002377 0.000000
# 4 0.000000 0.000000 0.000000 -0.130110 0.000000 -0.001561
# 5 0.002066 0.007750 0.002377 0.000000 0.027379 0.000000
# 6 0.000000 0.000000 0.000000 -0.001561 0.000000 0.133669
#
#
# Mechanical properties :
#
#
# Convention : Reuss Voigt Hill
#
# Bulk Modulus (GPa) = 29.09503 37.51979 33.30741
# Shear Modulus (GPa) = 51.61172 22.49707 37.05440
#
# Velocity S-wave (km/s) = 4.80636 3.17326 4.07251
# Velocity P-wave (km/s) = 6.61999 5.49725 6.08457
#
# Compressibility (1/GPa) = 0.03437014
#
# Stress axis : x y z
#
# Youngs Moduli (GPa) = 77.37931 45.42088 105.41111
#
# Poissons Ratio (x) = 0.11778 0.12081
# Poissons Ratio (y) = 0.20066 0.13586
# Poissons Ratio (z) = 0.08868 0.05854
#
# Static dielectric constant tensor:
#      x y z
#    x 1.867310 0.000000 0.001890 
#    y 0.000000 1.790100 0.000000 
#    z 0.001890 0.000000 1.844530 
# 
# From -- ./inp_files/195303.got.cif
#   From: 2010.05.17/outbox.cif.g08.bks.cpg/sg12_98_cif.got.tgz:195303.got - 2010.06.03 13:09:07.
