data_PCOD9203398
_publ_section_title
;
Structure prediction by ZEFSAII (Michael W. Deem and Ramdas Pophale) SiO2 
 PCOD9203398
Probable space group: C 2/M
;
_chemical_formula_sum "Si O2"
_cell_formula_units_Z 56
_cell_length_a 27.674855
_cell_length_b 8.997009
_cell_length_c 11.042021
_cell_angle_alpha 90.000000
_cell_angle_beta 91.051859
_cell_angle_gamma 90.000000
_cell_volume 2748.899665
_symmetry_space_group_name_H-M "C 2/M"
_symmetry_group_IT_number 12
_symmetry_cell_setting 'monoclinic'
loop_
_space_group_symop_operation_xyz
x,y,z
-x,y,-z
-x,-y,-z
x,-y,z
1/2+x,1/2+y,z
1/2-x,1/2+y,-z
1/2-x,1/2-y,-z
1/2+x,1/2-y,z
loop_
_atom_site_type_symbol
_atom_site_label
_atom_site_fract_x
_atom_site_fract_y
_atom_site_fract_z
Si Si1 0.270524 0.678329 0.875647
Si Si2 0.046965 0.669937 0.435374
Si Si3 0.923602 0.676014 0.174488
Si Si4 0.229868 0.820796 0.624328
Si Si5 0.616461 0.675280 0.593596
Si Si6 0.467977 0.170267 0.850633
Si Si7 0.377887 0.673648 0.960341
O O1 0.261068 0.500000 0.874919
O O2 0.250821 0.751161 0.750231
O O3 0.328477 0.701146 0.886725
O O4 0.250000 0.750000 0.000000
O O5 0.053091 0.500000 0.479795
O O6 0.095058 0.758461 0.469506
O O7 0.035823 0.665551 0.294235
O O8 0.000000 0.735007 0.500000
O O9 0.922844 0.500000 0.189097
O O10 0.915056 0.752558 0.301674
O O11 0.976476 0.714782 0.122438
O O12 0.881839 0.731586 0.083175
O O13 0.250000 0.750000 0.500000
O O14 0.172412 0.791488 0.618379
O O15 0.237711 0.000000 0.624678
O O16 0.610322 0.500000 0.594468
O O17 0.425477 0.276966 0.890911
O O18 0.459471 0.000000 0.894896
O O19 0.379667 0.500000 0.991792
#
# Coordination Sequence:
#
# PCOD9203398 Si02
#       7
#     8   8   8   8   8   8   8
#     4  11  25  46  70  97 130 169 219 273 326 389
#     4  10  20  39  62  89 124 164 209 251 295 361
#     4  11  22  40  64  91 124 165 211 252 299 370
#     4  11  26  46  68  97 132 169 216 273 330 389
#     4  11  24  40  62  93 127 161 204 257 315 371
#     4  10  22  39  60  89 125 164 209 253 298 366
#     4  11  25  41  61  92 128 160 201 259 317 369
#
# _framework density 20.371787000000001
#
# number of rings (size 3 to 8) (size 9 to 14) (size 15 to 20)
#    0.000    1.286    1.429    3.429    2.000   11.714 
#    0.000    0.000    0.000    0.000    0.000    0.000 
#    0.000    0.000    0.000    0.000    0.000    0.000 
#
# Total GULP energy -156467.407784 kJ/mol
# GULP energy per Si atom -5588.121707 kJ/mol
# Density = 2.032542 g / cm^3
# Si number density = 20.371787 Si / 1000 Ang^3
#
#
#
# Elastic Constant Matrix: (Units=GPa)
#
#
# Indices 1 2 3 4 5 6 
#
# 1 105.2477 71.8792 45.8702 0.0000 19.2595 0.0000
# 2 71.8792 72.2674 46.5844 0.0000 18.4072 0.0000
# 3 45.8702 46.5844 122.1958 0.0000 20.9301 0.0000
# 4 0.0000 0.0000 0.0000 34.7575 0.0000 3.2078
# 5 19.2595 18.4072 20.9301 0.0000 38.3315 0.0000
# 6 0.0000 0.0000 0.0000 3.2078 0.0000 28.3376
#
#
#
# Elastic Compliance Matrix: (Units=1/GPa)
#
#
# Indices 1 2 3 4 5 6 
#
# 1 0.029654 -0.029419 0.000238 0.000000 -0.000902 0.000000
# 2 -0.029419 0.048648 -0.006656 0.000000 -0.004946 0.000000
# 3 0.000238 -0.006656 0.011147 0.000000 -0.003010 0.000000
# 4 0.000000 0.000000 0.000000 0.029074 0.000000 -0.003291
# 5 -0.000902 -0.004946 -0.003010 0.000000 0.030560 0.000000
# 6 0.000000 0.000000 0.000000 -0.003291 0.000000 0.035661
#
#
# Mechanical properties :
#
#
# Convention : Reuss Voigt Hill
#
# Bulk Modulus (GPa) = 56.25161 69.81982 63.03572
# Shear Modulus (GPa) = 19.05893 29.31045 24.18469
#
# Velocity S-wave (km/s) = 3.06200 3.79724 3.44927
# Velocity P-wave (km/s) = 6.33826 7.31933 6.84639
#
# Compressibility (1/GPa) = 0.01777727
#
# Stress axis : x y z
#
# Youngs Moduli (GPa) = 33.72184 20.55574 89.70927
#
# Poissons Ratio (x) = 0.60472 -0.02135
# Poissons Ratio (y) = 0.99205 0.59707
# Poissons Ratio (z) = -0.00803 0.13681
#
# Static dielectric constant tensor:
#      x y z
#    x 1.719990 0.000000 -0.014480 
#    y 0.000000 1.692210 0.000000 
#    z -0.014480 0.000000 1.756740 
# 
# From -- ./inp_files/181004.got.cif
#   From: 2010.05.17/outbox.cif.g08.bks.cpg/sg12_91_cif.got.tgz:181004.got - 2010.06.03 13:09:07.
