data_PCOD9203432
_publ_section_title
;
Structure prediction by ZEFSAII (Michael W. Deem and Ramdas Pophale) SiO2 
 PCOD9203432
Probable space group: C 2/M
;
_chemical_formula_sum "Si O2"
_cell_formula_units_Z 48
_cell_length_a 12.406183
_cell_length_b 15.480743
_cell_length_c 12.065358
_cell_angle_alpha 90.000000
_cell_angle_beta 90.072582
_cell_angle_gamma 90.000000
_cell_volume 2317.233765
_symmetry_space_group_name_H-M "C 2/M"
_symmetry_group_IT_number 12
_symmetry_cell_setting 'monoclinic'
loop_
_space_group_symop_operation_xyz
x,y,z
-x,y,-z
-x,-y,-z
x,-y,z
1/2+x,1/2+y,z
1/2-x,1/2+y,-z
1/2-x,1/2-y,-z
1/2+x,1/2-y,z
loop_
_atom_site_type_symbol
_atom_site_label
_atom_site_fract_x
_atom_site_fract_y
_atom_site_fract_z
Si Si1 0.690439 0.401699 0.266698
Si Si2 0.076898 0.668237 0.139269
Si Si3 0.725875 0.603509 0.736387
Si Si4 0.355484 0.900425 0.090923
Si Si5 0.512980 0.638766 0.871631
Si Si6 0.375589 0.605535 0.498686
O O1 0.731042 0.500000 0.280762
O O2 0.771005 0.361014 0.177474
O O3 0.573034 0.405510 0.210313
O O4 0.680696 0.362789 0.388637
O O5 0.164098 0.651474 0.233058
O O6 0.022603 0.761547 0.137112
O O7 0.975546 0.603396 0.141315
O O8 0.137445 0.651404 0.023101
O O9 0.744327 0.500000 0.738174
O O10 0.632053 0.623364 0.825477
O O11 0.681535 0.628958 0.615597
O O12 0.326264 0.000000 0.065136
O O13 0.500000 0.611646 0.000000
O O14 0.500000 0.633605 0.500000
O O15 0.376708 0.500000 0.503857
#
# Coordination Sequence:
#
# PCOD9203432 Si02
#       6
#     8   8   8   8   8   8
#     4  10  21  37  63  91 118 157 208 258 303 362
#     4  11  23  39  59  88 125 166 198 245 312 368
#     4  11  23  40  67  92 119 160 215 258 297 366
#     4  10  20  39  63  84 119 163 208 245 300 374
#     4  12  24  36  59  89 127 160 196 253 313 366
#     4   9  17  37  63  89 118 156 204 258 311 352
#
# _framework density 20.714352999999999
#
# number of rings (size 3 to 8) (size 9 to 14) (size 15 to 20)
#    0.000    1.500    3.333    3.500    2.333    4.000 
#    0.000    1.667    3.667    4.000    0.000    0.000 
#    0.000    0.000    0.000    0.000    0.000    0.000 
#
# Total GULP energy -134099.366794 kJ/mol
# GULP energy per Si atom -5587.473616 kJ/mol
# Density = 2.066721 g / cm^3
# Si number density = 20.714353 Si / 1000 Ang^3
#
#
#
# Elastic Constant Matrix: (Units=GPa)
#
#
# Indices 1 2 3 4 5 6 
#
# 1 59.0755 -8.3520 7.7573 0.0000 18.8219 0.0000
# 2 -8.3520 54.1736 8.7501 0.0000 -0.7242 0.0000
# 3 7.7573 8.7501 58.4988 0.0000 22.9655 0.0000
# 4 0.0000 0.0000 0.0000 5.9690 0.0000 -7.2791
# 5 18.8219 -0.7242 22.9655 0.0000 39.3593 0.0000
# 6 0.0000 0.0000 0.0000 -7.2791 0.0000 67.1989
#
#
#
# Elastic Compliance Matrix: (Units=1/GPa)
#
#
# Indices 1 2 3 4 5 6 
#
# 1 0.020487 0.002879 0.000879 0.000000 -0.010257 0.000000
# 2 0.002879 0.019527 -0.003766 0.000000 0.001180 0.000000
# 3 0.000879 -0.003766 0.023002 0.000000 -0.013911 0.000000
# 4 0.000000 0.000000 0.000000 0.193029 0.000000 0.020909
# 5 -0.010257 0.001180 -0.013911 0.000000 0.038451 0.000000
# 6 0.000000 0.000000 0.000000 0.020909 0.000000 0.017146
#
#
# Mechanical properties :
#
#
# Convention : Reuss Voigt Hill
#
# Bulk Modulus (GPa) = 15.87236 20.89541 18.38388
# Shear Modulus (GPa) = 15.03047 33.41161 24.22104
#
# Velocity S-wave (km/s) = 2.69663 4.02054 3.42319
# Velocity P-wave (km/s) = 4.16832 5.62692 4.95162
#
# Compressibility (1/GPa) = 0.06300261
#
# Stress axis : x y z
#
# Youngs Moduli (GPa) = 48.81113 51.21089 43.47384
#
# Poissons Ratio (x) = -0.14745 -0.03823
# Poissons Ratio (y) = -0.14054 0.16371
# Poissons Ratio (z) = -0.04292 0.19285
#
# Static dielectric constant tensor:
#      x y z
#    x 1.722640 0.000000 -0.008060 
#    y 0.000000 1.828900 0.000000 
#    z -0.008060 0.000000 1.752740 
# 
# From -- ./inp_files/131154.got.cif
#   From: 2010.05.17/outbox.cif.g08.bks.cpg/sg12_66_cif.got.tgz:131154.got - 2010.06.03 13:09:07.
