data_PCOD9203595
_publ_section_title
;
Structure prediction by ZEFSAII (Michael W. Deem and Ramdas Pophale) SiO2 
 PCOD9203595
Probable space group: C 2/M
;
_chemical_formula_sum "Si O2"
_cell_formula_units_Z 32
_cell_length_a 13.520991
_cell_length_b 12.226425
_cell_length_c 13.359691
_cell_angle_alpha 90.000000
_cell_angle_beta 39.940662
_cell_angle_gamma 90.000000
_cell_volume 1417.866487
_symmetry_space_group_name_H-M "C 2/M"
_symmetry_group_IT_number 12
_symmetry_cell_setting 'monoclinic'
loop_
_space_group_symop_operation_xyz
x,y,z
-x,y,-z
-x,-y,-z
x,-y,z
1/2+x,1/2+y,z
1/2-x,1/2+y,-z
1/2-x,1/2-y,-z
1/2+x,1/2-y,z
loop_
_atom_site_type_symbol
_atom_site_label
_atom_site_fract_x
_atom_site_fract_y
_atom_site_fract_z
Si Si1 0.451642 0.668968 0.250981
Si Si2 0.875243 0.376968 0.412185
Si Si3 0.731162 0.624586 0.177739
Si Si4 0.000000 0.234534 0.500000
Si Si5 0.500000 0.293329 0.000000
O O1 0.308338 0.622811 0.426085
O O2 0.424553 0.799890 0.282585
O O3 0.610563 0.635973 0.179622
O O4 0.446086 0.639868 0.138935
O O5 0.931831 0.500000 0.359172
O O6 0.943116 0.313391 0.455520
O O7 0.786570 0.500000 0.140800
O O8 0.632420 0.658180 0.352179
O O9 0.862961 0.714984 0.068889
#
# Coordination Sequence:
#
# PCOD9203595 Si02
#       5
#     8   8   8   4   4
#     4  10  23  41  63  93 129 166 207 265 309 372
#     4  10  20  39  64  93 125 165 212 257 311 373
#     4  11  23  40  65  94 127 167 210 258 314 374
#     4  10  20  40  64  94 124 164 212 258 310 370
#     4  12  23  44  63  92 134 164 207 262 319 370
#
# _framework density 22.569120999999999
#
# number of rings (size 3 to 8) (size 9 to 14) (size 15 to 20)
#    0.000    1.500    2.500    2.625    0.000    2.000 
#    0.000    2.500    0.000    0.000    0.000    0.000 
#    0.000    0.000    0.000    0.000    0.000    0.000 
#
# Total GULP energy -89501.267701 kJ/mol
# GULP energy per Si atom -5593.829231 kJ/mol
# Density = 2.251775 g / cm^3
# Si number density = 22.569121 Si / 1000 Ang^3
#
#
#
# Elastic Constant Matrix: (Units=GPa)
#
#
# Indices 1 2 3 4 5 6 
#
# 1 78.9028 -7.9220 6.6987 0.0000 3.4178 0.0000
# 2 -7.9220 97.0346 -10.3938 0.0000 13.0342 0.0000
# 3 6.6987 -10.3938 76.5527 0.0000 16.4068 0.0000
# 4 0.0000 0.0000 0.0000 -4.7835 0.0000 4.7858
# 5 3.4178 13.0342 16.4068 0.0000 44.3303 0.0000
# 6 0.0000 0.0000 0.0000 4.7858 0.0000 8.6882
#
#
#
# Elastic Compliance Matrix: (Units=1/GPa)
#
#
# Indices 1 2 3 4 5 6 
#
# 1 0.012895 0.001112 -0.000754 0.000000 -0.001042 0.000000
# 2 0.001112 0.011217 0.002336 0.000000 -0.004249 0.000000
# 3 -0.000754 0.002336 0.014751 0.000000 -0.006088 0.000000
# 4 0.000000 0.000000 0.000000 -0.134776 0.000000 0.074240
# 5 -0.001042 -0.004249 -0.006088 0.000000 0.026141 0.000000
# 6 0.000000 0.000000 0.000000 0.074240 0.000000 0.074205
#
#
# Mechanical properties :
#
#
# Convention : Reuss Voigt Hill
#
# Bulk Modulus (GPa) = 22.59830 25.47287 24.03559
# Shear Modulus (GPa) = 362.48094 27.25415 194.86755
#
# Velocity S-wave (km/s) = 12.68692 3.47880 9.30215
# Velocity P-wave (km/s) = 14.98817 5.23901 11.22703
#
# Compressibility (1/GPa) = 0.04425112
#
# Stress axis : x y z
#
# Youngs Moduli (GPa) = 77.55181 89.14790 67.79251
#
# Poissons Ratio (x) = -0.09913 0.05112
# Poissons Ratio (y) = -0.08623 -0.15838
# Poissons Ratio (z) = 0.05848 -0.20827
#
# Static dielectric constant tensor:
#      x y z
#    x 1.858380 0.000000 -0.000950 
#    y 0.000000 1.815710 0.000000 
#    z -0.000950 0.000000 1.827730 
# 
# From -- ./inp_files/212333.got.cif
#   From: 2010.05.17/outbox.cif.g08.bks.cpg/sg12_107_cif.got.tgz:212333.got - 2010.06.03 13:09:07.
