data_PCOD9203814
_publ_section_title
;
Structure prediction by ZEFSAII (Michael W. Deem and Ramdas Pophale) SiO2 
 PCOD9203814
Probable space group: C 2/M
;
_chemical_formula_sum "Si O2"
_cell_formula_units_Z 50
_cell_length_a 9.549950
_cell_length_b 16.365752
_cell_length_c 18.906424
_cell_angle_alpha 90.000000
_cell_angle_beta 118.503935
_cell_angle_gamma 90.000000
_cell_volume 2596.741782
_symmetry_space_group_name_H-M "C 2/M"
_symmetry_group_IT_number 12
_symmetry_cell_setting 'monoclinic'
loop_
_space_group_symop_operation_xyz
x,y,z
-x,y,-z
-x,-y,-z
x,-y,z
1/2+x,1/2+y,z
1/2-x,1/2+y,-z
1/2-x,1/2-y,-z
1/2+x,1/2-y,z
loop_
_atom_site_type_symbol
_atom_site_label
_atom_site_fract_x
_atom_site_fract_y
_atom_site_fract_z
Si Si1 0.504383 0.152933 0.109682
Si Si2 0.082902 0.700195 0.279965
Si Si3 0.862555 0.500000 0.365430
Si Si4 0.745505 0.347610 0.250384
Si Si5 0.816489 0.822153 0.465957
Si Si6 0.846131 0.184464 0.920398
Si Si7 0.720643 0.000000 0.490070
Si Si8 0.000000 0.500000 0.000000
O O1 0.570990 0.144875 0.206183
O O2 0.319674 0.181832 0.076498
O O3 0.606339 0.224739 0.096110
O O4 0.508287 0.072298 0.063756
O O5 0.122613 0.789370 0.259949
O O6 0.216369 0.677663 0.369050
O O7 0.911226 0.699355 0.275508
O O8 0.790660 0.422473 0.309490
O O9 0.819506 0.500000 0.436956
O O10 0.053762 0.500000 0.407171
O O11 0.680193 0.368151 0.156960
O O12 0.750000 0.750000 0.500000
O O13 0.000000 0.801918 0.500000
O O14 0.804405 0.914018 0.493741
O O15 0.000000 0.154907 0.000000
#
# Coordination Sequence:
#
# PCOD9203814 Si02
#       8
#     8   8   4   8   8   8   4   2
#     4  10  23  39  68  88 127 166 209 260 309 385
#     4  10  21  40  62  96 122 166 213 254 317 381
#     4  11  22  41  63  93 124 168 215 259 327 368
#     4  10  21  39  66  89 125 166 209 259 313 386
#     4  12  25  41  69  99 132 170 217 266 324 391
#     4  10  20  39  68  90 122 166 210 248 315 379
#     4  11  25  41  64  91 132 171 212 276 314 378
#     4  12  24  40  62 100 122 164 220 260 328 362
#
# _framework density 19.254899000000002
#
# number of rings (size 3 to 8) (size 9 to 14) (size 15 to 20)
#    0.000    1.440    2.400    2.640    2.240    3.200 
#    0.000    1.600    3.520    0.000    0.000    0.000 
#    0.000    0.000    0.000    0.000    0.000    0.000 
#
# Total GULP energy -139301.305355 kJ/mol
# GULP energy per Si atom -5572.052214 kJ/mol
# Density = 1.921107 g / cm^3
# Si number density = 19.254899 Si / 1000 Ang^3
#
#
#
# Elastic Constant Matrix: (Units=GPa)
#
#
# Indices 1 2 3 4 5 6 
#
# 1 79.7393 48.3048 54.7967 0.0000 5.9971 0.0000
# 2 48.3048 106.1488 49.7894 0.0000 -14.3665 0.0000
# 3 54.7967 49.7894 150.1973 0.0000 10.2253 0.0000
# 4 0.0000 0.0000 0.0000 38.5654 0.0000 -5.9982
# 5 5.9971 -14.3665 10.2253 0.0000 27.0870 0.0000
# 6 0.0000 0.0000 0.0000 -5.9982 0.0000 0.2293
#
#
#
# Elastic Compliance Matrix: (Units=1/GPa)
#
#
# Indices 1 2 3 4 5 6 
#
# 1 0.021437 -0.008737 -0.004399 0.000000 -0.007719 0.000000
# 2 -0.008737 0.016431 -0.003063 0.000000 0.011805 0.000000
# 3 -0.004399 -0.003063 0.009568 0.000000 -0.004263 0.000000
# 4 0.000000 0.000000 0.000000 -0.008449 0.000000 -0.221041
# 5 -0.007719 0.011805 -0.004263 0.000000 0.046498 0.000000
# 6 0.000000 0.000000 0.000000 -0.221041 0.000000 -1.421182
#
#
# Mechanical properties :
#
#
# Convention : Reuss Voigt Hill
#
# Bulk Modulus (GPa) = 66.49512 71.31856 68.90684
# Shear Modulus (GPa) = -3.85123 25.38931 10.76904
#
# Velocity S-wave (km/s) = -1.41579 3.63518 2.36749
# Velocity P-wave (km/s) = 5.65124 7.39858 6.58314
#
# Compressibility (1/GPa) = 0.01503870
#
# Stress axis : x y z
#
# Youngs Moduli (GPa) = 46.64819 60.86068 104.50963
#
# Poissons Ratio (x) = 0.53171 0.45977
# Poissons Ratio (y) = 0.40754 0.32012
# Poissons Ratio (z) = 0.20522 0.18642
#
# Static dielectric constant tensor:
#      x y z
#    x 1.662190 0.000000 -0.009690 
#    y 0.000000 1.665810 0.000000 
#    z -0.009690 0.000000 1.706180 
# 
# From -- ./inp_files/257284.got.cif
#   From: 2010.05.17/outbox.cif.g08.bks.cpg/sg12_129_cif.got.tgz:257284.got - 2010.06.03 13:09:07.
