data_PCOD9203094
_publ_section_title
;
Structure prediction by ZEFSAII (Michael W. Deem and Ramdas Pophale) SiO2 
 PCOD9203094
Probable space group: C 2/M
;
_chemical_formula_sum "Si O2"
_cell_formula_units_Z 60
_cell_length_a 18.548393
_cell_length_b 9.273974
_cell_length_c 15.256896
_cell_angle_alpha 90.000000
_cell_angle_beta 100.075465
_cell_angle_gamma 90.000000
_cell_volume 2583.976489
_symmetry_space_group_name_H-M "C 2/M"
_symmetry_group_IT_number 12
_symmetry_cell_setting 'monoclinic'
loop_
_space_group_symop_operation_xyz
x,y,z
-x,y,-z
-x,-y,-z
x,-y,z
1/2+x,1/2+y,z
1/2-x,1/2+y,-z
1/2-x,1/2-y,-z
1/2+x,1/2-y,z
loop_
_atom_site_type_symbol
_atom_site_label
_atom_site_fract_x
_atom_site_fract_y
_atom_site_fract_z
Si Si1 0.657779 0.233779 0.042409
Si Si2 0.049312 0.329662 0.588149
Si Si3 0.029109 0.832714 0.129583
Si Si4 0.146798 0.832964 0.312922
Si Si5 0.410308 0.174909 0.211996
Si Si6 0.239356 0.835651 0.776050
Si Si7 0.267367 0.000000 0.036522
Si Si8 0.826740 0.330964 0.517006
O O1 0.577280 0.270292 0.059990
O O2 0.703297 0.158022 0.131207
O O3 0.670144 0.125054 0.966280
O O4 0.703499 0.376931 0.034011
O O5 0.030102 0.500000 0.588675
O O6 0.049305 0.279178 0.687524
O O7 0.130780 0.317071 0.565438
O O8 0.000000 0.264158 0.500000
O O9 0.086441 0.829939 0.223744
O O10 0.960394 0.739843 0.146223
O O11 0.009136 0.000000 0.110126
O O12 0.218614 0.756444 0.288112
O O13 0.127242 0.742562 0.394877
O O14 0.161723 0.000000 0.337923
O O15 0.331769 0.250953 0.206572
O O16 0.403901 0.000000 0.211217
O O17 0.222449 0.000000 0.745539
O O18 0.817945 0.500000 0.533617
O O19 0.750000 0.250000 0.500000
#
# Coordination Sequence:
#
# PCOD9203094 Si02
#       8
#     8   8   8   8   8   8   4   8
#     4  10  21  38  66  96 121 154 193 238 284 348
#     4   9  19  36  54  77 107 147 197 245 294 344
#     4  10  21  38  58  85 119 153 193 239 290 338
#     4  10  21  36  57  82 112 149 197 251 296 349
#     4  11  23  36  59  85 117 159 200 248 295 353
#     4  11  22  38  59  87 121 157 199 239 297 350
#     4  10  20  38  66  98 124 148 190 236 288 346
#     4  11  21  34  54  78 110 147 191 248 308 357
#
# _framework density 23.220025
#
# number of rings (size 3 to 8) (size 9 to 14) (size 15 to 20)
#    0.000    1.733    1.333    3.200    2.800    3.200 
#    0.000    2.000    0.000    9.600    0.000    0.000 
#    0.000    0.000    0.000    0.000    0.000    0.000 
#
# Total GULP energy -167321.931472 kJ/mol
# GULP energy per Si atom -5577.397716 kJ/mol
# Density = 2.316718 g / cm^3
# Si number density = 23.220025 Si / 1000 Ang^3
#
#
#
# Elastic Constant Matrix: (Units=GPa)
#
#
# Indices 1 2 3 4 5 6 
#
# 1 125.9460 65.4290 27.9367 0.0000 -24.8133 0.0000
# 2 65.4290 174.5710 37.3628 0.0000 -35.5222 0.0000
# 3 27.9367 37.3628 94.2141 0.0000 -13.6208 0.0000
# 4 0.0000 0.0000 0.0000 -2.4589 0.0000 6.1824
# 5 -24.8133 -35.5222 -13.6208 0.0000 45.2284 0.0000
# 6 0.0000 0.0000 0.0000 6.1824 0.0000 24.6958
#
#
#
# Elastic Compliance Matrix: (Units=1/GPa)
#
#
# Indices 1 2 3 4 5 6 
#
# 1 0.010393 -0.002987 -0.001476 0.000000 0.002911 0.000000
# 2 -0.002987 0.008064 -0.001708 0.000000 0.004180 0.000000
# 3 -0.001476 -0.001708 0.011938 0.000000 0.001444 0.000000
# 4 0.000000 0.000000 0.000000 -0.249586 0.000000 0.062482
# 5 0.002911 0.004180 0.001444 0.000000 0.027425 0.000000
# 6 0.000000 0.000000 0.000000 0.062482 0.000000 0.024851
#
#
# Mechanical properties :
#
#
# Convention : Reuss Voigt Hill
#
# Bulk Modulus (GPa) = 55.39401 72.90978 64.15189
# Shear Modulus (GPa) = -33.65725 31.09323 -1.28201
#
# Velocity S-wave (km/s) = -3.81135 3.66330 -0.74385
# Velocity P-wave (km/s) = 2.13059 7.02572 5.19134
#
# Compressibility (1/GPa) = 0.01805249
#
# Stress axis : x y z
#
# Youngs Moduli (GPa) = 96.22271 124.00860 83.76656
#
# Poissons Ratio (x) = 0.37039 0.12366
# Poissons Ratio (y) = 0.28740 0.14307
# Poissons Ratio (z) = 0.14205 0.21180
#
# Static dielectric constant tensor:
#      x y z
#    x 1.882050 0.000000 0.081260 
#    y 0.000000 1.784020 0.000000 
#    z 0.081260 0.000000 2.005750 
# 
# From -- ./inp_files/313932.got.cif
#   From: 2010.05.17/outbox.cif.g08.bks.cpg/sg12_157_cif.got.tgz:313932.got - 2010.06.03 13:09:07.
