data_PCOD9203126
_publ_section_title
;
Structure prediction by ZEFSAII (Michael W. Deem and Ramdas Pophale) SiO2 
 PCOD9203126
Probable space group: C 2/M
;
_chemical_formula_sum "Si O2"
_cell_formula_units_Z 56
_cell_length_a 20.587534
_cell_length_b 17.478393
_cell_length_c 9.290932
_cell_angle_alpha 90.000000
_cell_angle_beta 121.208281
_cell_angle_gamma 90.000000
_cell_volume 2859.421582
_symmetry_space_group_name_H-M "C 2/M"
_symmetry_group_IT_number 12
_symmetry_cell_setting 'monoclinic'
loop_
_space_group_symop_operation_xyz
x,y,z
-x,y,-z
-x,-y,-z
x,-y,z
1/2+x,1/2+y,z
1/2-x,1/2+y,-z
1/2-x,1/2-y,-z
1/2+x,1/2-y,z
loop_
_atom_site_type_symbol
_atom_site_label
_atom_site_fract_x
_atom_site_fract_y
_atom_site_fract_z
Si Si1 0.991053 0.782580 0.827890
Si Si2 0.583807 0.910881 0.753497
Si Si3 0.785269 0.661774 0.901275
Si Si4 0.874035 0.912102 0.772143
Si Si5 0.078010 0.351763 0.428045
Si Si6 0.158697 0.829594 0.976091
Si Si7 0.733836 0.158787 0.453674
O O1 0.943924 0.858341 0.809150
O O2 0.945444 0.730274 0.664395
O O3 0.000000 0.745509 0.000000
O O4 0.072468 0.802017 0.853937
O O5 0.588143 0.861721 0.610989
O O6 0.495579 0.902535 0.698329
O O7 0.599805 0.000000 0.741629
O O8 0.643857 0.877521 0.935907
O O9 0.798048 0.753464 0.920090
O O10 0.779760 0.642748 0.728868
O O11 0.707901 0.642983 0.898002
O O12 0.847319 0.890055 0.902396
O O13 0.805203 0.888105 0.591463
O O14 0.893975 0.000000 0.784705
O O15 0.158869 0.368036 0.451342
O O16 0.750000 0.250000 0.500000
#
# Coordination Sequence:
#
# PCOD9203126 Si02
#       7
#     8   8   8   8   8   8   8
#     4  10  20  38  67  98 124 163 224 267 316 388
#     4  11  26  44  64  98 133 167 215 270 328 383
#     4  11  23  39  65  93 130 166 220 264 308 389
#     4  11  24  42  65  95 132 167 216 276 326 376
#     4  11  22  39  68  92 129 171 215 262 317 394
#     4  10  21  38  65  96 121 171 216 259 322 379
#     4  12  23  39  65  96 129 170 217 262 318 388
#
# _framework density 19.584381
#
# number of rings (size 3 to 8) (size 9 to 14) (size 15 to 20)
#    0.000    1.143    4.286    2.571    2.000    6.000 
#    0.000    0.714    0.000    0.857    0.000    0.000 
#    0.000    0.000    0.000    0.000    0.000    0.000 
#
# Total GULP energy -156387.593372 kJ/mol
# GULP energy per Si atom -5585.271192 kJ/mol
# Density = 1.953981 g / cm^3
# Si number density = 19.584381 Si / 1000 Ang^3
#
#
#
# Elastic Constant Matrix: (Units=GPa)
#
#
# Indices 1 2 3 4 5 6 
#
# 1 121.5273 2.6417 33.6741 0.0000 3.6577 0.0000
# 2 2.6417 86.1945 30.6189 0.0000 -17.4094 0.0000
# 3 33.6741 30.6189 102.2977 0.0000 0.4096 0.0000
# 4 0.0000 0.0000 0.0000 16.8333 0.0000 1.5148
# 5 3.6577 -17.4094 0.4096 0.0000 20.8683 0.0000
# 6 0.0000 0.0000 0.0000 1.5148 0.0000 12.2403
#
#
#
# Elastic Compliance Matrix: (Units=1/GPa)
#
#
# Indices 1 2 3 4 5 6 
#
# 1 0.009130 0.000656 -0.003198 0.000000 -0.000990 0.000000
# 2 0.000656 0.016099 -0.005088 0.000000 0.013415 0.000000
# 3 -0.003198 -0.005088 0.012367 0.000000 -0.003927 0.000000
# 4 0.000000 0.000000 0.000000 0.060075 0.000000 -0.007435
# 5 -0.000990 0.013415 -0.003927 0.000000 0.059362 0.000000
# 6 0.000000 0.000000 0.000000 -0.007435 0.000000 0.082618
#
#
# Mechanical properties :
#
#
# Convention : Reuss Voigt Hill
#
# Bulk Modulus (GPa) = 44.77129 49.32098 47.04613
# Shear Modulus (GPa) = 19.05811 26.19403 22.62607
#
# Velocity S-wave (km/s) = 3.12288 3.66115 3.40268
# Velocity P-wave (km/s) = 5.99279 6.56586 6.28586
#
# Compressibility (1/GPa) = 0.02233574
#
# Stress axis : x y z
#
# Youngs Moduli (GPa) = 109.52605 62.11716 80.86195
#
# Poissons Ratio (x) = -0.04076 0.25859
# Poissons Ratio (y) = -0.07187 0.41144
# Poissons Ratio (z) = 0.35025 0.31607
#
# Static dielectric constant tensor:
#      x y z
#    x 1.712710 0.000000 0.015570 
#    y 0.000000 1.701370 0.000000 
#    z 0.015570 0.000000 1.697690 
# 
# From -- ./inp_files/88085.got.cif
#   From: 2010.05.17/outbox.cif.g08.bks.cpg/sg12_45_cif.got.tgz:88085.got - 2010.06.03 13:09:07.
