data_PCOD9203290
_publ_section_title
;
Structure prediction by ZEFSAII (Michael W. Deem and Ramdas Pophale) SiO2 
 PCOD9203290
Probable space group: C 2/M
;
_chemical_formula_sum "Si O2"
_cell_formula_units_Z 50
_cell_length_a 16.459799
_cell_length_b 9.946922
_cell_length_c 15.589147
_cell_angle_alpha 90.000000
_cell_angle_beta 69.917365
_cell_angle_gamma 90.000000
_cell_volume 2397.137355
_symmetry_space_group_name_H-M "C 2/M"
_symmetry_group_IT_number 12
_symmetry_cell_setting 'monoclinic'
loop_
_space_group_symop_operation_xyz
x,y,z
-x,y,-z
-x,-y,-z
x,-y,z
1/2+x,1/2+y,z
1/2-x,1/2+y,-z
1/2-x,1/2-y,-z
1/2+x,1/2-y,z
loop_
_atom_site_type_symbol
_atom_site_label
_atom_site_fract_x
_atom_site_fract_y
_atom_site_fract_z
Si Si1 0.983901 0.654789 0.715523
Si Si2 0.006945 0.157756 0.857577
Si Si3 0.216800 0.335954 0.202281
Si Si4 0.500000 0.500000 0.500000
Si Si5 0.606505 0.245443 0.532402
Si Si6 0.859173 0.842258 0.032449
Si Si7 0.263142 0.656241 0.370377
O O1 0.989914 0.500000 0.740763
O O2 0.027395 0.669771 0.606999
O O3 0.027872 0.753597 0.768092
O O4 0.883577 0.697727 0.753234
O O5 0.078357 0.163524 0.906532
O O6 0.997985 0.000000 0.837501
O O7 0.917663 0.210937 0.933673
O O8 0.221909 0.500000 0.199148
O O9 0.268608 0.285146 0.099884
O O10 0.262324 0.290268 0.273695
O O11 0.567987 0.381857 0.507971
O O12 0.673507 0.272647 0.586218
O O13 0.665156 0.170019 0.441515
O O14 0.846286 0.000000 0.016886
O O15 0.287697 0.500000 0.358601
#
# Coordination Sequence:
#
# PCOD9203290 Si02
#       7
#     8   8   8   2   8   8   8
#     4  11  23  37  54  85 120 162 194 249 305 368
#     4   9  18  33  59  85 112 147 200 255 305 351
#     4   9  18  32  54  77 110 150 200 233 288 361
#     4  12  24  40  58 100 120 152 194 270 304 346
#     4  11  23  37  60  85 124 152 196 251 309 351
#     4   8  15  32  56  84 110 149 199 251 297 365
#     4  10  20  39  61  85 109 163 204 239 292 377
#
# _framework density 20.858212000000002
#
# number of rings (size 3 to 8) (size 9 to 14) (size 15 to 20)
#    0.000    2.240    0.800    3.360    1.120    1.920 
#    0.000    4.800    0.000    0.960    0.000    0.000 
#    0.000    0.000    0.000    0.000    0.000    0.000 
#
# Total GULP energy -139187.022586 kJ/mol
# GULP energy per Si atom -5567.480903 kJ/mol
# Density = 2.081074 g / cm^3
# Si number density = 20.858212 Si / 1000 Ang^3
#
#
#
# Elastic Constant Matrix: (Units=GPa)
#
#
# Indices 1 2 3 4 5 6 
#
# 1 65.4231 -0.0158 7.4941 0.0000 -19.2671 0.0000
# 2 -0.0158 32.7227 -4.4749 0.0000 5.1138 0.0000
# 3 7.4941 -4.4749 92.5276 0.0000 -29.1258 0.0000
# 4 0.0000 0.0000 0.0000 10.8262 0.0000 2.5616
# 5 -19.2671 5.1138 -29.1258 0.0000 40.8743 0.0000
# 6 0.0000 0.0000 0.0000 2.5616 0.0000 19.1589
#
#
#
# Elastic Compliance Matrix: (Units=1/GPa)
#
#
# Indices 1 2 3 4 5 6 
#
# 1 0.017976 -0.001302 0.001547 0.000000 0.009738 0.000000
# 2 -0.001302 0.031273 0.000249 0.000000 -0.004349 0.000000
# 3 0.001547 0.000249 0.014070 0.000000 0.010724 0.000000
# 4 0.000000 0.000000 0.000000 0.095386 0.000000 -0.012754
# 5 0.009738 -0.004349 0.010724 0.000000 0.037241 0.000000
# 6 0.000000 0.000000 0.000000 -0.012754 0.000000 0.053900
#
#
# Mechanical properties :
#
#
# Convention : Reuss Voigt Hill
#
# Bulk Modulus (GPa) = 15.55066 21.85335 18.70200
# Shear Modulus (GPa) = 18.49843 26.68321 22.59082
#
# Velocity S-wave (km/s) = 2.98126 3.58056 3.29457
# Velocity P-wave (km/s) = 4.39570 5.25298 4.84334
#
# Compressibility (1/GPa) = 0.06430597
#
# Stress axis : x y z
#
# Youngs Moduli (GPa) = 55.63126 31.97659 71.07333
#
# Poissons Ratio (x) = 0.04162 -0.10992
# Poissons Ratio (y) = 0.07241 -0.01769
# Poissons Ratio (z) = -0.08603 -0.00796
#
# Static dielectric constant tensor:
#      x y z
#    x 1.811890 0.000000 -0.044260 
#    y 0.000000 1.696240 0.000000 
#    z -0.044260 0.000000 1.778650 
# 
# From -- ./inp_files/213326.got.cif
#   From: 2010.05.17/outbox.cif.g08.bks.cpg/sg12_107_cif.got.tgz:213326.got - 2010.06.03 13:09:07.
