data_PCOD9203470
_publ_section_title
;
Structure prediction by ZEFSAII (Michael W. Deem and Ramdas Pophale) SiO2 
 PCOD9203470
Probable space group: C 2/M
;
_chemical_formula_sum "Si O2"
_cell_formula_units_Z 50
_cell_length_a 26.280365
_cell_length_b 7.896810
_cell_length_c 14.427887
_cell_angle_alpha 90.000000
_cell_angle_beta 55.123473
_cell_angle_gamma 90.000000
_cell_volume 2456.428698
_symmetry_space_group_name_H-M "C 2/M"
_symmetry_group_IT_number 12
_symmetry_cell_setting 'monoclinic'
loop_
_space_group_symop_operation_xyz
x,y,z
-x,y,-z
-x,-y,-z
x,-y,z
1/2+x,1/2+y,z
1/2-x,1/2+y,-z
1/2-x,1/2-y,-z
1/2+x,1/2-y,z
loop_
_atom_site_type_symbol
_atom_site_label
_atom_site_fract_x
_atom_site_fract_y
_atom_site_fract_z
Si Si1 0.336902 0.693796 0.749680
Si Si2 0.479543 0.297005 0.260077
Si Si3 0.913048 0.202469 0.136423
Si Si4 0.060048 0.206100 0.497876
Si Si5 0.295138 0.689987 0.154477
Si Si6 0.500000 0.000000 0.000000
Si Si7 0.122142 0.691013 0.094171
O O1 0.356997 0.500000 0.745760
O O2 0.379406 0.761362 0.621644
O O3 0.264997 0.698369 0.798463
O O4 0.350027 0.786496 0.832219
O O5 0.485421 0.500000 0.259186
O O6 0.437389 0.260181 0.214631
O O7 0.449596 0.233855 0.387081
O O8 0.548947 0.227995 0.176148
O O9 0.840303 0.226866 0.193556
O O10 0.947971 0.346353 0.041130
O O11 0.926130 0.000000 0.102125
O O12 0.000000 0.253077 0.500000
O O13 0.061920 0.000000 0.500643
O O14 0.270832 0.500000 0.189514
O O15 0.340643 0.697371 0.018214
O O16 0.132399 0.500000 0.053056
#
# Coordination Sequence:
#
# PCOD9203470 Si02
#       7
#     8   8   8   8   8   2   8
#     4  11  22  39  63  89 118 159 207 250 302 370
#     4  10  20  39  63  88 122 157 203 252 307 364
#     4  10  24  40  60  91 127 168 208 255 309 367
#     4   9  17  35  63  90 115 152 200 254 307 362
#     4  11  24  42  59  83 125 166 204 247 306 372
#     4  12  22  36  68  86 130 160 212 256 304 362
#     4  12  24  36  57  90 123 159 199 249 308 366
#
# _framework density 20.354752999999999
#
# number of rings (size 3 to 8) (size 9 to 14) (size 15 to 20)
#    0.000    1.440    1.600    4.080    5.600    2.560 
#    0.000    3.200    0.000    0.000    0.000    0.000 
#    0.000    0.000    0.000    0.000    0.000    0.000 
#
# Total GULP energy -139367.307782 kJ/mol
# GULP energy per Si atom -5574.692311 kJ/mol
# Density = 2.030842 g / cm^3
# Si number density = 20.354753 Si / 1000 Ang^3
#
#
#
# Elastic Constant Matrix: (Units=GPa)
#
#
# Indices 1 2 3 4 5 6 
#
# 1 140.4475 20.8212 55.3611 0.0000 0.4620 0.0000
# 2 20.8212 52.3483 -0.6086 0.0000 2.9843 0.0000
# 3 55.3611 -0.6086 89.9714 0.0000 -6.3871 0.0000
# 4 0.0000 0.0000 0.0000 -2.8931 0.0000 -6.1027
# 5 0.4620 2.9843 -6.3871 0.0000 21.6560 0.0000
# 6 0.0000 0.0000 0.0000 -6.1027 0.0000 26.6188
#
#
#
# Elastic Compliance Matrix: (Units=1/GPa)
#
#
# Indices 1 2 3 4 5 6 
#
# 1 0.010276 -0.004073 -0.006462 0.000000 -0.001564 0.000000
# 2 -0.004073 0.020869 0.002502 0.000000 -0.002051 0.000000
# 3 -0.006462 0.002502 0.015416 0.000000 0.004340 0.000000
# 4 0.000000 0.000000 0.000000 -0.232979 0.000000 -0.053414
# 5 -0.001564 -0.002051 0.004340 0.000000 0.047773 0.000000
# 6 0.000000 0.000000 0.000000 -0.053414 0.000000 0.025322
#
#
# Mechanical properties :
#
#
# Convention : Reuss Voigt Hill
#
# Bulk Modulus (GPa) = 32.79256 48.21272 40.50264
# Shear Modulus (GPa) = -57.40964 22.88923 -17.26020
#
# Velocity S-wave (km/s) = -5.31656 3.35702 -2.91515
# Velocity P-wave (km/s) = 4.64136 6.22605 2.93441
#
# Compressibility (1/GPa) = 0.03049472
#
# Stress axis : x y z
#
# Youngs Moduli (GPa) = 97.31298 47.91808 64.86929
#
# Poissons Ratio (x) = 0.19518 0.41916
# Poissons Ratio (y) = 0.39638 -0.16230
# Poissons Ratio (z) = 0.62880 -0.11989
#
# Static dielectric constant tensor:
#      x y z
#    x 1.731340 0.000000 0.026120 
#    y 0.000000 2.388510 0.000000 
#    z 0.026120 0.000000 1.723170 
# 
# From -- ./inp_files/243578.got.cif
#   From: 2010.05.17/outbox.cif.g08.bks.cpg/sg12_122_cif.got.tgz:243578.got - 2010.06.03 13:09:07.
