data_PCOD9203535
_publ_section_title
;
Structure prediction by ZEFSAII (Michael W. Deem and Ramdas Pophale) SiO2 
 PCOD9203535
Probable space group: C 2/M
;
_chemical_formula_sum "Si O2"
_cell_formula_units_Z 32
_cell_length_a 15.864541
_cell_length_b 17.946287
_cell_length_c 12.413694
_cell_angle_alpha 90.000000
_cell_angle_beta 153.918536
_cell_angle_gamma 90.000000
_cell_volume 1553.849214
_symmetry_space_group_name_H-M "C 2/M"
_symmetry_group_IT_number 12
_symmetry_cell_setting 'monoclinic'
loop_
_space_group_symop_operation_xyz
x,y,z
-x,y,-z
-x,-y,-z
x,-y,z
1/2+x,1/2+y,z
1/2-x,1/2+y,-z
1/2-x,1/2-y,-z
1/2+x,1/2-y,z
loop_
_atom_site_type_symbol
_atom_site_label
_atom_site_fract_x
_atom_site_fract_y
_atom_site_fract_z
Si Si1 0.225984 0.000000 0.271417
Si Si2 0.243659 0.500000 0.438615
Si Si3 0.370762 0.841141 0.443845
Si Si4 0.873224 0.000000 0.246795
Si Si5 0.500000 0.245373 0.000000
Si Si6 0.452910 0.875923 0.122059
O O1 0.271041 0.000000 0.449777
O O2 0.309613 0.922311 0.326496
O O3 0.000000 0.000000 0.000000
O O4 0.464067 0.500000 0.658001
O O5 0.124294 0.427036 0.267861
O O6 0.500000 0.804288 0.500000
O O7 0.176476 0.796072 0.240493
O O8 0.482530 0.851413 0.684261
O O9 0.000000 0.000000 0.500000
O O10 0.732965 0.071257 0.082632
O O11 0.429770 0.193710 0.017367
#
# Coordination Sequence:
#
# PCOD9203535 Si02
#       6
#     4   4   8   4   4   8
#     4  10  20  39  64  87 119 154 199 255 308 359
#     4   9  21  39  65  91 120 160 200 259 312 348
#     4  11  25  41  64  93 124 164 208 257 309 367
#     4  11  22  39  69  95 118 164 209 258 312 357
#     4  12  24  42  62  86 134 172 202 248 312 368
#     4  10  24  42  62  95 127 158 213 259 298 374
#
# _framework density 20.594018999999999
#
# number of rings (size 3 to 8) (size 9 to 14) (size 15 to 20)
#    0.000    1.500    1.250    3.375    3.500    6.000 
#    0.000    0.000    0.000    0.000    0.000    0.000 
#    0.000    0.000    0.000    0.000    0.000    0.000 
#
# Total GULP energy -89408.229467 kJ/mol
# GULP energy per Si atom -5588.014342 kJ/mol
# Density = 2.054715 g / cm^3
# Si number density = 20.594019 Si / 1000 Ang^3
#
#
#
# Elastic Constant Matrix: (Units=GPa)
#
#
# Indices 1 2 3 4 5 6 
#
# 1 76.0440 24.8532 38.5894 0.0000 20.9874 0.0000
# 2 24.8532 80.7607 46.8860 0.0000 6.4091 0.0000
# 3 38.5894 46.8860 145.3448 0.0000 5.7639 0.0000
# 4 0.0000 0.0000 0.0000 -109.2041 0.0000 61.4438
# 5 20.9874 6.4091 5.7639 0.0000 44.6452 0.0000
# 6 0.0000 0.0000 0.0000 61.4438 0.0000 -30.9680
#
#
#
# Elastic Compliance Matrix: (Units=1/GPa)
#
#
# Indices 1 2 3 4 5 6 
#
# 1 0.017982 -0.002873 -0.003547 0.000000 -0.007583 0.000000
# 2 -0.002873 0.015803 -0.004321 0.000000 -0.000360 0.000000
# 3 -0.003547 -0.004321 0.009172 0.000000 0.001103 0.000000
# 4 0.000000 0.000000 0.000000 0.078697 0.000000 0.156144
# 5 -0.007583 -0.000360 0.001103 0.000000 0.025873 0.000000
# 6 0.000000 0.000000 0.000000 0.156144 0.000000 0.277515
#
#
# Mechanical properties :
#
#
# Convention : Reuss Voigt Hill
#
# Bulk Modulus (GPa) = 46.56318 58.08965 52.32642
# Shear Modulus (GPa) = 11.02093 -6.31732 2.35181
#
# Velocity S-wave (km/s) = 2.31585 -1.75334 1.06980
# Velocity P-wave (km/s) = 5.45985 4.91623 5.19516
#
# Compressibility (1/GPa) = 0.02147619
#
# Stress axis : x y z
#
# Youngs Moduli (GPa) = 55.61165 63.27719 109.02786
#
# Poissons Ratio (x) = 0.18179 0.38670
# Poissons Ratio (y) = 0.15976 0.47110
# Poissons Ratio (z) = 0.19724 0.27342
#
# Static dielectric constant tensor:
#      x y z
#    x 1.812630 0.000000 -0.012060 
#    y 0.000000 1.768760 0.000000 
#    z -0.012060 0.000000 1.739910 
# 
# From -- ./inp_files/10213.got.cif
#   From: 2010.05.17/outbox.cif.g08.bks.cpg/sg12_6_cif.got.tgz:10213.got - 2010.06.03 13:09:07.
