data_PCOD9203728
_publ_section_title
;
Structure prediction by ZEFSAII (Michael W. Deem and Ramdas Pophale) SiO2 
 PCOD9203728
Probable space group: C 2/M
;
_chemical_formula_sum "Si O2"
_cell_formula_units_Z 42
_cell_length_a 16.904292
_cell_length_b 16.814015
_cell_length_c 8.060717
_cell_angle_alpha 90.000000
_cell_angle_beta 110.675840
_cell_angle_gamma 90.000000
_cell_volume 2143.527469
_symmetry_space_group_name_H-M "C 2/M"
_symmetry_group_IT_number 12
_symmetry_cell_setting 'monoclinic'
loop_
_space_group_symop_operation_xyz
x,y,z
-x,y,-z
-x,-y,-z
x,-y,z
1/2+x,1/2+y,z
1/2-x,1/2+y,-z
1/2-x,1/2-y,-z
1/2+x,1/2-y,z
loop_
_atom_site_type_symbol
_atom_site_label
_atom_site_fract_x
_atom_site_fract_y
_atom_site_fract_z
Si Si1 0.132742 0.362444 0.486034
Si Si2 0.000000 0.500000 0.500000
Si Si3 0.315192 0.251085 0.198892
Si Si4 0.539301 0.412319 0.344178
Si Si5 0.999701 0.745442 0.810599
Si Si6 0.716416 0.412517 0.630811
O O1 0.072848 0.429842 0.520417
O O2 0.191434 0.314656 0.660789
O O3 0.070911 0.298839 0.350610
O O4 0.194977 0.398769 0.394355
O O5 0.408512 0.234087 0.199410
O O6 0.304907 0.338639 0.268132
O O7 0.250000 0.250000 0.000000
O O8 0.500000 0.398643 0.500000
O O9 0.510429 0.500000 0.268931
O O10 0.516028 0.339599 0.211688
O O11 0.639922 0.413110 0.442775
O O12 0.000000 0.716907 0.000000
O O13 0.715641 0.500000 0.712371
#
# Coordination Sequence:
#
# PCOD9203728 Si02
#       6
#     8   2   8   8   8   8
#     4  12  24  48  70  97 134 179 228 281 341 400
#     4  12  24  48  78  96 132 178 230 288 338 396
#     4  12  25  43  67  99 135 178 225 280 338 402
#     4  10  20  39  66  93 131 174 215 267 331 395
#     4  12  24  41  67  97 132 180 220 270 339 403
#     4  11  23  41  69 101 131 173 221 277 336 397
#
# _framework density 19.593871
#
# number of rings (size 3 to 8) (size 9 to 14) (size 15 to 20)
#    0.000    0.571    6.667    1.714    2.667    0.381 
#    1.714    0.476    0.000    0.000    0.000    0.000 
#    0.000    0.000    0.000    0.000    0.000    0.000 
#
# Total GULP energy -117003.596248 kJ/mol
# GULP energy per Si atom -5571.599821 kJ/mol
# Density = 1.954927 g / cm^3
# Si number density = 19.593871 Si / 1000 Ang^3
#
#
#
# Elastic Constant Matrix: (Units=GPa)
#
#
# Indices 1 2 3 4 5 6 
#
# 1 86.5543 -3.5284 -10.5715 0.0000 0.8652 0.0000
# 2 -3.5284 109.5959 28.6277 0.0000 -7.9659 0.0000
# 3 -10.5715 28.6277 69.2838 0.0000 7.7479 0.0000
# 4 0.0000 0.0000 0.0000 0.5715 0.0000 4.4702
# 5 0.8652 -7.9659 7.7479 0.0000 24.9388 0.0000
# 6 0.0000 0.0000 0.0000 4.4702 0.0000 28.7486
#
#
#
# Elastic Compliance Matrix: (Units=1/GPa)
#
#
# Indices 1 2 3 4 5 6 
#
# 1 0.011802 -0.000228 0.002019 0.000000 -0.001110 0.000000
# 2 -0.000228 0.010805 -0.005062 0.000000 0.005032 0.000000
# 3 0.002019 -0.005062 0.017634 0.000000 -0.007166 0.000000
# 4 0.000000 0.000000 0.000000 -8.092483 0.000000 1.258338
# 5 -0.001110 0.005032 -0.007166 0.000000 0.043970 0.000000
# 6 0.000000 0.000000 0.000000 1.258338 0.000000 -0.160881
#
#
# Mechanical properties :
#
#
# Convention : Reuss Voigt Hill
#
# Bulk Modulus (GPa) = 29.67439 32.72105 31.19772
# Shear Modulus (GPa) = -0.61339 27.57886 13.48273
#
# Velocity S-wave (km/s) = -0.56012 3.75577 2.62603
# Velocity P-wave (km/s) = 3.84178 5.96185 5.01512
#
# Compressibility (1/GPa) = 0.03369909
#
# Stress axis : x y z
#
# Youngs Moduli (GPa) = 84.73252 92.54881 56.70733
#
# Poissons Ratio (x) = 0.02111 -0.11450
# Poissons Ratio (y) = 0.01933 0.28706
# Poissons Ratio (z) = -0.17108 0.46849
#
# Static dielectric constant tensor:
#      x y z
#    x 1.700740 0.000000 -0.026120 
#    y 0.000000 1.706030 0.000000 
#    z -0.026120 0.000000 1.697910 
# 
# From -- ./inp_files/73271.got.cif
#   From: 2010.05.17/outbox.cif.g08.bks.cpg/sg12_37_cif.got.tgz:73271.got - 2010.06.03 13:09:07.
