data_PCOD9203542
_publ_section_title
;
Structure prediction by ZEFSAII (Michael W. Deem and Ramdas Pophale) SiO2 
 PCOD9203542
Probable space group: C 2/M
;
_chemical_formula_sum "Si O2"
_cell_formula_units_Z 56
_cell_length_a 10.967468
_cell_length_b 30.749395
_cell_length_c 9.244671
_cell_angle_alpha 90.000000
_cell_angle_beta 110.416804
_cell_angle_gamma 90.000000
_cell_volume 2921.845802
_symmetry_space_group_name_H-M "C 2/M"
_symmetry_group_IT_number 12
_symmetry_cell_setting 'monoclinic'
loop_
_space_group_symop_operation_xyz
x,y,z
-x,y,-z
-x,-y,-z
x,-y,z
1/2+x,1/2+y,z
1/2-x,1/2+y,-z
1/2-x,1/2-y,-z
1/2+x,1/2-y,z
loop_
_atom_site_type_symbol
_atom_site_label
_atom_site_fract_x
_atom_site_fract_y
_atom_site_fract_z
Si Si1 0.719871 0.177618 0.595025
Si Si2 0.651612 0.758860 0.825123
Si Si3 0.816585 0.165448 0.136145
Si Si4 0.630494 0.448794 0.150699
Si Si5 0.043673 0.115406 0.356286
Si Si6 0.829957 0.620437 0.167910
Si Si7 0.567474 0.171690 0.234285
O O1 0.709655 0.219368 0.700816
O O2 0.859290 0.157328 0.608053
O O3 0.661648 0.138641 0.666953
O O4 0.632075 0.181394 0.416752
O O5 0.607741 0.709277 0.788902
O O6 0.533517 0.788883 0.828259
O O7 0.750000 0.750000 0.000000
O O8 0.684870 0.168140 0.172794
O O9 0.911872 0.127314 0.219084
O O10 0.768032 0.154407 0.954400
O O11 0.650400 0.500000 0.176691
O O12 0.608034 0.423685 0.292840
O O13 0.756144 0.425049 0.132072
O O14 0.500000 0.442436 0.000000
O O15 0.000000 0.104867 0.500000
O O16 0.976709 0.628888 0.177671
#
# Coordination Sequence:
#
# PCOD9203542 Si02
#       7
#     8   8   8   8   8   8   8
#     4  10  22  41  61  85 121 169 207 254 304 354
#     4  11  23  38  56  84 120 163 216 263 295 346
#     4  12  23  38  59  89 118 167 213 257 302 358
#     4  10  21  40  69  98 122 152 197 256 314 377
#     4  11  23  41  63  93 125 164 204 251 310 374
#     4  10  20  39  64  88 118 158 204 247 306 374
#     4  11  23  41  61  85 124 169 208 254 310 356
#
# _framework density 19.165967999999999
#
# number of rings (size 3 to 8) (size 9 to 14) (size 15 to 20)
#    0.000    1.286    5.714    2.143    2.000    2.000 
#    0.000    0.000    0.000    9.429    0.000    0.000 
#    0.000    0.000    0.000    0.000    0.000    0.000 
#
# Total GULP energy -155960.143504 kJ/mol
# GULP energy per Si atom -5570.005125 kJ/mol
# Density = 1.912235 g / cm^3
# Si number density = 19.165968 Si / 1000 Ang^3
#
#
#
# Elastic Constant Matrix: (Units=GPa)
#
#
# Indices 1 2 3 4 5 6 
#
# 1 87.7158 45.7472 15.4439 0.0000 13.0998 0.0000
# 2 45.7472 118.4152 30.5472 0.0000 1.3713 0.0000
# 3 15.4439 30.5472 97.7020 0.0000 14.2678 0.0000
# 4 0.0000 0.0000 0.0000 18.8663 0.0000 0.8923
# 5 13.0998 1.3713 14.2678 0.0000 25.7007 0.0000
# 6 0.0000 0.0000 0.0000 0.8923 0.0000 27.1388
#
#
#
# Elastic Compliance Matrix: (Units=1/GPa)
#
#
# Indices 1 2 3 4 5 6 
#
# 1 0.015682 -0.006121 0.000604 0.000000 -0.008001 0.000000
# 2 -0.006121 0.011609 -0.003294 0.000000 0.004330 0.000000
# 3 0.000604 -0.003294 0.012176 0.000000 -0.006891 0.000000
# 4 0.000000 0.000000 0.000000 0.053087 0.000000 -0.001746
# 5 -0.008001 0.004330 -0.006891 0.000000 0.046583 0.000000
# 6 0.000000 0.000000 0.000000 -0.001746 0.000000 0.036905
#
#
# Mechanical properties :
#
#
# Convention : Reuss Voigt Hill
#
# Bulk Modulus (GPa) = 45.78147 54.14551 49.96349
# Shear Modulus (GPa) = 24.88215 28.48082 26.68148
#
# Velocity S-wave (km/s) = 3.60703 3.85906 3.73517
# Velocity P-wave (km/s) = 6.42544 6.94037 6.68786
#
# Compressibility (1/GPa) = 0.02184290
#
# Stress axis : x y z
#
# Youngs Moduli (GPa) = 63.76882 86.13704 82.12730
#
# Poissons Ratio (x) = 0.52727 -0.04957
# Poissons Ratio (y) = 0.39035 0.27056
# Poissons Ratio (z) = -0.03849 0.28377
#
# Static dielectric constant tensor:
#      x y z
#    x 1.706490 0.000000 -0.005950 
#    y 0.000000 1.727120 0.000000 
#    z -0.005950 0.000000 1.712660 
# 
# From -- ./inp_files/54338.got.cif
#   From: 2010.05.17/outbox.cif.g08.bks.cpg/sg12_28_cif.got.tgz:54338.got - 2010.06.03 13:09:07.
