data_PCOD9203266
_publ_section_title
;
Structure prediction by ZEFSAII (Michael W. Deem and Ramdas Pophale) SiO2 
 PCOD9203266
Probable space group: C 2/M
;
_chemical_formula_sum "Si O2"
_cell_formula_units_Z 60
_cell_length_a 23.389105
_cell_length_b 22.033598
_cell_length_c 7.970253
_cell_angle_alpha 90.000000
_cell_angle_beta 42.081530
_cell_angle_gamma 90.000000
_cell_volume 2752.753924
_symmetry_space_group_name_H-M "C 2/M"
_symmetry_group_IT_number 12
_symmetry_cell_setting 'monoclinic'
loop_
_space_group_symop_operation_xyz
x,y,z
-x,y,-z
-x,-y,-z
x,-y,z
1/2+x,1/2+y,z
1/2-x,1/2+y,-z
1/2-x,1/2-y,-z
1/2+x,1/2-y,z
loop_
_atom_site_type_symbol
_atom_site_label
_atom_site_fract_x
_atom_site_fract_y
_atom_site_fract_z
Si Si1 0.500000 0.392634 0.500000
Si Si2 0.003757 0.567831 0.691879
Si Si3 0.321549 0.696655 0.558795
Si Si4 0.749053 0.315601 0.630776
Si Si5 0.704176 0.932826 0.294763
Si Si6 0.422167 0.821141 0.038911
Si Si7 0.322275 0.566430 0.724664
Si Si8 0.009909 0.198638 0.179124
O O1 0.585892 0.426486 0.379107
O O2 0.470529 0.353071 0.727164
O O3 0.982987 0.500000 0.800116
O O4 0.102934 0.580677 0.521458
O O5 0.000000 0.567117 0.500000
O O6 0.939314 0.618132 0.898928
O O7 0.322385 0.690515 0.354677
O O8 0.259912 0.754768 0.717588
O O9 0.307052 0.628689 0.655949
O O10 0.412017 0.716512 0.433319
O O11 0.744335 0.377974 0.736845
O O12 0.834893 0.321507 0.330767
O O13 0.716949 0.000000 0.343063
O O14 0.742754 0.935983 0.024996
O O15 0.434955 0.758866 0.910402
O O16 0.500000 0.818583 0.000000
O O17 0.324784 0.500000 0.631262
O O18 0.000000 0.181494 0.000000
#
# Coordination Sequence:
#
# PCOD9203266 Si02
#       8
#     4   8   8   8   8   8   8   8
#     4  10  23  38  70  92 113 168 204 256 317 376
#     4  10  22  37  55  82 116 159 206 245 291 359
#     4  10  22  38  60  87 119 157 195 251 303 364
#     4  11  22  38  59  89 120 157 200 244 307 363
#     4  10  22  39  57  83 121 156 197 248 294 359
#     4  11  20  37  58  83 119 155 194 251 299 358
#     4  10  23  43  63  87 122 158 201 255 310 367
#     4  10  20  39  60  92 124 154 201 258 313 367
#
# _framework density 21.796354999999998
#
# number of rings (size 3 to 8) (size 9 to 14) (size 15 to 20)
#    0.000    1.733    4.000    0.200    4.667    1.867 
#    0.000    0.000    0.000    2.000    0.000    0.000 
#    0.000    0.000    0.000    0.000    0.000    0.000 
#
# Total GULP energy -167216.196837 kJ/mol
# GULP energy per Si atom -5573.873228 kJ/mol
# Density = 2.174675 g / cm^3
# Si number density = 21.796355 Si / 1000 Ang^3
#
#
#
# Elastic Constant Matrix: (Units=GPa)
#
#
# Indices 1 2 3 4 5 6 
#
# 1 52.3859 33.1584 0.6593 0.0000 -11.8747 0.0000
# 2 33.1584 172.4238 45.7555 0.0000 8.6837 0.0000
# 3 0.6593 45.7555 59.9823 0.0000 -9.3442 0.0000
# 4 0.0000 0.0000 0.0000 32.1700 0.0000 7.4108
# 5 -11.8747 8.6837 -9.3442 0.0000 29.6493 0.0000
# 6 0.0000 0.0000 0.0000 7.4108 0.0000 41.0677
#
#
#
# Elastic Compliance Matrix: (Units=1/GPa)
#
#
# Indices 1 2 3 4 5 6 
#
# 1 0.028182 -0.008599 0.008834 0.000000 0.016590 0.000000
# 2 -0.008599 0.010397 -0.009304 0.000000 -0.009421 0.000000
# 3 0.008834 -0.009304 0.025920 0.000000 0.014432 0.000000
# 4 0.000000 0.000000 0.000000 0.032433 0.000000 -0.005853
# 5 0.016590 -0.009421 0.014432 0.000000 0.047680 0.000000
# 6 0.000000 0.000000 0.000000 -0.005853 0.000000 0.025406
#
#
# Mechanical properties :
#
#
# Convention : Reuss Voigt Hill
#
# Bulk Modulus (GPa) = 21.57019 49.32649 35.44834
# Shear Modulus (GPa) = 24.55689 34.25864 29.40777
#
# Velocity S-wave (km/s) = 3.36020 3.96884 3.67714
# Velocity P-wave (km/s) = 4.99723 6.60924 5.85894
#
# Compressibility (1/GPa) = 0.04636029
#
# Stress axis : x y z
#
# Youngs Moduli (GPa) = 35.48427 96.18279 38.58014
#
# Poissons Ratio (x) = 0.82711 -0.34083
# Poissons Ratio (y) = 0.30514 0.35895
# Poissons Ratio (z) = -0.31348 0.89489
#
# Static dielectric constant tensor:
#      x y z
#    x 1.820920 0.000000 -0.025450 
#    y 0.000000 1.866130 0.000000 
#    z -0.025450 0.000000 1.824810 
# 
# From -- ./inp_files/106536.got.cif
#   From: 2010.05.17/outbox.cif.g08.bks.cpg/sg12_54_cif.got.tgz:106536.got - 2010.06.03 13:09:07.
