data_PCOD9203944
_publ_section_title
;
Structure prediction by ZEFSAII (Michael W. Deem and Ramdas Pophale) SiO2 
 PCOD9203944
Probable space group: C 2/M
;
_chemical_formula_sum "Si O2"
_cell_formula_units_Z 56
_cell_length_a 19.182704
_cell_length_b 8.593744
_cell_length_c 27.936908
_cell_angle_alpha 90.000000
_cell_angle_beta 142.407484
_cell_angle_gamma 90.000000
_cell_volume 2809.506727
_symmetry_space_group_name_H-M "C 2/M"
_symmetry_group_IT_number 12
_symmetry_cell_setting 'monoclinic'
loop_
_space_group_symop_operation_xyz
x,y,z
-x,y,-z
-x,-y,-z
x,-y,z
1/2+x,1/2+y,z
1/2-x,1/2+y,-z
1/2-x,1/2-y,-z
1/2+x,1/2-y,z
loop_
_atom_site_type_symbol
_atom_site_label
_atom_site_fract_x
_atom_site_fract_y
_atom_site_fract_z
Si Si1 0.148212 0.188221 0.976284
Si Si2 0.640517 0.813727 0.337048
Si Si3 0.598122 0.310378 0.516130
Si Si4 0.076544 0.814525 0.203301
Si Si5 0.477203 0.688070 0.631346
Si Si6 0.862955 0.818696 0.923463
Si Si7 0.740536 0.316330 0.766192
O O1 0.027719 0.238962 0.887657
O O2 0.145626 0.000000 0.976299
O O3 0.250000 0.250000 0.000000
O O4 0.170973 0.240554 0.042788
O O5 0.772454 0.761186 0.402002
O O6 0.570495 0.754406 0.253098
O O7 0.589676 0.754707 0.359545
O O8 0.639244 0.000000 0.336763
O O9 0.500000 0.257490 0.500000
O O10 0.596007 0.500000 0.516463
O O11 0.572077 0.264547 0.447201
O O12 0.193926 0.764776 0.241699
O O13 0.071086 0.000000 0.203297
O O14 0.471827 0.500000 0.631318
O O15 0.610375 0.735053 0.703536
O O16 0.811364 0.721490 0.852434
O O17 0.828670 0.000000 0.898012
O O18 0.000000 0.816360 0.000000
O O19 0.739002 0.500000 0.755481
#
# Coordination Sequence:
#
# PCOD9203944 Si02
#       7
#     8   8   8   8   8   8   8
#     4  10  23  40  60  84 115 155 197 243 297 355
#     4  11  23  38  61  92 121 155 201 246 289 346
#     4   9  18  37  64  89 119 157 196 240 291 347
#     4  11  23  42  62  84 119 160 197 242 302 358
#     4  10  22  40  61  88 124 162 194 237 297 353
#     4  10  20  40  62  83 115 157 198 241 299 354
#     4  11  23  38  61  91 118 152 202 249 293 351
#
# _framework density 19.932323
#
# number of rings (size 3 to 8) (size 9 to 14) (size 15 to 20)
#    0.000    1.714    1.429    2.571    2.000    5.429 
#    0.000    0.714    0.000    3.000    0.000    0.000 
#    0.000    0.000    0.000    0.000    0.000    0.000 
#
# Total GULP energy -156427.577860 kJ/mol
# GULP energy per Si atom -5586.699209 kJ/mol
# Density = 1.988696 g / cm^3
# Si number density = 19.932323 Si / 1000 Ang^3
#
#
#
# Elastic Constant Matrix: (Units=GPa)
#
#
# Indices 1 2 3 4 5 6 
#
# 1 128.6305 16.6007 17.8288 0.0000 -14.2371 0.0000
# 2 16.6007 19.4954 13.1457 0.0000 -0.4901 0.0000
# 3 17.8288 13.1457 70.6205 0.0000 -9.3793 0.0000
# 4 0.0000 0.0000 0.0000 14.0833 0.0000 0.1983
# 5 -14.2371 -0.4901 -9.3793 0.0000 38.8379 0.0000
# 6 0.0000 0.0000 0.0000 0.1983 0.0000 34.4321
#
#
#
# Elastic Compliance Matrix: (Units=1/GPa)
#
#
# Indices 1 2 3 4 5 6 
#
# 1 0.009142 -0.007353 -0.000523 0.000000 0.003132 0.000000
# 2 -0.007353 0.064716 -0.010786 0.000000 -0.004484 0.000000
# 3 -0.000523 -0.010786 0.016795 0.000000 0.003728 0.000000
# 4 0.000000 0.000000 0.000000 0.071012 0.000000 -0.000409
# 5 0.003132 -0.004484 0.003728 0.000000 0.027740 0.000000
# 6 0.000000 0.000000 0.000000 -0.000409 0.000000 0.029045
#
#
# Mechanical properties :
#
#
# Convention : Reuss Voigt Hill
#
# Bulk Modulus (GPa) = 18.75161 34.87742 26.81451
# Shear Modulus (GPa) = 18.27813 28.88208 23.58010
#
# Velocity S-wave (km/s) = 3.03150 3.81071 3.44322
# Velocity P-wave (km/s) = 4.65633 6.07437 5.41199
#
# Compressibility (1/GPa) = 0.05332876
#
# Stress axis : x y z
#
# Youngs Moduli (GPa) = 109.38015 15.45221 59.54109
#
# Poissons Ratio (x) = 0.11363 0.03116
# Poissons Ratio (y) = 0.80431 0.64218
# Poissons Ratio (z) = 0.05724 0.16666
#
# Static dielectric constant tensor:
#      x y z
#    x 1.783440 0.000000 -0.022970 
#    y 0.000000 1.679940 0.000000 
#    z -0.022970 0.000000 1.713430 
# 
# From -- ./inp_files/363188.got.cif
#   From: 2010.05.17/outbox.cif.g08.bks.cpg/sg12_182_cif.got.tgz:363188.got - 2010.06.03 13:09:07.
