data_PCOD9203332
_publ_section_title
;
Structure prediction by ZEFSAII (Michael W. Deem and Ramdas Pophale) SiO2 
 PCOD9203332
Probable space group: C 2/M
;
_chemical_formula_sum "Si O2"
_cell_formula_units_Z 48
_cell_length_a 25.125388
_cell_length_b 9.769266
_cell_length_c 9.481897
_cell_angle_alpha 90.000000
_cell_angle_beta 78.708480
_cell_angle_gamma 90.000000
_cell_volume 2282.344327
_symmetry_space_group_name_H-M "C 2/M"
_symmetry_group_IT_number 12
_symmetry_cell_setting 'monoclinic'
loop_
_space_group_symop_operation_xyz
x,y,z
-x,y,-z
-x,-y,-z
x,-y,z
1/2+x,1/2+y,z
1/2-x,1/2+y,-z
1/2-x,1/2-y,-z
1/2+x,1/2-y,z
loop_
_atom_site_type_symbol
_atom_site_label
_atom_site_fract_x
_atom_site_fract_y
_atom_site_fract_z
Si Si1 0.395655 0.658796 0.736347
Si Si2 0.286573 0.842883 0.283787
Si Si3 0.998279 0.338582 0.669973
Si Si4 0.666446 0.657253 0.960361
Si Si5 0.550134 0.341631 0.865857
Si Si6 0.328925 0.345657 0.498323
O O1 0.413589 0.500000 0.748576
O O2 0.442469 0.765495 0.744244
O O3 0.376353 0.674271 0.586068
O O4 0.345799 0.679955 0.868983
O O5 0.293251 0.760791 0.135835
O O6 0.323558 0.764630 0.379227
O O7 0.226478 0.839140 0.381263
O O8 0.302522 0.000000 0.257873
O O9 0.999422 0.500000 0.699540
O O10 0.000000 0.320404 0.500000
O O11 0.043328 0.258850 0.737113
O O12 0.684035 0.500000 0.931358
O O13 0.607108 0.673605 0.917368
O O14 0.546238 0.500000 0.820815
O O15 0.500000 0.317641 0.000000
O O16 0.332675 0.500000 0.436196
#
# Coordination Sequence:
#
# PCOD9203332 Si02
#       6
#     8   8   8   8   8   8
#     4  10  21  40  62  83 110 148 195 237 274 330
#     4  10  21  37  58  86 118 149 185 230 285 341
#     4  11  25  40  55  84 121 150 183 232 289 338
#     4  10  21  37  59  86 113 146 191 236 277 330
#     4  10  20  39  62  83 110 150 196 232 271 331
#     4   9  20  39  61  84 112 150 192 233 277 332
#
# _framework density 21.031008
#
# number of rings (size 3 to 8) (size 9 to 14) (size 15 to 20)
#    0.000    2.000    1.667    1.000    2.333    5.000 
#    0.000    0.000    0.000    0.000    0.000    0.000 
#    0.000    0.000    0.000    0.000    0.000    0.000 
#
# Total GULP energy -134161.131193 kJ/mol
# GULP energy per Si atom -5590.047133 kJ/mol
# Density = 2.098314 g / cm^3
# Si number density = 21.031008 Si / 1000 Ang^3
#
#
#
# Elastic Constant Matrix: (Units=GPa)
#
#
# Indices 1 2 3 4 5 6 
#
# 1 32.7932 15.0055 -1.0577 0.0000 -0.5976 0.0000
# 2 15.0055 107.7502 56.0412 0.0000 -2.6766 0.0000
# 3 -1.0577 56.0412 80.7037 0.0000 -4.8577 0.0000
# 4 0.0000 0.0000 0.0000 28.7979 0.0000 -1.6334
# 5 -0.5976 -2.6766 -4.8577 0.0000 32.1983 0.0000
# 6 0.0000 0.0000 0.0000 -1.6334 0.0000 -5.5560
#
#
#
# Elastic Compliance Matrix: (Units=1/GPa)
#
#
# Indices 1 2 3 4 5 6 
#
# 1 0.034295 -0.007851 0.005954 0.000000 0.000882 0.000000
# 2 -0.007851 0.016328 -0.011472 0.000000 -0.000519 0.000000
# 3 0.005954 -0.011472 0.020572 0.000000 0.002260 0.000000
# 4 0.000000 0.000000 0.000000 0.034155 0.000000 -0.010041
# 5 0.000882 -0.000519 0.002260 0.000000 0.031372 0.000000
# 6 0.000000 0.000000 0.000000 -0.010041 0.000000 -0.177033
#
#
# Mechanical properties :
#
#
# Convention : Reuss Voigt Hill
#
# Bulk Modulus (GPa) = 22.49401 40.13610 31.31506
# Shear Modulus (GPa) = 4014.53167 21.17191 2017.85179
#
# Velocity S-wave (km/s) = 43.73794 3.17629 31.00884
# Velocity P-wave (km/s) = 50.61023 5.70767 36.01370
#
# Compressibility (1/GPa) = 0.04445628
#
# Stress axis : x y z
#
# Youngs Moduli (GPa) = 29.15906 61.24454 48.61062
#
# Poissons Ratio (x) = 0.48082 -0.28944
# Poissons Ratio (y) = 0.22892 0.55768
# Poissons Ratio (z) = -0.17362 0.70262
#
# Static dielectric constant tensor:
#      x y z
#    x 1.773900 0.000000 -0.010630 
#    y 0.000000 1.703430 0.000000 
#    z -0.010630 0.000000 1.769270 
# 
# From -- ./inp_files/108658.got.cif
#   From: 2010.05.17/outbox.cif.g08.bks.cpg/sg12_55_cif.got.tgz:108658.got - 2010.06.03 13:09:07.
