data_PCOD9203496
_publ_section_title
;
Structure prediction by ZEFSAII (Michael W. Deem and Ramdas Pophale) SiO2 
 PCOD9203496
Probable space group: C 2/M
;
_chemical_formula_sum "Si O2"
_cell_formula_units_Z 58
_cell_length_a 18.386577
_cell_length_b 13.708233
_cell_length_c 12.180030
_cell_angle_alpha 90.000000
_cell_angle_beta 107.775116
_cell_angle_gamma 90.000000
_cell_volume 2923.393022
_symmetry_space_group_name_H-M "C 2/M"
_symmetry_group_IT_number 12
_symmetry_cell_setting 'monoclinic'
loop_
_space_group_symop_operation_xyz
x,y,z
-x,y,-z
-x,-y,-z
x,-y,z
1/2+x,1/2+y,z
1/2-x,1/2+y,-z
1/2-x,1/2-y,-z
1/2+x,1/2-y,z
loop_
_atom_site_type_symbol
_atom_site_label
_atom_site_fract_x
_atom_site_fract_y
_atom_site_fract_z
Si Si1 0.177991 0.220471 0.543796
Si Si2 0.587547 0.392046 0.081621
Si Si3 0.041951 0.356429 0.825379
Si Si4 0.298747 0.886679 0.730998
Si Si5 0.178177 0.708480 0.028716
Si Si6 0.000000 0.500000 0.000000
Si Si7 0.085878 0.783429 0.294791
Si Si8 0.920194 0.391809 0.404737
O O1 0.250000 0.250000 0.500000
O O2 0.216364 0.142259 0.642581
O O3 0.110731 0.188942 0.429091
O O4 0.143730 0.312102 0.595280
O O5 0.616590 0.500000 0.066687
O O6 0.631870 0.301920 0.050444
O O7 0.597255 0.371564 0.215750
O O8 0.500000 0.386927 0.000000
O O9 0.058887 0.398581 0.713449
O O10 0.997674 0.257295 0.773504
O O11 0.123406 0.345303 0.919493
O O12 0.996883 0.415834 0.899411
O O13 0.300865 0.861657 0.860839
O O14 0.360758 0.811400 0.708397
O O15 0.316536 0.000000 0.718850
O O16 0.250000 0.750000 0.000000
O O17 0.897028 0.500000 0.434001
O O18 0.000000 0.365113 0.500000
#
# Coordination Sequence:
#
# PCOD9203496 Si02
#       8
#     8   8   8   8   8   2   8   8
#     4  10  22  42  63  92 132 180 227 275 340 411
#     4  10  20  39  63  91 123 168 224 280 331 405
#     4  12  23  39  65  99 140 171 229 281 348 417
#     4  10  23  39  61  89 129 171 221 275 337 401
#     4  11  24  41  60  92 132 172 217 279 351 403
#     4  12  24  36  62 108 138 176 218 276 350 422
#     4  10  21  38  64  96 126 168 221 281 334 397
#     4  11  23  41  66 102 138 179 223 287 356 407
#
# _framework density 19.839959
#
# number of rings (size 3 to 8) (size 9 to 14) (size 15 to 20)
#    0.000    1.379    3.448    2.483    3.862    3.310 
#    0.000    8.276    0.000    0.414    0.000    0.000 
#    0.000    0.000    0.000    0.000    0.000    0.000 
#
# Total GULP energy -161441.009831 kJ/mol
# GULP energy per Si atom -5566.931373 kJ/mol
# Density = 1.979480 g / cm^3
# Si number density = 19.839959 Si / 1000 Ang^3
#
#
#
# Elastic Constant Matrix: (Units=GPa)
#
#
# Indices 1 2 3 4 5 6 
#
# 1 35.8878 7.7003 21.8022 0.0000 -4.4975 0.0000
# 2 7.7003 74.6195 25.1767 0.0000 1.3810 0.0000
# 3 21.8022 25.1767 163.5651 0.0000 11.9045 0.0000
# 4 0.0000 0.0000 0.0000 1593.0365 0.0000 483.3064
# 5 -4.4975 1.3810 11.9045 0.0000 26.4056 0.0000
# 6 0.0000 0.0000 0.0000 483.3064 0.0000 157.3353
#
#
#
# Elastic Compliance Matrix: (Units=1/GPa)
#
#
# Indices 1 2 3 4 5 6 
#
# 1 0.031971 -0.001915 -0.004519 0.000000 0.007583 0.000000
# 2 -0.001915 0.014252 -0.001924 0.000000 -0.000204 0.000000
# 3 -0.004519 -0.001924 0.007300 0.000000 -0.003960 0.000000
# 4 0.000000 0.000000 0.000000 0.009225 0.000000 -0.028337
# 5 0.007583 -0.000204 -0.003960 0.000000 0.040958 0.000000
# 6 0.000000 0.000000 0.000000 -0.028337 0.000000 0.093401
#
#
# Mechanical properties :
#
#
# Convention : Reuss Voigt Hill
#
# Bulk Modulus (GPa) = 27.16751 42.60341 34.88546
# Shear Modulus (GPa) = 22.11498 369.98170 196.04834
#
# Velocity S-wave (km/s) = 3.34229 13.67070 9.95135
# Velocity P-wave (km/s) = 5.34954 16.45309 12.23359
#
# Compressibility (1/GPa) = 0.03680868
#
# Stress axis : x y z
#
# Youngs Moduli (GPa) = 31.27848 70.16691 136.97887
#
# Poissons Ratio (x) = 0.13437 0.61896
# Poissons Ratio (y) = 0.05990 0.26349
# Poissons Ratio (z) = 0.14134 0.13497
#
# Static dielectric constant tensor:
#      x y z
#    x 1.723140 0.000000 0.003280 
#    y 0.000000 1.694200 0.000000 
#    z 0.003280 0.000000 1.720280 
# 
# From -- ./inp_files/167324.got.cif
#   From: 2010.05.17/outbox.cif.g08.bks.cpg/sg12_84_cif.got.tgz:167324.got - 2010.06.03 13:09:07.
