data_PCOD9203516
_publ_section_title
;
Structure prediction by ZEFSAII (Michael W. Deem and Ramdas Pophale) SiO2 
 PCOD9203516
Probable space group: C 2/M
;
_chemical_formula_sum "Si O2"
_cell_formula_units_Z 32
_cell_length_a 10.285152
_cell_length_b 23.143487
_cell_length_c 7.967100
_cell_angle_alpha 90.000000
_cell_angle_beta 45.969466
_cell_angle_gamma 90.000000
_cell_volume 1363.484625
_symmetry_space_group_name_H-M "C 2/M"
_symmetry_group_IT_number 12
_symmetry_cell_setting 'monoclinic'
loop_
_space_group_symop_operation_xyz
x,y,z
-x,y,-z
-x,-y,-z
x,-y,z
1/2+x,1/2+y,z
1/2-x,1/2+y,-z
1/2-x,1/2-y,-z
1/2+x,1/2-y,z
loop_
_atom_site_type_symbol
_atom_site_label
_atom_site_fract_x
_atom_site_fract_y
_atom_site_fract_z
Si Si1 0.283622 0.763329 0.718617
Si Si2 0.292555 0.343871 0.523339
Si Si3 0.014171 0.565683 0.189927
Si Si4 0.126160 0.133534 0.047042
O O1 0.500000 0.766638 0.500000
O O2 0.236448 0.696080 0.731701
O O3 0.203459 0.798258 0.633074
O O4 0.206027 0.801758 0.939821
O O5 0.493379 0.369103 0.325742
O O6 0.146013 0.391820 0.612722
O O7 0.992048 0.500000 0.269049
O O8 0.203582 0.592091 0.080574
O O9 0.000000 0.565334 0.000000
O O10 0.000000 0.117207 0.000000
#
# Coordination Sequence:
#
# PCOD9203516 Si02
#       4
#     8   8   8   8
#     4  10  20  39  64 100 134 167 215 268 330 394
#     4  10  23  40  65  98 134 175 210 272 332 388
#     4  11  26  46  67  95 133 175 223 272 325 390
#     4  10  23  44  67 100 133 172 223 268 326 392
#
# _framework density 23.469280999999999
#
# number of rings (size 3 to 8) (size 9 to 14) (size 15 to 20)
#    0.000    1.750    2.500    0.000    3.500    7.500 
#    0.000   11.250    0.000    0.000    0.000    0.000 
#    0.000    0.000    0.000    0.000    0.000    0.000 
#
# Total GULP energy -89427.000912 kJ/mol
# GULP energy per Si atom -5589.187557 kJ/mol
# Density = 2.341586 g / cm^3
# Si number density = 23.469281 Si / 1000 Ang^3
#
#
#
# Elastic Constant Matrix: (Units=GPa)
#
#
# Indices 1 2 3 4 5 6 
#
# 1 115.3792 66.4495 51.1884 0.0000 -20.2245 0.0000
# 2 66.4495 174.2467 61.2726 0.0000 -35.4947 0.0000
# 3 51.1884 61.2726 111.2773 0.0000 -30.2642 0.0000
# 4 0.0000 0.0000 0.0000 -14.5276 0.0000 -5.8272
# 5 -20.2245 -35.4947 -30.2642 0.0000 57.9250 0.0000
# 6 0.0000 0.0000 0.0000 -5.8272 0.0000 29.3975
#
#
#
# Elastic Compliance Matrix: (Units=1/GPa)
#
#
# Indices 1 2 3 4 5 6 
#
# 1 0.012288 -0.003305 -0.003749 0.000000 0.000306 0.000000
# 2 -0.003305 0.008387 -0.002347 0.000000 0.002759 0.000000
# 3 -0.003749 -0.002347 0.013121 0.000000 0.004108 0.000000
# 4 0.000000 0.000000 0.000000 -0.063765 0.000000 -0.012639
# 5 0.000306 0.002759 0.004108 0.000000 0.021207 0.000000
# 6 0.000000 0.000000 0.000000 -0.012639 0.000000 0.031511
#
#
# Mechanical properties :
#
#
# Convention : Reuss Voigt Hill
#
# Bulk Modulus (GPa) = 66.70251 84.30270 75.50261
# Shear Modulus (GPa) = 107.41115 29.35848 68.38481
#
# Velocity S-wave (km/s) = 6.77245 3.54069 5.40382
# Velocity P-wave (km/s) = 9.46772 7.26042 8.43657
#
# Compressibility (1/GPa) = 0.01499194
#
# Stress axis : x y z
#
# Youngs Moduli (GPa) = 81.38275 119.23461 76.21391
#
# Poissons Ratio (x) = 0.39409 0.28574
# Poissons Ratio (y) = 0.26899 0.17890
# Poissons Ratio (z) = 0.30512 0.27988
#
# Static dielectric constant tensor:
#      x y z
#    x 1.979950 0.000000 0.077310 
#    y 0.000000 1.863870 0.000000 
#    z 0.077310 0.000000 1.992830 
# 
# From -- ./inp_files/50262.got.cif
#   From: 2010.05.17/outbox.cif.g08.bks.cpg/sg12_26_cif.got.tgz:50262.got - 2010.06.03 13:09:07.
