data_PCOD9203799
_publ_section_title
;
Structure prediction by ZEFSAII (Michael W. Deem and Ramdas Pophale) SiO2 
 PCOD9203799
Probable space group: C 2/M
;
_chemical_formula_sum "Si O2"
_cell_formula_units_Z 56
_cell_length_a 14.148270
_cell_length_b 13.682316
_cell_length_c 12.978626
_cell_angle_alpha 90.000000
_cell_angle_beta 92.689087
_cell_angle_gamma 90.000000
_cell_volume 2509.650110
_symmetry_space_group_name_H-M "C 2/M"
_symmetry_group_IT_number 12
_symmetry_cell_setting 'monoclinic'
loop_
_space_group_symop_operation_xyz
x,y,z
-x,y,-z
-x,-y,-z
x,-y,z
1/2+x,1/2+y,z
1/2-x,1/2+y,-z
1/2-x,1/2-y,-z
1/2+x,1/2-y,z
loop_
_atom_site_type_symbol
_atom_site_label
_atom_site_fract_x
_atom_site_fract_y
_atom_site_fract_z
Si Si1 0.299199 0.232036 0.893154
Si Si2 0.898529 0.390393 0.331580
Si Si3 0.897819 0.113494 0.469570
Si Si4 0.195179 0.380936 0.464213
Si Si5 0.626243 0.685903 0.757669
Si Si6 0.890944 0.611066 0.748218
Si Si7 0.546474 0.384192 0.115993
O O1 0.217205 0.169011 0.831848
O O2 0.386952 0.164846 0.857805
O O3 0.349546 0.335990 0.870287
O O4 0.250000 0.250000 0.000000
O O5 0.859173 0.500000 0.312924
O O6 0.881915 0.365702 0.450876
O O7 0.856834 0.299857 0.268075
O O8 0.005971 0.391749 0.298842
O O9 0.798742 0.152746 0.508785
O O10 0.881222 0.124613 0.347033
O O11 0.000000 0.158498 0.500000
O O12 0.903009 0.000000 0.501589
O O13 0.200221 0.500000 0.452820
O O14 0.169412 0.342503 0.349451
O O15 0.528537 0.665515 0.810868
O O16 0.860591 0.500000 0.763087
O O17 0.550539 0.500000 0.136471
O O18 0.500000 0.369908 0.000000
#
# Coordination Sequence:
#
# PCOD9203799 Si02
#       7
#     8   8   8   8   8   8   8
#     4  12  25  43  70 105 136 173 239 299 353 428
#     4  10  22  39  63  95 133 179 224 277 342 415
#     4  10  22  39  61  97 142 187 236 288 342 412
#     4   9  18  36  62  95 134 177 232 279 328 407
#     4  12  24  42  70  97 140 185 233 287 350 433
#     4  10  20  39  67  97 133 177 226 281 345 411
#     4  11  25  47  73 101 137 184 236 296 362 426
#
# _framework density 22.313866999999998
#
# number of rings (size 3 to 8) (size 9 to 14) (size 15 to 20)
#    0.000    1.429    4.286    0.857    0.000    6.286 
#    0.000    1.429    0.000    2.571    0.000    0.000 
#    0.000    0.000    0.000    0.000    0.000    0.000 
#
# Total GULP energy -155942.862950 kJ/mol
# GULP energy per Si atom -5569.387963 kJ/mol
# Density = 2.226308 g / cm^3
# Si number density = 22.313867 Si / 1000 Ang^3
#
#
#
# Elastic Constant Matrix: (Units=GPa)
#
#
# Indices 1 2 3 4 5 6 
#
# 1 84.9847 7.8564 16.6531 0.0000 -22.0433 0.0000
# 2 7.8564 77.5181 12.4506 0.0000 -20.2008 0.0000
# 3 16.6531 12.4506 73.1495 0.0000 -40.3748 0.0000
# 4 0.0000 0.0000 0.0000 28.9906 0.0000 -5.7405
# 5 -22.0433 -20.2008 -40.3748 0.0000 41.7154 0.0000
# 6 0.0000 0.0000 0.0000 -5.7405 0.0000 27.2500
#
#
#
# Elastic Compliance Matrix: (Units=1/GPa)
#
#
# Indices 1 2 3 4 5 6 
#
# 1 0.013798 0.000790 0.002061 0.000000 0.009668 0.000000
# 2 0.000790 0.015138 0.003263 0.000000 0.010907 0.000000
# 3 0.002061 0.003263 0.030313 0.000000 0.032008 0.000000
# 4 0.000000 0.000000 0.000000 0.035995 0.000000 0.007583
# 5 0.009668 0.010907 0.032008 0.000000 0.065341 0.000000
# 6 0.000000 0.000000 0.000000 0.007583 0.000000 0.038295
#
#
# Mechanical properties :
#
#
# Convention : Reuss Voigt Hill
#
# Bulk Modulus (GPa) = 13.99056 34.39696 24.19376
# Shear Modulus (GPa) = 23.75550 32.83734 28.29642
#
# Velocity S-wave (km/s) = 3.26637 3.84032 3.56492
# Velocity P-wave (km/s) = 4.52870 5.92559 5.27360
#
# Compressibility (1/GPa) = 0.07147679
#
# Stress axis : x y z
#
# Youngs Moduli (GPa) = 72.47607 66.05797 32.98945
#
# Poissons Ratio (x) = -0.05219 -0.06798
# Poissons Ratio (y) = -0.05726 -0.10766
# Poissons Ratio (z) = -0.14934 -0.21558
#
# Static dielectric constant tensor:
#      x y z
#    x 1.705390 0.000000 -0.253040 
#    y 0.000000 1.923350 0.000000 
#    z -0.253040 0.000000 1.575570 
# 
# From -- ./inp_files/143752.got.cif
#   From: 2010.05.17/outbox.cif.g08.bks.cpg/sg12_72_cif.got.tgz:143752.got - 2010.06.03 13:09:07.
