data_PCOD9203624
_publ_section_title
;
Structure prediction by ZEFSAII (Michael W. Deem and Ramdas Pophale) SiO2 
 PCOD9203624
Probable space group: C 2/M
;
_chemical_formula_sum "Si O2"
_cell_formula_units_Z 48
_cell_length_a 17.293137
_cell_length_b 13.143534
_cell_length_c 11.378818
_cell_angle_alpha 90.000000
_cell_angle_beta 66.708938
_cell_angle_gamma 90.000000
_cell_volume 2375.560331
_symmetry_space_group_name_H-M "C 2/M"
_symmetry_group_IT_number 12
_symmetry_cell_setting 'monoclinic'
loop_
_space_group_symop_operation_xyz
x,y,z
-x,y,-z
-x,-y,-z
x,-y,z
1/2+x,1/2+y,z
1/2-x,1/2+y,-z
1/2-x,1/2-y,-z
1/2+x,1/2-y,z
loop_
_atom_site_type_symbol
_atom_site_label
_atom_site_fract_x
_atom_site_fract_y
_atom_site_fract_z
Si Si1 0.968134 0.228249 0.295200
Si Si2 0.261155 0.111834 0.050370
Si Si3 0.184216 0.779978 0.439365
Si Si4 0.143596 0.000000 0.407427
Si Si5 0.343513 0.793688 0.792158
Si Si6 0.504766 0.500000 0.693956
Si Si7 0.917189 0.616152 0.131278
O O1 0.056105 0.284628 0.267667
O O2 0.908107 0.225471 0.445447
O O3 0.922150 0.295557 0.224361
O O4 0.987878 0.110377 0.248256
O O5 0.190540 0.194096 0.118660
O O6 0.337275 0.129527 0.095284
O O7 0.226683 0.000000 0.089592
O O8 0.302646 0.120010 0.896732
O O9 0.250000 0.750000 0.500000
O O10 0.187798 0.709644 0.322543
O O11 0.195319 0.895550 0.385037
O O12 0.078052 0.000000 0.338892
O O13 0.084259 0.000000 0.557914
O O14 0.915149 0.500000 0.181242
O O15 0.000000 0.623501 0.000000
#
# Coordination Sequence:
#
# PCOD9203624 Si02
#       7
#     8   8   8   4   8   4   8
#     4  11  21  38  64  96 126 155 209 257 314 372
#     4  10  23  41  63  90 123 166 212 255 304 364
#     4  11  23  40  62  94 128 159 201 260 311 375
#     4   9  18  36  62  86 117 164 203 233 308 368
#     4  11  22  38  64  92 123 162 207 259 304 366
#     4   9  18  34  61  92 120 159 195 254 300 368
#     4  10  20  39  65  87 121 169 209 250 300 370
#
# _framework density 20.205759
#
# number of rings (size 3 to 8) (size 9 to 14) (size 15 to 20)
#    0.000    1.667    3.333    1.500    2.333    0.000 
#    3.000    0.417   11.000    2.000    0.000    0.000 
#    0.000    0.000    0.000    0.000    0.000    0.000 
#
# Total GULP energy -134030.872960 kJ/mol
# GULP energy per Si atom -5584.619707 kJ/mol
# Density = 2.015977 g / cm^3
# Si number density = 20.205759 Si / 1000 Ang^3
#
#
#
# Elastic Constant Matrix: (Units=GPa)
#
#
# Indices 1 2 3 4 5 6 
#
# 1 44.1939 4.0133 16.2967 0.0000 2.6918 0.0000
# 2 4.0133 80.8449 11.9543 0.0000 25.1505 0.0000
# 3 16.2967 11.9543 84.3565 0.0000 8.0328 0.0000
# 4 0.0000 0.0000 0.0000 29.8354 0.0000 1.6903
# 5 2.6918 25.1505 8.0328 0.0000 41.4581 0.0000
# 6 0.0000 0.0000 0.0000 1.6903 0.0000 23.2792
#
#
#
# Elastic Compliance Matrix: (Units=1/GPa)
#
#
# Indices 1 2 3 4 5 6 
#
# 1 0.024392 -0.000387 -0.004614 0.000000 -0.000455 0.000000
# 2 -0.000387 0.015395 -0.001243 0.000000 -0.009073 0.000000
# 3 -0.004614 -0.001243 0.013063 0.000000 -0.001477 0.000000
# 4 0.000000 0.000000 0.000000 0.033656 0.000000 -0.002444
# 5 -0.000455 -0.009073 -0.001477 0.000000 0.029941 0.000000
# 6 0.000000 0.000000 0.000000 -0.002444 0.000000 0.043134
#
#
# Mechanical properties :
#
#
# Convention : Reuss Voigt Hill
#
# Bulk Modulus (GPa) = 24.77604 30.43599 27.60602
# Shear Modulus (GPa) = 26.95093 30.72327 28.83710
#
# Velocity S-wave (km/s) = 3.65612 3.90362 3.78189
# Velocity P-wave (km/s) = 5.48739 5.95091 5.72384
#
# Compressibility (1/GPa) = 0.04036158
#
# Stress axis : x y z
#
# Youngs Moduli (GPa) = 40.99725 64.95593 76.55415
#
# Poissons Ratio (x) = 0.02514 0.35323
# Poissons Ratio (y) = 0.01587 0.09515
# Poissons Ratio (z) = 0.18916 0.08073
#
# Static dielectric constant tensor:
#      x y z
#    x 1.693320 0.000000 -0.024590 
#    y 0.000000 1.746800 0.000000 
#    z -0.024590 0.000000 1.742380 
# 
# From -- ./inp_files/154253.got.cif
#   From: 2010.05.17/outbox.cif.g08.bks.cpg/sg12_78_cif.got.tgz:154253.got - 2010.06.03 13:09:07.
