data_PCOD9203356
_publ_section_title
;
Structure prediction by ZEFSAII (Michael W. Deem and Ramdas Pophale) SiO2 
 PCOD9203356
Probable space group: C 2/M
;
_chemical_formula_sum "Si O2"
_cell_formula_units_Z 32
_cell_length_a 11.086116
_cell_length_b 11.075113
_cell_length_c 10.918173
_cell_angle_alpha 90.000000
_cell_angle_beta 104.867253
_cell_angle_gamma 90.000000
_cell_volume 1295.655960
_symmetry_space_group_name_H-M "C 2/M"
_symmetry_group_IT_number 12
_symmetry_cell_setting 'monoclinic'
loop_
_space_group_symop_operation_xyz
x,y,z
-x,y,-z
-x,-y,-z
x,-y,z
1/2+x,1/2+y,z
1/2-x,1/2+y,-z
1/2-x,1/2-y,-z
1/2+x,1/2-y,z
loop_
_atom_site_type_symbol
_atom_site_label
_atom_site_fract_x
_atom_site_fract_y
_atom_site_fract_z
Si Si1 0.601224 0.128844 0.420165
Si Si2 0.322911 0.639913 0.669139
Si Si3 0.833589 0.745367 0.145776
Si Si4 0.108504 0.000000 0.922867
Si Si5 0.097878 0.500000 0.916399
O O1 0.500000 0.122471 0.500000
O O2 0.582598 0.256987 0.350562
O O3 0.730770 0.129119 0.528917
O O4 0.600322 0.000000 0.349955
O O5 0.355155 0.500000 0.710506
O O6 0.251987 0.708463 0.761722
O O7 0.919145 0.627581 0.153818
O O8 0.896739 0.876952 0.157344
O O9 0.750000 0.750000 0.000000
O O10 0.252164 0.000000 0.012395
O O11 0.000000 0.000000 0.000000
O O12 0.000000 0.500000 0.000000
#
# Coordination Sequence:
#
# PCOD9203356 Si02
#       5
#     8   8   8   4   4
#     4   9  20  40  61  88 116 153 203 251 303 360
#     4  10  20  39  62  85 121 155 197 251 303 364
#     4  10  21  39  58  88 122 160 204 251 306 370
#     4  10  22  40  58  85 128 163 200 258 305 360
#     4  10  20  40  62  83 120 165 208 248 299 372
#
# _framework density 24.697914000000001
#
# number of rings (size 3 to 8) (size 9 to 14) (size 15 to 20)
#    0.000    2.250    1.250    0.750    1.750    0.500 
#   18.000    0.000    0.000    0.000    0.000    0.000 
#    0.000    0.000    0.000    0.000    0.000    0.000 
#
# Total GULP energy -89270.822495 kJ/mol
# GULP energy per Si atom -5579.426406 kJ/mol
# Density = 2.464170 g / cm^3
# Si number density = 24.697914 Si / 1000 Ang^3
#
#
#
# Elastic Constant Matrix: (Units=GPa)
#
#
# Indices 1 2 3 4 5 6 
#
# 1 85.2901 78.3999 22.1239 0.0000 -9.6934 0.0000
# 2 78.3999 354.5617 83.1479 0.0000 -19.2369 0.0000
# 3 22.1239 83.1479 62.7254 0.0000 1.9088 0.0000
# 4 0.0000 0.0000 0.0000 63.4941 0.0000 -2.2455
# 5 -9.6934 -19.2369 1.9088 0.0000 61.9521 0.0000
# 6 0.0000 0.0000 0.0000 -2.2455 0.0000 58.9372
#
#
#
# Elastic Compliance Matrix: (Units=1/GPa)
#
#
# Indices 1 2 3 4 5 6 
#
# 1 0.014918 -0.002863 -0.001512 0.000000 0.001492 0.000000
# 2 -0.002863 0.004775 -0.005356 0.000000 0.001200 0.000000
# 3 -0.001512 -0.005356 0.023655 0.000000 -0.002628 0.000000
# 4 0.000000 0.000000 0.000000 0.015771 0.000000 0.000601
# 5 0.001492 0.001200 -0.002628 0.000000 0.016828 0.000000
# 6 0.000000 0.000000 0.000000 0.000601 0.000000 0.016990
#
#
# Mechanical properties :
#
#
# Convention : Reuss Voigt Hill
#
# Bulk Modulus (GPa) = 41.86444 96.65783 69.26113
# Shear Modulus (GPa) = 41.54181 58.13705 49.83943
#
# Velocity S-wave (km/s) = 4.10566 4.85699 4.49705
# Velocity P-wave (km/s) = 6.28193 8.40683 7.42083
#
# Compressibility (1/GPa) = 0.02388662
#
# Stress axis : x y z
#
# Youngs Moduli (GPa) = 67.03170 209.44446 42.27421
#
# Poissons Ratio (x) = 0.59969 0.06391
# Poissons Ratio (y) = 0.19193 0.22641
# Poissons Ratio (z) = 0.10133 1.12171
#
# Static dielectric constant tensor:
#      x y z
#    x 1.741720 0.000000 -0.208520 
#    y 0.000000 1.965260 0.000000 
#    z -0.208520 0.000000 1.759910 
# 
# From -- ./inp_files/127425.got.cif
#   From: 2010.05.17/outbox.cif.g08.bks.cpg/sg12_64_cif.got.tgz:127425.got - 2010.06.03 13:09:07.
