data_PCOD9203160
_publ_section_title
;
Structure prediction by ZEFSAII (Michael W. Deem and Ramdas Pophale) SiO2 
 PCOD9203160
Probable space group: C 2/M
;
_chemical_formula_sum "Si O2"
_cell_formula_units_Z 54
_cell_length_a 19.766883
_cell_length_b 15.924188
_cell_length_c 18.964384
_cell_angle_alpha 90.000000
_cell_angle_beta 21.501178
_cell_angle_gamma 90.000000
_cell_volume 2187.924483
_symmetry_space_group_name_H-M "C 2/M"
_symmetry_group_IT_number 12
_symmetry_cell_setting 'monoclinic'
loop_
_space_group_symop_operation_xyz
x,y,z
-x,y,-z
-x,-y,-z
x,-y,z
1/2+x,1/2+y,z
1/2-x,1/2+y,-z
1/2-x,1/2-y,-z
1/2+x,1/2-y,z
loop_
_atom_site_type_symbol
_atom_site_label
_atom_site_fract_x
_atom_site_fract_y
_atom_site_fract_z
Si Si1 0.808478 0.142751 0.599066
Si Si2 0.056220 0.600833 0.102441
Si Si3 0.500000 0.295949 0.000000
Si Si4 0.995409 0.403746 0.681456
Si Si5 0.894491 0.712563 0.663341
Si Si6 0.500000 0.500000 0.500000
Si Si7 0.553306 0.599321 0.236563
Si Si8 0.581748 0.599482 0.779994
O O1 0.589721 0.151843 0.802411
O O2 0.946548 0.219605 0.476057
O O3 0.874525 0.108962 0.458101
O O4 0.860861 0.072872 0.604622
O O5 0.039371 0.500000 0.102682
O O6 0.015480 0.612905 0.224939
O O7 0.269256 0.628414 0.891019
O O8 0.302852 0.254199 0.172000
O O9 0.455033 0.352896 0.112154
O O10 0.938081 0.500000 0.726563
O O11 0.204295 0.393720 0.451277
O O12 0.872346 0.342804 0.754038
O O13 0.000000 0.658738 0.500000
O O14 0.585215 0.500000 0.196620
O O15 0.525982 0.633936 0.184872
O O16 0.542224 0.500000 0.826803
#
# Coordination Sequence:
#
# PCOD9203160 Si02
#       8
#     8   8   4   8   8   2   8   8
#     4  12  24  45  67  94 131 171 224 275 328 385
#     4  10  20  39  71  98 127 170 215 269 329 387
#     4  12  25  44  62  93 140 174 214 260 334 381
#     4  10  21  42  69  98 130 172 217 261 327 395
#     4  12  27  44  63  93 134 176 217 274 323 388
#     4  12  24  44  74  96 130 180 218 272 334 380
#     4  10  20  39  67 101 129 164 219 271 322 387
#     4  10  20  38  70 100 130 170 215 265 319 395
#
# _framework density 24.680924000000001
#
# number of rings (size 3 to 8) (size 9 to 14) (size 15 to 20)
#    0.000    1.185    5.185    1.111    0.000    4.444 
#    0.000    2.222    0.000    0.000    0.000    0.000 
#    0.000    0.000    0.000    0.000    0.000    0.000 
#
# Total GULP energy -150800.048904 kJ/mol
# GULP energy per Si atom -5585.186996 kJ/mol
# Density = 2.462475 g / cm^3
# Si number density = 24.680924 Si / 1000 Ang^3
#
#
#
# Elastic Constant Matrix: (Units=GPa)
#
#
# Indices 1 2 3 4 5 6 
#
# 1 89.5453 25.1206 24.6195 0.0125 -52.7326 -0.0020
# 2 25.1206 49.9866 7.5491 0.0043 -24.9620 0.0002
# 3 24.6195 7.5491 114.7402 0.0051 -24.7005 0.0191
# 4 0.0125 0.0043 0.0051 25.1692 -0.0008 -12.0160
# 5 -52.7326 -24.9620 -24.7005 -0.0008 47.2131 -0.0052
# 6 -0.0020 0.0002 0.0191 -12.0160 -0.0052 39.5533
#
#
#
# Elastic Compliance Matrix: (Units=1/GPa)
#
#
# Indices 1 2 3 4 5 6 
#
# 1 0.032973 0.002639 0.001104 -0.000015 0.038801 0.000002
# 2 0.002639 0.027615 0.001571 -0.000006 0.018370 0.000000
# 3 0.001104 0.001571 0.009939 -0.000005 0.007264 -0.000005
# 4 -0.000015 -0.000006 -0.000005 0.046471 -0.000020 0.014118
# 5 0.038801 0.018370 0.007264 -0.000020 0.078030 0.000003
# 6 0.000002 0.000000 -0.000005 0.014118 0.000003 0.029571
#
#
# Mechanical properties :
#
#
# Convention : Reuss Voigt Hill
#
# Bulk Modulus (GPa) = 12.32189 40.98337 26.65263
# Shear Modulus (GPa) = 20.74493 35.51931 28.13212
#
# Velocity S-wave (km/s) = 2.90233 3.79772 3.37980
# Velocity P-wave (km/s) = 4.02922 5.98928 5.10422
#
# Compressibility (1/GPa) = 0.08115636
#
# Stress axis : x y z
#
# Youngs Moduli (GPa) = 30.32765 36.21162 100.61652
#
# Poissons Ratio (x) = -0.09556 -0.11110
# Poissons Ratio (y) = -0.08003 -0.15812
# Poissons Ratio (z) = -0.03349 -0.05691
#
# Static dielectric constant tensor:
#      x y z
#    x 1.986930 0.000000 0.006580 
#    y 0.000000 1.926150 0.000010 
#    z 0.006580 0.000010 1.990650 
# 
# From -- ./inp_files/322687.got.cif
#   From: 2010.05.17/outbox.cif.g08.bks.cpg/sg12_162_cif.got.tgz:322687.got - 2010.06.03 13:09:07.
