data_PCOD9203715
_publ_section_title
;
Structure prediction by ZEFSAII (Michael W. Deem and Ramdas Pophale) SiO2 
 PCOD9203715
Probable space group: C 2/M
;
_chemical_formula_sum "Si O2"
_cell_formula_units_Z 50
_cell_length_a 9.994895
_cell_length_b 18.701232
_cell_length_c 22.339598
_cell_angle_alpha 90.000000
_cell_angle_beta 147.531243
_cell_angle_gamma 90.000000
_cell_volume 2241.652960
_symmetry_space_group_name_H-M "C 2/M"
_symmetry_group_IT_number 12
_symmetry_cell_setting 'monoclinic'
loop_
_space_group_symop_operation_xyz
x,y,z
-x,y,-z
-x,-y,-z
x,-y,z
1/2+x,1/2+y,z
1/2-x,1/2+y,-z
1/2-x,1/2-y,-z
1/2+x,1/2-y,z
loop_
_atom_site_type_symbol
_atom_site_label
_atom_site_fract_x
_atom_site_fract_y
_atom_site_fract_z
Si Si1 0.542782 0.307467 0.148316
Si Si2 0.000000 0.500000 0.500000
Si Si3 0.785875 0.918747 0.129343
Si Si4 0.285495 0.627525 0.535388
Si Si5 0.904074 0.276251 0.637441
Si Si6 0.157852 0.690413 0.852373
Si Si7 0.694641 0.915842 0.225855
O O1 0.462664 0.380236 0.149450
O O2 0.604936 0.317153 0.101706
O O3 0.340694 0.252618 0.097892
O O4 0.805153 0.277632 0.272114
O O5 0.118622 0.564281 0.500625
O O6 0.776185 0.884605 0.191607
O O7 0.874793 0.000000 0.169939
O O8 0.500000 0.918465 0.000000
O O9 0.216024 0.657941 0.443842
O O10 0.281353 0.700965 0.573651
O O11 0.568212 0.598863 0.643542
O O12 0.942289 0.289359 0.722022
O O13 0.056216 0.620399 0.846291
O O14 0.654909 0.000000 0.203285
#
# Coordination Sequence:
#
# PCOD9203715 Si02
#       7
#     8   2   8   8   8   8   8
#     4  10  20  39  66  90 124 164 215 263 315 385
#     4  12  28  32  64  98 134 170 244 274 316 388
#     4  10  23  43  68  95 125 163 211 268 336 400
#     4  11  22  39  56  96 126 175 218 266 321 377
#     4   9  23  37  63  85 132 172 214 261 318 390
#     4  10  21  40  62  94 124 166 215 258 318 390
#     4  11  22  41  61  85 131 169 204 272 324 384
#
# _framework density 22.304969
#
# number of rings (size 3 to 8) (size 9 to 14) (size 15 to 20)
#    0.960    0.800    2.400    1.920    4.480    1.280 
#    1.440    4.800    0.000    2.880    0.000    0.000 
#    0.000    0.000    0.000    0.000    0.000    0.000 
#
# Total GULP energy -139238.433292 kJ/mol
# GULP energy per Si atom -5569.537332 kJ/mol
# Density = 2.225420 g / cm^3
# Si number density = 22.304969 Si / 1000 Ang^3
#
#
#
# Elastic Constant Matrix: (Units=GPa)
#
#
# Indices 1 2 3 4 5 6 
#
# 1 181.0924 70.0391 27.5822 0.0001 15.5390 -0.0007
# 2 70.0391 130.8161 6.9774 0.0005 9.5015 -0.0020
# 3 27.5822 6.9774 33.8889 0.0025 -4.5625 -0.0051
# 4 0.0001 0.0005 0.0025 34.1660 -0.0007 1.7314
# 5 15.5390 9.5015 -4.5625 -0.0007 28.0700 -0.0012
# 6 -0.0007 -0.0020 -0.0051 1.7314 -0.0012 55.7092
#
#
#
# Elastic Compliance Matrix: (Units=1/GPa)
#
#
# Indices 1 2 3 4 5 6 
#
# 1 0.008389 -0.003816 -0.006639 0.000000 -0.004432 -0.000001
# 2 -0.003816 0.009709 0.000970 0.000000 -0.001017 0.000000
# 3 -0.006639 0.000970 0.035949 -0.000003 0.009190 0.000004
# 4 0.000000 0.000000 -0.000003 0.029315 0.000000 -0.000911
# 5 -0.004432 -0.001017 0.009190 0.000000 0.039916 0.000002
# 6 -0.000001 0.000000 0.000004 -0.000911 0.000002 0.017979
#
#
# Mechanical properties :
#
#
# Convention : Reuss Voigt Hill
#
# Bulk Modulus (GPa) = 28.50806 61.66607 45.08707
# Shear Modulus (GPa) = 29.08319 39.66897 34.37608
#
# Velocity S-wave (km/s) = 3.61486 4.22178 3.93005
# Velocity P-wave (km/s) = 5.49834 7.17435 6.39152
#
# Compressibility (1/GPa) = 0.03507780
#
# Stress axis : x y z
#
# Youngs Moduli (GPa) = 119.20063 102.99373 27.81694
#
# Poissons Ratio (x) = 0.39298 0.18468
# Poissons Ratio (y) = 0.45482 -0.02697
# Poissons Ratio (z) = 0.79138 -0.09986
#
# Static dielectric constant tensor:
#      x y z
#    x 1.852870 0.000000 -0.028890 
#    y 0.000000 1.815560 0.000000 
#    z -0.028890 0.000000 1.928690 
# 
# From -- ./inp_files/356574.got.cif
#   From: 2010.05.17/outbox.cif.g08.bks.cpg/sg12_179_cif.got.tgz:356574.got - 2010.06.03 13:09:07.
