data_PCOD9203437
_publ_section_title
;
Structure prediction by ZEFSAII (Michael W. Deem and Ramdas Pophale) SiO2 
 PCOD9203437
Probable space group: C 2/M
;
_chemical_formula_sum "Si O2"
_cell_formula_units_Z 64
_cell_length_a 30.278395
_cell_length_b 7.669876
_cell_length_c 24.546100
_cell_angle_alpha 90.000000
_cell_angle_beta 30.189450
_cell_angle_gamma 90.000000
_cell_volume 2866.496869
_symmetry_space_group_name_H-M "C 2/M"
_symmetry_group_IT_number 12
_symmetry_cell_setting 'monoclinic'
loop_
_space_group_symop_operation_xyz
x,y,z
-x,y,-z
-x,-y,-z
x,-y,z
1/2+x,1/2+y,z
1/2-x,1/2+y,-z
1/2-x,1/2-y,-z
1/2+x,1/2-y,z
loop_
_atom_site_type_symbol
_atom_site_label
_atom_site_fract_x
_atom_site_fract_y
_atom_site_fract_z
Si Si1 0.695112 0.200596 0.736078
Si Si2 0.528836 0.798567 0.407565
Si Si3 0.626588 0.702874 0.505652
Si Si4 0.216668 0.698423 0.194250
Si Si5 0.890862 0.301966 0.062204
Si Si6 0.327612 0.707991 0.876705
Si Si7 0.546559 0.703445 0.815933
Si Si8 0.016409 0.786686 0.723697
O O1 0.788275 0.279043 0.616661
O O2 0.640844 0.276382 0.845763
O O3 0.629305 0.205083 0.755477
O O4 0.713391 0.000000 0.733461
O O5 0.500000 0.802521 0.500000
O O6 0.457791 0.713673 0.443989
O O7 0.625032 0.716865 0.308917
O O8 0.538357 0.000000 0.378209
O O9 0.648710 0.500000 0.491556
O O10 0.592684 0.772975 0.600305
O O11 0.223996 0.500000 0.208019
O O12 0.302368 0.797393 0.121270
O O13 0.203082 0.697026 0.144695
O O14 0.921130 0.500000 0.039805
O O15 0.965593 0.218322 0.944749
O O16 0.333103 0.500000 0.860709
O O17 0.422095 0.765078 0.799187
O O18 0.250000 0.750000 0.000000
O O19 0.568890 0.500000 0.787128
O O20 0.525314 0.768023 0.777350
O O21 0.017083 0.000000 0.722686
#
# Coordination Sequence:
#
# PCOD9203437 Si02
#       8
#     8   8   8   8   8   8   8   8
#     4  10  23  41  62  89 119 153 199 254 308 362
#     4  10  21  36  55  84 122 157 192 241 295 350
#     4  10  20  39  63  85 116 158 201 247 297 356
#     4  11  22  36  56  86 121 155 194 238 293 357
#     4  11  23  40  61  88 121 156 200 252 302 361
#     4  11  21  36  58  84 118 158 200 244 294 351
#     4  11  23  40  63  89 118 156 200 249 308 365
#     4   9  20  38  59  85 118 154 198 248 293 349
#
# _framework density 22.326905
#
# number of rings (size 3 to 8) (size 9 to 14) (size 15 to 20)
#    0.000    1.625    1.250    3.375    0.000    5.250 
#    0.000    3.125    0.000    0.000    0.000    0.000 
#    0.000    0.000    0.000    0.000    0.000    0.000 
#
# Total GULP energy -178614.642256 kJ/mol
# GULP energy per Si atom -5581.707570 kJ/mol
# Density = 2.227609 g / cm^3
# Si number density = 22.326905 Si / 1000 Ang^3
#
#
#
# Elastic Constant Matrix: (Units=GPa)
#
#
# Indices 1 2 3 4 5 6 
#
# 1 127.5808 -1.3592 37.3709 -0.0151 4.0712 0.0019
# 2 -1.3592 52.8894 0.0357 -0.0330 1.9786 0.0071
# 3 37.3709 0.0357 119.0997 -0.0220 11.7961 0.0075
# 4 -0.0151 -0.0330 -0.0220 16.1807 0.0075 -4.4191
# 5 4.0712 1.9786 11.7961 0.0075 42.3548 -0.0005
# 6 0.0019 0.0071 0.0075 -4.4191 -0.0005 18.9456
#
#
#
# Elastic Compliance Matrix: (Units=1/GPa)
#
#
# Indices 1 2 3 4 5 6 
#
# 1 0.008634 0.000227 -0.002701 0.000005 -0.000088 0.000001
# 2 0.000227 0.018947 0.000013 0.000040 -0.000911 0.000002
# 3 -0.002701 0.000013 0.009480 0.000011 -0.002381 -0.000001
# 4 0.000005 0.000040 0.000011 0.066007 -0.000017 0.015396
# 5 -0.000088 -0.000911 -0.002381 -0.000017 0.024324 -0.000002
# 6 0.000001 0.000002 -0.000001 0.015396 -0.000002 0.056374
#
#
# Mechanical properties :
#
#
# Convention : Reuss Voigt Hill
#
# Bulk Modulus (GPa) = 31.11318 41.29609 36.20464
# Shear Modulus (GPa) = 25.07517 33.06439 29.06978
#
# Velocity S-wave (km/s) = 3.35489 3.85245 3.61225
# Velocity P-wave (km/s) = 5.38262 6.19070 5.80075
#
# Compressibility (1/GPa) = 0.03214072
#
# Stress axis : x y z
#
# Youngs Moduli (GPa) = 115.81482 52.77801 105.49011
#
# Poissons Ratio (x) = -0.01198 0.28489
# Poissons Ratio (y) = -0.02629 -0.00140
# Poissons Ratio (z) = 0.31277 -0.00070
#
# Static dielectric constant tensor:
#      x y z
#    x 1.761390 -0.000010 -0.009180 
#    y -0.000010 1.891980 0.000030 
#    z -0.009180 0.000030 1.781130 
# 
# From -- ./inp_files/353276.got.cif
#   From: 2010.05.17/outbox.cif.g08.bks.cpg/sg12_177_cif.got.tgz:353276.got - 2010.06.03 13:09:07.
