data_PCOD9203541
_publ_section_title
;
Structure prediction by ZEFSAII (Michael W. Deem and Ramdas Pophale) SiO2 
 PCOD9203541
Probable space group: C 2/M
;
_chemical_formula_sum "Si O2"
_cell_formula_units_Z 56
_cell_length_a 19.337334
_cell_length_b 7.688223
_cell_length_c 16.904266
_cell_angle_alpha 90.000000
_cell_angle_beta 105.372215
_cell_angle_gamma 90.000000
_cell_volume 2423.242385
_symmetry_space_group_name_H-M "C 2/M"
_symmetry_group_IT_number 12
_symmetry_cell_setting 'monoclinic'
loop_
_space_group_symop_operation_xyz
x,y,z
-x,y,-z
-x,-y,-z
x,-y,z
1/2+x,1/2+y,z
1/2-x,1/2+y,-z
1/2-x,1/2-y,-z
1/2+x,1/2-y,z
loop_
_atom_site_type_symbol
_atom_site_label
_atom_site_fract_x
_atom_site_fract_y
_atom_site_fract_z
Si Si1 0.192474 0.203631 0.782256
Si Si2 0.333683 0.790819 0.524856
Si Si3 0.407662 0.798761 0.389253
Si Si4 0.839130 0.791178 0.885398
Si Si5 0.646817 0.700806 0.938346
Si Si6 0.509374 0.793950 0.142967
Si Si7 0.041454 0.286980 0.330652
O O1 0.151462 0.291206 0.697911
O O2 0.277971 0.223102 0.808338
O O3 0.168381 0.279172 0.860295
O O4 0.173066 0.000000 0.772981
O O5 0.250000 0.750000 0.500000
O O6 0.373363 0.721997 0.458037
O O7 0.380599 0.732862 0.614360
O O8 0.338111 0.000000 0.524395
O O9 0.480711 0.725991 0.374026
O O10 0.424238 0.000000 0.412482
O O11 0.917846 0.737621 0.882186
O O12 0.835720 0.000000 0.885699
O O13 0.825169 0.723591 0.970602
O O14 0.669947 0.500000 0.942738
O O15 0.560572 0.707686 0.915285
O O16 0.521611 0.729798 0.236494
O O17 0.495040 0.000000 0.140477
O O18 0.039507 0.500000 0.328109
#
# Coordination Sequence:
#
# PCOD9203541 Si02
#       7
#     8   8   8   8   8   8   8
#     4  11  23  39  61  89 120 155 200 251 301 354
#     4  10  22  39  62  91 122 155 194 240 293 352
#     4  10  20  39  64  88 115 158 204 240 291 354
#     4  11  24  40  59  84 121 161 201 249 302 357
#     4  10  22  41  61  85 118 159 201 249 303 355
#     4  11  22  37  61  91 121 157 200 247 297 354
#     4   9  19  38  62  87 117 154 197 241 285 342
#
# _framework density 23.109534
#
# number of rings (size 3 to 8) (size 9 to 14) (size 15 to 20)
#    0.000    1.714    1.429    2.571    2.000    5.714 
#    0.000    1.429    0.000    1.714    0.000    0.000 
#    0.000    0.000    0.000    0.000    0.000    0.000 
#
# Total GULP energy -156586.496307 kJ/mol
# GULP energy per Si atom -5592.374868 kJ/mol
# Density = 2.305694 g / cm^3
# Si number density = 23.109534 Si / 1000 Ang^3
#
#
#
# Elastic Constant Matrix: (Units=GPa)
#
#
# Indices 1 2 3 4 5 6 
#
# 1 65.2713 -3.4424 20.3229 0.0000 13.2689 0.0000
# 2 -3.4424 56.4726 1.0334 0.0000 -4.3177 0.0000
# 3 20.3229 1.0334 91.0005 0.0000 16.4941 0.0000
# 4 0.0000 0.0000 0.0000 14.1416 0.0000 2.8628
# 5 13.2689 -4.3177 16.4941 0.0000 44.8179 0.0000
# 6 0.0000 0.0000 0.0000 2.8628 0.0000 26.2762
#
#
#
# Elastic Compliance Matrix: (Units=1/GPa)
#
#
# Indices 1 2 3 4 5 6 
#
# 1 0.017120 0.000808 -0.003137 0.000000 -0.003836 0.000000
# 2 0.000808 0.017903 -0.000700 0.000000 0.001743 0.000000
# 3 -0.003137 -0.000700 0.012366 0.000000 -0.003690 0.000000
# 4 0.000000 0.000000 0.000000 0.072308 0.000000 -0.007878
# 5 -0.003836 0.001743 -0.003690 0.000000 0.024974 0.000000
# 6 0.000000 0.000000 0.000000 -0.007878 0.000000 0.038916
#
#
# Mechanical properties :
#
#
# Convention : Reuss Voigt Hill
#
# Bulk Modulus (GPa) = 24.19493 27.61912 25.90703
# Shear Modulus (GPa) = 24.57937 30.03583 27.30760
#
# Velocity S-wave (km/s) = 3.26483 3.60907 3.44126
# Velocity P-wave (km/s) = 4.97037 5.41706 5.19851
#
# Compressibility (1/GPa) = 0.04133097
#
# Stress axis : x y z
#
# Youngs Moduli (GPa) = 58.41148 55.85652 80.86501
#
# Poissons Ratio (x) = -0.04511 0.25369
# Poissons Ratio (y) = -0.04718 0.05658
# Poissons Ratio (z) = 0.18325 0.03908
#
# Static dielectric constant tensor:
#      x y z
#    x 1.852300 0.000000 -0.021080 
#    y 0.000000 1.881610 0.000000 
#    z -0.021080 0.000000 1.854120 
# 
# From -- ./inp_files/275624.got.cif
#   From: 2010.05.17/outbox.cif.g08.bks.cpg/sg12_138_cif.got.tgz:275624.got - 2010.06.03 13:09:07.
