data_PCOD9203296
_publ_section_title
;
Structure prediction by ZEFSAII (Michael W. Deem and Ramdas Pophale) SiO2 
 PCOD9203296
Probable space group: C 2/M
;
_chemical_formula_sum "Si O2"
_cell_formula_units_Z 50
_cell_length_a 14.312010
_cell_length_b 10.543620
_cell_length_c 15.384738
_cell_angle_alpha 90.000000
_cell_angle_beta 94.694871
_cell_angle_gamma 90.000000
_cell_volume 2313.773540
_symmetry_space_group_name_H-M "C 2/M"
_symmetry_group_IT_number 12
_symmetry_cell_setting 'monoclinic'
loop_
_space_group_symop_operation_xyz
x,y,z
-x,y,-z
-x,-y,-z
x,-y,z
1/2+x,1/2+y,z
1/2-x,1/2+y,-z
1/2-x,1/2-y,-z
1/2+x,1/2-y,z
loop_
_atom_site_type_symbol
_atom_site_label
_atom_site_fract_x
_atom_site_fract_y
_atom_site_fract_z
Si Si1 0.902605 0.136865 0.165217
Si Si2 0.139851 0.263137 0.009830
Si Si3 0.120320 0.137244 0.186206
Si Si4 0.500000 0.000000 0.000000
Si Si5 0.569902 0.853119 0.424680
Si Si6 0.607916 0.853415 0.704085
Si Si7 0.712747 0.354030 0.381050
O O1 0.901360 0.162639 0.062376
O O2 0.865521 0.255110 0.218195
O O3 0.010953 0.130671 0.199608
O O4 0.857435 0.000000 0.181120
O O5 0.250000 0.250000 0.000000
O O6 0.131058 0.237744 0.111457
O O7 0.080576 0.389430 0.988235
O O8 0.174616 0.155292 0.279316
O O9 0.149560 0.000000 0.151299
O O10 0.500000 0.833398 0.500000
O O11 0.499191 0.839452 0.336696
O O12 0.654129 0.752492 0.426796
O O13 0.603065 0.000000 0.429392
O O14 0.676743 0.833953 0.626634
O O15 0.620324 0.000000 0.733010
O O16 0.697200 0.500000 0.410153
#
# Coordination Sequence:
#
# PCOD9203296 Si02
#       7
#     8   8   8   2   8   8   8
#     4  11  22  39  63  91 126 169 218 268 325 385
#     4  12  26  43  63  92 134 176 225 283 331 392
#     4  10  20  39  61  85 124 166 209 264 323 377
#     4  12  28  44  62  98 128 172 232 292 332 422
#     4  10  22  41  63  90 125 162 197 247 316 384
#     4  10  22  39  63  91 124 163 206 260 316 382
#     4  10  21  40  63  92 121 159 209 256 312 377
#
# _framework density 21.609721
#
# number of rings (size 3 to 8) (size 9 to 14) (size 15 to 20)
#    0.000    1.440    3.200    1.440    3.360    2.880 
#    1.440    0.000    0.000    0.000    0.000    0.000 
#    0.000    0.000    0.000    0.000    0.000    0.000 
#
# Total GULP energy -139240.523967 kJ/mol
# GULP energy per Si atom -5569.620959 kJ/mol
# Density = 2.156054 g / cm^3
# Si number density = 21.609721 Si / 1000 Ang^3
#
#
#
# Elastic Constant Matrix: (Units=GPa)
#
#
# Indices 1 2 3 4 5 6 
#
# 1 98.9977 33.8506 -6.5676 0.0000 -11.1958 0.0000
# 2 33.8506 154.4438 47.8457 0.0000 -26.7243 0.0000
# 3 -6.5676 47.8457 54.6496 0.0000 -1.0957 0.0000
# 4 0.0000 0.0000 0.0000 5.7455 0.0000 -16.7919
# 5 -11.1958 -26.7243 -1.0957 0.0000 35.3169 0.0000
# 6 0.0000 0.0000 0.0000 -16.7919 0.0000 13.6699
#
#
#
# Elastic Compliance Matrix: (Units=1/GPa)
#
#
# Indices 1 2 3 4 5 6 
#
# 1 0.011890 -0.003974 0.004926 0.000000 0.000915 0.000000
# 2 -0.003974 0.011995 -0.010829 0.000000 0.007481 0.000000
# 3 0.004926 -0.010829 0.028256 0.000000 -0.005756 0.000000
# 4 0.000000 0.000000 0.000000 -0.067198 0.000000 -0.082545
# 5 0.000915 0.007481 -0.005756 0.000000 0.034087 0.000000
# 6 0.000000 0.000000 0.000000 -0.082545 0.000000 -0.028244
#
#
# Mechanical properties :
#
#
# Convention : Reuss Voigt Hill
#
# Bulk Modulus (GPa) = 30.87559 50.92764 40.90161
# Shear Modulus (GPa) = 234.33361 26.47729 130.40545
#
# Velocity S-wave (km/s) = 10.42470 3.50415 7.77668
# Velocity P-wave (km/s) = 12.61816 6.32379 9.98019
#
# Compressibility (1/GPa) = 0.03238804
#
# Stress axis : x y z
#
# Youngs Moduli (GPa) = 84.10148 83.36657 35.39051
#
# Poissons Ratio (x) = 0.33130 -0.17435
# Poissons Ratio (y) = 0.33422 0.38326
# Poissons Ratio (z) = -0.41433 0.90281
#
# Static dielectric constant tensor:
#      x y z
#    x 1.825760 0.000000 0.022640 
#    y 0.000000 1.660960 0.000000 
#    z 0.022640 0.000000 1.790610 
# 
# From -- ./inp_files/213324.got.cif
#   From: 2010.05.17/outbox.cif.g08.bks.cpg/sg12_107_cif.got.tgz:213324.got - 2010.06.03 13:09:07.
