data_PCOD9203909
_publ_section_title
;
Structure prediction by ZEFSAII (Michael W. Deem and Ramdas Pophale) SiO2 
 PCOD9203909
Probable space group: C 2/M
;
_chemical_formula_sum "Si O2"
_cell_formula_units_Z 50
_cell_length_a 17.257552
_cell_length_b 15.160681
_cell_length_c 9.338270
_cell_angle_alpha 90.000000
_cell_angle_beta 76.048988
_cell_angle_gamma 90.000000
_cell_volume 2371.159989
_symmetry_space_group_name_H-M "C 2/M"
_symmetry_group_IT_number 12
_symmetry_cell_setting 'monoclinic'
loop_
_space_group_symop_operation_xyz
x,y,z
-x,y,-z
-x,-y,-z
x,-y,z
1/2+x,1/2+y,z
1/2-x,1/2+y,-z
1/2-x,1/2-y,-z
1/2+x,1/2-y,z
loop_
_atom_site_type_symbol
_atom_site_label
_atom_site_fract_x
_atom_site_fract_y
_atom_site_fract_z
Si Si1 0.216524 0.097804 0.351267
Si Si2 0.691503 0.598357 0.895059
Si Si3 0.823106 0.725637 0.788579
Si Si4 0.372484 0.146312 0.463174
Si Si5 0.101436 0.845010 0.646773
Si Si6 0.000000 0.500000 0.500000
Si Si7 0.549263 0.330193 0.120877
O O1 0.211949 0.180507 0.247276
O O2 0.296498 0.109294 0.410328
O O3 0.140563 0.110263 0.491141
O O4 0.215574 0.000000 0.287308
O O5 0.723380 0.500000 0.870762
O O6 0.759790 0.667562 0.901684
O O7 0.617562 0.603931 0.036408
O O8 0.656069 0.628150 0.757292
O O9 0.843323 0.671904 0.635609
O O10 0.903344 0.747163 0.837979
O O11 0.396378 0.239662 0.380373
O O12 0.443559 0.077348 0.449333
O O13 0.011527 0.867572 0.734185
O O14 0.500000 0.306930 0.000000
#
# Coordination Sequence:
#
# PCOD9203909 Si02
#       7
#     8   8   8   8   8   2   8
#     4  11  21  38  67  96 129 167 210 263 328 386
#     4  11  22  38  67  93 122 173 222 262 317 383
#     4  11  22  42  65  93 131 169 216 268 324 386
#     4  11  21  38  61  97 131 167 205 259 324 390
#     4  10  20  40  60  92 130 166 204 269 326 373
#     4  12  24  32  64 100 136 164 210 244 316 404
#     4  10  24  41  62  87 124 171 219 267 323 372
#
# _framework density 21.086724
#
# number of rings (size 3 to 8) (size 9 to 14) (size 15 to 20)
#    0.000    1.280    4.000    2.880    1.120    6.080 
#    0.000    0.800    0.000    0.480    0.000    0.000 
#    0.000    0.000    0.000    0.000    0.000    0.000 
#
# Total GULP energy -139483.443589 kJ/mol
# GULP energy per Si atom -5579.337744 kJ/mol
# Density = 2.103873 g / cm^3
# Si number density = 21.086724 Si / 1000 Ang^3
#
#
#
# Elastic Constant Matrix: (Units=GPa)
#
#
# Indices 1 2 3 4 5 6 
#
# 1 110.5214 33.7259 30.5002 0.0000 10.4978 0.0000
# 2 33.7259 138.0427 22.7018 0.0000 2.6459 0.0000
# 3 30.5002 22.7018 62.4980 0.0000 -7.4791 0.0000
# 4 0.0000 0.0000 0.0000 13.0800 0.0000 5.2157
# 5 10.4978 2.6459 -7.4791 0.0000 31.0789 0.0000
# 6 0.0000 0.0000 0.0000 5.2157 0.0000 13.3779
#
#
#
# Elastic Compliance Matrix: (Units=1/GPa)
#
#
# Indices 1 2 3 4 5 6 
#
# 1 0.011647 -0.001820 -0.005637 0.000000 -0.005136 0.000000
# 2 -0.001820 0.008046 -0.002103 0.000000 -0.000576 0.000000
# 3 -0.005637 -0.002103 0.020351 0.000000 0.006981 0.000000
# 4 0.000000 0.000000 0.000000 0.090526 0.000000 -0.035293
# 5 -0.005136 -0.000576 0.006981 0.000000 0.035640 0.000000
# 6 0.000000 0.000000 0.000000 -0.035293 0.000000 0.088510
#
#
# Mechanical properties :
#
#
# Convention : Reuss Voigt Hill
#
# Bulk Modulus (GPa) = 47.79595 53.87977 50.83786
# Shear Modulus (GPa) = 17.80530 26.44964 22.12747
#
# Velocity S-wave (km/s) = 2.90898 3.54549 3.24289
# Velocity P-wave (km/s) = 5.83082 6.50904 6.17924
#
# Compressibility (1/GPa) = 0.02092228
#
# Stress axis : x y z
#
# Youngs Moduli (GPa) = 85.85934 124.28950 49.13743
#
# Poissons Ratio (x) = 0.22620 0.27701
# Poissons Ratio (y) = 0.15626 0.10335
# Poissons Ratio (z) = 0.48403 0.26142
#
# Static dielectric constant tensor:
#      x y z
#    x 1.768690 0.000000 -0.018250 
#    y 0.000000 1.719440 0.000000 
#    z -0.018250 0.000000 1.789880 
# 
# From -- ./inp_files/85811.got.cif
#   From: 2010.05.17/outbox.cif.g08.bks.cpg/sg12_43_cif.got.tgz:85811.got - 2010.06.03 13:09:07.
