data_PCOD9203625
_publ_section_title
;
Structure prediction by ZEFSAII (Michael W. Deem and Ramdas Pophale) SiO2 
 PCOD9203625
Probable space group: C 2/M
;
_chemical_formula_sum "Si O2"
_cell_formula_units_Z 56
_cell_length_a 8.938921
_cell_length_b 21.229912
_cell_length_c 27.024540
_cell_angle_alpha 90.000000
_cell_angle_beta 148.910358
_cell_angle_gamma 90.000000
_cell_volume 2648.254840
_symmetry_space_group_name_H-M "C 2/M"
_symmetry_group_IT_number 12
_symmetry_cell_setting 'monoclinic'
loop_
_space_group_symop_operation_xyz
x,y,z
-x,y,-z
-x,-y,-z
x,-y,z
1/2+x,1/2+y,z
1/2-x,1/2+y,-z
1/2-x,1/2-y,-z
1/2+x,1/2-y,z
loop_
_atom_site_type_symbol
_atom_site_label
_atom_site_fract_x
_atom_site_fract_y
_atom_site_fract_z
Si Si1 0.593023 0.433494 0.469619
Si Si2 0.267397 0.569643 0.680913
Si Si3 0.403010 0.650550 0.025775
Si Si4 0.725924 0.317345 0.387217
Si Si5 0.705500 0.692418 0.652603
Si Si6 0.360236 0.208033 0.907747
Si Si7 0.171505 0.140695 0.201910
O O1 0.500000 0.434562 0.500000
O O2 0.494064 0.500000 0.417740
O O3 0.471063 0.369463 0.413848
O O4 0.937153 0.433270 0.568872
O O5 0.398906 0.500000 0.711419
O O6 0.377743 0.626659 0.678219
O O7 0.267057 0.588415 0.738787
O O8 0.562523 0.718902 0.077459
O O9 0.500622 0.616794 0.104252
O O10 0.500000 0.624491 0.000000
O O11 0.059541 0.667131 0.927358
O O12 0.438436 0.296435 0.335105
O O13 0.842162 0.256500 0.390898
O O14 0.000000 0.335844 0.500000
O O15 0.035053 0.672049 0.735273
O O16 0.030434 0.189663 0.824081
O O17 0.500000 0.192228 0.000000
#
# Coordination Sequence:
#
# PCOD9203625 Si02
#       7
#     8   8   8   8   8   8   8
#     4  10  20  39  65  87 121 174 225 264 314 381
#     4  11  25  44  64  90 123 173 229 276 324 379
#     4   9  18  35  61  91 127 168 202 248 316 402
#     4  12  26  42  61  86 130 178 219 271 326 383
#     4  12  25  39  59  97 131 170 216 269 326 377
#     4   8  17  35  56  87 128 165 198 246 319 394
#     4  11  23  36  62  94 131 168 206 270 316 388
#
# _framework density 21.146000000000001
#
# number of rings (size 3 to 8) (size 9 to 14) (size 15 to 20)
#    0.000    1.571    2.857    2.571    4.000    2.000 
#    0.000    0.000    0.000    4.286    0.000    0.000 
#    0.000    0.000    0.000    0.000    0.000    0.000 
#
# Total GULP energy -156028.461396 kJ/mol
# GULP energy per Si atom -5572.445050 kJ/mol
# Density = 2.109787 g / cm^3
# Si number density = 21.146000 Si / 1000 Ang^3
#
#
#
# Elastic Constant Matrix: (Units=GPa)
#
#
# Indices 1 2 3 4 5 6 
#
# 1 129.9759 50.0464 34.2707 0.0072 5.9448 -0.0074
# 2 50.0464 99.9821 30.0850 0.0264 -7.7161 -0.0224
# 3 34.2707 30.0850 74.5661 0.0346 1.9720 -0.0355
# 4 0.0072 0.0264 0.0346 -81.0707 -0.0014 89.0150
# 5 5.9448 -7.7161 1.9720 -0.0014 36.8478 -0.0027
# 6 -0.0074 -0.0224 -0.0355 89.0150 -0.0027 -61.5172
#
#
#
# Elastic Compliance Matrix: (Units=1/GPa)
#
#
# Indices 1 2 3 4 5 6 
#
# 1 0.010282 -0.004476 -0.002855 -0.000001 -0.002443 0.000001
# 2 -0.004476 0.013593 -0.003527 0.000001 0.003757 -0.000002
# 3 -0.002855 -0.003527 0.016176 0.000005 -0.001144 -0.000001
# 4 -0.000001 0.000001 0.000005 0.020950 0.000003 0.030314
# 5 -0.002443 0.003757 -0.001144 0.000003 0.028381 0.000003
# 6 0.000001 -0.000002 -0.000001 0.030314 0.000003 0.027609
#
#
# Mechanical properties :
#
#
# Convention : Reuss Voigt Hill
#
# Bulk Modulus (GPa) = 54.53744 59.25869 56.89807
# Shear Modulus (GPa) = 34.52613 -8.47322 13.02646
#
# Velocity S-wave (km/s) = 4.04511 -2.00392 2.48468
# Velocity P-wave (km/s) = 6.90392 4.76761 5.93272
#
# Compressibility (1/GPa) = 0.01833603
#
# Stress axis : x y z
#
# Youngs Moduli (GPa) = 97.25996 73.56473 61.81921
#
# Poissons Ratio (x) = 0.32928 0.17649
# Poissons Ratio (y) = 0.43534 0.21802
# Poissons Ratio (z) = 0.27767 0.25944
#
# Static dielectric constant tensor:
#      x y z
#    x 1.753220 0.000000 0.046530 
#    y 0.000000 1.830640 0.000000 
#    z 0.046530 0.000000 1.798090 
# 
# From -- ./inp_files/373167.got.cif
#   From: 2010.05.17/outbox.cif.g08.bks.cpg/sg12_187_cif.got.tgz:373167.got - 2010.06.03 13:09:07.
