data_PCOD9203696
_publ_section_title
;
Structure prediction by ZEFSAII (Michael W. Deem and Ramdas Pophale) SiO2 
 PCOD9203696
Probable space group: C 2/M
;
_chemical_formula_sum "Si O2"
_cell_formula_units_Z 48
_cell_length_a 15.559073
_cell_length_b 13.705644
_cell_length_c 12.343889
_cell_angle_alpha 90.000000
_cell_angle_beta 117.946821
_cell_angle_gamma 90.000000
_cell_volume 2325.327817
_symmetry_space_group_name_H-M "C 2/M"
_symmetry_group_IT_number 12
_symmetry_cell_setting 'monoclinic'
loop_
_space_group_symop_operation_xyz
x,y,z
-x,y,-z
-x,-y,-z
x,-y,z
1/2+x,1/2+y,z
1/2-x,1/2+y,-z
1/2-x,1/2-y,-z
1/2+x,1/2-y,z
loop_
_atom_site_type_symbol
_atom_site_label
_atom_site_fract_x
_atom_site_fract_y
_atom_site_fract_z
Si Si1 0.824335 0.889917 0.319863
Si Si2 0.389857 0.189376 0.433905
Si Si3 0.031338 0.759376 0.138217
Si Si4 0.629179 0.888069 0.346004
Si Si5 0.155558 0.884584 0.913995
Si Si6 0.280183 0.615477 0.815419
O O1 0.889323 0.804122 0.406341
O O2 0.725032 0.888302 0.328516
O O3 0.802919 0.867168 0.180984
O O4 0.865336 0.000000 0.350223
O O5 0.500000 0.151962 0.500000
O O6 0.349469 0.165500 0.528774
O O7 0.318767 0.141557 0.304049
O O8 0.050078 0.672514 0.232411
O O9 0.130196 0.822639 0.181508
O O10 0.944671 0.826967 0.130285
O O11 0.000000 0.724663 0.000000
O O12 0.600766 0.000000 0.349822
O O13 0.134618 0.000000 0.908622
O O14 0.222347 0.861586 0.057398
O O15 0.299957 0.500000 0.814512
#
# Coordination Sequence:
#
# PCOD9203696 Si02
#       6
#     8   8   8   8   8   8
#     4  10  22  42  66  92 124 160 203 257 310 362
#     4  12  25  43  64  88 123 164 213 252 299 366
#     4  10  20  39  65  96 123 160 205 252 308 363
#     4  11  24  43  63  88 127 166 204 251 304 369
#     4   9  19  39  67  99 125 152 202 260 308 358
#     4  10  21  38  64  94 127 164 202 252 307 357
#
# _framework density 20.642251000000002
#
# number of rings (size 3 to 8) (size 9 to 14) (size 15 to 20)
#    0.000    1.667    1.667    2.500    0.000    4.667 
#    3.000    0.833    0.000    0.000    0.000    0.000 
#    0.000    0.000    0.000    0.000    0.000    0.000 
#
# Total GULP energy -134139.544163 kJ/mol
# GULP energy per Si atom -5589.147673 kJ/mol
# Density = 2.059527 g / cm^3
# Si number density = 20.642251 Si / 1000 Ang^3
#
#
#
# Elastic Constant Matrix: (Units=GPa)
#
#
# Indices 1 2 3 4 5 6 
#
# 1 65.7367 3.4916 68.0415 0.0000 -10.8458 0.0000
# 2 3.4916 92.6597 76.3096 0.0000 -7.2123 0.0000
# 3 68.0415 76.3096 163.4838 0.0000 -4.4594 0.0000
# 4 0.0000 0.0000 0.0000 38.4572 0.0000 -10.2280
# 5 -10.8458 -7.2123 -4.4594 0.0000 40.7893 0.0000
# 6 0.0000 0.0000 0.0000 -10.2280 0.0000 29.9434
#
#
#
# Elastic Compliance Matrix: (Units=1/GPa)
#
#
# Indices 1 2 3 4 5 6 
#
# 1 0.049749 0.025938 -0.032423 0.000000 0.014270 0.000000
# 2 0.025938 0.031256 -0.025121 0.000000 0.009677 0.000000
# 3 -0.032423 -0.025121 0.031073 0.000000 -0.009666 0.000000
# 4 0.000000 0.000000 0.000000 0.028601 0.000000 0.009770
# 5 0.014270 0.009677 -0.009666 0.000000 0.028965 0.000000
# 6 0.000000 0.000000 0.000000 0.009770 0.000000 0.036733
#
#
# Mechanical properties :
#
#
# Convention : Reuss Voigt Hill
#
# Bulk Modulus (GPa) = 20.46393 68.61838 44.54115
# Shear Modulus (GPa) = 17.48990 33.44047 25.46518
#
# Velocity S-wave (km/s) = 2.91398 4.02929 3.51614
# Velocity P-wave (km/s) = 4.61051 7.41355 6.17323
#
# Compressibility (1/GPa) = 0.04886647
#
# Stress axis : x y z
#
# Youngs Moduli (GPa) = 20.10091 31.99352 32.18186
#
# Poissons Ratio (x) = -0.82985 1.04344
# Poissons Ratio (y) = -0.52138 0.80844
# Poissons Ratio (z) = 0.65174 0.80371
#
# Static dielectric constant tensor:
#      x y z
#    x 1.729920 0.000000 -0.015570 
#    y 0.000000 1.752490 0.000000 
#    z -0.015570 0.000000 1.721510 
# 
# From -- ./inp_files/143858.got.cif
#   From: 2010.05.17/outbox.cif.g08.bks.cpg/sg12_72_cif.got.tgz:143858.got - 2010.06.03 13:09:07.
