data_PCOD9203547
_publ_section_title
;
Structure prediction by ZEFSAII (Michael W. Deem and Ramdas Pophale) SiO2 
 PCOD9203547
Probable space group: C 2/M
;
_chemical_formula_sum "Si O2"
_cell_formula_units_Z 48
_cell_length_a 30.060826
_cell_length_b 8.860680
_cell_length_c 15.367157
_cell_angle_alpha 90.000000
_cell_angle_beta 39.992078
_cell_angle_gamma 90.000000
_cell_volume 2630.615745
_symmetry_space_group_name_H-M "C 2/M"
_symmetry_group_IT_number 12
_symmetry_cell_setting 'monoclinic'
loop_
_space_group_symop_operation_xyz
x,y,z
-x,y,-z
-x,-y,-z
x,-y,z
1/2+x,1/2+y,z
1/2-x,1/2+y,-z
1/2-x,1/2-y,-z
1/2+x,1/2-y,z
loop_
_atom_site_type_symbol
_atom_site_label
_atom_site_fract_x
_atom_site_fract_y
_atom_site_fract_z
Si Si1 0.421743 0.680174 0.362204
Si Si2 0.166364 0.319388 0.353945
Si Si3 0.324107 0.179698 0.362979
Si Si4 0.823598 0.319211 0.862157
Si Si5 0.324077 0.680547 0.176821
Si Si6 0.083482 0.181338 0.128516
O O1 0.414889 0.500000 0.363249
O O2 0.386090 0.733662 0.504832
O O3 0.380767 0.759499 0.345450
O O4 0.502833 0.718887 0.240663
O O5 0.155457 0.500000 0.378483
O O6 0.160233 0.277417 0.261920
O O7 0.244927 0.288433 0.267280
O O8 0.250000 0.250000 0.500000
O O9 0.340326 0.233183 0.241048
O O10 0.319532 0.000000 0.375241
O O11 0.818463 0.500000 0.873619
O O12 0.880955 0.260326 0.842831
O O13 0.750000 0.250000 0.000000
O O14 0.329930 0.500000 0.182987
O O15 0.374256 0.721624 0.022046
O O16 0.089964 0.000000 0.129592
#
# Coordination Sequence:
#
# PCOD9203547 Si02
#       6
#     8   8   8   8   8   8
#     4  11  24  41  63  90 123 161 200 247 303 358
#     4  10  21  38  62  89 121 160 200 247 299 356
#     4  12  24  39  62  91 122 156 202 250 298 359
#     4  11  22  38  63  92 122 160 204 250 300 356
#     4  10  20  39  64  88 120 159 201 245 297 356
#     4  10  23  43  63  89 125 161 200 248 301 358
#
# _framework density 18.246680000000001
#
# number of rings (size 3 to 8) (size 9 to 14) (size 15 to 20)
#    0.000    1.333    3.333    2.500    0.000    4.667 
#    0.000    6.667    0.000    0.000    0.000    0.000 
#    0.000    0.000    0.000    0.000    0.000    0.000 
#
# Total GULP energy -134182.305514 kJ/mol
# GULP energy per Si atom -5590.929396 kJ/mol
# Density = 1.820515 g / cm^3
# Si number density = 18.246680 Si / 1000 Ang^3
#
#
#
# Elastic Constant Matrix: (Units=GPa)
#
#
# Indices 1 2 3 4 5 6 
#
# 1 156.0245 69.4046 72.6625 0.0000 11.8377 0.0000
# 2 69.4046 65.0651 56.9205 -0.0002 1.5128 0.0001
# 3 72.6625 56.9205 126.8469 -0.0001 2.7475 0.0000
# 4 0.0000 -0.0002 -0.0001 31.0718 0.0000 3.2414
# 5 11.8377 1.5128 2.7475 0.0000 34.8795 0.0000
# 6 0.0000 0.0001 0.0000 3.2414 0.0000 37.0184
#
#
#
# Elastic Compliance Matrix: (Units=1/GPa)
#
#
# Indices 1 2 3 4 5 6 
#
# 1 0.012942 -0.012024 -0.001938 0.000000 -0.003718 0.000000
# 2 -0.012024 0.036474 -0.009550 0.000000 0.003251 0.000000
# 3 -0.001938 -0.009550 0.013278 0.000000 0.000026 0.000000
# 4 0.000000 0.000000 0.000000 0.032480 0.000000 -0.002844
# 5 -0.003718 0.003251 0.000026 0.000000 0.029789 0.000000
# 6 0.000000 0.000000 0.000000 -0.002844 0.000000 0.027263
#
#
# Mechanical properties :
#
#
# Convention : Reuss Voigt Hill
#
# Bulk Modulus (GPa) = 63.80961 82.87906 73.34433
# Shear Modulus (GPa) = 24.45309 30.52388 27.48849
#
# Velocity S-wave (km/s) = 3.66476 4.09448 3.88557
# Velocity P-wave (km/s) = 7.27693 8.23851 7.77261
#
# Compressibility (1/GPa) = 0.01567162
#
# Stress axis : x y z
#
# Youngs Moduli (GPa) = 77.26513 27.41697 75.31097
#
# Poissons Ratio (x) = 0.32966 0.14594
# Poissons Ratio (y) = 0.92903 0.71920
# Poissons Ratio (z) = 0.14973 0.26182
#
# Static dielectric constant tensor:
#      x y z
#    x 1.598930 0.000000 0.006330 
#    y 0.000000 1.615440 0.000000 
#    z 0.006330 0.000000 1.603880 
# 
# From -- ./inp_files/229869.got.cif
#   From: 2010.05.17/outbox.cif.g08.bks.cpg/sg12_115_cif.got.tgz:229869.got - 2010.06.03 13:09:07.
