data_PCOD9203908
_publ_section_title
;
Structure prediction by ZEFSAII (Michael W. Deem and Ramdas Pophale) SiO2 
 PCOD9203908
Probable space group: C 2/M
;
_chemical_formula_sum "Si O2"
_cell_formula_units_Z 48
_cell_length_a 8.857817
_cell_length_b 23.673272
_cell_length_c 12.427365
_cell_angle_alpha 90.000000
_cell_angle_beta 62.048575
_cell_angle_gamma 90.000000
_cell_volume 2301.942884
_symmetry_space_group_name_H-M "C 2/M"
_symmetry_group_IT_number 12
_symmetry_cell_setting 'monoclinic'
loop_
_space_group_symop_operation_xyz
x,y,z
-x,y,-z
-x,-y,-z
x,-y,z
1/2+x,1/2+y,z
1/2-x,1/2+y,-z
1/2-x,1/2-y,-z
1/2+x,1/2-y,z
loop_
_atom_site_type_symbol
_atom_site_label
_atom_site_fract_x
_atom_site_fract_y
_atom_site_fract_z
Si Si1 0.044538 0.778771 0.363799
Si Si2 0.981346 0.434737 0.169370
Si Si3 0.102913 0.562125 0.356285
Si Si4 0.821193 0.136555 0.042091
Si Si5 0.238002 0.820436 0.711832
Si Si6 0.677972 0.172087 0.881443
O O1 0.081508 0.711899 0.359677
O O2 0.226555 0.798839 0.250905
O O3 0.000000 0.798975 0.500000
O O4 0.896216 0.795749 0.329406
O O5 0.964101 0.500000 0.143654
O O6 0.969960 0.430005 0.302274
O O7 0.169828 0.408583 0.089292
O O8 0.861600 0.391265 0.147295
O O9 0.182140 0.500000 0.312682
O O10 0.235960 0.612912 0.315158
O O11 0.000000 0.562209 0.500000
O O12 0.802343 0.180284 0.147013
O O13 0.811660 0.169711 0.933825
O O14 0.000000 0.106866 0.000000
O O15 0.500000 0.192009 0.000000
#
# Coordination Sequence:
#
# PCOD9203908 Si02
#       6
#     8   8   8   8   8   8
#     4  12  27  43  66  99 133 178 215 274 329 390
#     4   9  20  37  62  93 127 172 224 272 325 390
#     4   9  19  38  66  93 127 173 220 269 325 394
#     4  10  20  40  60  90 128 168 219 270 327 381
#     4  11  25  41  66  95 134 172 221 268 331 391
#     4  10  23  41  66  91 131 171 220 269 325 392
#
# _framework density 20.851952000000001
#
# number of rings (size 3 to 8) (size 9 to 14) (size 15 to 20)
#    0.000    1.833    1.667    1.000    9.333    4.667 
#    0.000    0.833    0.000    1.000    0.000    0.000 
#    0.000    0.000    0.000    0.000    0.000    0.000 
#
# Total GULP energy -133744.882923 kJ/mol
# GULP energy per Si atom -5572.703455 kJ/mol
# Density = 2.080449 g / cm^3
# Si number density = 20.851952 Si / 1000 Ang^3
#
#
#
# Elastic Constant Matrix: (Units=GPa)
#
#
# Indices 1 2 3 4 5 6 
#
# 1 84.3393 40.5800 32.1543 0.0000 22.8439 0.0000
# 2 40.5800 91.9867 35.4475 0.0000 7.9463 0.0000
# 3 32.1543 35.4475 156.0535 0.0000 24.8714 0.0000
# 4 0.0000 0.0000 0.0000 10.0923 0.0000 8.4052
# 5 22.8439 7.9463 24.8714 0.0000 28.3402 0.0000
# 6 0.0000 0.0000 0.0000 8.4052 0.0000 15.5064
#
#
#
# Elastic Compliance Matrix: (Units=1/GPa)
#
#
# Indices 1 2 3 4 5 6 
#
# 1 0.018903 -0.007137 -0.000191 0.000000 -0.013068 0.000000
# 2 -0.007137 0.014639 -0.002462 0.000000 0.003808 0.000000
# 3 -0.000191 -0.002462 0.007990 0.000000 -0.006167 0.000000
# 4 0.000000 0.000000 0.000000 0.180629 0.000000 -0.097910
# 5 -0.013068 0.003808 -0.006167 0.000000 0.050164 0.000000
# 6 0.000000 0.000000 0.000000 -0.097910 0.000000 0.117561
#
#
# Mechanical properties :
#
#
# Convention : Reuss Voigt Hill
#
# Bulk Modulus (GPa) = 45.55182 60.97145 53.26163
# Shear Modulus (GPa) = 11.99667 25.73428 18.86547
#
# Velocity S-wave (km/s) = 2.40120 3.51685 3.01114
# Velocity P-wave (km/s) = 5.43879 6.76717 6.13902
#
# Compressibility (1/GPa) = 0.02195302
#
# Stress axis : x y z
#
# Youngs Moduli (GPa) = 52.90132 68.31016 125.16330
#
# Poissons Ratio (x) = 0.48750 0.02391
# Poissons Ratio (y) = 0.37753 0.30812
# Poissons Ratio (z) = 0.01011 0.16816
#
# Static dielectric constant tensor:
#      x y z
#    x 1.754060 0.000000 -0.002900 
#    y 0.000000 1.802700 0.000000 
#    z -0.002900 0.000000 1.843020 
# 
# From -- ./inp_files/122446.got.cif
#   From: 2010.05.17/outbox.cif.g08.bks.cpg/sg12_62_cif.got.tgz:122446.got - 2010.06.03 13:09:07.
