data_PCOD9203246
_publ_section_title
;
Structure prediction by ZEFSAII (Michael W. Deem and Ramdas Pophale) SiO2 
 PCOD9203246
Probable space group: C 2/M
;
_chemical_formula_sum "Si O2"
_cell_formula_units_Z 52
_cell_length_a 27.505003
_cell_length_b 20.786443
_cell_length_c 9.669262
_cell_angle_alpha 90.000000
_cell_angle_beta 25.298888
_cell_angle_gamma 90.000000
_cell_volume 2362.430664
_symmetry_space_group_name_H-M "C 2/M"
_symmetry_group_IT_number 12
_symmetry_cell_setting 'monoclinic'
loop_
_space_group_symop_operation_xyz
x,y,z
-x,y,-z
-x,-y,-z
x,-y,z
1/2+x,1/2+y,z
1/2-x,1/2+y,-z
1/2-x,1/2-y,-z
1/2+x,1/2-y,z
loop_
_atom_site_type_symbol
_atom_site_label
_atom_site_fract_x
_atom_site_fract_y
_atom_site_fract_z
Si Si1 0.866761 0.661018 0.204200
Si Si2 0.500000 0.383274 0.000000
Si Si3 0.548359 0.571848 0.163311
Si Si4 0.777002 0.074632 0.894758
Si Si5 0.404845 0.925901 0.861861
Si Si6 0.840738 0.778073 0.423500
Si Si7 0.749146 0.150171 0.235872
O O1 0.910762 0.730695 0.138977
O O2 0.747174 0.682643 0.444734
O O3 0.838488 0.624905 0.420181
O O4 0.927594 0.620398 0.932030
O O5 0.558366 0.423154 0.970807
O O6 0.417257 0.333097 0.290755
O O7 0.584620 0.500000 0.115661
O O8 0.414029 0.578005 0.539640
O O9 0.627340 0.625272 0.031102
O O10 0.746994 0.000000 0.003796
O O11 0.714099 0.088207 0.911279
O O12 0.731733 0.121478 0.130118
O O13 0.500000 0.919032 0.500000
O O14 0.401949 0.000000 0.915762
O O15 0.773746 0.727003 0.691833
#
# Coordination Sequence:
#
# PCOD9203246 Si02
#       7
#     8   4   8   8   8   8   8
#     4   9  18  40  58  80 114 151 205 235 297 355
#     4  12  19  38  58  88 123 160 208 252 296 358
#     4  11  22  35  61  94 126 160 198 248 310 365
#     4  10  22  38  57  90 125 153 194 253 312 364
#     4  10  22  40  60  83 118 155 196 252 303 355
#     4   9  20  36  58  81 118 154 199 255 287 346
#     4  10  20  39  60  85 126 158 197 242 304 360
#
# _framework density 22.011229
#
# number of rings (size 3 to 8) (size 9 to 14) (size 15 to 20)
#    0.923    1.077    1.538    2.077    0.000    3.692 
#    0.000    6.154    0.000    2.769    0.000    0.000 
#    0.000    0.000    0.000    0.000    0.000    0.000 
#
# Total GULP energy -144887.673780 kJ/mol
# GULP energy per Si atom -5572.602838 kJ/mol
# Density = 2.196113 g / cm^3
# Si number density = 22.011229 Si / 1000 Ang^3
#
#
#
# Elastic Constant Matrix: (Units=GPa)
#
#
# Indices 1 2 3 4 5 6 
#
# 1 43.3247 21.9652 3.8632 0.0000 8.1795 0.0000
# 2 21.9652 89.8372 40.3674 0.0000 12.5039 0.0000
# 3 3.8632 40.3674 51.0991 0.0000 8.0821 0.0000
# 4 0.0000 0.0000 0.0000 28.8952 0.0000 6.0682
# 5 8.1795 12.5039 8.0821 0.0000 35.3956 0.0000
# 6 0.0000 0.0000 0.0000 6.0682 0.0000 31.4901
#
#
#
# Elastic Compliance Matrix: (Units=1/GPa)
#
#
# Indices 1 2 3 4 5 6 
#
# 1 0.027830 -0.008594 0.005418 0.000000 -0.004632 0.000000
# 2 -0.008594 0.020244 -0.015070 0.000000 -0.001724 0.000000
# 3 0.005418 -0.015070 0.031561 0.000000 -0.003135 0.000000
# 4 0.000000 0.000000 0.000000 0.036067 0.000000 -0.006950
# 5 -0.004632 -0.001724 -0.003135 0.000000 0.030648 0.000000
# 6 0.000000 0.000000 0.000000 -0.006950 0.000000 0.033095
#
#
# Mechanical properties :
#
#
# Convention : Reuss Voigt Hill
#
# Bulk Modulus (GPa) = 23.17891 35.18363 29.18127
# Shear Modulus (GPa) = 21.70905 27.02721 24.36813
#
# Velocity S-wave (km/s) = 3.14390 3.50792 3.33089
# Velocity P-wave (km/s) = 4.87157 5.69442 5.29899
#
# Compressibility (1/GPa) = 0.04314266
#
# Stress axis : x y z
#
# Youngs Moduli (GPa) = 35.93232 49.39725 31.68467
#
# Poissons Ratio (x) = 0.42453 -0.17166
# Poissons Ratio (y) = 0.30881 0.47749
# Poissons Ratio (z) = -0.19468 0.74441
#
# Static dielectric constant tensor:
#      x y z
#    x 1.805340 0.000000 -0.030560 
#    y 0.000000 1.788330 0.000000 
#    z -0.030560 0.000000 1.880770 
# 
# From -- ./inp_files/106846.got.cif
#   From: 2010.05.17/outbox.cif.g08.bks.cpg/sg12_54_cif.got.tgz:106846.got - 2010.06.03 13:09:07.
