data_PCOD9203631
_publ_section_title
;
Structure prediction by ZEFSAII (Michael W. Deem and Ramdas Pophale) SiO2 
 PCOD9203631
Probable space group: C 2/M
;
_chemical_formula_sum "Si O2"
_cell_formula_units_Z 60
_cell_length_a 19.399712
_cell_length_b 9.748746
_cell_length_c 22.782974
_cell_angle_alpha 90.000000
_cell_angle_beta 138.267361
_cell_angle_gamma 90.000000
_cell_volume 2868.164301
_symmetry_space_group_name_H-M "C 2/M"
_symmetry_group_IT_number 12
_symmetry_cell_setting 'monoclinic'
loop_
_space_group_symop_operation_xyz
x,y,z
-x,y,-z
-x,-y,-z
x,-y,z
1/2+x,1/2+y,z
1/2-x,1/2+y,-z
1/2-x,1/2-y,-z
1/2+x,1/2-y,z
loop_
_atom_site_type_symbol
_atom_site_label
_atom_site_fract_x
_atom_site_fract_y
_atom_site_fract_z
Si Si1 0.766679 0.760957 0.932362
Si Si2 0.284821 0.000000 0.026423
Si Si3 0.564159 0.839949 0.268932
Si Si4 0.498028 0.660952 0.116781
Si Si5 0.870514 0.655359 0.370570
Si Si6 0.688994 0.340077 0.163053
Si Si7 0.444221 0.160222 0.604760
Si Si8 0.187741 0.838670 0.559638
O O1 0.692440 0.878096 0.910375
O O2 0.881314 0.818890 0.021530
O O3 0.756060 0.619916 0.959666
O O4 0.766788 0.753511 0.862485
O O5 0.522355 0.746595 0.190203
O O6 0.523103 0.806575 0.307963
O O7 0.688901 0.822907 0.353694
O O8 0.544337 0.000000 0.242220
O O9 0.515508 0.500000 0.139219
O O10 0.576709 0.703229 0.115045
O O11 0.878013 0.500000 0.400229
O O12 0.764679 0.665312 0.266613
O O13 0.866911 0.765652 0.419603
O O14 0.961456 0.672118 0.381033
O O15 0.683312 0.500000 0.139930
O O16 0.354913 0.258703 0.524004
O O17 0.410336 0.000000 0.584165
O O18 0.164358 0.000000 0.541667
#
# Coordination Sequence:
#
# PCOD9203631 Si02
#       8
#     8   4   8   8   8   8   8   8
#     4  11  22  43  62  96 121 168 206 248 302 369
#     4  10  24  40  62  86 130 158 200 250 312 354
#     4  10  23  41  60  90 125 160 203 258 309 361
#     4  11  22  39  65  91 120 161 211 257 302 361
#     4  10  21  39  61  89 118 162 209 250 299 365
#     4  10  20  39  65  88 121 162 208 257 302 360
#     4  10  22  39  62  90 115 161 211 249 300 377
#     4  11  22  39  62  88 126 159 196 254 316 366
#
# _framework density 20.919304
#
# number of rings (size 3 to 8) (size 9 to 14) (size 15 to 20)
#    0.000    1.600    2.667    1.600    0.933    6.400 
#    4.800    0.667    0.000    0.000    0.000    0.000 
#    0.000    0.000    0.000    0.000    0.000    0.000 
#
# Total GULP energy -167255.906657 kJ/mol
# GULP energy per Si atom -5575.196889 kJ/mol
# Density = 2.087169 g / cm^3
# Si number density = 20.919304 Si / 1000 Ang^3
#
#
#
# Elastic Constant Matrix: (Units=GPa)
#
#
# Indices 1 2 3 4 5 6 
#
# 1 55.4191 28.0938 -1.8217 0.0000 -5.9730 0.0000
# 2 28.0938 95.6965 21.8845 0.0000 -17.7646 0.0000
# 3 -1.8217 21.8845 57.4212 0.0000 -11.3434 0.0000
# 4 0.0000 0.0000 0.0000 30.1028 0.0000 0.4070
# 5 -5.9730 -17.7646 -11.3434 0.0000 36.9532 0.0000
# 6 0.0000 0.0000 0.0000 0.4070 0.0000 104.4507
#
#
#
# Elastic Compliance Matrix: (Units=1/GPa)
#
#
# Indices 1 2 3 4 5 6 
#
# 1 0.021852 -0.007005 0.003615 0.000000 0.001274 0.000000
# 2 -0.007005 0.014418 -0.004867 0.000000 0.004305 0.000000
# 3 0.003615 -0.004867 0.020267 0.000000 0.004466 0.000000
# 4 0.000000 0.000000 0.000000 0.033221 0.000000 -0.000129
# 5 0.001274 0.004305 0.004466 0.000000 0.030708 0.000000
# 6 0.000000 0.000000 0.000000 -0.000129 0.000000 0.009574
#
#
# Mechanical properties :
#
#
# Convention : Reuss Voigt Hill
#
# Bulk Modulus (GPa) = 24.98608 33.87222 29.42915
# Shear Modulus (GPa) = 31.27036 44.99336 38.13186
#
# Velocity S-wave (km/s) = 3.87047 4.64271 4.27407
# Velocity P-wave (km/s) = 5.65190 6.70572 6.20124
#
# Compressibility (1/GPa) = 0.04002228
#
# Stress axis : x y z
#
# Youngs Moduli (GPa) = 45.76315 69.35575 49.34132
#
# Poissons Ratio (x) = 0.48585 -0.17836
# Poissons Ratio (y) = 0.32058 0.24014
# Poissons Ratio (z) = -0.16542 0.33755
#
# Static dielectric constant tensor:
#      x y z
#    x 1.817620 0.000000 0.040190 
#    y 0.000000 1.697860 0.000000 
#    z 0.040190 0.000000 1.750850 
# 
# From -- ./inp_files/320558.got.cif
#   From: 2010.05.17/outbox.cif.g08.bks.cpg/sg12_161_cif.got.tgz:320558.got - 2010.06.03 13:09:07.
