data_PCOD9203493
_publ_section_title
;
Structure prediction by ZEFSAII (Michael W. Deem and Ramdas Pophale) SiO2 
 PCOD9203493
Probable space group: C 2/M
;
_chemical_formula_sum "Si O2"
_cell_formula_units_Z 34
_cell_length_a 13.082744
_cell_length_b 14.577194
_cell_length_c 15.956997
_cell_angle_alpha 90.000000
_cell_angle_beta 151.286940
_cell_angle_gamma 90.000000
_cell_volume 1462.002490
_symmetry_space_group_name_H-M "C 2/M"
_symmetry_group_IT_number 12
_symmetry_cell_setting 'monoclinic'
loop_
_space_group_symop_operation_xyz
x,y,z
-x,y,-z
-x,-y,-z
x,-y,z
1/2+x,1/2+y,z
1/2-x,1/2+y,-z
1/2-x,1/2-y,-z
1/2+x,1/2-y,z
loop_
_atom_site_type_symbol
_atom_site_label
_atom_site_fract_x
_atom_site_fract_y
_atom_site_fract_z
Si Si1 0.154112 0.865281 0.493981
Si Si2 0.676753 0.162201 0.560213
Si Si3 0.000000 0.000000 0.500000
Si Si4 0.408282 0.895854 0.096308
Si Si5 0.577348 0.704634 0.964951
O O1 0.234633 0.889333 0.458487
O O2 0.097029 0.758422 0.462713
O O3 0.351392 0.892916 0.696553
O O4 0.969771 0.921760 0.404257
O O5 0.500000 0.126973 0.500000
O O6 0.885365 0.186659 0.763097
O O7 0.368417 0.812997 0.002615
O O8 0.357720 0.000000 0.034637
O O9 0.267789 0.860385 0.073248
O O10 0.500000 0.680386 0.000000
#
# Coordination Sequence:
#
# PCOD9203493 Si02
#       5
#     8   8   2   8   8
#     4  10  21  37  64  93 125 156 207 255 315 368
#     4  10  20  39  63  91 122 166 204 254 309 371
#     4  12  20  40  62 102 120 154 194 276 310 376
#     4  10  21  41  60  89 123 162 206 255 308 367
#     4  10  22  40  62  90 125 166 207 251 309 370
#
# _framework density 23.255773999999999
#
# number of rings (size 3 to 8) (size 9 to 14) (size 15 to 20)
#    0.000    1.882    2.353    1.412    0.000    2.824 
#    2.118    0.588    0.000    0.000    0.000    0.000 
#    0.000    0.000    0.000    0.000    0.000    0.000 
#
# Total GULP energy -94656.874212 kJ/mol
# GULP energy per Si atom -5568.051424 kJ/mol
# Density = 2.320284 g / cm^3
# Si number density = 23.255774 Si / 1000 Ang^3
#
#
#
# Elastic Constant Matrix: (Units=GPa)
#
#
# Indices 1 2 3 4 5 6 
#
# 1 184.0032 7.3940 22.9407 0.0037 -2.6366 0.0055
# 2 7.3940 79.2724 19.5497 0.0061 6.9561 0.0064
# 3 22.9407 19.5497 32.7751 0.0036 0.0271 0.0010
# 4 0.0037 0.0061 0.0036 9.8520 0.0048 8.3744
# 5 -2.6366 6.9561 0.0271 0.0048 25.6843 0.0045
# 6 0.0055 0.0064 0.0010 8.3744 0.0045 30.6691
#
#
#
# Elastic Compliance Matrix: (Units=1/GPa)
#
#
# Indices 1 2 3 4 5 6 
#
# 1 0.005981 0.000507 -0.004489 0.000000 0.000481 -0.000001
# 2 0.000507 0.015255 -0.009451 -0.000003 -0.004070 -0.000002
# 3 -0.004489 -0.009451 0.039289 -0.000011 0.002057 0.000004
# 4 0.000000 -0.000003 -0.000011 0.132182 -0.000017 -0.036093
# 5 0.000481 -0.004070 0.002057 -0.000017 0.040084 0.000000
# 6 -0.000001 -0.000002 0.000004 -0.036093 0.000000 0.042462
#
#
# Mechanical properties :
#
#
# Convention : Reuss Voigt Hill
#
# Bulk Modulus (GPa) = 29.71000 43.97994 36.84497
# Shear Modulus (GPa) = 15.95718 29.65216 22.80467
#
# Velocity S-wave (km/s) = 2.62231 3.57465 3.13485
# Velocity P-wave (km/s) = 4.68740 5.99916 5.38339
#
# Compressibility (1/GPa) = 0.03365870
#
# Stress axis : x y z
#
# Youngs Moduli (GPa) = 167.19907 65.55098 25.45262
#
# Poissons Ratio (x) = -0.03323 0.11426
# Poissons Ratio (y) = -0.08477 0.24055
# Poissons Ratio (z) = 0.75057 0.61952
#
# Static dielectric constant tensor:
#      x y z
#    x 1.981630 0.000000 0.093160 
#    y 0.000000 1.873810 -0.000010 
#    z 0.093160 -0.000010 1.924850 
# 
# From -- ./inp_files/74913.got.cif
#   From: 2010.05.17/outbox.cif.g08.bks.cpg/sg12_38_cif.got.tgz:74913.got - 2010.06.03 13:09:07.
