data_PCOD9204256
_publ_section_title
;
Structure prediction by ZEFSAII (Michael W. Deem and Ramdas Pophale) SiO2 
 PCOD9204256
Probable space group: C 2/M
;
_chemical_formula_sum "Si O2"
_cell_formula_units_Z 56
_cell_length_a 11.393416
_cell_length_b 20.819554
_cell_length_c 11.434298
_cell_angle_alpha 90.000000
_cell_angle_beta 106.920460
_cell_angle_gamma 90.000000
_cell_volume 2594.866786
_symmetry_space_group_name_H-M "C 2/M"
_symmetry_group_IT_number 12
_symmetry_cell_setting 'monoclinic'
loop_
_space_group_symop_operation_xyz
x,y,z
-x,y,-z
-x,-y,-z
x,-y,z
1/2+x,1/2+y,z
1/2-x,1/2+y,-z
1/2-x,1/2-y,-z
1/2+x,1/2-y,z
loop_
_atom_site_type_symbol
_atom_site_label
_atom_site_fract_x
_atom_site_fract_y
_atom_site_fract_z
Si Si1 0.195107 0.071916 0.295466
Si Si2 0.970835 0.885188 0.353292
Si Si3 0.479622 0.759639 0.632010
Si Si4 0.310234 0.072847 0.766266
Si Si5 0.865326 0.692311 0.931362
Si Si6 0.282168 0.188420 0.169779
Si Si7 0.878461 0.617275 0.545969
O O1 0.222759 0.124824 0.205646
O O2 0.268492 0.096903 0.430846
O O3 0.055008 0.071004 0.296404
O O4 0.235953 0.000000 0.276081
O O5 0.828367 0.900930 0.293641
O O6 0.000000 0.893595 0.500000
O O7 0.012566 0.813419 0.324436
O O8 0.500000 0.751246 0.500000
O O9 0.588122 0.797981 0.728999
O O10 0.367122 0.809975 0.594827
O O11 0.373123 0.124921 0.867651
O O12 0.378014 0.074288 0.660744
O O13 0.307655 0.000000 0.810047
O O14 0.797357 0.746885 0.836634
O O15 0.798371 0.682144 0.035523
O O16 0.000000 0.717321 0.000000
O O17 0.000000 0.612854 0.500000
#
# Coordination Sequence:
#
# PCOD9204256 Si02
#       7
#     8   8   8   8   8   8   8
#     4  12  26  41  67 103 146 187 223 279 347 421
#     4  11  24  41  69 104 146 179 229 280 347 416
#     4  10  20  40  69 107 130 172 223 292 341 405
#     4  12  26  45  71 102 143 187 228 281 347 422
#     4  11  27  47  72  99 134 183 239 294 342 401
#     4  11  24  47  70 100 136 181 233 286 349 405
#     4  11  23  42  65 103 144 179 223 274 348 409
#
# _framework density 21.581068999999999
#
# number of rings (size 3 to 8) (size 9 to 14) (size 15 to 20)
#    0.000    0.857    5.714    1.714    4.000    3.143 
#    0.000    0.000    0.000    2.143    0.000    0.000 
#    0.000    0.000    0.000    0.000    0.000    0.000 
#
# Total GULP energy -156412.332332 kJ/mol
# GULP energy per Si atom -5586.154726 kJ/mol
# Density = 2.153195 g / cm^3
# Si number density = 21.581069 Si / 1000 Ang^3
#
#
#
# Elastic Constant Matrix: (Units=GPa)
#
#
# Indices 1 2 3 4 5 6 
#
# 1 50.4773 21.7245 14.6538 0.0000 -10.9023 0.0000
# 2 21.7245 172.8964 34.3784 0.0000 -16.2045 0.0000
# 3 14.6538 34.3784 70.2204 0.0000 -10.0027 0.0000
# 4 0.0000 0.0000 0.0000 -0.3208 0.0000 -6.5598
# 5 -10.9023 -16.2045 -10.0027 0.0000 30.4655 0.0000
# 6 0.0000 0.0000 0.0000 -6.5598 0.0000 24.8273
#
#
#
# Elastic Compliance Matrix: (Units=1/GPa)
#
#
# Indices 1 2 3 4 5 6 
#
# 1 0.022764 -0.001669 -0.003042 0.000000 0.006260 0.000000
# 2 -0.001669 0.006716 -0.002639 0.000000 0.002108 0.000000
# 3 -0.003042 -0.002639 0.016589 0.000000 0.002954 0.000000
# 4 0.000000 0.000000 0.000000 -0.486863 0.000000 -0.128637
# 5 0.006260 0.002108 0.002954 0.000000 0.037156 0.000000
# 6 0.000000 0.000000 0.000000 -0.128637 0.000000 0.006290
#
#
# Mechanical properties :
#
#
# Convention : Reuss Voigt Hill
#
# Bulk Modulus (GPa) = 31.87877 48.34529 40.11203
# Shear Modulus (GPa) = -13.43392 25.85023 6.20815
#
# Velocity S-wave (km/s) = -2.49767 3.46471 1.69791
# Velocity P-wave (km/s) = 2.54674 6.20129 4.74035
#
# Compressibility (1/GPa) = 0.03136884
#
# Stress axis : x y z
#
# Youngs Moduli (GPa) = 43.92864 148.90013 60.28222
#
# Poissons Ratio (x) = 0.24849 0.18336
# Poissons Ratio (y) = 0.07331 0.15911
# Poissons Ratio (z) = 0.13362 0.39300
#
# Static dielectric constant tensor:
#      x y z
#    x 1.820590 0.000000 -0.011580 
#    y 0.000000 1.866240 0.000000 
#    z -0.011580 0.000000 1.753580 
# 
# From -- ./inp_files/133978.got.cif
#   From: 2010.05.17/outbox.cif.g08.bks.cpg/sg12_67_cif.got.tgz:133978.got - 2010.06.03 13:09:07.
