data_PCOD9204143
_publ_section_title
;
Structure prediction by ZEFSAII (Michael W. Deem and Ramdas Pophale) SiO2 
 PCOD9204143
Probable space group: C 2/M
;
_chemical_formula_sum "Si O2"
_cell_formula_units_Z 40
_cell_length_a 16.614073
_cell_length_b 9.655919
_cell_length_c 16.916205
_cell_angle_alpha 90.000000
_cell_angle_beta 57.099444
_cell_angle_gamma 90.000000
_cell_volume 2278.518958
_symmetry_space_group_name_H-M "C 2/M"
_symmetry_group_IT_number 12
_symmetry_cell_setting 'monoclinic'
loop_
_space_group_symop_operation_xyz
x,y,z
-x,y,-z
-x,-y,-z
x,-y,z
1/2+x,1/2+y,z
1/2-x,1/2+y,-z
1/2-x,1/2-y,-z
1/2+x,1/2-y,z
loop_
_atom_site_type_symbol
_atom_site_label
_atom_site_fract_x
_atom_site_fract_y
_atom_site_fract_z
Si Si1 0.398704 0.500000 0.092494
Si Si2 0.237564 0.500000 0.885073
Si Si3 0.930203 0.500000 0.893338
Si Si4 0.693165 0.000000 0.199214
Si Si5 0.541216 0.500000 0.229139
Si Si6 0.920157 0.000000 0.609027
Si Si7 0.932918 0.760658 0.197006
Si Si8 0.766591 0.218472 0.731955
O O1 0.298532 0.500000 0.100968
O O2 0.403165 0.361783 0.141595
O O3 0.500000 0.500000 0.000000
O O4 0.347367 0.500000 0.858260
O O5 0.234041 0.630750 0.827307
O O6 0.154308 0.500000 0.995363
O O7 0.883714 0.500000 0.829922
O O8 0.998570 0.634536 0.863444
O O9 0.694666 0.864855 0.254912
O O10 0.537722 0.500000 0.325008
O O11 0.489472 0.362511 0.225074
O O12 0.851446 0.866092 0.645307
O O13 0.000000 0.000000 0.500000
O O14 0.825304 0.716699 0.277513
#
# Coordination Sequence:
#
# PCOD9204143 Si02
#       8
#     4   4   4   4   4   4   8   8
#     4   9  21  36  48  69 103 152 193 214 254 310
#     4  10  22  33  46  73 114 148 184 228 246 315
#     4  12  22  28  48  82 107 142 192 228 264 273
#     4  10  21  34  54  74 108 146 177 227 259 307
#     4   9  20  39  54  75 105 141 179 213 273 318
#     4  10  20  40  66  81 102 135 168 211 278 349
#     4  10  21  34  54  74 108 146 177 227 259 307
#     4   9  20  39  54  75 105 141 179 213 273 318
#
# _framework density 17.555263
#
# number of rings (size 3 to 8) (size 9 to 14) (size 15 to 20)
#    0.000    2.400    0.000    4.200    8.400    2.400 
#    0.000    1.500    0.000    0.000    0.000    0.000 
#    0.000    0.000    0.000    0.000    0.000    0.000 
#
# Total GULP energy -111337.081784 kJ/mol
# GULP energy per Si atom -5566.854089 kJ/mol
# Density = 1.751531 g / cm^3
# Si number density = 17.555263 Si / 1000 Ang^3
#
#
#
# Elastic Constant Matrix: (Units=GPa)
#
#
# Indices 1 2 3 4 5 6 
#
# 1 110.6562 51.8503 30.6496 0.0000 -19.0344 0.0000
# 2 51.8503 142.4760 46.6837 0.0000 -14.7560 0.0000
# 3 30.6496 46.6837 91.7408 0.0000 -28.9278 0.0000
# 4 0.0000 0.0000 0.0000 -4.1158 0.0000 -27.1528
# 5 -19.0344 -14.7560 -28.9278 0.0000 16.1022 0.0000
# 6 0.0000 0.0000 0.0000 -27.1528 0.0000 -1.7580
#
#
#
# Elastic Compliance Matrix: (Units=1/GPa)
#
#
# Indices 1 2 3 4 5 6 
#
# 1 0.013021 -0.003971 0.003175 0.000000 0.017458 0.000000
# 2 -0.003971 0.009634 -0.005241 0.000000 -0.005281 0.000000
# 3 0.003175 -0.005241 0.028085 0.000000 0.049406 0.000000
# 4 0.000000 0.000000 0.000000 0.002408 0.000000 -0.037194
# 5 0.017458 -0.005281 0.049406 0.000000 0.166659 0.000000
# 6 0.000000 0.000000 0.000000 -0.037194 0.000000 0.005638
#
#
# Mechanical properties :
#
#
# Convention : Reuss Voigt Hill
#
# Bulk Modulus (GPa) = 25.86195 67.02669 46.44432
# Shear Modulus (GPa) = 19.96745 16.42498 18.19622
#
# Velocity S-wave (km/s) = 3.37620 3.06210 3.22298
# Velocity P-wave (km/s) = 5.47376 7.12497 6.35324
#
# Compressibility (1/GPa) = 0.03866684
#
# Stress axis : x y z
#
# Youngs Moduli (GPa) = 76.79769 103.79667 35.60610
#
# Poissons Ratio (x) = 0.41218 -0.11306
# Poissons Ratio (y) = 0.30497 0.18661
# Poissons Ratio (z) = -0.24385 0.54400
#
# Static dielectric constant tensor:
#      x y z
#    x 1.355520 0.000000 0.312210 
#    y 0.000000 1.609070 0.000000 
#    z 0.312210 0.000000 1.191910 
# 
# From -- ./inp_files/273554.got.cif
#   From: 2010.05.17/outbox.cif.g08.bks.cpg/sg12_137_cif.got.tgz:273554.got - 2010.06.03 13:09:07.
