data_PCOD9204578
_publ_section_title
;
Structure prediction by ZEFSAII (Michael W. Deem and Ramdas Pophale) SiO2 
 PCOD9204578
Probable space group: C 2/M
;
_chemical_formula_sum "Si O2"
_cell_formula_units_Z 64
_cell_length_a 14.268406
_cell_length_b 18.154615
_cell_length_c 18.129953
_cell_angle_alpha 90.000000
_cell_angle_beta 140.940645
_cell_angle_gamma 90.000000
_cell_volume 2959.279462
_symmetry_space_group_name_H-M "C 2/M"
_symmetry_group_IT_number 12
_symmetry_cell_setting 'monoclinic'
loop_
_space_group_symop_operation_xyz
x,y,z
-x,y,-z
-x,-y,-z
x,-y,z
1/2+x,1/2+y,z
1/2-x,1/2+y,-z
1/2-x,1/2-y,-z
1/2+x,1/2-y,z
loop_
_atom_site_type_symbol
_atom_site_label
_atom_site_fract_x
_atom_site_fract_y
_atom_site_fract_z
Si Si1 0.881376 0.708669 0.992809
Si Si2 0.450660 0.712148 0.250055
Si Si3 0.890153 0.848283 0.366039
Si Si4 0.299739 0.298191 0.716088
Si Si5 0.018929 0.613528 0.715915
Si Si6 0.361430 0.076816 0.469370
Si Si7 0.076379 0.582935 0.184656
Si Si8 0.160038 0.864737 0.094665
O O1 0.714439 0.685656 0.872189
O O2 0.855133 0.798418 0.975727
O O3 0.000000 0.702844 0.000000
O O4 0.959280 0.648983 0.093828
O O5 0.480201 0.668176 0.344859
O O6 0.546580 0.712599 0.233655
O O7 0.463103 0.798106 0.279177
O O8 0.805454 0.772906 0.339813
O O9 0.745846 0.899814 0.263543
O O10 0.000000 0.870816 0.500000
O O11 0.226210 0.355207 0.615460
O O12 0.318893 0.328771 0.810562
O O13 0.191265 0.589256 0.827654
O O14 0.932395 0.587538 0.591866
O O15 0.926583 0.587399 0.729075
O O16 0.500000 0.071834 0.500000
O O17 0.273890 0.000000 0.412565
O O18 0.033064 0.500000 0.133716
O O19 0.000000 0.903137 0.000000
#
# Coordination Sequence:
#
# PCOD9204578 Si02
#       8
#     8   8   8   8   8   8   8   8
#     4  10  20  43  64  93 130 169 224 275 336 392
#     4  11  23  38  70 101 126 168 224 289 335 389
#     4  12  24  43  66 100 136 171 231 289 339 396
#     4  12  22  41  68 102 135 169 225 285 341 400
#     4  11  22  40  66  99 131 173 224 276 329 400
#     4  11  23  42  66  92 134 183 218 264 339 417
#     4  12  27  45  66  96 140 190 229 275 341 412
#     4  10  21  37  66 100 133 162 216 291 341 387
#
# _framework density 21.626885000000001
#
# number of rings (size 3 to 8) (size 9 to 14) (size 15 to 20)
#    0.000    0.875    6.250    2.250    3.500    2.500 
#    0.000    1.250    0.000    1.875    0.000    0.000 
#    0.000    0.000    0.000    0.000    0.000    0.000 
#
# Total GULP energy -178283.214552 kJ/mol
# GULP energy per Si atom -5571.350455 kJ/mol
# Density = 2.157766 g / cm^3
# Si number density = 21.626885 Si / 1000 Ang^3
#
#
#
# Elastic Constant Matrix: (Units=GPa)
#
#
# Indices 1 2 3 4 5 6 
#
# 1 62.0561 11.0760 -13.8428 0.0001 -9.5200 0.0000
# 2 11.0760 77.9782 25.6415 0.0004 -4.8994 0.0000
# 3 -13.8428 25.6415 61.2082 0.0006 -4.7439 0.0001
# 4 0.0001 0.0004 0.0006 -13.4019 0.0004 25.7340
# 5 -9.5200 -4.8994 -4.7439 0.0004 31.7127 0.0000
# 6 0.0000 0.0000 0.0001 25.7340 0.0000 -4.7918
#
#
#
# Elastic Compliance Matrix: (Units=1/GPa)
#
#
# Indices 1 2 3 4 5 6 
#
# 1 0.019389 -0.004601 0.006787 0.000000 0.006125 0.000000
# 2 -0.004601 0.016025 -0.007759 0.000000 -0.000066 0.000000
# 3 0.006787 -0.007759 0.021437 0.000000 0.004046 -0.000001
# 4 0.000000 0.000000 0.000000 0.008013 0.000000 0.043032
# 5 0.006125 -0.000066 0.004046 0.000000 0.033967 -0.000001
# 6 0.000000 0.000000 -0.000001 0.043032 -0.000001 0.022411
#
#
# Mechanical properties :
#
#
# Convention : Reuss Voigt Hill
#
# Bulk Modulus (GPa) = 21.87922 27.44356 24.66139
# Shear Modulus (GPa) = 33.87047 14.59498 24.23272
#
# Velocity S-wave (km/s) = 3.96173 2.60061 3.35100
# Velocity P-wave (km/s) = 5.57366 4.66205 5.13811
#
# Compressibility (1/GPa) = 0.04570546
#
# Stress axis : x y z
#
# Youngs Moduli (GPa) = 51.57473 62.40330 46.64928
#
# Poissons Ratio (x) = 0.28712 -0.31662
# Poissons Ratio (y) = 0.23730 0.36194
# Poissons Ratio (z) = -0.35005 0.48418
#
# Static dielectric constant tensor:
#      x y z
#    x 1.795180 0.000000 -0.031900 
#    y 0.000000 1.756930 0.000000 
#    z -0.031900 0.000000 1.860290 
# 
# From -- ./inp_files/271738.got.cif
#   From: 2010.05.17/outbox.cif.g08.bks.cpg/sg12_136_cif.got.tgz:271738.got - 2010.06.03 13:09:07.
