data_PCOD9204874
_publ_section_title
;
Structure prediction by ZEFSAII (Michael W. Deem and Ramdas Pophale) SiO2 
 PCOD9204874
Probable space group: C 2/M
;
_chemical_formula_sum "Si O2"
_cell_formula_units_Z 56
_cell_length_a 13.704801
_cell_length_b 11.871561
_cell_length_c 20.171453
_cell_angle_alpha 90.000000
_cell_angle_beta 120.501518
_cell_angle_gamma 90.000000
_cell_volume 2827.687132
_symmetry_space_group_name_H-M "C 2/M"
_symmetry_group_IT_number 12
_symmetry_cell_setting 'monoclinic'
loop_
_space_group_symop_operation_xyz
x,y,z
-x,y,-z
-x,-y,-z
x,-y,z
1/2+x,1/2+y,z
1/2-x,1/2+y,-z
1/2-x,1/2-y,-z
1/2+x,1/2-y,z
loop_
_atom_site_type_symbol
_atom_site_label
_atom_site_fract_x
_atom_site_fract_y
_atom_site_fract_z
Si Si1 0.332079 0.626118 0.996566
Si Si2 0.462279 0.135031 0.591131
Si Si3 0.096247 0.369996 0.967511
Si Si4 0.598388 0.749947 0.294261
Si Si5 0.822856 0.365189 0.416931
Si Si6 0.655567 0.131315 0.179089
Si Si7 0.370963 0.369969 0.169006
O O1 0.368822 0.500000 0.984992
O O2 0.380529 0.747266 0.989848
O O3 0.355845 0.629287 0.084160
O O4 0.195043 0.628764 0.945870
O O5 0.435057 0.172677 0.655400
O O6 0.584539 0.174206 0.605591
O O7 0.369844 0.174024 0.504691
O O8 0.463019 0.000000 0.589765
O O9 0.109820 0.500000 0.002484
O O10 0.969182 0.361868 0.897079
O O11 0.697029 0.670339 0.355950
O O12 0.650044 0.809426 0.247672
O O13 0.483335 0.692977 0.229454
O O14 0.827849 0.500000 0.419293
O O15 0.758387 0.172269 0.167992
O O16 0.675198 0.000000 0.197347
O O17 0.385539 0.500000 0.192947
#
# Coordination Sequence:
#
# PCOD9204874 Si02
#       7
#     8   8   8   8   8   8   8
#     4   9  17  32  54  77 102 137 180 221 261 309
#     4   9  19  35  53  74  99 128 167 210 250 303
#     4   9  17  32  54  77 102 137 180 221 261 309
#     4  12  19  32  53  76 100 136 166 206 261 314
#     4   9  19  35  53  74  99 128 167 210 250 303
#     4  10  21  34  49  75 107 137 173 216 259 308
#     4  10  21  34  49  75 107 137 173 216 259 308
#
# _framework density 19.804171
#
# number of rings (size 3 to 8) (size 9 to 14) (size 15 to 20)
#    0.000    2.286    1.429    3.000    0.000    0.571 
#    0.000    2.857    0.000    2.571    0.000   16.000 
#    0.000    0.000    0.000    0.000    0.000    0.000 
#
# Total GULP energy -155999.734614 kJ/mol
# GULP energy per Si atom -5571.419093 kJ/mol
# Density = 1.975910 g / cm^3
# Si number density = 19.804171 Si / 1000 Ang^3
#
#
#
# Elastic Constant Matrix: (Units=GPa)
#
#
# Indices 1 2 3 4 5 6 
#
# 1 98.9402 16.0774 51.9210 0.0000 9.4950 0.0000
# 2 16.0774 88.1879 22.4342 0.0000 -3.7174 0.0000
# 3 51.9210 22.4342 77.5155 0.0000 3.4304 0.0000
# 4 0.0000 0.0000 0.0000 32.5665 0.0000 10.0774
# 5 9.4950 -3.7174 3.4304 0.0000 35.4788 0.0000
# 6 0.0000 0.0000 0.0000 10.0774 0.0000 32.3911
#
#
#
# Elastic Compliance Matrix: (Units=1/GPa)
#
#
# Indices 1 2 3 4 5 6 
#
# 1 0.015963 -0.000396 -0.010431 0.000000 -0.003305 0.000000
# 2 -0.000396 0.012345 -0.003384 0.000000 0.001727 0.000000
# 3 -0.010431 -0.003384 0.020848 0.000000 0.000421 0.000000
# 4 0.000000 0.000000 0.000000 0.033978 0.000000 -0.010571
# 5 -0.003305 0.001727 0.000421 0.000000 0.029211 0.000000
# 6 0.000000 0.000000 0.000000 -0.010571 0.000000 0.034161
#
#
# Mechanical properties :
#
#
# Convention : Reuss Voigt Hill
#
# Bulk Modulus (GPa) = 48.23027 49.50100 48.86564
# Shear Modulus (GPa) = 27.49678 31.70133 29.59905
#
# Velocity S-wave (km/s) = 3.73021 4.00527 3.87018
# Velocity P-wave (km/s) = 6.55432 6.81462 6.68574
#
# Compressibility (1/GPa) = 0.02073387
#
# Stress axis : x y z
#
# Youngs Moduli (GPa) = 62.64651 81.00261 47.96536
#
# Poissons Ratio (x) = 0.03206 0.50033
# Poissons Ratio (y) = 0.02480 0.16232
# Poissons Ratio (z) = 0.65348 0.27413
#
# Static dielectric constant tensor:
#      x y z
#    x 1.717430 0.000000 -0.003860 
#    y 0.000000 1.731780 0.000000 
#    z -0.003860 0.000000 1.689250 
# 
# From -- ./inp_files/304230.got.cif
#   From: 2010.05.17/outbox.cif.g08.bks.cpg/sg12_153_cif.got.tgz:304230.got - 2010.06.03 13:09:07.
