data_PCOD9204071
_publ_section_title
;
Structure prediction by ZEFSAII (Michael W. Deem and Ramdas Pophale) SiO2 
 PCOD9204071
Probable space group: C 2/M
;
_chemical_formula_sum "Si O2"
_cell_formula_units_Z 56
_cell_length_a 12.726412
_cell_length_b 18.932366
_cell_length_c 17.343242
_cell_angle_alpha 90.000000
_cell_angle_beta 134.561581
_cell_angle_gamma 90.000000
_cell_volume 2977.309722
_symmetry_space_group_name_H-M "C 2/M"
_symmetry_group_IT_number 12
_symmetry_cell_setting 'monoclinic'
loop_
_space_group_symop_operation_xyz
x,y,z
-x,y,-z
-x,-y,-z
x,-y,z
1/2+x,1/2+y,z
1/2-x,1/2+y,-z
1/2-x,1/2-y,-z
1/2+x,1/2-y,z
loop_
_atom_site_type_symbol
_atom_site_label
_atom_site_fract_x
_atom_site_fract_y
_atom_site_fract_z
Si Si1 0.680083 0.419253 0.594791
Si Si2 0.178714 0.173290 0.448990
Si Si3 0.349674 0.810282 0.956874
Si Si4 0.339817 0.154910 0.379722
Si Si5 0.176140 0.916330 0.163243
Si Si6 0.167352 0.803986 0.708610
Si Si7 0.138011 0.152146 0.980439
O O1 0.500000 0.419295 0.500000
O O2 0.729435 0.500000 0.625073
O O3 0.728055 0.379925 0.541634
O O4 0.725851 0.370771 0.690251
O O5 0.250000 0.250000 0.500000
O O6 0.225853 0.145070 0.390447
O O7 0.004146 0.182637 0.363686
O O8 0.250065 0.794109 0.831225
O O9 0.389344 0.735467 0.017804
O O10 0.500000 0.842603 0.000000
O O11 0.252799 0.852985 0.969194
O O12 0.500000 0.146056 0.500000
O O13 0.301451 0.105125 0.288392
O O14 0.323327 0.234639 0.339459
O O15 0.199351 0.881308 0.091322
O O16 0.163670 0.000000 0.148692
O O17 0.020139 0.884672 0.113422
#
# Coordination Sequence:
#
# PCOD9204071 Si02
#       7
#     8   8   8   8   8   8   8
#     4   9  19  37  59  85 117 157 202 244 296 365
#     4  11  20  35  59  88 121 166 204 252 298 363
#     4  11  21  37  64  97 126 150 205 271 313 370
#     4  12  22  37  59  92 129 159 209 260 310 365
#     4  11  23  43  66  89 125 171 216 258 313 380
#     4  11  20  37  61  91 123 160 204 253 309 370
#     4  10  20  40  64  94 119 160 213 257 314 366
#
# _framework density 18.808927000000001
#
# number of rings (size 3 to 8) (size 9 to 14) (size 15 to 20)
#    0.000    1.286    5.714    2.143    0.000    2.000 
#    2.571    4.286    0.000    3.000    0.000    0.000 
#    0.000    0.000    0.000    0.000    0.000    0.000 
#
# Total GULP energy -156361.974541 kJ/mol
# GULP energy per Si atom -5584.356234 kJ/mol
# Density = 1.876612 g / cm^3
# Si number density = 18.808927 Si / 1000 Ang^3
#
#
#
# Elastic Constant Matrix: (Units=GPa)
#
#
# Indices 1 2 3 4 5 6 
#
# 1 131.3023 32.8832 38.1745 0.0000 -18.0076 0.0000
# 2 32.8832 84.7033 24.9157 0.0000 -2.5196 0.0000
# 3 38.1745 24.9157 91.7420 0.0000 -10.5788 0.0000
# 4 0.0000 0.0000 0.0000 19.3643 0.0000 -1.9533
# 5 -18.0076 -2.5196 -10.5788 0.0000 16.6094 0.0000
# 6 0.0000 0.0000 0.0000 -1.9533 0.0000 19.5682
#
#
#
# Elastic Compliance Matrix: (Units=1/GPa)
#
#
# Indices 1 2 3 4 5 6 
#
# 1 0.010341 -0.003029 -0.002418 0.000000 0.009212 0.000000
# 2 -0.003029 0.013720 -0.002811 0.000000 -0.002993 0.000000
# 3 -0.002418 -0.002811 0.013295 0.000000 0.005420 0.000000
# 4 0.000000 0.000000 0.000000 0.052167 0.000000 0.005207
# 5 0.009212 -0.002993 0.005420 0.000000 0.073192 0.000000
# 6 0.000000 0.000000 0.000000 0.005207 0.000000 0.051623
#
#
# Mechanical properties :
#
#
# Convention : Reuss Voigt Hill
#
# Bulk Modulus (GPa) = 47.98635 55.52161 51.75398
# Shear Modulus (GPa) = 21.02610 25.22665 23.12637
#
# Velocity S-wave (km/s) = 3.34710 3.66622 3.51029
# Velocity P-wave (km/s) = 6.36438 6.89234 6.63362
#
# Compressibility (1/GPa) = 0.02083926
#
# Stress axis : x y z
#
# Youngs Moduli (GPa) = 96.70188 72.88803 75.21863
#
# Poissons Ratio (x) = 0.22080 0.18188
# Poissons Ratio (y) = 0.29294 0.21142
# Poissons Ratio (z) = 0.23383 0.20487
#
# Static dielectric constant tensor:
#      x y z
#    x 1.662530 0.000000 0.005770 
#    y 0.000000 1.635930 0.000000 
#    z 0.005770 0.000000 1.646920 
# 
# From -- ./inp_files/264320.got.cif
#   From: 2010.05.17/outbox.cif.g08.bks.cpg/sg12_133_cif.got.tgz:264320.got - 2010.06.03 13:09:07.
