data_PCOD9204308
_publ_section_title
;
Structure prediction by ZEFSAII (Michael W. Deem and Ramdas Pophale) SiO2 
 PCOD9204308
Probable space group: C 2/M
;
_chemical_formula_sum "Si O2"
_cell_formula_units_Z 40
_cell_length_a 8.439653
_cell_length_b 16.646768
_cell_length_c 26.463437
_cell_angle_alpha 90.000000
_cell_angle_beta 31.236006
_cell_angle_gamma 90.000000
_cell_volume 1927.984316
_symmetry_space_group_name_H-M "C 2/M"
_symmetry_group_IT_number 12
_symmetry_cell_setting 'monoclinic'
loop_
_space_group_symop_operation_xyz
x,y,z
-x,y,-z
-x,-y,-z
x,-y,z
1/2+x,1/2+y,z
1/2-x,1/2+y,-z
1/2-x,1/2-y,-z
1/2+x,1/2-y,z
loop_
_atom_site_type_symbol
_atom_site_label
_atom_site_fract_x
_atom_site_fract_y
_atom_site_fract_z
Si Si1 0.294652 0.863316 0.325638
Si Si2 0.740489 0.136506 0.830852
Si Si3 0.275152 0.269737 0.247066
Si Si4 0.256410 0.500000 0.196492
Si Si5 0.630945 0.500000 0.520984
Si Si6 0.742138 0.500000 0.980637
Si Si7 0.182703 0.000000 0.696745
O O1 0.234216 0.791049 0.304438
O O2 0.468482 0.822387 0.325445
O O3 0.558418 0.923108 0.233509
O O4 0.011330 0.920413 0.414922
O O5 0.668218 0.213084 0.816374
O O6 0.934209 0.172559 0.824470
O O7 0.986331 0.078228 0.736456
O O8 0.457203 0.078779 0.919052
O O9 0.568759 0.500000 0.081231
O O10 0.281000 0.500000 0.251218
O O11 0.500000 0.500000 0.500000
O O12 0.992554 0.500000 0.418190
O O13 0.500000 0.500000 0.000000
#
# Coordination Sequence:
#
# PCOD9204308 Si02
#       7
#     8   8   8   4   4   4   4
#     4  10  21  38  65  88 124 163 205 252 299 365
#     4  10  22  41  65  87 128 159 204 250 301 366
#     4  10  20  41  61  92 128 164 192 256 314 349
#     4  11  20  40  65  84 119 161 209 239 306 354
#     4  11  19  38  64  90 118 163 215 246 296 363
#     4  11  24  41  65  96 118 158 208 251 296 365
#     4  11  21  41  64  87 116 168 204 254 295 360
#
# _framework density 20.747057000000002
#
# number of rings (size 3 to 8) (size 9 to 14) (size 15 to 20)
#    0.000    1.600    4.000    1.200    0.000    4.000 
#    0.000   24.000    0.000    0.000    0.000    0.000 
#    0.000    0.000    0.000    0.000    0.000    0.000 
#
# Total GULP energy -111686.746806 kJ/mol
# GULP energy per Si atom -5584.337340 kJ/mol
# Density = 2.069984 g / cm^3
# Si number density = 20.747057 Si / 1000 Ang^3
#
#
#
# Elastic Constant Matrix: (Units=GPa)
#
#
# Indices 1 2 3 4 5 6 
#
# 1 54.7640 35.4662 31.1380 -0.0389 -15.6198 0.0351
# 2 35.4662 142.2085 59.8029 0.0438 -21.1500 -0.0072
# 3 31.1380 59.8029 149.9402 -0.1947 -19.3822 0.1040
# 4 -0.0389 0.0438 -0.1947 7.1959 0.0527 0.8504
# 5 -15.6198 -21.1500 -19.3822 0.0527 21.3602 -0.0512
# 6 0.0351 -0.0072 0.1040 0.8504 -0.0512 27.1483
#
#
#
# Elastic Compliance Matrix: (Units=1/GPa)
#
#
# Indices 1 2 3 4 5 6 
#
# 1 0.025539 -0.003473 -0.002208 0.000002 0.013234 -0.000001
# 2 -0.003473 0.009663 -0.002520 -0.000184 0.004742 0.000031
# 3 -0.002208 -0.002520 0.008612 0.000213 0.003704 -0.000030
# 4 0.000002 -0.000184 0.000213 0.139493 -0.000342 -0.004371
# 5 0.013234 0.004742 0.003704 -0.000342 0.064551 0.000102
# 6 -0.000001 0.000031 -0.000030 -0.004371 0.000102 0.036972
#
#
# Mechanical properties :
#
#
# Convention : Reuss Voigt Hill
#
# Bulk Modulus (GPa) = 36.47938 66.63633 51.55786
# Shear Modulus (GPa) = 16.10980 25.84125 20.97552
#
# Velocity S-wave (km/s) = 2.78957 3.53305 3.18309
# Velocity P-wave (km/s) = 5.29119 6.98795 6.19791
#
# Compressibility (1/GPa) = 0.02741274
#
# Stress axis : x y z
#
# Youngs Moduli (GPa) = 39.15573 103.48573 116.11539
#
# Poissons Ratio (x) = 0.35937 0.25638
# Poissons Ratio (y) = 0.13597 0.29263
# Poissons Ratio (z) = 0.08646 0.26080
#
# Static dielectric constant tensor:
#      x y z
#    x 1.824240 -0.000050 -0.015840 
#    y -0.000050 1.738370 0.000020 
#    z -0.015840 0.000020 1.706980 
# 
# From -- ./inp_files/300606.got.cif
#   From: 2010.05.17/outbox.cif.g08.bks.cpg/sg12_151_cif.got.tgz:300606.got - 2010.06.03 13:09:07.
