data_PCOD9204702
_publ_section_title
;
Structure prediction by ZEFSAII (Michael W. Deem and Ramdas Pophale) SiO2 
 PCOD9204702
Probable space group: C 2/M
;
_chemical_formula_sum "Si O2"
_cell_formula_units_Z 64
_cell_length_a 11.250028
_cell_length_b 21.956089
_cell_length_c 14.040632
_cell_angle_alpha 90.000000
_cell_angle_beta 74.472009
_cell_angle_gamma 90.000000
_cell_volume 3341.541536
_symmetry_space_group_name_H-M "C 2/M"
_symmetry_group_IT_number 12
_symmetry_cell_setting 'monoclinic'
loop_
_space_group_symop_operation_xyz
x,y,z
-x,y,-z
-x,-y,-z
x,-y,z
1/2+x,1/2+y,z
1/2-x,1/2+y,-z
1/2-x,1/2-y,-z
1/2+x,1/2-y,z
loop_
_atom_site_type_symbol
_atom_site_label
_atom_site_fract_x
_atom_site_fract_y
_atom_site_fract_z
Si Si1 0.390940 0.263230 0.946152
Si Si2 0.504206 0.607755 0.894760
Si Si3 0.171871 0.182157 0.733700
Si Si4 0.051057 0.693798 0.778155
Si Si5 0.573526 0.068713 0.885498
Si Si6 0.154230 0.934337 0.233052
Si Si7 0.036680 0.836095 0.386224
Si Si8 0.561588 0.194512 0.390550
O O1 0.411409 0.334512 0.923872
O O2 0.428567 0.227562 0.843218
O O3 0.500000 0.246150 0.000000
O O4 0.250000 0.250000 0.000000
O O5 0.629465 0.640110 0.831375
O O6 0.456478 0.568119 0.818539
O O7 0.500000 0.578966 0.000000
O O8 0.153135 0.252944 0.770437
O O9 0.307542 0.167997 0.668176
O O10 0.076394 0.170810 0.665849
O O11 0.051801 0.628855 0.828162
O O12 0.037661 0.683831 0.669974
O O13 0.722161 0.069693 0.856591
O O14 0.540849 0.000000 0.856026
O O15 0.500000 0.075640 0.000000
O O16 0.133723 0.879934 0.312101
O O17 0.156536 0.000000 0.282241
O O18 0.083508 0.767457 0.393056
O O19 0.000000 0.859088 0.500000
O O20 0.500000 0.172326 0.500000
#
# Coordination Sequence:
#
# PCOD9204702 Si02
#       8
#     8   8   8   8   8   8   8   8
#     4  10  22  33  53  87 114 145 182 225 279 339
#     4   9  20  34  51  76 110 144 176 224 270 325
#     4   9  19  35  50  80 113 133 174 220 267 332
#     4  10  21  32  56  76 104 150 175 223 272 329
#     4  10  22  37  52  77 108 142 184 226 270 321
#     4  10  21  36  54  76 104 139 185 229 264 320
#     4   9  19  35  55  79 106 138 168 223 274 320
#     4  10  21  34  54  82 109 140 176 216 277 337
#
# _framework density 19.152837000000002
#
# number of rings (size 3 to 8) (size 9 to 14) (size 15 to 20)
#    0.000    2.375    0.000    1.875    8.750    6.500 
#    0.000    0.000    0.000    3.375    0.000    0.000 
#    0.000    0.000    0.000    0.000    0.000    0.000 
#
# Total GULP energy -178243.195024 kJ/mol
# GULP energy per Si atom -5570.099844 kJ/mol
# Density = 1.910924 g / cm^3
# Si number density = 19.152837 Si / 1000 Ang^3
#
#
#
# Elastic Constant Matrix: (Units=GPa)
#
#
# Indices 1 2 3 4 5 6 
#
# 1 35.6158 5.9933 12.7491 0.0000 -20.0196 0.0000
# 2 5.9933 71.5700 22.0118 0.0000 -2.1966 0.0000
# 3 12.7491 22.0118 113.6529 0.0000 -8.0937 0.0000
# 4 0.0000 0.0000 0.0000 4.4941 0.0000 0.8312
# 5 -20.0196 -2.1966 -8.0937 0.0000 32.8157 0.0000
# 6 0.0000 0.0000 0.0000 0.8312 0.0000 10.7779
#
#
#
# Elastic Compliance Matrix: (Units=1/GPa)
#
#
# Indices 1 2 3 4 5 6 
#
# 1 0.044036 -0.002062 -0.002684 0.000000 0.026065 0.000000
# 2 -0.002062 0.014957 -0.002732 0.000000 -0.000931 0.000000
# 3 -0.002684 -0.002732 0.009669 0.000000 0.000564 0.000000
# 4 0.000000 0.000000 0.000000 0.225734 0.000000 -0.017409
# 5 0.026065 -0.000931 0.000564 0.000000 0.046451 0.000000
# 6 0.000000 0.000000 0.000000 -0.017409 0.000000 0.094125
#
#
# Mechanical properties :
#
#
# Convention : Reuss Voigt Hill
#
# Bulk Modulus (GPa) = 18.61993 33.59415 26.10704
# Shear Modulus (GPa) = 10.68765 21.62318 16.15541
#
# Velocity S-wave (km/s) = 2.36481 3.36368 2.90746
# Velocity P-wave (km/s) = 4.14720 5.71523 4.99315
#
# Compressibility (1/GPa) = 0.05370589
#
# Stress axis : x y z
#
# Youngs Moduli (GPa) = 22.70856 66.86011 103.42243
#
# Poissons Ratio (x) = 0.13787 0.27761
# Poissons Ratio (y) = 0.04683 0.28252
# Poissons Ratio (z) = 0.06096 0.18264
#
# Static dielectric constant tensor:
#      x y z
#    x 1.704930 0.000000 0.021310 
#    y 0.000000 1.690200 0.000000 
#    z 0.021310 0.000000 1.706710 
# 
# From -- ./inp_files/207685.got.cif
#   From: 2010.05.17/outbox.cif.g08.bks.cpg/sg12_104_cif.got.tgz:207685.got - 2010.06.03 13:09:07.
