data_PCOD9204253
_publ_section_title
;
Structure prediction by ZEFSAII (Michael W. Deem and Ramdas Pophale) SiO2 
 PCOD9204253
Probable space group: C 2/M
;
_chemical_formula_sum "Si O2"
_cell_formula_units_Z 40
_cell_length_a 11.985355
_cell_length_b 13.316340
_cell_length_c 9.391296
_cell_angle_alpha 90.000000
_cell_angle_beta 96.262558
_cell_angle_gamma 90.000000
_cell_volume 1489.916295
_symmetry_space_group_name_H-M "C 2/M"
_symmetry_group_IT_number 12
_symmetry_cell_setting 'monoclinic'
loop_
_space_group_symop_operation_xyz
x,y,z
-x,y,-z
-x,-y,-z
x,-y,z
1/2+x,1/2+y,z
1/2-x,1/2+y,-z
1/2-x,1/2-y,-z
1/2+x,1/2-y,z
loop_
_atom_site_type_symbol
_atom_site_label
_atom_site_fract_x
_atom_site_fract_y
_atom_site_fract_z
Si Si1 0.249375 0.613137 0.007084
Si Si2 0.416095 0.113239 0.774948
Si Si3 0.170588 0.177612 0.276688
Si Si4 0.098409 0.668072 0.615470
Si Si5 0.577414 0.610961 0.705127
O O1 0.256394 0.500000 0.949594
O O2 0.130979 0.621573 0.072178
O O3 0.343456 0.619462 0.145174
O O4 0.284247 0.680556 0.879492
O O5 0.355775 0.206522 0.687521
O O6 0.546180 0.134096 0.760640
O O7 0.386960 0.000000 0.726009
O O8 0.274448 0.133699 0.378724
O O9 0.053203 0.120958 0.269850
O O10 0.100187 0.789881 0.614963
O O11 0.000000 0.629030 0.500000
O O12 0.596677 0.500000 0.644560
#
# Coordination Sequence:
#
# PCOD9204253 Si02
#       5
#     8   8   8   8   8
#     4  10  20  40  69 100 128 158 205 261 320 382
#     4  10  23  41  63  92 126 165 209 259 313 371
#     4  11  22  40  67  93 130 167 206 253 320 374
#     4  11  26  44  63  90 128 172 217 259 306 367
#     4  10  22  41  67  99 127 159 207 262 319 377
#
# _framework density 26.847147
#
# number of rings (size 3 to 8) (size 9 to 14) (size 15 to 20)
#    0.000    1.600    2.000    1.800    0.000    8.000 
#    0.000    4.000    0.000    0.000    0.000    0.000 
#    0.000    0.000    0.000    0.000    0.000    0.000 
#
# Total GULP energy -111919.672332 kJ/mol
# GULP energy per Si atom -5595.983617 kJ/mol
# Density = 2.678604 g / cm^3
# Si number density = 26.847147 Si / 1000 Ang^3
#
#
#
# Elastic Constant Matrix: (Units=GPa)
#
#
# Indices 1 2 3 4 5 6 
#
# 1 169.2613 14.3658 15.0953 0.0000 10.2554 0.0000
# 2 14.3658 158.0980 5.9980 0.0000 0.5007 0.0000
# 3 15.0953 5.9980 82.8542 0.0000 11.4823 0.0000
# 4 0.0000 0.0000 0.0000 22.6825 0.0000 -4.7048
# 5 10.2554 0.5007 11.4823 0.0000 35.0003 0.0000
# 6 0.0000 0.0000 0.0000 -4.7048 0.0000 9.8071
#
#
#
# Elastic Compliance Matrix: (Units=1/GPa)
#
#
# Indices 1 2 3 4 5 6 
#
# 1 0.006121 -0.000518 -0.000870 0.000000 -0.001501 0.000000
# 2 -0.000518 0.006387 -0.000394 0.000000 0.000190 0.000000
# 3 -0.000870 -0.000394 0.012802 0.000000 -0.003940 0.000000
# 4 0.000000 0.000000 0.000000 0.048959 0.000000 0.023487
# 5 -0.001501 0.000190 -0.003940 0.000000 0.030301 0.000000
# 6 0.000000 0.000000 0.000000 0.023487 0.000000 0.113235
#
#
# Mechanical properties :
#
#
# Convention : Reuss Voigt Hill
#
# Bulk Modulus (GPa) = 45.98747 53.45908 49.72327
# Shear Modulus (GPa) = 21.87073 38.48160 30.17617
#
# Velocity S-wave (km/s) = 2.85728 3.79008 3.35625
# Velocity P-wave (km/s) = 5.29641 6.25368 5.79485
#
# Compressibility (1/GPa) = 0.02174505
#
# Stress axis : x y z
#
# Youngs Moduli (GPa) = 163.38534 156.57663 78.11079
#
# Poissons Ratio (x) = 0.08117 0.06793
# Poissons Ratio (y) = 0.08470 0.03079
# Poissons Ratio (z) = 0.14208 0.06172
#
# Static dielectric constant tensor:
#      x y z
#    x 2.052130 0.000000 -0.041440 
#    y 0.000000 2.074810 0.000000 
#    z -0.041440 0.000000 2.148300 
# 
# From -- ./inp_files/129605.got.cif
#   From: 2010.05.17/outbox.cif.g08.bks.cpg/sg12_65_cif.got.tgz:129605.got - 2010.06.03 13:09:07.
