data_PCOD9204980
_publ_section_title
;
Structure prediction by ZEFSAII (Michael W. Deem and Ramdas Pophale) SiO2 
 PCOD9204980
Probable space group: C 2/M
;
_chemical_formula_sum "Si O2"
_cell_formula_units_Z 56
_cell_length_a 17.609656
_cell_length_b 33.039884
_cell_length_c 5.127320
_cell_angle_alpha 90.000000
_cell_angle_beta 67.415872
_cell_angle_gamma 90.000000
_cell_volume 2754.421952
_symmetry_space_group_name_H-M "C 2/M"
_symmetry_group_IT_number 12
_symmetry_cell_setting 'monoclinic'
loop_
_space_group_symop_operation_xyz
x,y,z
-x,y,-z
-x,-y,-z
x,-y,z
1/2+x,1/2+y,z
1/2-x,1/2+y,-z
1/2-x,1/2-y,-z
1/2+x,1/2-y,z
loop_
_atom_site_type_symbol
_atom_site_label
_atom_site_fract_x
_atom_site_fract_y
_atom_site_fract_z
Si Si1 0.332311 0.223600 0.166858
Si Si2 0.445724 0.064770 0.809890
Si Si3 0.500000 0.660075 0.500000
Si Si4 0.258670 0.953109 0.166636
Si Si5 0.500000 0.602233 0.000000
Si Si6 0.143763 0.774606 0.382683
Si Si7 0.663157 0.549675 0.792228
Si Si8 0.947419 0.342227 0.807378
O O1 0.236707 0.214102 0.345286
O O2 0.375737 0.240201 0.372669
O O3 0.345555 0.257031 0.923121
O O4 0.370336 0.184038 0.987569
O O5 0.500000 0.047759 0.500000
O O6 0.428052 0.111654 0.763411
O O7 0.500000 0.061559 0.000000
O O8 0.355189 0.048206 0.980829
O O9 0.486505 0.631195 0.767662
O O10 0.422771 0.689783 0.539321
O O11 0.229521 0.937952 0.484650
O O12 0.236131 0.000000 0.199964
O O13 0.202968 0.935717 0.010419
O O14 0.578302 0.572842 0.855764
O O15 0.652678 0.500000 0.807801
O O16 0.000000 0.324589 0.500000
O O17 0.000000 0.343671 0.000000
#
# Coordination Sequence:
#
# PCOD9204980 Si02
#       8
#     8   8   4   8   4   8   8   8
#     4  10  21  39  60  83 109 153 197 240 300 351
#     4  10  21  37  55  86 128 158 200 260 302 361
#     4  12  26  42  61  94 126 158 198 250 307 382
#     4  10  21  38  62  91 122 165 209 247 305 364
#     4  12  25  42  64  92 126 166 200 244 324 364
#     4  10  23  40  59  85 117 147 193 246 292 360
#     4  10  22  41  64  91 121 158 212 257 290 361
#     4  10  21  34  54  84 109 147 199 242 292 349
#
# _framework density 20.330943999999999
#
# number of rings (size 3 to 8) (size 9 to 14) (size 15 to 20)
#    0.000    1.714    0.000    3.643    3.000    2.857 
#    0.000    2.857    0.000    0.000    0.000    0.000 
#    0.000    0.000    0.000    0.000    0.000    0.000 
#
# Total GULP energy -156190.917659 kJ/mol
# GULP energy per Si atom -5578.247059 kJ/mol
# Density = 2.028467 g / cm^3
# Si number density = 20.330944 Si / 1000 Ang^3
#
#
#
# Elastic Constant Matrix: (Units=GPa)
#
#
# Indices 1 2 3 4 5 6 
#
# 1 59.9850 28.5465 11.9816 0.0000 -2.9241 0.0000
# 2 28.5465 61.0057 29.0949 0.0000 -3.6236 0.0000
# 3 11.9816 29.0949 100.4900 0.0000 3.1980 0.0000
# 4 0.0000 0.0000 0.0000 25.1480 0.0000 -29.0144
# 5 -2.9241 -3.6236 3.1980 0.0000 30.7636 0.0000
# 6 0.0000 0.0000 0.0000 -29.0144 0.0000 23.8025
#
#
#
# Elastic Compliance Matrix: (Units=1/GPa)
#
#
# Indices 1 2 3 4 5 6 
#
# 1 0.021480 -0.010175 0.000359 0.000000 0.000806 0.000000
# 2 -0.010175 0.024085 -0.005839 0.000000 0.002477 0.000000
# 3 0.000359 -0.005839 0.011658 0.000000 -0.001866 0.000000
# 4 0.000000 0.000000 0.000000 -0.097852 0.000000 -0.119278
# 5 0.000806 0.002477 -0.001866 0.000000 0.033068 0.000000
# 6 0.000000 0.000000 0.000000 -0.119278 0.000000 -0.103384
#
#
# Mechanical properties :
#
#
# Convention : Reuss Voigt Hill
#
# Bulk Modulus (GPa) = 38.58857 40.08074 39.33465
# Shear Modulus (GPa) = -70.42581 26.06669 -22.17956
#
# Velocity S-wave (km/s) = -5.89194 3.58455 -3.30650
# Velocity P-wave (km/s) = 5.22160 6.07363 2.19361
#
# Compressibility (1/GPa) = 0.02591441
#
# Stress axis : x y z
#
# Youngs Moduli (GPa) = 46.55389 41.51994 85.77546
#
# Poissons Ratio (x) = 0.42246 -0.03080
# Poissons Ratio (y) = 0.47367 0.50084
# Poissons Ratio (z) = -0.01672 0.24243
#
# Static dielectric constant tensor:
#      x y z
#    x 1.680320 0.000000 -0.009130 
#    y 0.000000 1.742380 0.000000 
#    z -0.009130 0.000000 1.730650 
# 
# From -- ./inp_files/18272.got.cif
#   From: 2010.05.17/outbox.cif.g08.bks.cpg/sg12_10_cif.got.tgz:18272.got - 2010.06.03 13:09:07.
