data_PCOD9204434
_publ_section_title
;
Structure prediction by ZEFSAII (Michael W. Deem and Ramdas Pophale) SiO2 
 PCOD9204434
Probable space group: C 2/M
;
_chemical_formula_sum "Si O2"
_cell_formula_units_Z 58
_cell_length_a 16.524765
_cell_length_b 7.671564
_cell_length_c 21.940389
_cell_angle_alpha 90.000000
_cell_angle_beta 116.145367
_cell_angle_gamma 90.000000
_cell_volume 2496.804674
_symmetry_space_group_name_H-M "C 2/M"
_symmetry_group_IT_number 12
_symmetry_cell_setting 'monoclinic'
loop_
_space_group_symop_operation_xyz
x,y,z
-x,y,-z
-x,-y,-z
x,-y,z
1/2+x,1/2+y,z
1/2-x,1/2+y,-z
1/2-x,1/2-y,-z
1/2+x,1/2-y,z
loop_
_atom_site_type_symbol
_atom_site_label
_atom_site_fract_x
_atom_site_fract_y
_atom_site_fract_z
Si Si1 0.981733 0.304241 0.927963
Si Si2 0.500000 0.000000 0.500000
Si Si3 0.125814 0.794237 0.566813
Si Si4 0.515418 0.703575 0.649051
Si Si5 0.335461 0.287601 0.645254
Si Si6 0.664556 0.704621 0.218485
Si Si7 0.839741 0.710010 0.209082
Si Si8 0.837113 0.798326 0.067912
O O1 0.947382 0.500000 0.928705
O O2 0.077185 0.307646 0.926324
O O3 0.911270 0.222741 0.857993
O O4 0.000000 0.219834 0.000000
O O5 0.425996 0.843563 0.492104
O O6 0.083919 0.731819 0.619024
O O7 0.233132 0.770283 0.599404
O O8 0.106664 0.000000 0.550013
O O9 0.505132 0.500000 0.631921
O O10 0.415395 0.775755 0.627587
O O11 0.568516 0.724572 0.730301
O O12 0.336634 0.500000 0.643087
O O13 0.358300 0.227651 0.722074
O O14 0.680430 0.500000 0.232551
O O15 0.757420 0.778598 0.222925
O O16 0.841024 0.500000 0.210572
O O17 0.823844 0.767506 0.134901
O O18 0.858599 0.000000 0.064630
O O19 0.750000 0.750000 0.000000
#
# Coordination Sequence:
#
# PCOD9204434 Si02
#       8
#     8   2   8   8   8   8   8   8
#     4  11  24  40  58  83 118 161 215 277 339 405
#     4  12  26  48  80  98 152 190 224 284 342 406
#     4  11  24  45  74 107 140 187 234 279 341 411
#     4  10  22  39  68 103 141 177 227 285 339 401
#     4  10  20  41  68  99 139 180 222 286 345 400
#     4  10  21  36  61  93 126 169 216 267 337 404
#     4  11  22  37  62  95 128 168 217 271 338 402
#     4  12  25  41  59  81 118 164 216 273 336 407
#
# _framework density 23.229692
#
# number of rings (size 3 to 8) (size 9 to 14) (size 15 to 20)
#    0.000    1.241    2.069    3.931    0.966    6.621 
#    0.000    0.690    0.000    0.000    0.000    0.000 
#    0.000    0.000    0.000    0.000    0.000    0.000 
#
# Total GULP energy -161840.618721 kJ/mol
# GULP energy per Si atom -5580.710990 kJ/mol
# Density = 2.317682 g / cm^3
# Si number density = 23.229692 Si / 1000 Ang^3
#
#
#
# Elastic Constant Matrix: (Units=GPa)
#
#
# Indices 1 2 3 4 5 6 
#
# 1 164.9386 15.0183 56.6907 0.0000 17.9136 0.0000
# 2 15.0183 86.5726 -0.3001 0.0000 -5.4687 0.0000
# 3 56.6907 -0.3001 88.9199 0.0000 4.1315 0.0000
# 4 0.0000 0.0000 0.0000 -1.3062 0.0000 5.5170
# 5 17.9136 -5.4687 4.1315 0.0000 40.5547 0.0000
# 6 0.0000 0.0000 0.0000 5.5170 0.0000 33.4372
#
#
#
# Elastic Compliance Matrix: (Units=1/GPa)
#
#
# Indices 1 2 3 4 5 6 
#
# 1 0.008366 -0.001684 -0.005182 0.000000 -0.003394 0.000000
# 2 -0.001684 0.011989 0.001009 0.000000 0.002258 0.000000
# 3 -0.005182 0.001009 0.014509 0.000000 0.000947 0.000000
# 4 0.000000 0.000000 0.000000 -0.451155 0.000000 0.074439
# 5 -0.003394 0.002258 0.000947 0.000000 0.026365 0.000000
# 6 0.000000 0.000000 0.000000 0.074439 0.000000 0.017625
#
#
# Mechanical properties :
#
#
# Convention : Reuss Voigt Hill
#
# Bulk Modulus (GPa) = 43.19374 53.69431 48.44403
# Shear Modulus (GPa) = -14.16946 32.47194 9.15124
#
# Velocity S-wave (km/s) = -2.47244 3.74286 1.98696
# Velocity P-wave (km/s) = 3.23789 6.46864 5.11504
#
# Compressibility (1/GPa) = 0.02315150
#
# Stress axis : x y z
#
# Youngs Moduli (GPa) = 119.53468 83.40849 68.92282
#
# Poissons Ratio (x) = 0.14043 0.35713
# Poissons Ratio (y) = 0.20125 -0.06954
# Poissons Ratio (z) = 0.61938 -0.08416
#
# Static dielectric constant tensor:
#      x y z
#    x 1.852590 0.000000 -0.032590 
#    y 0.000000 1.773020 0.000000 
#    z -0.032590 0.000000 1.927600 
# 
# From -- ./inp_files/314875.got.cif
#   From: 2010.05.17/outbox.cif.g08.bks.cpg/sg12_158_cif.got.tgz:314875.got - 2010.06.03 13:09:07.
