data_PCOD9204930
_publ_section_title
;
Structure prediction by ZEFSAII (Michael W. Deem and Ramdas Pophale) SiO2 
 PCOD9204930
Probable space group: C 2/M
;
_chemical_formula_sum "Si O2"
_cell_formula_units_Z 40
_cell_length_a 4.923483
_cell_length_b 33.316656
_cell_length_c 10.429100
_cell_angle_alpha 90.000000
_cell_angle_beta 105.419079
_cell_angle_gamma 90.000000
_cell_volume 1649.152555
_symmetry_space_group_name_H-M "C 2/M"
_symmetry_group_IT_number 12
_symmetry_cell_setting 'monoclinic'
loop_
_space_group_symop_operation_xyz
x,y,z
-x,y,-z
-x,-y,-z
x,-y,z
1/2+x,1/2+y,z
1/2-x,1/2+y,-z
1/2-x,1/2-y,-z
1/2+x,1/2-y,z
loop_
_atom_site_type_symbol
_atom_site_label
_atom_site_fract_x
_atom_site_fract_y
_atom_site_fract_z
Si Si1 0.595478 0.367916 0.373112
Si Si2 0.006391 0.350564 0.791047
Si Si3 0.507181 0.456293 0.297333
Si Si4 0.404212 0.938528 0.128303
Si Si5 0.796565 0.232288 0.852362
O O1 0.500000 0.353741 0.500000
O O2 0.875606 0.352612 0.339919
O O3 0.624996 0.416440 0.378801
O O4 0.329018 0.356242 0.249210
O O5 0.125963 0.390197 0.875088
O O6 0.141432 0.309608 0.857467
O O7 0.579485 0.500000 0.359727
O O8 0.631060 0.454455 0.167381
O O9 0.171459 0.450263 0.249947
O O10 0.500000 0.952015 0.000000
O O11 0.550419 0.263387 0.782923
O O12 0.000000 0.241180 0.000000
#
# Coordination Sequence:
#
# PCOD9204930 Si02
#       5
#     8   8   8   8   8
#     4  10  21  38  59  80 105 146 193 237 283 321
#     4  10  21  37  58  82 112 145 186 231 269 330
#     4  10  21  35  52  79 109 140 185 233 278 329
#     4  10  21  34  52  78 109 148 183 217 271 335
#     4  10  21  36  58  88 118 147 176 214 271 330
#
# _framework density 24.254878000000001
#
# number of rings (size 3 to 8) (size 9 to 14) (size 15 to 20)
#    0.000    2.000    0.000    3.000    0.000   10.000 
#    0.000    0.000    0.000   19.200    0.000    0.000 
#    0.000    0.000    0.000    0.000    0.000    0.000 
#
# Total GULP energy -111583.450844 kJ/mol
# GULP energy per Si atom -5579.172542 kJ/mol
# Density = 2.419967 g / cm^3
# Si number density = 24.254878 Si / 1000 Ang^3
#
#
#
# Elastic Constant Matrix: (Units=GPa)
#
#
# Indices 1 2 3 4 5 6 
#
# 1 157.1078 20.4663 -0.4911 0.0000 3.8111 0.0000
# 2 20.4663 148.4355 -8.2355 0.0000 13.1415 0.0000
# 3 -0.4911 -8.2355 32.5635 0.0000 -20.9683 0.0000
# 4 0.0000 0.0000 0.0000 20.8766 0.0000 -5.6749
# 5 3.8111 13.1415 -20.9683 0.0000 36.4034 0.0000
# 6 0.0000 0.0000 0.0000 -5.6749 0.0000 18.3370
#
#
#
# Elastic Compliance Matrix: (Units=1/GPa)
#
#
# Indices 1 2 3 4 5 6 
#
# 1 0.006493 -0.000865 -0.000568 0.000000 -0.000695 0.000000
# 2 -0.000865 0.007076 0.000302 0.000000 -0.002290 0.000000
# 3 -0.000568 0.000302 0.048871 0.000000 0.028100 0.000000
# 4 0.000000 0.000000 0.000000 0.052300 0.000000 0.016186
# 5 -0.000695 -0.002290 0.028100 0.000000 0.044555 0.000000
# 6 0.000000 0.000000 0.000000 0.016186 0.000000 0.059544
#
#
# Mechanical properties :
#
#
# Convention : Reuss Voigt Hill
#
# Bulk Modulus (GPa) = 16.61768 40.17627 28.39697
# Shear Modulus (GPa) = 20.73304 36.88120 28.80712
#
# Velocity S-wave (km/s) = 2.92687 3.90368 3.45002
# Velocity P-wave (km/s) = 4.27647 6.07605 5.25389
#
# Compressibility (1/GPa) = 0.06017687
#
# Stress axis : x y z
#
# Youngs Moduli (GPa) = 154.01564 141.32859 20.46191
#
# Poissons Ratio (x) = 0.12229 0.01163
# Poissons Ratio (y) = 0.13326 -0.00618
# Poissons Ratio (z) = 0.08752 -0.04268
#
# Static dielectric constant tensor:
#      x y z
#    x 2.140780 0.000000 -0.252960 
#    y 0.000000 1.952430 0.000000 
#    z -0.252960 0.000000 2.202330 
# 
# From -- ./inp_files/116168.got.cif
#   From: 2010.05.17/outbox.cif.g08.bks.cpg/sg12_59_cif.got.tgz:116168.got - 2010.06.03 13:09:07.
