data_PCOD9204104
_publ_section_title
;
Structure prediction by ZEFSAII (Michael W. Deem and Ramdas Pophale) SiO2 
 PCOD9204104
Probable space group: C 2/M
;
_chemical_formula_sum "Si O2"
_cell_formula_units_Z 64
_cell_length_a 14.179942
_cell_length_b 17.608844
_cell_length_c 23.127441
_cell_angle_alpha 90.000000
_cell_angle_beta 149.033102
_cell_angle_gamma 90.000000
_cell_volume 2971.353772
_symmetry_space_group_name_H-M "C 2/M"
_symmetry_group_IT_number 12
_symmetry_cell_setting 'monoclinic'
loop_
_space_group_symop_operation_xyz
x,y,z
-x,y,-z
-x,-y,-z
x,-y,z
1/2+x,1/2+y,z
1/2-x,1/2+y,-z
1/2-x,1/2-y,-z
1/2+x,1/2-y,z
loop_
_atom_site_type_symbol
_atom_site_label
_atom_site_fract_x
_atom_site_fract_y
_atom_site_fract_z
Si Si1 0.936134 0.917560 0.845575
Si Si2 0.325345 0.165967 0.528210
Si Si3 0.819574 0.821692 0.157949
Si Si4 0.068861 0.305162 0.227884
Si Si5 0.271170 0.216665 0.239415
Si Si6 0.677113 0.587059 0.344491
Si Si7 0.859981 0.412605 0.029530
Si Si8 0.306293 0.588783 0.431705
O O1 0.882384 0.845954 0.854710
O O2 0.823734 0.909186 0.725830
O O3 0.149726 0.915679 0.941955
O O4 0.892145 0.000000 0.847639
O O5 0.250000 0.250000 0.500000
O O6 0.537574 0.172197 0.656611
O O7 0.302720 0.140547 0.449807
O O8 0.207030 0.110459 0.507482
O O9 0.770090 0.780217 0.190352
O O10 0.660521 0.862437 0.038778
O O11 0.922233 0.756701 0.173521
O O12 0.971336 0.885935 0.250874
O O13 0.220906 0.258044 0.272675
O O14 0.163315 0.353055 0.327886
O O15 0.978094 0.365945 0.137258
O O16 0.712757 0.500000 0.378811
O O17 0.920246 0.500000 0.052515
O O18 0.500000 0.599611 0.500000
O O19 0.257186 0.500000 0.398679
#
# Coordination Sequence:
#
# PCOD9204104 Si02
#       8
#     8   8   8   8   8   8   8   8
#     4   9  21  42  66  96 131 171 216 273 336 391
#     4  12  23  41  61  96 129 170 227 270 321 384
#     4  11  22  42  64 100 130 171 212 272 333 390
#     4  12  23  44  68  97 130 173 221 271 330 398
#     4  12  24  39  66  97 132 170 217 273 330 390
#     4  10  20  40  65  89 126 173 217 264 324 384
#     4  10  22  45  72  95 130 172 219 276 332 394
#     4  11  25  44  64  92 135 179 219 268 328 395
#
# _framework density 21.539003999999998
#
# number of rings (size 3 to 8) (size 9 to 14) (size 15 to 20)
#    0.000    1.125    5.000    3.000    0.000    2.000 
#    0.000    3.750    0.000    1.500    0.000    0.000 
#    0.000    0.000    0.000    0.000    0.000    0.000 
#
# Total GULP energy -178816.260173 kJ/mol
# GULP energy per Si atom -5588.008130 kJ/mol
# Density = 2.148998 g / cm^3
# Si number density = 21.539004 Si / 1000 Ang^3
#
#
#
# Elastic Constant Matrix: (Units=GPa)
#
#
# Indices 1 2 3 4 5 6 
#
# 1 52.8151 5.1815 -3.3143 0.0001 14.3835 0.0000
# 2 5.1815 94.2561 -0.3053 0.0006 10.6199 0.0000
# 3 -3.3143 -0.3053 47.5898 0.0019 -5.0183 0.0003
# 4 0.0001 0.0006 0.0019 33.7461 0.0002 -2.8349
# 5 14.3835 10.6199 -5.0183 0.0002 15.4810 0.0000
# 6 0.0000 0.0000 0.0003 -2.8349 0.0000 23.8961
#
#
#
# Elastic Compliance Matrix: (Units=1/GPa)
#
#
# Indices 1 2 3 4 5 6 
#
# 1 0.025544 0.001407 -0.000845 0.000000 -0.024972 0.000000
# 2 0.001407 0.011604 -0.000833 0.000000 -0.009537 0.000000
# 3 -0.000845 -0.000833 0.021838 -0.000001 0.008436 0.000000
# 4 0.000000 0.000000 -0.000001 0.029931 -0.000001 0.003551
# 5 -0.024972 -0.009537 0.008436 -0.000001 0.097074 0.000000
# 6 0.000000 0.000000 0.000000 0.003551 0.000000 0.042269
#
#
# Mechanical properties :
#
#
# Convention : Reuss Voigt Hill
#
# Bulk Modulus (GPa) = 17.11101 21.97611 19.54356
# Shear Modulus (GPa) = 20.13814 27.49792 23.81803
#
# Velocity S-wave (km/s) = 3.06103 3.57691 3.32898
# Velocity P-wave (km/s) = 4.52268 5.22342 4.88563
#
# Compressibility (1/GPa) = 0.05844191
#
# Stress axis : x y z
#
# Youngs Moduli (GPa) = 39.14863 86.17765 45.79118
#
# Poissons Ratio (x) = -0.12122 0.03871
# Poissons Ratio (y) = -0.05507 0.03816
# Poissons Ratio (z) = 0.03309 0.07181
#
# Static dielectric constant tensor:
#      x y z
#    x 1.823840 0.000000 -0.011420 
#    y 0.000000 1.766360 0.000000 
#    z -0.011420 0.000000 1.813500 
# 
# From -- ./inp_files/340846.got.cif
#   From: 2010.05.17/outbox.cif.g08.bks.cpg/sg12_171_cif.got.tgz:340846.got - 2010.06.03 13:09:07.
