data_PCOD9204893
_publ_section_title
;
Structure prediction by ZEFSAII (Michael W. Deem and Ramdas Pophale) SiO2 
 PCOD9204893
Probable space group: C 2/M
;
_chemical_formula_sum "Si O2"
_cell_formula_units_Z 56
_cell_length_a 19.913364
_cell_length_b 34.747407
_cell_length_c 5.434151
_cell_angle_alpha 90.000000
_cell_angle_beta 113.264914
_cell_angle_gamma 90.000000
_cell_volume 3454.355112
_symmetry_space_group_name_H-M "C 2/M"
_symmetry_group_IT_number 12
_symmetry_cell_setting 'monoclinic'
loop_
_space_group_symop_operation_xyz
x,y,z
-x,y,-z
-x,-y,-z
x,-y,z
1/2+x,1/2+y,z
1/2-x,1/2+y,-z
1/2-x,1/2-y,-z
1/2+x,1/2-y,z
loop_
_atom_site_type_symbol
_atom_site_label
_atom_site_fract_x
_atom_site_fract_y
_atom_site_fract_z
Si Si1 0.588452 0.955960 0.628201
Si Si2 0.088555 0.589355 0.128471
Si Si3 0.802660 0.730750 0.377514
Si Si4 0.166172 0.329077 0.195054
Si Si5 0.957912 0.282618 0.183423
Si Si6 0.309719 0.306440 0.164140
Si Si7 0.042819 0.809215 0.818072
O O1 0.500000 0.957421 0.500000
O O2 0.608386 0.932812 0.409568
O O3 0.615097 0.000000 0.659643
O O4 0.608002 0.934986 0.911808
O O5 0.130589 0.629606 0.174573
O O6 0.000000 0.595171 0.000000
O O7 0.750000 0.750000 0.500000
O O8 0.843701 0.697027 0.576677
O O9 0.845085 0.769036 0.352890
O O10 0.746292 0.712851 0.105375
O O11 0.252847 0.329742 0.253416
O O12 0.119088 0.304948 0.926644
O O13 0.948306 0.236932 0.129885
O O14 0.000000 0.288921 0.500000
O O15 0.000000 0.297172 0.000000
O O16 0.375910 0.325819 0.114471
O O17 0.000000 0.815386 0.500000
O O18 0.000000 0.823372 0.000000
#
# Coordination Sequence:
#
# PCOD9204893 Si02
#       7
#     8   8   8   8   8   8   8
#     4   9  18  35  56  73  97 133 169 203 239 293
#     4  10  21  34  50  78 105 128 168 211 253 296
#     4   9  19  32  51  65  89 126 173 204 250 315
#     4  11  23  32  51  69 102 134 162 212 264 310
#     4  10  22  33  46  66  93 123 160 207 264 300
#     4  10  21  35  50  66  90 128 175 207 258 314
#     4  10  22  35  51  67  85 114 167 225 256 293
#
# _framework density 16.21142
#
# number of rings (size 3 to 8) (size 9 to 14) (size 15 to 20)
#    0.000    2.143    0.000    3.429   14.000    3.429 
#    0.000    0.000    0.000    0.000    0.000    0.000 
#    0.000    0.000    0.000    0.000    0.000   14.286 
#
# Total GULP energy -156047.112009 kJ/mol
# GULP energy per Si atom -5573.111143 kJ/mol
# Density = 1.617452 g / cm^3
# Si number density = 16.211420 Si / 1000 Ang^3
#
#
#
# Elastic Constant Matrix: (Units=GPa)
#
#
# Indices 1 2 3 4 5 6 
#
# 1 108.8336 16.0112 30.7038 0.0000 -12.9072 0.0000
# 2 16.0112 71.4054 40.8730 0.0000 -0.2326 0.0000
# 3 30.7038 40.8730 77.3209 0.0000 -18.1027 0.0000
# 4 0.0000 0.0000 0.0000 12.1790 0.0000 5.4914
# 5 -12.9072 -0.2326 -18.1027 0.0000 24.2084 0.0000
# 6 0.0000 0.0000 0.0000 5.4914 0.0000 13.1740
#
#
#
# Elastic Compliance Matrix: (Units=1/GPa)
#
#
# Indices 1 2 3 4 5 6 
#
# 1 0.010541 -0.000569 -0.003116 0.000000 0.003285 0.000000
# 2 -0.000569 0.022041 -0.013876 0.000000 -0.010468 0.000000
# 3 -0.003116 -0.013876 0.025560 0.000000 0.017319 0.000000
# 4 0.000000 0.000000 0.000000 0.101112 0.000000 -0.042147
# 5 0.003285 -0.010468 0.017319 0.000000 0.055910 0.000000
# 6 0.000000 0.000000 0.000000 -0.042147 0.000000 0.093476
#
#
# Mechanical properties :
#
#
# Convention : Reuss Voigt Hill
#
# Bulk Modulus (GPa) = 43.44079 48.08177 45.76128
# Shear Modulus (GPa) = 14.22743 21.24374 17.73558
#
# Velocity S-wave (km/s) = 2.96568 3.62390 3.31118
# Velocity P-wave (km/s) = 6.21141 6.87268 6.55039
#
# Compressibility (1/GPa) = 0.02301984
#
# Stress axis : x y z
#
# Youngs Moduli (GPa) = 94.87104 45.37058 39.12361
#
# Poissons Ratio (x) = 0.02584 0.12189
# Poissons Ratio (y) = 0.05402 0.54287
# Poissons Ratio (z) = 0.29558 0.62955
#
# Static dielectric constant tensor:
#      x y z
#    x 1.107190 0.000000 0.033450 
#    y 0.000000 1.515480 0.000000 
#    z 0.033450 0.000000 1.615620 
# 
# From -- ./inp_files/22699.got.cif
#   From: 2010.05.17/outbox.cif.g08.bks.cpg/sg12_12_cif.got.tgz:22699.got - 2010.06.03 13:09:07.
