data_PCOD9204255
_publ_section_title
;
Structure prediction by ZEFSAII (Michael W. Deem and Ramdas Pophale) SiO2 
 PCOD9204255
Probable space group: C 2/M
;
_chemical_formula_sum "Si O2"
_cell_formula_units_Z 40
_cell_length_a 12.090282
_cell_length_b 13.778901
_cell_length_c 21.690033
_cell_angle_alpha 90.000000
_cell_angle_beta 27.033385
_cell_angle_gamma 90.000000
_cell_volume 1642.306746
_symmetry_space_group_name_H-M "C 2/M"
_symmetry_group_IT_number 12
_symmetry_cell_setting 'monoclinic'
loop_
_space_group_symop_operation_xyz
x,y,z
-x,y,-z
-x,-y,-z
x,-y,z
1/2+x,1/2+y,z
1/2-x,1/2+y,-z
1/2-x,1/2-y,-z
1/2+x,1/2-y,z
loop_
_atom_site_type_symbol
_atom_site_label
_atom_site_fract_x
_atom_site_fract_y
_atom_site_fract_z
Si Si1 0.129276 0.316269 0.722047
Si Si2 0.253823 0.607931 0.004222
Si Si3 0.286272 0.107868 0.784020
Si Si4 0.525070 0.391063 0.740570
Si Si5 0.985413 0.201284 0.633709
O O1 0.175910 0.207691 0.674203
O O2 0.385705 0.350477 0.622079
O O3 0.964910 0.372385 0.753277
O O4 0.945260 0.318541 0.872185
O O5 0.146060 0.500000 0.064914
O O6 0.491722 0.609789 0.930830
O O7 0.335560 0.614643 0.892015
O O8 0.336735 0.199500 0.716708
O O9 0.345903 0.000000 0.730275
O O10 0.631327 0.500000 0.691153
O O11 0.434736 0.370570 0.716095
O O12 0.250000 0.250000 0.500000
#
# Coordination Sequence:
#
# PCOD9204255 Si02
#       5
#     8   8   8   8   8
#     4  11  22  40  67  93 132 172 214 265 332 390
#     4  10  20  40  69 102 133 169 217 271 334 403
#     4  10  22  41  66  96 127 170 221 268 328 395
#     4  10  23  41  64  96 130 167 215 268 331 393
#     4  11  26  44  63  90 130 174 225 275 325 382
#
# _framework density 24.355986000000001
#
# number of rings (size 3 to 8) (size 9 to 14) (size 15 to 20)
#    0.000    1.600    2.000    1.800    0.000    8.000 
#    0.000    4.000    0.000    0.000    0.000    0.000 
#    0.000    0.000    0.000    0.000    0.000    0.000 
#
# Total GULP energy -111359.753284 kJ/mol
# GULP energy per Si atom -5567.987664 kJ/mol
# Density = 2.430055 g / cm^3
# Si number density = 24.355986 Si / 1000 Ang^3
#
#
#
# Elastic Constant Matrix: (Units=GPa)
#
#
# Indices 1 2 3 4 5 6 
#
# 1 187.9699 31.8098 39.2716 -0.0013 -2.0145 -0.0024
# 2 31.8098 129.7144 27.2722 -0.0118 -5.5237 -0.0052
# 3 39.2716 27.2722 54.1332 -0.0036 -13.7312 -0.0330
# 4 -0.0013 -0.0118 -0.0036 3.7077 0.0036 -1.1493
# 5 -2.0145 -5.5237 -13.7312 0.0036 34.8955 0.0038
# 6 -0.0024 -0.0052 -0.0330 -1.1493 0.0038 -5.0790
#
#
#
# Elastic Compliance Matrix: (Units=1/GPa)
#
#
# Indices 1 2 3 4 5 6 
#
# 1 0.006398 -0.000644 -0.004720 0.000005 -0.001590 0.000026
# 2 -0.000644 0.008692 -0.003968 0.000027 -0.000223 0.000011
# 3 -0.004720 -0.003968 0.026292 -0.000044 0.009445 -0.000148
# 4 0.000005 0.000027 -0.000044 0.252034 -0.000032 -0.057030
# 5 -0.001590 -0.000223 0.009445 -0.000032 0.032247 -0.000029
# 6 0.000026 0.000011 -0.000148 -0.057030 -0.000029 -0.183984
#
#
# Mechanical properties :
#
#
# Convention : Reuss Voigt Hill
#
# Bulk Modulus (GPa) = 44.01992 63.16940 53.59466
# Shear Modulus (GPa) = 29.77669 24.93576 27.35623
#
# Velocity S-wave (km/s) = 3.50031 3.20317 3.35503
# Velocity P-wave (km/s) = 5.86933 6.29861 6.08776
#
# Compressibility (1/GPa) = 0.02271699
#
# Stress axis : x y z
#
# Youngs Moduli (GPa) = 156.29416 115.04767 38.03392
#
# Poissons Ratio (x) = 0.07412 0.17953
# Poissons Ratio (y) = 0.10070 0.15092
# Poissons Ratio (z) = 0.73777 0.45652
#
# Static dielectric constant tensor:
#      x y z
#    x 2.079160 0.000000 0.015670 
#    y 0.000000 1.876600 0.000010 
#    z 0.015670 0.000010 1.968260 
# 
# From -- ./inp_files/335979.got.cif
#   From: 2010.05.17/outbox.cif.g08.bks.cpg/sg12_168_cif.got.tgz:335979.got - 2010.06.03 13:09:07.
