data_PCOD9204565
_publ_section_title
;
Structure prediction by ZEFSAII (Michael W. Deem and Ramdas Pophale) SiO2 
 PCOD9204565
Probable space group: C 2/M
;
_chemical_formula_sum "Si O2"
_cell_formula_units_Z 52
_cell_length_a 11.784234
_cell_length_b 24.513413
_cell_length_c 11.382243
_cell_angle_alpha 90.000000
_cell_angle_beta 50.312538
_cell_angle_gamma 90.000000
_cell_volume 2530.252176
_symmetry_space_group_name_H-M "C 2/M"
_symmetry_group_IT_number 12
_symmetry_cell_setting 'monoclinic'
loop_
_space_group_symop_operation_xyz
x,y,z
-x,y,-z
-x,-y,-z
x,-y,z
1/2+x,1/2+y,z
1/2-x,1/2+y,-z
1/2-x,1/2-y,-z
1/2+x,1/2-y,z
loop_
_atom_site_type_symbol
_atom_site_label
_atom_site_fract_x
_atom_site_fract_y
_atom_site_fract_z
Si Si1 0.964401 0.153841 0.835967
Si Si2 0.873512 0.788669 0.660917
Si Si3 0.000000 0.000000 0.500000
Si Si4 0.042967 0.593300 0.279817
Si Si5 0.255575 0.063755 0.076741
Si Si6 0.754219 0.903584 0.660145
Si Si7 0.500000 0.000000 0.500000
Si Si8 0.771270 0.180889 0.191417
O O1 0.938944 0.192349 0.741970
O O2 0.897503 0.095394 0.845154
O O3 0.129958 0.152780 0.773344
O O4 0.863196 0.174854 0.010162
O O5 0.822999 0.843368 0.627121
O O6 0.748979 0.744059 0.764874
O O7 0.000000 0.761689 0.500000
O O8 0.873973 0.048766 0.561139
O O9 0.118231 0.649231 0.273724
O O10 0.873934 0.596871 0.350855
O O11 0.054570 0.547644 0.370985
O O12 0.135950 0.576117 0.102160
O O13 0.311820 0.084257 0.165832
O O14 0.226799 0.000000 0.105548
#
# Coordination Sequence:
#
# PCOD9204565 Si02
#       8
#     8   8   2   8   8   8   2   8
#     4   9  22  44  65  98 129 173 221 270 331 394
#     4  11  24  41  66  99 127 172 221 272 332 391
#     4  12  22  42  64  94 136 164 196 276 334 386
#     4  11  25  44  65  97 131 174 220 270 329 394
#     4  10  20  42  72  97 123 167 225 283 321 378
#     4  11  24  43  69  99 128 169 222 273 332 384
#     4  12  26  42  56  96 138 174 204 256 338 388
#     4  10  23  45  68  91 135 175 220 270 327 388
#
# _framework density 20.551311999999999
#
# number of rings (size 3 to 8) (size 9 to 14) (size 15 to 20)
#    0.000    1.538    2.308    1.385    3.231    2.462 
#   12.462    1.538    0.000    0.000    0.000    0.000 
#    0.000    0.000    0.000    0.000    0.000    0.000 
#
# Total GULP energy -144734.952681 kJ/mol
# GULP energy per Si atom -5566.728949 kJ/mol
# Density = 2.050454 g / cm^3
# Si number density = 20.551312 Si / 1000 Ang^3
#
#
#
# Elastic Constant Matrix: (Units=GPa)
#
#
# Indices 1 2 3 4 5 6 
#
# 1 106.8593 33.8409 14.3375 0.0000 -26.5063 0.0000
# 2 33.8409 109.3207 9.3237 0.0000 -12.7912 0.0000
# 3 14.3375 9.3237 31.2128 0.0000 -8.3448 0.0000
# 4 0.0000 0.0000 0.0000 18.7054 0.0000 2.8543
# 5 -26.5063 -12.7912 -8.3448 0.0000 15.9450 0.0000
# 6 0.0000 0.0000 0.0000 2.8543 0.0000 9.0997
#
#
#
# Elastic Compliance Matrix: (Units=1/GPa)
#
#
# Indices 1 2 3 4 5 6 
#
# 1 0.016340 -0.002073 -0.000080 0.000000 0.025459 0.000000
# 2 -0.002073 0.010384 -0.000981 0.000000 0.004371 0.000000
# 3 -0.000080 -0.000981 0.037348 0.000000 0.018625 0.000000
# 4 0.000000 0.000000 0.000000 0.056148 0.000000 -0.017612
# 5 0.025459 0.004371 0.018625 0.000000 0.118292 0.000000
# 6 0.000000 0.000000 0.000000 -0.017612 0.000000 0.115419
#
#
# Mechanical properties :
#
#
# Convention : Reuss Voigt Hill
#
# Bulk Modulus (GPa) = 17.29986 40.26634 28.78310
# Shear Modulus (GPa) = 13.17640 21.40939 17.29290
#
# Velocity S-wave (km/s) = 2.53483 3.23112 2.90392
# Velocity P-wave (km/s) = 4.12351 5.79274 5.02788
#
# Compressibility (1/GPa) = 0.05780392
#
# Stress axis : x y z
#
# Youngs Moduli (GPa) = 61.19860 96.30077 26.77551
#
# Poissons Ratio (x) = 0.19959 0.00215
# Poissons Ratio (y) = 0.12684 0.02627
# Poissons Ratio (z) = 0.00491 0.09449
#
# Static dielectric constant tensor:
#      x y z
#    x 1.742090 0.000000 -0.016330 
#    y 0.000000 1.690310 0.000000 
#    z -0.016330 0.000000 1.780980 
# 
# From -- ./inp_files/135871.got.cif
#   From: 2010.05.17/outbox.cif.g08.bks.cpg/sg12_68_cif.got.tgz:135871.got - 2010.06.03 13:09:07.
