data_PCOD9204228
_publ_section_title
;
Structure prediction by ZEFSAII (Michael W. Deem and Ramdas Pophale) SiO2 
 PCOD9204228
Probable space group: C 2/M
;
_chemical_formula_sum "Si O2"
_cell_formula_units_Z 56
_cell_length_a 25.918937
_cell_length_b 13.862009
_cell_length_c 9.065921
_cell_angle_alpha 90.000000
_cell_angle_beta 135.833297
_cell_angle_gamma 90.000000
_cell_volume 2269.505538
_symmetry_space_group_name_H-M "C 2/M"
_symmetry_group_IT_number 12
_symmetry_cell_setting 'monoclinic'
loop_
_space_group_symop_operation_xyz
x,y,z
-x,y,-z
-x,-y,-z
x,-y,z
1/2+x,1/2+y,z
1/2-x,1/2+y,-z
1/2-x,1/2-y,-z
1/2+x,1/2-y,z
loop_
_atom_site_type_symbol
_atom_site_label
_atom_site_fract_x
_atom_site_fract_y
_atom_site_fract_z
Si Si1 0.950018 0.184165 0.025612
Si Si2 0.181571 0.391353 0.706547
Si Si3 0.085488 0.884552 0.460471
Si Si4 0.858014 0.108657 0.099175
Si Si5 0.211160 0.780288 0.572736
Si Si6 0.920143 0.395674 0.904091
Si Si7 0.336731 0.109892 0.013256
O O1 0.883683 0.148207 0.993254
O O2 0.915949 0.278793 0.876170
O O3 0.015200 0.183032 0.282418
O O4 0.000000 0.132357 0.000000
O O5 0.157965 0.500000 0.622390
O O6 0.173561 0.316092 0.560646
O O7 0.269315 0.391066 0.920161
O O8 0.145158 0.360012 0.784787
O O9 0.115244 0.857427 0.684882
O O10 0.148916 0.862420 0.467772
O O11 0.068508 0.000000 0.423267
O O12 0.886510 0.000000 0.152802
O O13 0.250000 0.750000 0.500000
O O14 0.276882 0.821633 0.813065
O O15 0.879551 0.500000 0.781959
O O16 0.907836 0.394254 0.054939
O O17 0.000000 0.408827 0.000000
O O18 0.306145 0.000000 0.960204
#
# Coordination Sequence:
#
# PCOD9204228 Si02
#       7
#     8   8   8   8   8   8   8
#     4  11  24  39  64  94 126 164 212 259 317 373
#     4  10  22  41  66  95 124 163 215 263 312 374
#     4  11  25  44  63  91 126 166 212 255 312 380
#     4  10  21  41  66  91 123 166 212 260 311 373
#     4  12  26  38  62  96 134 166 203 256 322 382
#     4   9  20  37  62  90 121 160 208 256 306 370
#     4  10  20  40  68  92 120 166 214 259 312 375
#
# _framework density 24.674977999999999
#
# number of rings (size 3 to 8) (size 9 to 14) (size 15 to 20)
#    0.000    1.571    1.429    2.571    8.000    3.429 
#    0.000    0.714    0.000    1.714    0.000    0.000 
#    0.000    0.000    0.000    0.000    0.000    0.000 
#
# Total GULP energy -155892.305525 kJ/mol
# GULP energy per Si atom -5567.582340 kJ/mol
# Density = 2.461882 g / cm^3
# Si number density = 24.674978 Si / 1000 Ang^3
#
#
#
# Elastic Constant Matrix: (Units=GPa)
#
#
# Indices 1 2 3 4 5 6 
#
# 1 165.7384 18.1455 22.4484 0.0000 -34.6056 0.0000
# 2 18.1455 137.6088 39.7410 0.0000 -14.2819 0.0000
# 3 22.4484 39.7410 79.4079 0.0000 -24.2845 0.0000
# 4 0.0000 0.0000 0.0000 22.1234 0.0000 -22.7705
# 5 -34.6056 -14.2819 -24.2845 0.0000 36.6603 0.0000
# 6 0.0000 0.0000 0.0000 -22.7705 0.0000 24.8025
#
#
#
# Elastic Compliance Matrix: (Units=1/GPa)
#
#
# Indices 1 2 3 4 5 6 
#
# 1 0.007526 -0.000313 0.000206 0.000000 0.007119 0.000000
# 2 -0.000313 0.008519 -0.004076 0.000000 0.000323 0.000000
# 3 0.000206 -0.004076 0.017743 0.000000 0.010360 0.000000
# 4 0.000000 0.000000 0.000000 0.820808 0.000000 0.753563
# 5 0.007119 0.000323 0.010360 0.000000 0.040986 0.000000
# 6 0.000000 0.000000 0.000000 0.753563 0.000000 0.732146
#
#
# Mechanical properties :
#
#
# Convention : Reuss Voigt Hill
#
# Bulk Modulus (GPa) = 39.33524 60.38057 49.85791
# Shear Modulus (GPa) = 3.04031 36.87857 19.95944
#
# Velocity S-wave (km/s) = 1.11122 3.87017 2.84719
# Velocity P-wave (km/s) = 4.19790 6.67041 5.57301
#
# Compressibility (1/GPa) = 0.02542250
#
# Stress axis : x y z
#
# Youngs Moduli (GPa) = 132.86519 117.38501 56.35957
#
# Poissons Ratio (x) = 0.03676 -0.01162
# Poissons Ratio (y) = 0.04160 0.22973
# Poissons Ratio (z) = -0.02740 0.47848
#
# Static dielectric constant tensor:
#      x y z
#    x 2.006490 0.000000 -0.193600 
#    y 0.000000 2.086790 0.000000 
#    z -0.193600 0.000000 2.479940 
# 
# From -- ./inp_files/96941.got.cif
#   From: 2010.05.17/outbox.cif.g08.bks.cpg/sg12_49_cif.got.tgz:96941.got - 2010.06.03 13:09:07.
