data_PCOD9204023
_publ_section_title
;
Structure prediction by ZEFSAII (Michael W. Deem and Ramdas Pophale) SiO2 
 PCOD9204023
Probable space group: C 2/M
;
_chemical_formula_sum "Si O2"
_cell_formula_units_Z 48
_cell_length_a 9.722701
_cell_length_b 27.935186
_cell_length_c 8.856824
_cell_angle_alpha 90.000000
_cell_angle_beta 84.599172
_cell_angle_gamma 90.000000
_cell_volume 2394.882524
_symmetry_space_group_name_H-M "C 2/M"
_symmetry_group_IT_number 12
_symmetry_cell_setting 'monoclinic'
loop_
_space_group_symop_operation_xyz
x,y,z
-x,y,-z
-x,-y,-z
x,-y,z
1/2+x,1/2+y,z
1/2-x,1/2+y,-z
1/2-x,1/2-y,-z
1/2+x,1/2-y,z
loop_
_atom_site_type_symbol
_atom_site_label
_atom_site_fract_x
_atom_site_fract_y
_atom_site_fract_z
Si Si1 0.000000 0.660594 0.000000
Si Si2 0.348978 0.776234 0.764248
Si Si3 0.000000 0.338244 0.500000
Si Si4 0.956032 0.196330 0.177532
Si Si5 0.008352 0.899969 0.318024
Si Si6 0.370573 0.000000 0.404334
Si Si7 0.335398 0.102207 0.267456
Si Si8 0.598243 0.500000 0.635290
O O1 0.091322 0.626811 0.882753
O O2 0.906106 0.694816 0.904475
O O3 0.404073 0.805718 0.615933
O O4 0.184568 0.773832 0.790349
O O5 0.420304 0.724604 0.754721
O O6 0.898923 0.369749 0.405251
O O7 0.932255 0.144506 0.250719
O O8 0.000000 0.191443 0.000000
O O9 0.170461 0.895586 0.264843
O O10 0.000000 0.896578 0.500000
O O11 0.940021 0.950603 0.278113
O O12 0.500000 0.000000 0.500000
O O13 0.366653 0.953173 0.300207
O O14 0.245379 0.000000 0.538596
O O15 0.500000 0.500000 0.500000
#
# Coordination Sequence:
#
# PCOD9204023 Si02
#       8
#     4   8   4   8   8   4   8   4
#     4  10  24  41  64  86 138 171 212 256 322 384
#     4  11  25  43  62  92 129 171 214 268 317 379
#     4  10  24  39  62  92 132 159 220 268 314 374
#     4  12  26  41  65  92 130 171 217 262 326 384
#     4  11  22  40  69  93 123 166 221 262 321 381
#     4  12  22  37  66  98 131 161 211 269 325 376
#     4  11  21  40  63  95 125 173 209 265 320 382
#     4  10  20  40  63  95 125 160 203 266 319 373
#
# _framework density 20.042736999999999
#
# number of rings (size 3 to 8) (size 9 to 14) (size 15 to 20)
#    0.000    1.000    5.000    2.500    5.833    1.000 
#    0.000    0.417    0.000    1.000    0.000    0.000 
#    0.000    0.000    0.000    0.000    0.000    0.000 
#
# Total GULP energy -134182.348214 kJ/mol
# GULP energy per Si atom -5590.931176 kJ/mol
# Density = 1.999712 g / cm^3
# Si number density = 20.042737 Si / 1000 Ang^3
#
#
#
# Elastic Constant Matrix: (Units=GPa)
#
#
# Indices 1 2 3 4 5 6 
#
# 1 91.0782 11.6210 -0.3209 0.0000 -10.9796 0.0000
# 2 11.6210 127.9593 24.9448 0.0000 -12.4607 0.0000
# 3 -0.3209 24.9448 64.5141 0.0000 -14.5729 0.0000
# 4 0.0000 0.0000 0.0000 14.3121 0.0000 -2.4227
# 5 -10.9796 -12.4607 -14.5729 0.0000 18.8380 0.0000
# 6 0.0000 0.0000 0.0000 -2.4227 0.0000 31.1500
#
#
#
# Elastic Compliance Matrix: (Units=1/GPa)
#
#
# Indices 1 2 3 4 5 6 
#
# 1 0.012076 -0.000722 0.002207 0.000000 0.008268 0.000000
# 2 -0.000722 0.008715 -0.002625 0.000000 0.003313 0.000000
# 3 0.002207 -0.002625 0.019903 0.000000 0.014946 0.000000
# 4 0.000000 0.000000 0.000000 0.070803 0.000000 0.005507
# 5 0.008268 0.003313 0.014946 0.000000 0.071657 0.000000
# 6 0.000000 0.000000 0.000000 0.005507 0.000000 0.032531
#
#
# Mechanical properties :
#
#
# Convention : Reuss Voigt Hill
#
# Bulk Modulus (GPa) = 26.03209 39.56017 32.79613
# Shear Modulus (GPa) = 21.66669 29.34715 25.50692
#
# Velocity S-wave (km/s) = 3.29146 3.83068 3.57126
# Velocity P-wave (km/s) = 5.24037 6.27265 5.77960
#
# Compressibility (1/GPa) = 0.03841413
#
# Stress axis : x y z
#
# Youngs Moduli (GPa) = 82.80754 114.74626 50.24483
#
# Poissons Ratio (x) = 0.08282 -0.11088
# Poissons Ratio (y) = 0.05977 0.13188
# Poissons Ratio (z) = -0.18274 0.30119
#
# Static dielectric constant tensor:
#      x y z
#    x 1.927690 0.000000 -0.052010 
#    y 0.000000 1.751040 0.000000 
#    z -0.052010 0.000000 1.694200 
# 
# From -- ./inp_files/42328.got.cif
#   From: 2010.05.17/outbox.cif.g08.bks.cpg/sg12_22_cif.got.tgz:42328.got - 2010.06.03 13:09:07.
