data_PCOD9204458
_publ_section_title
;
Structure prediction by ZEFSAII (Michael W. Deem and Ramdas Pophale) SiO2 
 PCOD9204458
Probable space group: C 2/M
;
_chemical_formula_sum "Si O2"
_cell_formula_units_Z 56
_cell_length_a 21.179418
_cell_length_b 16.182017
_cell_length_c 21.790420
_cell_angle_alpha 90.000000
_cell_angle_beta 19.923518
_cell_angle_gamma 90.000000
_cell_volume 2544.883275
_symmetry_space_group_name_H-M "C 2/M"
_symmetry_group_IT_number 12
_symmetry_cell_setting 'monoclinic'
loop_
_space_group_symop_operation_xyz
x,y,z
-x,y,-z
-x,-y,-z
x,-y,z
1/2+x,1/2+y,z
1/2-x,1/2+y,-z
1/2-x,1/2-y,-z
1/2+x,1/2-y,z
loop_
_atom_site_type_symbol
_atom_site_label
_atom_site_fract_x
_atom_site_fract_y
_atom_site_fract_z
Si Si1 0.321827 0.835314 0.292956
Si Si2 0.481440 0.599799 0.664698
Si Si3 0.904790 0.595615 0.527324
Si Si4 0.458652 0.668343 0.110040
Si Si5 0.792581 0.403235 0.192697
Si Si6 0.330866 0.903230 0.819331
Si Si7 0.199035 0.658111 0.021532
O O1 0.346717 0.746739 0.238504
O O2 0.247004 0.892730 0.305751
O O3 0.526293 0.850324 0.132750
O O4 0.172136 0.850415 0.482590
O O5 0.510486 0.500000 0.634883
O O6 0.349140 0.628849 0.728582
O O7 0.374657 0.621977 0.824648
O O8 0.959546 0.500000 0.477439
O O9 0.686831 0.598588 0.737477
O O10 0.000000 0.636696 0.500000
O O11 0.995589 0.625895 0.381007
O O12 0.500000 0.670925 0.000000
O O13 0.654649 0.652037 0.962219
O O14 0.806811 0.500000 0.165060
O O15 0.000000 0.366557 0.000000
O O16 0.359408 0.892120 0.865030
O O17 0.288039 0.000000 0.846679
O O18 0.250000 0.750000 0.000000
#
# Coordination Sequence:
#
# PCOD9204458 Si02
#       7
#     8   8   8   8   8   8   8
#     4  12  26  42  70 102 142 183 232 286 352 413
#     4  11  26  46  73 106 142 185 236 292 352 422
#     4  10  22  41  68  99 130 170 223 282 345 415
#     4  12  25  41  69 103 138 177 222 288 358 414
#     4  10  20  41  72 104 137 176 228 287 347 416
#     4  11  25  46  70  99 137 182 232 288 345 415
#     4  12  27  47  70  98 142 188 238 289 349 417
#
# _framework density 22.004937999999999
#
# number of rings (size 3 to 8) (size 9 to 14) (size 15 to 20)
#    0.000    0.857    4.286    2.143    2.000    6.286 
#    0.000    1.429    0.000    0.000    0.000    0.000 
#    0.000    0.000    0.000    0.000    0.000    0.000 
#
# Total GULP energy -156300.576185 kJ/mol
# GULP energy per Si atom -5582.163435 kJ/mol
# Density = 2.195485 g / cm^3
# Si number density = 22.004938 Si / 1000 Ang^3
#
#
#
# Elastic Constant Matrix: (Units=GPa)
#
#
# Indices 1 2 3 4 5 6 
#
# 1 69.6622 6.5999 30.4698 -0.0263 24.4738 0.0043
# 2 6.5999 57.7315 30.4837 -0.0408 3.8581 0.0059
# 3 30.4698 30.4837 147.4090 -0.0351 38.6695 0.0031
# 4 -0.0263 -0.0408 -0.0351 22.2918 0.0154 0.9489
# 5 24.4738 3.8581 38.6695 0.0154 37.0655 0.0014
# 6 0.0043 0.0059 0.0031 0.9489 0.0014 19.9254
#
#
#
# Elastic Compliance Matrix: (Units=1/GPa)
#
#
# Indices 1 2 3 4 5 6 
#
# 1 0.018826 -0.001050 -0.000609 0.000028 -0.011687 -0.000004
# 2 -0.001050 0.019747 -0.004832 0.000025 0.003678 -0.000006
# 3 -0.000609 -0.004832 0.010562 0.000014 -0.010114 0.000000
# 4 0.000028 0.000025 0.000014 0.044951 -0.000054 -0.002141
# 5 -0.011687 0.003678 -0.010114 -0.000054 0.044865 0.000002
# 6 -0.000004 -0.000006 0.000000 -0.002141 0.000002 0.050289
#
#
# Mechanical properties :
#
#
# Convention : Reuss Voigt Hill
#
# Bulk Modulus (GPa) = 27.65835 45.54550 36.60193
# Shear Modulus (GPa) = 23.33481 29.67316 26.50399
#
# Velocity S-wave (km/s) = 3.25997 3.67615 3.47429
# Velocity P-wave (km/s) = 5.17361 6.22588 5.72398
#
# Compressibility (1/GPa) = 0.03615544
#
# Stress axis : x y z
#
# Youngs Moduli (GPa) = 53.11681 50.64068 94.67820
#
# Poissons Ratio (x) = 0.05316 0.05763
# Poissons Ratio (y) = 0.05576 0.45744
# Poissons Ratio (z) = 0.03233 0.24467
#
# Static dielectric constant tensor:
#      x y z
#    x 1.860540 0.000000 0.023120 
#    y 0.000000 1.873450 0.000010 
#    z 0.023120 0.000010 1.838430 
# 
# From -- ./inp_files/322631.got.cif
#   From: 2010.05.17/outbox.cif.g08.bks.cpg/sg12_162_cif.got.tgz:322631.got - 2010.06.03 13:09:07.
