data_PCOD9204824
_publ_section_title
;
Structure prediction by ZEFSAII (Michael W. Deem and Ramdas Pophale) SiO2 
 PCOD9204824
Probable space group: C 2/M
;
_chemical_formula_sum "Si O2"
_cell_formula_units_Z 52
_cell_length_a 9.427091
_cell_length_b 19.943645
_cell_length_c 19.824083
_cell_angle_alpha 90.000000
_cell_angle_beta 45.386515
_cell_angle_gamma 90.000000
_cell_volume 2653.202521
_symmetry_space_group_name_H-M "C 2/M"
_symmetry_group_IT_number 12
_symmetry_cell_setting 'monoclinic'
loop_
_space_group_symop_operation_xyz
x,y,z
-x,y,-z
-x,-y,-z
x,-y,z
1/2+x,1/2+y,z
1/2-x,1/2+y,-z
1/2-x,1/2-y,-z
1/2+x,1/2-y,z
loop_
_atom_site_type_symbol
_atom_site_label
_atom_site_fract_x
_atom_site_fract_y
_atom_site_fract_z
Si Si1 0.553033 0.881160 0.293139
Si Si2 0.581641 0.794769 0.781458
Si Si3 0.655256 0.819523 0.507142
Si Si4 0.707392 0.000000 0.688328
Si Si5 0.052111 0.120287 0.318618
Si Si6 0.147818 0.680007 0.013566
Si Si7 0.490503 0.364671 0.182995
O O1 0.525544 0.819859 0.249934
O O2 0.457049 0.857469 0.395197
O O3 0.786141 0.896740 0.225449
O O4 0.428559 0.941532 0.303123
O O5 0.811570 0.815492 0.707360
O O6 0.554121 0.715458 0.797387
O O7 0.480672 0.835584 0.877374
O O8 0.500000 0.804834 0.500000
O O9 0.750000 0.750000 0.500000
O O10 0.831782 0.865776 0.419263
O O11 0.843597 0.058484 0.679651
O O12 0.045868 0.112420 0.239763
O O13 0.322088 0.630512 0.930502
O O14 0.250000 0.750000 0.000000
O O15 0.000000 0.689972 0.000000
#
# Coordination Sequence:
#
# PCOD9204824 Si02
#       7
#     8   8   8   4   8   8   8
#     4  11  25  42  64  91 129 169 211 268 305 380
#     4  10  21  37  63  98 135 160 203 257 334 388
#     4  12  26  41  66 104 132 158 202 252 330 395
#     4  10  28  47  64  86 123 177 234 256 316 355
#     4  11  23  42  65  88 128 174 207 265 305 378
#     4  10  21  33  57  97 135 167 202 249 324 402
#     4  11  20  37  65  96 127 164 205 264 332 372
#
# _framework density 19.598956999999999
#
# number of rings (size 3 to 8) (size 9 to 14) (size 15 to 20)
#    0.000    1.231    3.077    2.769   10.769    1.846 
#    0.000    0.769    0.000   14.769    0.000    0.000 
#    0.000    0.000    0.000    0.000    0.000    0.000 
#
# Total GULP energy -144748.362886 kJ/mol
# GULP energy per Si atom -5567.244726 kJ/mol
# Density = 1.955435 g / cm^3
# Si number density = 19.598957 Si / 1000 Ang^3
#
#
#
# Elastic Constant Matrix: (Units=GPa)
#
#
# Indices 1 2 3 4 5 6 
#
# 1 185.6744 46.2991 55.6108 0.0000 -6.4833 0.0002
# 2 46.2991 78.0067 12.1920 0.0001 0.3096 0.0000
# 3 55.6108 12.1920 117.1760 0.0000 -5.3703 0.0000
# 4 0.0000 0.0001 0.0000 -4.3255 -0.0001 -2.6932
# 5 -6.4833 0.3096 -5.3703 -0.0001 27.1905 0.0000
# 6 0.0002 0.0000 0.0000 -2.6932 0.0000 30.8203
#
#
#
# Elastic Compliance Matrix: (Units=1/GPa)
#
#
# Indices 1 2 3 4 5 6 
#
# 1 0.007290 -0.003862 -0.003003 0.000000 0.001189 0.000000
# 2 -0.003862 0.015082 0.000215 0.000000 -0.001050 0.000000
# 3 -0.003003 0.000215 0.009995 0.000000 0.001255 0.000000
# 4 0.000000 0.000000 0.000000 -0.219259 -0.000001 -0.019160
# 5 0.001189 -0.001050 0.001255 -0.000001 0.037321 0.000000
# 6 0.000000 0.000000 0.000000 -0.019160 0.000000 0.030772
#
#
# Mechanical properties :
#
#
# Convention : Reuss Voigt Hill
#
# Bulk Modulus (GPa) = 52.44715 67.67343 60.06029
# Shear Modulus (GPa) = -50.43141 28.52075 -10.95533
#
# Velocity S-wave (km/s) = -5.07814 3.81887 -2.36683
# Velocity P-wave (km/s) = 2.75048 7.35181 4.82099
#
# Compressibility (1/GPa) = 0.01906681
#
# Stress axis : x y z
#
# Youngs Moduli (GPa) = 137.17722 66.30372 100.05339
#
# Poissons Ratio (x) = 0.25607 0.30050
# Poissons Ratio (y) = 0.52978 -0.02156
# Poissons Ratio (z) = 0.41199 -0.01429
#
# Static dielectric constant tensor:
#      x y z
#    x 1.670440 0.000000 -0.023490 
#    y 0.000000 1.660630 0.000000 
#    z -0.023490 0.000000 1.755060 
# 
# From -- ./inp_files/258400.got.cif
#   From: 2010.05.17/outbox.cif.g08.bks.cpg/sg12_130_cif.got.tgz:258400.got - 2010.06.03 13:09:07.
