data_PCOD9204478
_publ_section_title
;
Structure prediction by ZEFSAII (Michael W. Deem and Ramdas Pophale) SiO2 
 PCOD9204478
Probable space group: C 2/M
;
_chemical_formula_sum "Si O2"
_cell_formula_units_Z 36
_cell_length_a 16.065156
_cell_length_b 14.606572
_cell_length_c 11.539979
_cell_angle_alpha 90.000000
_cell_angle_beta 144.141265
_cell_angle_gamma 90.000000
_cell_volume 1586.278130
_symmetry_space_group_name_H-M "C 2/M"
_symmetry_group_IT_number 12
_symmetry_cell_setting 'monoclinic'
loop_
_space_group_symop_operation_xyz
x,y,z
-x,y,-z
-x,-y,-z
x,-y,z
1/2+x,1/2+y,z
1/2-x,1/2+y,-z
1/2-x,1/2-y,-z
1/2+x,1/2-y,z
loop_
_atom_site_type_symbol
_atom_site_label
_atom_site_fract_x
_atom_site_fract_y
_atom_site_fract_z
Si Si1 0.602352 0.806121 0.328496
Si Si2 0.002617 0.000000 0.700208
Si Si3 0.155661 0.330445 0.837261
Si Si4 0.793662 0.500000 0.936850
Si Si5 0.171551 0.500000 0.287816
Si Si6 0.423881 0.351133 0.026490
O O1 0.750000 0.750000 0.500000
O O2 0.511519 0.807800 0.346770
O O3 0.495766 0.747793 0.126693
O O4 0.627606 0.907024 0.305058
O O5 0.842204 0.000000 0.482628
O O6 0.122644 0.000000 0.737904
O O7 0.032412 0.087817 0.814541
O O8 0.250000 0.250000 0.000000
O O9 0.166182 0.413952 0.938974
O O10 0.251769 0.351586 0.832711
O O11 0.861629 0.500000 0.887181
O O12 0.500000 0.390504 0.000000
#
# Coordination Sequence:
#
# PCOD9204478 Si02
#       6
#     8   4   8   4   4   8
#     4  11  23  40  60  89 131 163 197 258 317 361
#     4  10  20  42  61  91 131 157 200 267 310 358
#     4   9  21  39  61  88 126 159 202 254 302 361
#     4  10  22  39  64  96 120 164 208 254 306 367
#     4  12  24  37  63  93 128 159 207 254 317 372
#     4  10  21  40  66  89 116 165 215 247 304 373
#
# _framework density 22.694634000000001
#
# number of rings (size 3 to 8) (size 9 to 14) (size 15 to 20)
#    0.000    1.778    2.222    1.333    6.222    0.889 
#    0.000    1.111    0.000    1.333    0.000    0.000 
#    0.000    0.000    0.000    0.000    0.000    0.000 
#
# Total GULP energy -100413.857411 kJ/mol
# GULP energy per Si atom -5578.547634 kJ/mol
# Density = 2.264298 g / cm^3
# Si number density = 22.694634 Si / 1000 Ang^3
#
#
#
# Elastic Constant Matrix: (Units=GPa)
#
#
# Indices 1 2 3 4 5 6 
#
# 1 193.4652 33.5869 68.2927 0.0000 67.5340 0.0000
# 2 33.5869 166.1640 27.2273 0.0000 12.9569 0.0000
# 3 68.2927 27.2273 93.7784 0.0000 50.5660 0.0000
# 4 0.0000 0.0000 0.0000 171.3589 0.0000 -83.3125
# 5 67.5340 12.9569 50.5660 0.0000 52.6752 0.0000
# 6 0.0000 0.0000 0.0000 -83.3125 0.0000 81.9460
#
#
#
# Elastic Compliance Matrix: (Units=1/GPa)
#
#
# Indices 1 2 3 4 5 6 
#
# 1 0.009521 -0.000954 -0.000417 0.000000 -0.011572 0.000000
# 2 -0.000954 0.006419 -0.002026 0.000000 0.001588 0.000000
# 3 -0.000417 -0.002026 0.022800 0.000000 -0.020854 0.000000
# 4 0.000000 0.000000 0.000000 0.011540 0.000000 0.011732
# 5 -0.011572 0.001588 -0.020854 0.000000 0.053449 0.000000
# 6 0.000000 0.000000 0.000000 0.011732 0.000000 0.024131
#
#
# Mechanical properties :
#
#
# Convention : Reuss Voigt Hill
#
# Bulk Modulus (GPa) = 31.30162 79.06906 55.18534
# Shear Modulus (GPa) = 34.41125 82.81608 58.61366
#
# Velocity S-wave (km/s) = 3.89816 6.04737 5.08755
# Velocity P-wave (km/s) = 5.83809 9.14751 7.67334
#
# Compressibility (1/GPa) = 0.03194723
#
# Stress axis : x y z
#
# Youngs Moduli (GPa) = 105.02867 155.78768 43.86006
#
# Poissons Ratio (x) = 0.14860 0.01829
# Poissons Ratio (y) = 0.10018 0.08884
# Poissons Ratio (z) = 0.04380 0.31555
#
# Static dielectric constant tensor:
#      x y z
#    x 1.962310 0.000000 0.064760 
#    y 0.000000 1.831530 0.000000 
#    z 0.064760 0.000000 1.894860 
# 
# From -- ./inp_files/58494.got.cif
#   From: 2010.05.17/outbox.cif.g08.bks.cpg/sg12_30_cif.got.tgz:58494.got - 2010.06.03 13:09:07.
