data_PCOD9204923
_publ_section_title
;
Structure prediction by ZEFSAII (Michael W. Deem and Ramdas Pophale) SiO2 
 PCOD9204923
Probable space group: C 2/M
;
_chemical_formula_sum "Si O2"
_cell_formula_units_Z 44
_cell_length_a 7.064203
_cell_length_b 22.466642
_cell_length_c 14.428921
_cell_angle_alpha 90.000000
_cell_angle_beta 88.620576
_cell_angle_gamma 90.000000
_cell_volume 2289.334823
_symmetry_space_group_name_H-M "C 2/M"
_symmetry_group_IT_number 12
_symmetry_cell_setting 'monoclinic'
loop_
_space_group_symop_operation_xyz
x,y,z
-x,y,-z
-x,-y,-z
x,-y,z
1/2+x,1/2+y,z
1/2-x,1/2+y,-z
1/2-x,1/2-y,-z
1/2+x,1/2-y,z
loop_
_atom_site_type_symbol
_atom_site_label
_atom_site_fract_x
_atom_site_fract_y
_atom_site_fract_z
Si Si1 0.652837 0.067144 0.917388
Si Si2 0.451053 0.299026 0.188800
Si Si3 0.780847 0.674181 0.422578
Si Si4 0.500000 0.360244 0.000000
Si Si5 0.659591 0.685013 0.614257
Si Si6 0.380668 0.163195 0.227214
O O1 0.567286 0.108973 0.838747
O O2 0.838990 0.098675 0.956737
O O3 0.695644 0.000000 0.884780
O O4 0.500000 0.064231 0.000000
O O5 0.412203 0.320227 0.084603
O O6 0.316594 0.321597 0.275202
O O7 0.464351 0.227538 0.198183
O O8 0.657467 0.324448 0.210636
O O9 0.793774 0.659025 0.531536
O O10 0.556589 0.666689 0.404166
O O11 0.827663 0.744157 0.406329
O O12 0.893169 0.646385 0.335334
#
# Coordination Sequence:
#
# PCOD9204923 Si02
#       6
#     8   8   8   4   8   8
#     4  10  22  37  52  69  92 128 169 200 230 276
#     4   9  18  27  43  72  97 126 148 189 245 289
#     4   8  13  23  39  59  88 124 145 182 222 272
#     4  10  21  34  52  72  97 124 156 198 244 282
#     4   8  13  23  37  59  92 121 149 175 221 286
#     4   9  18  29  45  70  96 122 155 192 240 286
#
# _framework density 19.219557999999999
#
# number of rings (size 3 to 8) (size 9 to 14) (size 15 to 20)
#    0.000    3.091    0.000    0.273    3.818    1.455 
#    0.000    0.000    0.000    0.000    0.000   24.182 
#    0.000    2.909    0.000    0.000    0.000    0.000 
#
# Total GULP energy -122480.095561 kJ/mol
# GULP energy per Si atom -5567.277071 kJ/mol
# Density = 1.917581 g / cm^3
# Si number density = 19.219558 Si / 1000 Ang^3
#
#
#
# Elastic Constant Matrix: (Units=GPa)
#
#
# Indices 1 2 3 4 5 6 
#
# 1 33.7538 12.1411 15.1904 0.0000 -2.3838 0.0000
# 2 12.1411 71.9488 70.9019 0.0000 -6.1825 0.0000
# 3 15.1904 70.9019 187.3231 0.0000 -10.7037 0.0000
# 4 0.0000 0.0000 0.0000 -32.2823 0.0000 -11.7894
# 5 -2.3838 -6.1825 -10.7037 0.0000 28.7549 0.0000
# 6 0.0000 0.0000 0.0000 -11.7894 0.0000 15.1688
#
#
#
# Elastic Compliance Matrix: (Units=1/GPa)
#
#
# Indices 1 2 3 4 5 6 
#
# 1 0.031682 -0.004424 -0.000816 0.000000 0.001371 0.000000
# 2 -0.004424 0.022864 -0.008210 0.000000 0.001493 0.000000
# 3 -0.000816 -0.008210 0.008590 0.000000 0.001365 0.000000
# 4 0.000000 0.000000 0.000000 -0.024128 0.000000 -0.018753
# 5 0.001371 0.001493 0.001365 0.000000 0.035719 0.000000
# 6 0.000000 0.000000 0.000000 -0.018753 0.000000 0.051350
#
#
# Mechanical properties :
#
#
# Convention : Reuss Voigt Hill
#
# Bulk Modulus (GPa) = 27.59726 54.38807 40.99266
# Shear Modulus (GPa) = 30.29276 15.31444 22.80360
#
# Velocity S-wave (km/s) = 3.97437 2.82585 3.44827
# Velocity P-wave (km/s) = 5.95407 6.24556 6.10156
#
# Compressibility (1/GPa) = 0.03623548
#
# Stress axis : x y z
#
# Youngs Moduli (GPa) = 31.56385 43.73659 116.41380
#
# Poissons Ratio (x) = 0.19349 0.09503
# Poissons Ratio (y) = 0.13963 0.95576
# Poissons Ratio (z) = 0.02577 0.35908
#
# Static dielectric constant tensor:
#      x y z
#    x 1.801280 0.000000 0.039610 
#    y 0.000000 1.624470 0.000000 
#    z 0.039610 0.000000 1.789100 
# 
# From -- ./inp_files/195441.got.cif
#   From: 2010.05.17/outbox.cif.g08.bks.cpg/sg12_98_cif.got.tgz:195441.got - 2010.06.03 13:09:07.
