data_PCOD9204634
_publ_section_title
;
Structure prediction by ZEFSAII (Michael W. Deem and Ramdas Pophale) SiO2 
 PCOD9204634
Probable space group: C 2/M
;
_chemical_formula_sum "Si O2"
_cell_formula_units_Z 52
_cell_length_a 8.820903
_cell_length_b 25.363248
_cell_length_c 13.543220
_cell_angle_alpha 90.000000
_cell_angle_beta 87.449403
_cell_angle_gamma 90.000000
_cell_volume 3026.978836
_symmetry_space_group_name_H-M "C 2/M"
_symmetry_group_IT_number 12
_symmetry_cell_setting 'monoclinic'
loop_
_space_group_symop_operation_xyz
x,y,z
-x,y,-z
-x,-y,-z
x,-y,z
1/2+x,1/2+y,z
1/2-x,1/2+y,-z
1/2-x,1/2-y,-z
1/2+x,1/2-y,z
loop_
_atom_site_type_symbol
_atom_site_label
_atom_site_fract_x
_atom_site_fract_y
_atom_site_fract_z
Si Si1 0.943852 0.751378 0.209089
Si Si2 0.880540 0.912803 0.581165
Si Si3 0.072124 0.000000 0.690668
Si Si4 0.313433 0.674817 0.734152
Si Si5 0.317878 0.000000 0.523289
Si Si6 0.093245 0.000000 0.097541
Si Si7 0.840191 0.116355 0.943473
Si Si8 0.206553 0.702488 0.074721
O O1 0.049783 0.783743 0.279276
O O2 0.048800 0.719805 0.127778
O O3 0.838752 0.708229 0.261286
O O4 0.834149 0.792255 0.155614
O O5 0.809580 0.869214 0.652047
O O6 0.000000 0.889454 0.500000
O O7 0.984154 0.950404 0.646587
O O8 0.758613 0.949530 0.528807
O O9 0.026951 0.000000 0.807604
O O10 0.242177 0.000000 0.637050
O O11 0.340077 0.649419 0.842005
O O12 0.500000 0.000000 0.500000
O O13 0.183869 0.055452 0.088665
O O14 0.000000 0.000000 0.000000
O O15 0.721331 0.146977 0.018029
O O16 0.000000 0.119254 0.000000
O O17 0.250000 0.750000 0.000000
#
# Coordination Sequence:
#
# PCOD9204634 Si02
#       8
#     8   8   4   8   4   4   8   8
#     4  10  21  30  51  78 106 143 194 229 267 313
#     4   9  19  37  61  83 106 141 182 223 281 336
#     4   9  16  35  62  86 109 145 186 223 260 336
#     4  11  20  34  54  80 109 143 184 233 274 325
#     4   9  19  38  66  92 105 127 187 245 276 319
#     4  10  21  31  47  87 118 150 180 215 272 341
#     4  11  19  30  51  76 114 147 183 227 266 316
#     4  11  17  30  49  76 105 144 194 236 257 300
#
# _framework density 17.178844999999999
#
# number of rings (size 3 to 8) (size 9 to 14) (size 15 to 20)
#    0.000    1.846    6.154    1.385    0.000    0.000 
#    0.000   10.000    0.000    2.769    0.000    0.000 
#    0.000    0.000    0.000    0.000    0.000    0.000 
#
# Total GULP energy -144772.302146 kJ/mol
# GULP energy per Si atom -5568.165467 kJ/mol
# Density = 1.713975 g / cm^3
# Si number density = 17.178845 Si / 1000 Ang^3
#
#
#
# Elastic Constant Matrix: (Units=GPa)
#
#
# Indices 1 2 3 4 5 6 
#
# 1 85.4482 33.7984 25.3713 0.0000 -12.2968 0.0000
# 2 33.7984 108.5417 31.2871 0.0000 -17.4076 0.0000
# 3 25.3713 31.2871 80.5941 0.0000 -16.3065 0.0000
# 4 0.0000 0.0000 0.0000 33.1180 0.0000 -10.5729
# 5 -12.2968 -17.4076 -16.3065 0.0000 14.9019 0.0000
# 6 0.0000 0.0000 0.0000 -10.5729 0.0000 16.8625
#
#
#
# Elastic Compliance Matrix: (Units=1/GPa)
#
#
# Indices 1 2 3 4 5 6 
#
# 1 0.014362 -0.002863 -0.002169 0.000000 0.006133 0.000000
# 2 -0.002863 0.012223 -0.001840 0.000000 0.009902 0.000000
# 3 -0.002169 -0.001840 0.016707 0.000000 0.014342 0.000000
# 4 0.000000 0.000000 0.000000 0.037752 0.000000 0.023671
# 5 0.006133 0.009902 0.014342 0.000000 0.099428 0.000000
# 6 0.000000 0.000000 0.000000 0.023671 0.000000 0.074145
#
#
# Mechanical properties :
#
#
# Convention : Reuss Voigt Hill
#
# Bulk Modulus (GPa) = 33.84382 50.61086 42.22734
# Shear Modulus (GPa) = 17.97197 25.25162 21.61179
#
# Velocity S-wave (km/s) = 3.23796 3.83812 3.55074
# Velocity P-wave (km/s) = 5.80714 7.01189 6.43776
#
# Compressibility (1/GPa) = 0.02954749
#
# Stress axis : x y z
#
# Youngs Moduli (GPa) = 69.62728 81.81193 59.85567
#
# Poissons Ratio (x) = 0.23426 0.12981
# Poissons Ratio (y) = 0.19937 0.11015
# Poissons Ratio (z) = 0.15100 0.15055
#
# Static dielectric constant tensor:
#      x y z
#    x 1.597750 0.000000 -0.002170 
#    y 0.000000 1.618510 0.000000 
#    z -0.002170 0.000000 1.595220 
# 
# From -- ./inp_files/123739.got.cif
#   From: 2010.05.17/outbox.cif.g08.bks.cpg/sg12_62_cif.got.tgz:123739.got - 2010.06.03 13:09:07.
