data_PCOD9204036
_publ_section_title
;
Structure prediction by ZEFSAII (Michael W. Deem and Ramdas Pophale) SiO2 
 PCOD9204036
Probable space group: C 2/M
;
_chemical_formula_sum "Si O2"
_cell_formula_units_Z 56
_cell_length_a 20.399098
_cell_length_b 9.042153
_cell_length_c 16.515081
_cell_angle_alpha 90.000000
_cell_angle_beta 92.100307
_cell_angle_gamma 90.000000
_cell_volume 3044.189373
_symmetry_space_group_name_H-M "C 2/M"
_symmetry_group_IT_number 12
_symmetry_cell_setting 'monoclinic'
loop_
_space_group_symop_operation_xyz
x,y,z
-x,y,-z
-x,-y,-z
x,-y,z
1/2+x,1/2+y,z
1/2-x,1/2+y,-z
1/2-x,1/2-y,-z
1/2+x,1/2-y,z
loop_
_atom_site_type_symbol
_atom_site_label
_atom_site_fract_x
_atom_site_fract_y
_atom_site_fract_z
Si Si1 0.178608 0.676758 0.985998
Si Si2 0.698929 0.823890 0.437032
Si Si3 0.874715 0.175434 0.861629
Si Si4 0.738880 0.674870 0.273109
Si Si5 0.548100 0.178200 0.428941
Si Si6 0.625326 0.822935 0.805427
Si Si7 0.491020 0.677245 0.743277
O O1 0.186111 0.500000 0.989400
O O2 0.133061 0.734111 0.056598
O O3 0.250000 0.750000 0.000000
O O4 0.147704 0.715109 0.897585
O O5 0.750000 0.750000 0.500000
O O6 0.715244 0.768786 0.347749
O O7 0.623462 0.783679 0.452353
O O8 0.704749 0.000000 0.442516
O O9 0.809497 0.199044 0.804766
O O10 0.936173 0.216583 0.808079
O O11 0.878649 0.000000 0.880036
O O12 0.734823 0.500000 0.293349
O O13 0.812800 0.708882 0.249709
O O14 0.500000 0.220740 0.500000
O O15 0.528164 0.253074 0.343778
O O16 0.544114 0.000000 0.418954
O O17 0.560993 0.737825 0.774828
O O18 0.613526 0.000000 0.801874
O O19 0.491548 0.500000 0.736283
#
# Coordination Sequence:
#
# PCOD9204036 Si02
#       7
#     8   8   8   8   8   8   8
#     4  11  22  38  62  92 123 160 205 253 303 355
#     4  11  24  40  62  93 124 157 202 250 300 357
#     4  10  21  40  63  88 122 161 201 248 305 358
#     4  10  20  40  64  85 120 163 202 248 301 355
#     4  10  23  43  64  87 120 163 203 242 299 366
#     4  10  23  41  61  87 122 162 201 246 301 362
#     4  11  24  41  63  91 123 159 200 252 304 355
#
# _framework density 18.395702
#
# number of rings (size 3 to 8) (size 9 to 14) (size 15 to 20)
#    0.000    1.571    2.857    1.286    2.000    4.857 
#    0.000    2.857    0.000    0.000    0.000    0.000 
#    0.000    0.000    0.000    0.000    0.000    0.000 
#
# Total GULP energy -156485.100161 kJ/mol
# GULP energy per Si atom -5588.753577 kJ/mol
# Density = 1.835383 g / cm^3
# Si number density = 18.395702 Si / 1000 Ang^3
#
#
#
# Elastic Constant Matrix: (Units=GPa)
#
#
# Indices 1 2 3 4 5 6 
#
# 1 161.4985 59.2193 71.7456 0.0000 -6.4468 0.0000
# 2 59.2193 43.2801 52.5808 0.0000 -1.8041 0.0000
# 3 71.7456 52.5808 112.9058 0.0000 -13.3118 0.0000
# 4 0.0000 0.0000 0.0000 37.5853 0.0000 -0.4224
# 5 -6.4468 -1.8041 -13.3118 0.0000 31.4015 0.0000
# 6 0.0000 0.0000 0.0000 -0.4224 0.0000 32.0538
#
#
#
# Elastic Compliance Matrix: (Units=1/GPa)
#
#
# Indices 1 2 3 4 5 6 
#
# 1 0.012515 -0.017594 0.000447 0.000000 0.001748 0.000000
# 2 -0.017594 0.079846 -0.027252 0.000000 -0.010577 0.000000
# 3 0.000447 -0.027252 0.022200 0.000000 0.007937 0.000000
# 4 0.000000 0.000000 0.000000 0.026610 0.000000 0.000351
# 5 0.001748 -0.010577 0.007937 0.000000 0.034962 0.000000
# 6 0.000000 0.000000 0.000000 0.000351 0.000000 0.031202
#
#
# Mechanical properties :
#
#
# Convention : Reuss Voigt Hill
#
# Bulk Modulus (GPa) = 38.81447 76.08619 57.45033
# Shear Modulus (GPa) = 16.40856 29.15072 22.77964
#
# Velocity S-wave (km/s) = 2.98984 3.98508 3.52278
# Velocity P-wave (km/s) = 5.75017 7.91361 6.91699
#
# Compressibility (1/GPa) = 0.02576359
#
# Stress axis : x y z
#
# Youngs Moduli (GPa) = 79.90689 12.52406 45.04577
#
# Poissons Ratio (x) = 0.22035 -0.02016
# Poissons Ratio (y) = 1.40590 1.22757
# Poissons Ratio (z) = -0.03576 0.34130
#
# Static dielectric constant tensor:
#      x y z
#    x 1.618810 0.000000 -0.008550 
#    y 0.000000 1.613770 0.000000 
#    z -0.008550 0.000000 1.608630 
# 
# From -- ./inp_files/230859.got.cif
#   From: 2010.05.17/outbox.cif.g08.bks.cpg/sg12_116_cif.got.tgz:230859.got - 2010.06.03 13:09:07.
