data_PCOD9204050
_publ_section_title
;
Structure prediction by ZEFSAII (Michael W. Deem and Ramdas Pophale) SiO2 
 PCOD9204050
Probable space group: C 2/M
;
_chemical_formula_sum "Si O2"
_cell_formula_units_Z 56
_cell_length_a 24.036580
_cell_length_b 8.995615
_cell_length_c 15.339027
_cell_angle_alpha 90.000000
_cell_angle_beta 118.421373
_cell_angle_gamma 90.000000
_cell_volume 2916.909230
_symmetry_space_group_name_H-M "C 2/M"
_symmetry_group_IT_number 12
_symmetry_cell_setting 'monoclinic'
loop_
_space_group_symop_operation_xyz
x,y,z
-x,y,-z
-x,-y,-z
x,-y,z
1/2+x,1/2+y,z
1/2-x,1/2+y,-z
1/2-x,1/2-y,-z
1/2+x,1/2-y,z
loop_
_atom_site_type_symbol
_atom_site_label
_atom_site_fract_x
_atom_site_fract_y
_atom_site_fract_z
Si Si1 0.316496 0.176828 0.315046
Si Si2 0.189136 0.672787 0.995955
Si Si3 0.813777 0.673918 0.798276
Si Si4 0.065085 0.180201 0.497974
Si Si5 0.983531 0.171384 0.720659
Si Si6 0.458952 0.179669 0.884200
Si Si7 0.872487 0.830278 0.191503
O O1 0.246295 0.237705 0.283559
O O2 0.372573 0.248586 0.413874
O O3 0.333874 0.231073 0.230179
O O4 0.317819 0.000000 0.321488
O O5 0.185370 0.500000 0.968893
O O6 0.190228 0.682641 0.099922
O O7 0.250000 0.750000 0.000000
O O8 0.133332 0.764101 0.909311
O O9 0.808115 0.500000 0.769141
O O10 0.885006 0.726319 0.831611
O O11 0.059732 0.222643 0.391926
O O12 0.000000 0.223489 0.500000
O O13 0.069225 0.000000 0.506748
O O14 0.983062 0.263748 0.808904
O O15 0.053829 0.170441 0.731991
O O16 0.968001 0.000000 0.730673
O O17 0.460256 0.000000 0.887175
O O18 0.500000 0.228981 0.000000
O O19 0.848614 0.000000 0.177418
#
# Coordination Sequence:
#
# PCOD9204050 Si02
#       7
#     8   8   8   8   8   8   8
#     4  12  24  36  57  90 122 154 200 253 302 354
#     4  11  21  33  53  83 116 153 198 243 299 363
#     4  10  22  40  60  82 120 167 201 242 308 372
#     4  10  20  40  64  87 123 164 200 243 307 377
#     4  10  22  39  63  91 118 158 204 250 303 359
#     4  10  22  42  66  91 121 161 205 251 302 359
#     4  11  21  36  56  83 121 160 197 241 304 369
#
# _framework density 19.198404
#
# number of rings (size 3 to 8) (size 9 to 14) (size 15 to 20)
#    0.000    1.429    2.857    3.000    0.000    4.571 
#    0.000    0.714    0.000    0.000    0.000    0.000 
#    0.000    0.000    0.000    0.000    0.000    0.000 
#
# Total GULP energy -156273.088938 kJ/mol
# GULP energy per Si atom -5581.181748 kJ/mol
# Density = 1.915471 g / cm^3
# Si number density = 19.198404 Si / 1000 Ang^3
#
#
#
# Elastic Constant Matrix: (Units=GPa)
#
#
# Indices 1 2 3 4 5 6 
#
# 1 95.4370 25.3545 35.6260 0.0000 16.7081 0.0000
# 2 25.3545 54.4146 39.2602 0.0000 12.7295 0.0000
# 3 35.6260 39.2602 124.4042 0.0000 22.7802 0.0000
# 4 0.0000 0.0000 0.0000 29.8517 0.0000 -0.0496
# 5 16.7081 12.7295 22.7802 0.0000 30.9562 0.0000
# 6 0.0000 0.0000 0.0000 -0.0496 0.0000 18.6848
#
#
#
# Elastic Compliance Matrix: (Units=1/GPa)
#
#
# Indices 1 2 3 4 5 6 
#
# 1 0.012847 -0.003773 -0.001737 0.000000 -0.004105 0.000000
# 2 -0.003773 0.025571 -0.006283 0.000000 -0.003855 0.000000
# 3 -0.001737 -0.006283 0.011412 0.000000 -0.004876 0.000000
# 4 0.000000 0.000000 0.000000 0.033499 0.000000 0.000089
# 5 -0.004105 -0.003855 -0.004876 0.000000 0.039693 0.000000
# 6 0.000000 0.000000 0.000000 0.000089 0.000000 0.053520
#
#
# Mechanical properties :
#
#
# Convention : Reuss Voigt Hill
#
# Bulk Modulus (GPa) = 38.10500 52.74856 45.42678
# Shear Modulus (GPa) = 23.93773 27.49954 25.71864
#
# Velocity S-wave (km/s) = 3.53492 3.78879 3.66406
# Velocity P-wave (km/s) = 6.04582 6.83192 6.45086
#
# Compressibility (1/GPa) = 0.02624328
#
# Stress axis : x y z
#
# Youngs Moduli (GPa) = 77.83684 39.10733 87.63013
#
# Poissons Ratio (x) = 0.14755 0.15220
# Poissons Ratio (y) = 0.29367 0.55062
# Poissons Ratio (z) = 0.13519 0.24573
#
# Static dielectric constant tensor:
#      x y z
#    x 1.674260 0.000000 0.014720 
#    y 0.000000 1.647630 0.000000 
#    z 0.014720 0.000000 1.678760 
# 
# From -- ./inp_files/238899.got.cif
#   From: 2010.05.17/outbox.cif.g08.bks.cpg/sg12_120_cif.got.tgz:238899.got - 2010.06.03 13:09:07.
