data_PCOD9204207
_publ_section_title
;
Structure prediction by ZEFSAII (Michael W. Deem and Ramdas Pophale) SiO2 
 PCOD9204207
Probable space group: C 2/M
;
_chemical_formula_sum "Si O2"
_cell_formula_units_Z 48
_cell_length_a 14.428179
_cell_length_b 14.071725
_cell_length_c 11.174649
_cell_angle_alpha 90.000000
_cell_angle_beta 69.008167
_cell_angle_gamma 90.000000
_cell_volume 2118.206260
_symmetry_space_group_name_H-M "C 2/M"
_symmetry_group_IT_number 12
_symmetry_cell_setting 'monoclinic'
loop_
_space_group_symop_operation_xyz
x,y,z
-x,y,-z
-x,-y,-z
x,-y,z
1/2+x,1/2+y,z
1/2-x,1/2+y,-z
1/2-x,1/2-y,-z
1/2+x,1/2-y,z
loop_
_atom_site_type_symbol
_atom_site_label
_atom_site_fract_x
_atom_site_fract_y
_atom_site_fract_z
Si Si1 0.275363 0.389174 0.879526
Si Si2 0.473048 0.111088 0.388526
Si Si3 0.232479 0.615873 0.629141
Si Si4 0.976646 0.188740 0.879420
Si Si5 0.433329 0.386033 0.411936
Si Si6 0.069442 0.605532 0.114987
O O1 0.309047 0.500000 0.855876
O O2 0.254571 0.353003 0.754889
O O3 0.361012 0.330367 0.904346
O O4 0.173911 0.389339 0.001523
O O5 0.500000 0.158200 0.500000
O O6 0.373570 0.147568 0.372094
O O7 0.568715 0.113129 0.258841
O O8 0.450028 0.000000 0.420954
O O9 0.230714 0.500000 0.637410
O O10 0.321908 0.642377 0.500045
O O11 0.993415 0.301652 0.885020
O O12 0.030477 0.154102 0.732856
O O13 0.000000 0.145459 0.000000
O O14 0.500000 0.366394 0.500000
O O15 0.436040 0.500000 0.396836
O O16 0.024422 0.500000 0.112992
#
# Coordination Sequence:
#
# PCOD9204207 Si02
#       6
#     8   8   8   8   8   8
#     4  10  21  41  68  96 128 174 224 271 331 404
#     4   9  19  37  61  92 126 163 216 277 329 386
#     4   9  18  35  66  97 123 165 221 270 324 400
#     4  12  26  40  62 101 142 171 221 286 337 387
#     4  10  20  40  67  95 131 178 224 269 332 408
#     4  10  24  44  67  89 128 182 227 271 333 403
#
# _framework density 22.660682000000001
#
# number of rings (size 3 to 8) (size 9 to 14) (size 15 to 20)
#    0.000    2.000    1.667    1.000    2.333    3.667 
#    0.000    4.167    0.000    0.000    0.000    0.000 
#    0.000    0.000    0.000    0.000    0.000    0.000 
#
# Total GULP energy -133941.663681 kJ/mol
# GULP energy per Si atom -5580.902653 kJ/mol
# Density = 2.260911 g / cm^3
# Si number density = 22.660682 Si / 1000 Ang^3
#
#
#
# Elastic Constant Matrix: (Units=GPa)
#
#
# Indices 1 2 3 4 5 6 
#
# 1 109.1563 13.0595 91.1732 0.0000 11.3608 0.0000
# 2 13.0595 97.4693 41.0203 0.0000 -0.0914 0.0000
# 3 91.1732 41.0203 219.3599 0.0000 14.7706 0.0000
# 4 0.0000 0.0000 0.0000 17.6723 0.0000 -12.3635
# 5 11.3608 -0.0914 14.7706 0.0000 41.7873 0.0000
# 6 0.0000 0.0000 0.0000 -12.3635 0.0000 2.6959
#
#
#
# Elastic Compliance Matrix: (Units=1/GPa)
#
#
# Indices 1 2 3 4 5 6 
#
# 1 0.014195 0.000574 -0.005888 0.000000 -0.001777 0.000000
# 2 0.000574 0.011184 -0.002378 0.000000 0.000709 0.000000
# 3 -0.005888 -0.002378 0.007522 0.000000 -0.001063 0.000000
# 4 0.000000 0.000000 0.000000 -0.025623 0.000000 -0.117509
# 5 -0.001777 0.000709 -0.001063 0.000000 0.024791 0.000000
# 6 0.000000 0.000000 0.000000 -0.117509 0.000000 -0.167967
#
#
# Mechanical properties :
#
#
# Convention : Reuss Voigt Hill
#
# Bulk Modulus (GPa) = 57.08176 79.61018 68.34597
# Shear Modulus (GPa) = -43.60124 31.14660 -6.22732
#
# Velocity S-wave (km/s) = -4.39121 3.71142 -1.65953
# Velocity P-wave (km/s) = 0.68249 7.31942 5.15306
#
# Compressibility (1/GPa) = 0.01751873
#
# Stress axis : x y z
#
# Youngs Moduli (GPa) = 70.44671 89.41285 132.94167
#
# Poissons Ratio (x) = -0.05134 0.78272
# Poissons Ratio (y) = -0.04045 0.31611
# Poissons Ratio (z) = 0.41477 0.21261
#
# Static dielectric constant tensor:
#      x y z
#    x 1.803830 0.000000 0.013810 
#    y 0.000000 1.896010 0.000000 
#    z 0.013810 0.000000 1.861350 
# 
# From -- ./inp_files/142763.got.cif
#   From: 2010.05.17/outbox.cif.g08.bks.cpg/sg12_72_cif.got.tgz:142763.got - 2010.06.03 13:09:07.
