data_PCOD9204399
_publ_section_title
;
Structure prediction by ZEFSAII (Michael W. Deem and Ramdas Pophale) SiO2 
 PCOD9204399
Probable space group: C 2/M
;
_chemical_formula_sum "Si O2"
_cell_formula_units_Z 64
_cell_length_a 9.445749
_cell_length_b 17.612144
_cell_length_c 32.754592
_cell_angle_alpha 90.000000
_cell_angle_beta 142.841775
_cell_angle_gamma 90.000000
_cell_volume 3291.325573
_symmetry_space_group_name_H-M "C 2/M"
_symmetry_group_IT_number 12
_symmetry_cell_setting 'monoclinic'
loop_
_space_group_symop_operation_xyz
x,y,z
-x,y,-z
-x,-y,-z
x,-y,z
1/2+x,1/2+y,z
1/2-x,1/2+y,-z
1/2-x,1/2-y,-z
1/2+x,1/2-y,z
loop_
_atom_site_type_symbol
_atom_site_label
_atom_site_fract_x
_atom_site_fract_y
_atom_site_fract_z
Si Si1 0.943481 0.090630 0.303806
Si Si2 0.171785 0.838502 0.212223
Si Si3 0.741911 0.587733 0.934432
Si Si4 0.971056 0.318132 0.198890
Si Si5 0.642453 0.090658 0.663993
Si Si6 0.402295 0.413449 0.932470
Si Si7 0.764172 0.909681 0.553236
Si Si8 0.217585 0.175477 0.520748
O O1 0.689579 0.125858 0.244516
O O2 0.118443 0.105875 0.306478
O O3 0.070686 0.121715 0.373634
O O4 0.922194 0.000000 0.301743
O O5 0.348045 0.821152 0.215077
O O6 0.303663 0.888657 0.276684
O O7 0.940949 0.876899 0.139430
O O8 0.075147 0.763413 0.211881
O O9 0.775320 0.500000 0.929512
O O10 0.612046 0.589520 0.948064
O O11 0.000000 0.622660 0.000000
O O12 0.780248 0.349600 0.123013
O O13 0.440642 0.143606 0.597529
O O14 0.587237 0.000000 0.646673
O O15 0.302332 0.500000 0.906788
O O16 0.500000 0.402329 0.000000
O O17 0.500000 0.881688 0.500000
O O18 0.841754 0.888995 0.526059
O O19 0.758602 0.000000 0.556777
O O20 0.250000 0.250000 0.500000
O O21 0.000000 0.188420 0.500000
#
# Coordination Sequence:
#
# PCOD9204399 Si02
#       8
#     8   8   8   8   8   8   8   8
#     4  10  22  40  67  92 120 161 203 253 310 373
#     4  11  25  41  62  90 130 168 209 264 312 374
#     4   9  19  38  63  90 121 161 208 257 313 367
#     4  11  24  41  61  91 129 169 210 257 315 372
#     4  11  25  45  68  95 125 161 210 261 314 378
#     4   9  19  37  62  91 123 161 209 260 307 369
#     4  10  20  41  67  92 123 157 202 255 309 369
#     4  12  28  43  65  93 127 167 205 258 312 374
#
# _framework density 19.445053999999999
#
# number of rings (size 3 to 8) (size 9 to 14) (size 15 to 20)
#    0.000    1.625    1.250    2.250    3.500    5.000 
#    0.000    5.000    0.000    0.000    0.000    0.000 
#    0.000    0.000    0.000    0.000    0.000    0.000 
#
# Total GULP energy -178622.212422 kJ/mol
# GULP energy per Si atom -5581.944138 kJ/mol
# Density = 1.940080 g / cm^3
# Si number density = 19.445054 Si / 1000 Ang^3
#
#
#
# Elastic Constant Matrix: (Units=GPa)
#
#
# Indices 1 2 3 4 5 6 
#
# 1 113.1805 44.8998 61.6930 0.0000 2.6400 0.0000
# 2 44.8998 64.2180 43.3855 0.0000 8.0796 0.0000
# 3 61.6930 43.3855 105.7877 0.0000 -6.3909 0.0001
# 4 0.0000 0.0000 0.0000 11.5083 0.0000 -9.1914
# 5 2.6400 8.0796 -6.3909 0.0000 37.0094 0.0000
# 6 0.0000 0.0000 0.0001 -9.1914 0.0000 18.3936
#
#
#
# Elastic Compliance Matrix: (Units=1/GPa)
#
#
# Indices 1 2 3 4 5 6 
#
# 1 0.014529 -0.005952 -0.006079 0.000000 -0.000787 0.000000
# 2 -0.005952 0.025534 -0.007389 0.000000 -0.006426 0.000000
# 3 -0.006079 -0.007389 0.016323 0.000000 0.004865 0.000000
# 4 0.000000 0.000000 0.000000 0.144607 0.000000 0.072260
# 5 -0.000787 -0.006426 0.004865 0.000000 0.029319 0.000000
# 6 0.000000 0.000000 0.000000 0.072260 0.000000 0.090475
#
#
# Mechanical properties :
#
#
# Convention : Reuss Voigt Hill
#
# Bulk Modulus (GPa) = 56.99814 64.79363 60.89589
# Shear Modulus (GPa) = 13.68079 22.26277 17.97178
#
# Velocity S-wave (km/s) = 2.65535 3.38732 3.04342
# Velocity P-wave (km/s) = 6.22714 6.97799 6.61323
#
# Compressibility (1/GPa) = 0.01754443
#
# Stress axis : x y z
#
# Youngs Moduli (GPa) = 68.82883 39.16347 61.26483
#
# Poissons Ratio (x) = 0.23310 0.37245
# Poissons Ratio (y) = 0.40967 0.45269
# Poissons Ratio (z) = 0.41844 0.28938
#
# Static dielectric constant tensor:
#      x y z
#    x 1.754150 0.000000 -0.021450 
#    y 0.000000 1.721650 0.000000 
#    z -0.021450 0.000000 1.739480 
# 
# From -- ./inp_files/372987.got.cif
#   From: 2010.05.17/outbox.cif.g08.bks.cpg/sg12_187_cif.got.tgz:372987.got - 2010.06.03 13:09:07.
