data_PCOD9204845
_publ_section_title
;
Structure prediction by ZEFSAII (Michael W. Deem and Ramdas Pophale) SiO2 
 PCOD9204845
Probable space group: C 2/M
;
_chemical_formula_sum "Si O2"
_cell_formula_units_Z 48
_cell_length_a 28.698656
_cell_length_b 7.330189
_cell_length_c 11.545170
_cell_angle_alpha 90.000000
_cell_angle_beta 121.878646
_cell_angle_gamma 90.000000
_cell_volume 2062.390872
_symmetry_space_group_name_H-M "C 2/M"
_symmetry_group_IT_number 12
_symmetry_cell_setting 'monoclinic'
loop_
_space_group_symop_operation_xyz
x,y,z
-x,y,-z
-x,-y,-z
x,-y,z
1/2+x,1/2+y,z
1/2-x,1/2+y,-z
1/2-x,1/2-y,-z
1/2+x,1/2-y,z
loop_
_atom_site_type_symbol
_atom_site_label
_atom_site_fract_x
_atom_site_fract_y
_atom_site_fract_z
Si Si1 0.085974 0.722800 0.418661
Si Si2 0.522268 0.778568 0.829287
Si Si3 0.416165 0.221662 0.326343
Si Si4 0.185335 0.717530 0.406764
Si Si5 0.872513 0.723348 0.903359
Si Si6 0.313072 0.783483 0.058470
O O1 0.085059 0.500000 0.420352
O O2 0.069809 0.783743 0.526439
O O3 0.146793 0.781271 0.461556
O O4 0.040841 0.778395 0.263894
O O5 0.548351 0.725669 0.738852
O O6 0.522151 0.000000 0.835126
O O7 0.565034 0.719566 0.984252
O O8 0.354251 0.279106 0.212930
O O9 0.419907 0.000000 0.334125
O O10 0.179717 0.500000 0.397227
O O11 0.250000 0.750000 0.500000
O O12 0.156633 0.785946 0.251618
O O13 0.873228 0.500000 0.900966
O O14 0.835589 0.782341 0.964588
O O15 0.320515 0.000000 0.063929
O O16 0.250000 0.750000 0.000000
#
# Coordination Sequence:
#
# PCOD9204845 Si02
#       6
#     8   8   8   8   8   8
#     4   9  16  25  42  68  92 118 152 189 228 272
#     4   8  13  24  43  66  93 119 143 184 242 282
#     4   8  14  24  39  64  94 116 141 186 237 274
#     4  10  21  34  47  66  95 126 158 192 225 269
#     4   8  16  30  44  63  93 123 149 186 234 276
#     4   9  17  28  44  64  89 122 154 184 222 268
#
# _framework density 23.273956999999999
#
# number of rings (size 3 to 8) (size 9 to 14) (size 15 to 20)
#    0.000    3.333    0.000    2.500    2.333    2.667 
#    0.000    3.333    0.000    0.000    0.000    7.000 
#    0.000    6.667    0.000    0.000    0.000    0.000 
#
# Total GULP energy -133896.886804 kJ/mol
# GULP energy per Si atom -5579.036950 kJ/mol
# Density = 2.322098 g / cm^3
# Si number density = 23.273957 Si / 1000 Ang^3
#
#
#
# Elastic Constant Matrix: (Units=GPa)
#
#
# Indices 1 2 3 4 5 6 
#
# 1 57.5740 -5.3355 39.4230 0.0000 26.4396 0.0000
# 2 -5.3355 85.4108 -0.1173 0.0000 -3.9877 0.0000
# 3 39.4230 -0.1173 146.0765 0.0000 11.8898 0.0000
# 4 0.0000 0.0000 0.0000 -9.9092 0.0000 11.8646
# 5 26.4396 -3.9877 11.8898 0.0000 40.4669 0.0000
# 6 0.0000 0.0000 0.0000 11.8646 0.0000 6.1291
#
#
#
# Elastic Compliance Matrix: (Units=1/GPa)
#
#
# Indices 1 2 3 4 5 6 
#
# 1 0.030149 0.001051 -0.006701 0.000000 -0.017626 0.000000
# 2 0.001051 0.011800 -0.000321 0.000000 0.000570 0.000000
# 3 -0.006701 -0.000321 0.008504 0.000000 0.001848 0.000000
# 4 0.000000 0.000000 0.000000 -0.030417 0.000000 0.058880
# 5 -0.017626 0.000570 0.001848 0.000000 0.035741 0.000000
# 6 0.000000 0.000000 0.000000 0.058880 0.000000 0.049176
#
#
# Mechanical properties :
#
#
# Convention : Reuss Voigt Hill
#
# Bulk Modulus (GPa) = 25.96620 39.66686 32.81653
# Shear Modulus (GPa) = 38.54122 24.34343 31.44232
#
# Velocity S-wave (km/s) = 4.07379 3.23763 3.67954
# Velocity P-wave (km/s) = 5.77137 5.57286 5.67298
#
# Compressibility (1/GPa) = 0.03851160
#
# Stress axis : x y z
#
# Youngs Moduli (GPa) = 33.16844 84.74595 117.59823
#
# Poissons Ratio (x) = -0.08909 0.78804
# Poissons Ratio (y) = -0.03487 0.03771
# Poissons Ratio (z) = 0.22227 0.02717
#
# Static dielectric constant tensor:
#      x y z
#    x 1.878120 0.000000 0.016170 
#    y 0.000000 1.942050 0.000000 
#    z 0.016170 0.000000 1.873690 
# 
# From -- ./inp_files/164019.got.cif
#   From: 2010.05.17/outbox.cif.g08.bks.cpg/sg12_83_cif.got.tgz:164019.got - 2010.06.03 13:09:07.
