data_PCOD9204452
_publ_section_title
;
Structure prediction by ZEFSAII (Michael W. Deem and Ramdas Pophale) SiO2 
 PCOD9204452
Probable space group: C 2/M
;
_chemical_formula_sum "Si O2"
_cell_formula_units_Z 64
_cell_length_a 11.187901
_cell_length_b 31.857102
_cell_length_c 16.810145
_cell_angle_alpha 90.000000
_cell_angle_beta 32.647426
_cell_angle_gamma 90.000000
_cell_volume 3232.153470
_symmetry_space_group_name_H-M "C 2/M"
_symmetry_group_IT_number 12
_symmetry_cell_setting 'monoclinic'
loop_
_space_group_symop_operation_xyz
x,y,z
-x,y,-z
-x,-y,-z
x,-y,z
1/2+x,1/2+y,z
1/2-x,1/2+y,-z
1/2-x,1/2-y,-z
1/2+x,1/2-y,z
loop_
_atom_site_type_symbol
_atom_site_label
_atom_site_fract_x
_atom_site_fract_y
_atom_site_fract_z
Si Si1 0.174163 0.098678 0.099510
Si Si2 0.262243 0.452355 0.089054
Si Si3 0.521802 0.636754 0.646355
Si Si4 0.450000 0.841709 0.153944
Si Si5 0.906857 0.158804 0.136398
Si Si6 0.924918 0.231815 0.339605
Si Si7 0.378954 0.751599 0.180846
Si Si8 0.511501 0.873645 0.693915
O O1 0.064228 0.099564 0.247600
O O2 0.013608 0.129524 0.141114
O O3 0.205873 0.059701 0.022237
O O4 0.404654 0.123878 0.972207
O O5 0.179748 0.500000 0.142492
O O6 0.099084 0.418294 0.220957
O O7 0.500000 0.450375 0.000000
O O8 0.309699 0.649585 0.712415
O O9 0.578293 0.680870 0.659282
O O10 0.739358 0.623592 0.476667
O O11 0.507669 0.794857 0.093378
O O12 0.498589 0.846896 0.219616
O O13 0.979699 0.206699 0.104325
O O14 0.644642 0.150810 0.280964
O O15 0.000000 0.143902 0.000000
O O16 0.750000 0.250000 0.500000
O O17 0.861119 0.248879 0.287509
O O18 0.160360 0.244824 0.247651
#
# Coordination Sequence:
#
# PCOD9204452 Si02
#       8
#     8   8   8   8   8   8   8   8
#     4  11  21  40  61  87 124 151 204 243 316 364
#     4  10  20  41  70  95 119 152 194 243 312 391
#     4  11  23  37  58  87 120 165 204 248 306 360
#     4  10  22  39  58  81 121 173 212 247 294 357
#     4  12  21  37  58  86 115 161 205 258 307 354
#     4  11  22  36  51  79 120 168 212 261 314 357
#     4  11  23  35  54  83 118 162 223 269 297 345
#     4  11  21  40  63  89 121 158 201 251 307 371
#
# _framework density 19.80104
#
# number of rings (size 3 to 8) (size 9 to 14) (size 15 to 20)
#    0.000    1.125    5.000    3.375    0.000    5.000 
#    0.000    0.625    0.000   13.500    0.000    0.000 
#    0.000    0.000    0.000    0.000    0.000    0.000 
#
# Total GULP energy -178616.683668 kJ/mol
# GULP energy per Si atom -5581.771365 kJ/mol
# Density = 1.975597 g / cm^3
# Si number density = 19.801040 Si / 1000 Ang^3
#
#
#
# Elastic Constant Matrix: (Units=GPa)
#
#
# Indices 1 2 3 4 5 6 
#
# 1 72.9984 18.4074 26.7305 0.0000 -6.2829 0.0000
# 2 18.4074 107.3226 7.8114 0.0000 -3.4170 0.0000
# 3 26.7305 7.8114 67.1381 0.0000 -5.8566 0.0000
# 4 0.0000 0.0000 0.0000 23.3144 0.0000 -0.8091
# 5 -6.2829 -3.4170 -5.8566 0.0000 31.8865 0.0000
# 6 0.0000 0.0000 0.0000 -0.8091 0.0000 22.5729
#
#
#
# Elastic Compliance Matrix: (Units=1/GPa)
#
#
# Indices 1 2 3 4 5 6 
#
# 1 0.016736 -0.002357 -0.006223 0.000000 0.001902 0.000000
# 2 -0.002357 0.009750 -0.000148 0.000000 0.000553 0.000000
# 3 -0.006223 -0.000148 0.017563 0.000000 0.001984 0.000000
# 4 0.000000 0.000000 0.000000 0.042945 0.000000 0.001539
# 5 0.001902 0.000553 0.001984 0.000000 0.032160 0.000000
# 6 0.000000 0.000000 0.000000 0.001539 0.000000 0.044356
#
#
# Mechanical properties :
#
#
# Convention : Reuss Voigt Hill
#
# Bulk Modulus (GPa) = 37.60372 39.26197 38.43285
# Shear Modulus (GPa) = 26.33941 28.52207 27.43074
#
# Velocity S-wave (km/s) = 3.65115 3.79942 3.72602
# Velocity P-wave (km/s) = 6.06684 6.25450 6.16138
#
# Compressibility (1/GPa) = 0.02659311
#
# Stress axis : x y z
#
# Youngs Moduli (GPa) = 59.75250 102.56072 56.93928
#
# Poissons Ratio (x) = 0.24173 0.35434
# Poissons Ratio (y) = 0.14083 0.00841
# Poissons Ratio (z) = 0.37184 0.01516
#
# Static dielectric constant tensor:
#      x y z
#    x 1.763070 0.000000 -0.016930 
#    y 0.000000 1.693510 0.000000 
#    z -0.016930 0.000000 1.743580 
# 
# From -- ./inp_files/266274.got.cif
#   From: 2010.05.17/outbox.cif.g08.bks.cpg/sg12_134_cif.got.tgz:266274.got - 2010.06.03 13:09:07.
