data_PCOD9204149
_publ_section_title
;
Structure prediction by ZEFSAII (Michael W. Deem and Ramdas Pophale) SiO2 
 PCOD9204149
Probable space group: C 2/M
;
_chemical_formula_sum "Si O2"
_cell_formula_units_Z 56
_cell_length_a 20.385926
_cell_length_b 8.967981
_cell_length_c 25.646908
_cell_angle_alpha 90.000000
_cell_angle_beta 140.308790
_cell_angle_gamma 90.000000
_cell_volume 2994.490219
_symmetry_space_group_name_H-M "C 2/M"
_symmetry_group_IT_number 12
_symmetry_cell_setting 'monoclinic'
loop_
_space_group_symop_operation_xyz
x,y,z
-x,y,-z
-x,-y,-z
x,-y,z
1/2+x,1/2+y,z
1/2-x,1/2+y,-z
1/2-x,1/2-y,-z
1/2+x,1/2-y,z
loop_
_atom_site_type_symbol
_atom_site_label
_atom_site_fract_x
_atom_site_fract_y
_atom_site_fract_z
Si Si1 0.002197 0.679515 0.246659
Si Si2 0.554774 0.821729 0.478598
Si Si3 0.361314 0.178584 0.060690
Si Si4 0.763560 0.677559 0.635804
Si Si5 0.710724 0.823235 0.226399
Si Si6 0.574945 0.321731 0.693978
Si Si7 0.502008 0.322861 0.062362
O O1 0.997681 0.500000 0.249478
O O2 0.936169 0.718476 0.154957
O O3 0.956429 0.755534 0.269727
O O4 0.121837 0.719961 0.312050
O O5 0.500000 0.780301 0.500000
O O6 0.671704 0.765485 0.552616
O O7 0.495256 0.747249 0.394383
O O8 0.550863 0.000000 0.471144
O O9 0.414220 0.239282 0.040871
O O10 0.353440 0.000000 0.054042
O O11 0.250000 0.250000 0.000000
O O12 0.750418 0.500000 0.618944
O O13 0.757951 0.703472 0.694534
O O14 0.807001 0.787601 0.248577
O O15 0.611090 0.729563 0.151473
O O16 0.686361 0.000000 0.207062
O O17 0.563543 0.500000 0.686889
O O18 0.489183 0.500000 0.060645
O O19 0.500000 0.286389 0.000000
#
# Coordination Sequence:
#
# PCOD9204149 Si02
#       7
#     8   8   8   8   8   8   8
#     4  10  23  43  64  88 124 163 202 252 309 367
#     4  11  23  38  60  93 126 159 202 254 311 361
#     4  11  24  44  67  93 127 167 209 257 314 372
#     4  10  20  40  66  88 118 162 205 251 307 363
#     4  10  21  40  64  91 121 161 210 256 308 364
#     4  11  24  40  63  93 124 162 207 253 305 368
#     4  11  25  42  63  95 129 165 209 257 311 369
#
# _framework density 18.701013
#
# number of rings (size 3 to 8) (size 9 to 14) (size 15 to 20)
#    0.000    1.429    2.857    1.714    2.000    5.714 
#    0.000    0.000    0.000    0.000    0.000    0.000 
#    0.000    0.000    0.000    0.000    0.000    0.000 
#
# Total GULP energy -156541.777510 kJ/mol
# GULP energy per Si atom -5590.777768 kJ/mol
# Density = 1.865845 g / cm^3
# Si number density = 18.701013 Si / 1000 Ang^3
#
#
#
# Elastic Constant Matrix: (Units=GPa)
#
#
# Indices 1 2 3 4 5 6 
#
# 1 153.3329 57.4915 48.1104 0.0000 12.7174 0.0000
# 2 57.4915 42.7419 44.5930 0.0000 4.7804 0.0000
# 3 48.1104 44.5930 89.2095 0.0000 17.1595 0.0000
# 4 0.0000 0.0000 0.0000 35.3447 0.0000 1.7339
# 5 12.7174 4.7804 17.1595 0.0000 31.8917 0.0000
# 6 0.0000 0.0000 0.0000 1.7339 0.0000 35.7868
#
#
#
# Elastic Compliance Matrix: (Units=1/GPa)
#
#
# Indices 1 2 3 4 5 6 
#
# 1 0.014421 -0.024510 0.005437 0.000000 -0.005002 0.000000
# 2 -0.024510 0.091790 -0.035581 0.000000 0.015159 0.000000
# 3 0.005437 -0.035581 0.028393 0.000000 -0.012112 0.000000
# 4 0.000000 0.000000 0.000000 0.028360 0.000000 -0.001374
# 5 -0.005002 0.015159 -0.012112 0.000000 0.037595 0.000000
# 6 0.000000 0.000000 0.000000 -0.001374 0.000000 0.028010
#
#
# Mechanical properties :
#
#
# Convention : Reuss Voigt Hill
#
# Bulk Modulus (GPa) = 39.53179 65.07492 52.30335
# Shear Modulus (GPa) = 14.43799 29.61060 22.02430
#
# Velocity S-wave (km/s) = 2.78158 3.98347 3.43550
# Velocity P-wave (km/s) = 5.61258 7.48535 6.61557
#
# Compressibility (1/GPa) = 0.02529610
#
# Stress axis : x y z
#
# Youngs Moduli (GPa) = 69.34562 10.89441 35.21995
#
# Poissons Ratio (x) = 0.26702 -0.19148
# Poissons Ratio (y) = 1.69963 1.25316
# Poissons Ratio (z) = -0.37701 0.38763
#
# Static dielectric constant tensor:
#      x y z
#    x 1.628410 0.000000 0.002880 
#    y 0.000000 1.625010 0.000000 
#    z 0.002880 0.000000 1.618550 
# 
# From -- ./inp_files/363129.got.cif
#   From: 2010.05.17/outbox.cif.g08.bks.cpg/sg12_182_cif.got.tgz:363129.got - 2010.06.03 13:09:07.
