data_PCOD9204511
_publ_section_title
;
Structure prediction by ZEFSAII (Michael W. Deem and Ramdas Pophale) SiO2 
 PCOD9204511
Probable space group: C 2/M
;
_chemical_formula_sum "Si O2"
_cell_formula_units_Z 64
_cell_length_a 28.989470
_cell_length_b 23.155286
_cell_length_c 7.788223
_cell_angle_alpha 90.000000
_cell_angle_beta 33.913401
_cell_angle_gamma 90.000000
_cell_volume 2916.860768
_symmetry_space_group_name_H-M "C 2/M"
_symmetry_group_IT_number 12
_symmetry_cell_setting 'monoclinic'
loop_
_space_group_symop_operation_xyz
x,y,z
-x,y,-z
-x,-y,-z
x,-y,z
1/2+x,1/2+y,z
1/2-x,1/2+y,-z
1/2-x,1/2-y,-z
1/2+x,1/2-y,z
loop_
_atom_site_type_symbol
_atom_site_label
_atom_site_fract_x
_atom_site_fract_y
_atom_site_fract_z
Si Si1 0.550429 0.564497 0.519621
Si Si2 0.257147 0.625502 0.783417
Si Si3 0.756593 0.257475 0.687096
Si Si4 0.584207 0.279689 0.144058
Si Si5 0.161191 0.568807 0.761292
Si Si6 0.734146 0.431582 0.903486
Si Si7 0.076602 0.321012 0.894359
Si Si8 0.569208 0.362252 0.885810
O O1 0.500000 0.563290 0.500000
O O2 0.566150 0.500000 0.531347
O O3 0.639476 0.589089 0.197149
O O4 0.492764 0.593209 0.836780
O O5 0.261102 0.694648 0.757839
O O6 0.202579 0.596104 0.803374
O O7 0.226204 0.603176 0.062047
O O8 0.353890 0.610132 0.450292
O O9 0.750000 0.250000 0.500000
O O10 0.838062 0.296577 0.458015
O O11 0.664531 0.279044 0.017210
O O12 0.500000 0.295916 0.500000
O O13 0.604326 0.324767 0.931815
O O14 0.568266 0.219612 0.090118
O O15 0.141454 0.500000 0.841633
O O16 0.090216 0.613271 0.918255
O O17 0.227350 0.574389 0.402446
O O18 0.739496 0.500000 0.927080
O O19 0.000000 0.317265 0.000000
O O20 0.500000 0.323841 0.000000
#
# Coordination Sequence:
#
# PCOD9204511 Si02
#       8
#     8   8   8   8   8   8   8   8
#     4  10  21  36  53  84 130 170 215 269 323 389
#     4  12  21  41  67  90 132 176 223 274 338 399
#     4  10  20  42  65  93 133 174 220 277 330 411
#     4  11  23  41  66  95 131 173 218 272 332 408
#     4  11  24  44  70  94 128 175 226 285 344 397
#     4  10  23  40  61  96 129 170 228 275 324 399
#     4  11  23  44  69  96 135 176 223 278 345 407
#     4  12  22  35  56  90 128 171 218 263 326 402
#
# _framework density 21.941396999999998
#
# number of rings (size 3 to 8) (size 9 to 14) (size 15 to 20)
#    0.000    1.125    6.250    1.875    0.000    4.500 
#    0.000    1.250    0.000    0.375    0.000    0.000 
#    0.000    0.000    0.000    0.000    0.000    0.000 
#
# Total GULP energy -178656.545253 kJ/mol
# GULP energy per Si atom -5583.017039 kJ/mol
# Density = 2.189146 g / cm^3
# Si number density = 21.941397 Si / 1000 Ang^3
#
#
#
# Elastic Constant Matrix: (Units=GPa)
#
#
# Indices 1 2 3 4 5 6 
#
# 1 97.2306 27.5927 18.5110 0.0000 -23.3281 0.0000
# 2 27.5927 102.9805 3.3377 0.0000 -8.6786 0.0000
# 3 18.5110 3.3377 52.6027 0.0000 -18.2863 0.0000
# 4 0.0000 0.0000 0.0000 23.7097 0.0000 7.4948
# 5 -23.3281 -8.6786 -18.2863 0.0000 39.5751 0.0000
# 6 0.0000 0.0000 0.0000 7.4948 0.0000 16.7358
#
#
#
# Elastic Compliance Matrix: (Units=1/GPa)
#
#
# Indices 1 2 3 4 5 6 
#
# 1 0.012975 -0.002901 -0.002316 0.000000 0.005942 0.000000
# 2 -0.002901 0.010543 0.000668 0.000000 0.000911 0.000000
# 3 -0.002316 0.000668 0.023064 0.000000 0.009438 0.000000
# 4 0.000000 0.000000 0.000000 0.049132 0.000000 -0.022003
# 5 0.005942 0.000911 0.009438 0.000000 0.033332 0.000000
# 6 0.000000 0.000000 0.000000 -0.022003 0.000000 0.069606
#
#
# Mechanical properties :
#
#
# Convention : Reuss Voigt Hill
#
# Bulk Modulus (GPa) = 26.67738 39.07740 32.87739
# Shear Modulus (GPa) = 22.70223 29.56229 26.13226
#
# Velocity S-wave (km/s) = 3.22013 3.67458 3.45483
# Velocity P-wave (km/s) = 5.10005 5.98765 5.56158
#
# Compressibility (1/GPa) = 0.03748494
#
# Stress axis : x y z
#
# Youngs Moduli (GPa) = 77.07419 94.85073 43.35732
#
# Poissons Ratio (x) = 0.27512 0.10042
# Poissons Ratio (y) = 0.22356 -0.02898
# Poissons Ratio (z) = 0.17852 -0.06341
#
# Static dielectric constant tensor:
#      x y z
#    x 1.982010 0.000000 -0.033210 
#    y 0.000000 1.875440 0.000000 
#    z -0.033210 0.000000 1.853070 
# 
# From -- ./inp_files/113612.got.cif
#   From: 2010.05.17/outbox.cif.g08.bks.cpg/sg12_57_cif.got.tgz:113612.got - 2010.06.03 13:09:07.
