data_PCOD9204006
_publ_section_title
;
Structure prediction by ZEFSAII (Michael W. Deem and Ramdas Pophale) SiO2 
 PCOD9204006
Probable space group: C 2/M
;
_chemical_formula_sum "Si O2"
_cell_formula_units_Z 56
_cell_length_a 20.192422
_cell_length_b 11.012802
_cell_length_c 13.105730
_cell_angle_alpha 90.000000
_cell_angle_beta 58.737044
_cell_angle_gamma 90.000000
_cell_volume 2491.203479
_symmetry_space_group_name_H-M "C 2/M"
_symmetry_group_IT_number 12
_symmetry_cell_setting 'monoclinic'
loop_
_space_group_symop_operation_xyz
x,y,z
-x,y,-z
-x,-y,-z
x,-y,z
1/2+x,1/2+y,z
1/2-x,1/2+y,-z
1/2-x,1/2-y,-z
1/2+x,1/2-y,z
loop_
_atom_site_type_symbol
_atom_site_label
_atom_site_fract_x
_atom_site_fract_y
_atom_site_fract_z
Si Si1 0.405903 0.140599 0.518791
Si Si2 0.007446 0.643109 0.760253
Si Si3 0.468595 0.500000 0.680933
Si Si4 0.230552 0.648331 0.929414
Si Si5 0.115327 0.353037 0.848991
Si Si6 0.873586 0.000000 0.542815
Si Si7 0.736832 0.269918 0.393103
Si Si8 0.392181 0.733916 0.739076
O O1 0.439575 0.182587 0.381428
O O2 0.312928 0.153072 0.598515
O O3 0.425582 0.220126 0.603685
O O4 0.426539 0.000000 0.515150
O O5 0.019872 0.500000 0.753896
O O6 0.038017 0.686258 0.847478
O O7 0.918095 0.662159 0.797203
O O8 0.421772 0.500000 0.610069
O O9 0.559242 0.500000 0.594179
O O10 0.439612 0.623297 0.751674
O O11 0.234753 0.500000 0.947448
O O12 0.150455 0.675662 0.933209
O O13 0.305290 0.683792 0.798749
O O14 0.250000 0.750000 0.000000
O O15 0.115515 0.500000 0.849089
O O16 0.183386 0.300196 0.724141
O O17 0.820116 0.884001 0.574767
O O18 0.750000 0.250000 0.500000
#
# Coordination Sequence:
#
# PCOD9204006 Si02
#       8
#     8   8   4   8   8   4   8   8
#     4  11  22  34  53  89 132 175 208 247 291 354
#     4  10  22  37  59  92 133 173 210 248 301 366
#     4  11  22  34  56  84 118 160 211 246 292 359
#     4  11  25  47  74  96 118 155 211 275 335 391
#     4  10  20  40  63  88 122 164 211 262 306 367
#     4  11  22  34  52  84 119 172 216 245 283 353
#     4  12  21  33  54  84 128 170 209 243 291 354
#     4  12  22  40  61  90 126 165 209 252 310 369
#
# _framework density 22.479095000000001
#
# number of rings (size 3 to 8) (size 9 to 14) (size 15 to 20)
#    0.000    1.000    5.714    1.714    3.000    2.286 
#    0.000    0.714    1.571    3.429    0.000    0.000 
#    0.000    0.000    0.000    0.000    0.000    0.000 
#
# Total GULP energy -155877.845887 kJ/mol
# GULP energy per Si atom -5567.065925 kJ/mol
# Density = 2.242793 g / cm^3
# Si number density = 22.479095 Si / 1000 Ang^3
#
#
#
# Elastic Constant Matrix: (Units=GPa)
#
#
# Indices 1 2 3 4 5 6 
#
# 1 125.5219 21.1609 9.4208 0.0000 29.8224 0.0000
# 2 21.1609 74.9569 22.2448 0.0000 20.5885 0.0000
# 3 9.4208 22.2448 65.5591 0.0000 29.8228 0.0000
# 4 0.0000 0.0000 0.0000 25.3642 0.0000 -2.4064
# 5 29.8224 20.5885 29.8228 0.0000 36.2165 0.0000
# 6 0.0000 0.0000 0.0000 -2.4064 0.0000 26.3735
#
#
#
# Elastic Compliance Matrix: (Units=1/GPa)
#
#
# Indices 1 2 3 4 5 6 
#
# 1 0.010552 -0.001039 0.004030 0.000000 -0.011417 0.000000
# 2 -0.001039 0.016084 -0.002459 0.000000 -0.006263 0.000000
# 3 0.004030 -0.002459 0.026194 0.000000 -0.023490 0.000000
# 4 0.000000 0.000000 0.000000 0.039770 0.000000 0.003629
# 5 -0.011417 -0.006263 -0.023490 0.000000 0.059917 0.000000
# 6 0.000000 0.000000 0.000000 0.003629 0.000000 0.038248
#
#
# Mechanical properties :
#
#
# Convention : Reuss Voigt Hill
#
# Bulk Modulus (GPa) = 18.55502 41.29899 29.92700
# Shear Modulus (GPa) = 24.07703 31.80492 27.94098
#
# Velocity S-wave (km/s) = 3.27629 3.76555 3.52941
# Velocity P-wave (km/s) = 4.75231 6.10884 5.47276
#
# Compressibility (1/GPa) = 0.05389379
#
# Stress axis : x y z
#
# Youngs Moduli (GPa) = 94.76985 62.17197 38.17601
#
# Poissons Ratio (x) = 0.06459 -0.15383
# Poissons Ratio (y) = 0.09846 0.09388
# Poissons Ratio (z) = -0.38188 0.15289
#
# Static dielectric constant tensor:
#      x y z
#    x 1.961130 0.000000 0.025550 
#    y 0.000000 2.297740 0.000000 
#    z 0.025550 0.000000 1.827590 
# 
# From -- ./inp_files/165641.got.cif
#   From: 2010.05.17/outbox.cif.g08.bks.cpg/sg12_83_cif.got.tgz:165641.got - 2010.06.03 13:09:07.
