data_PCOD9204936
_publ_section_title
;
Structure prediction by ZEFSAII (Michael W. Deem and Ramdas Pophale) SiO2 
 PCOD9204936
Probable space group: C 2/M
;
_chemical_formula_sum "Si O2"
_cell_formula_units_Z 60
_cell_length_a 19.198095
_cell_length_b 20.433660
_cell_length_c 19.379057
_cell_angle_alpha 90.000000
_cell_angle_beta 20.637295
_cell_angle_gamma 90.000000
_cell_volume 2679.387528
_symmetry_space_group_name_H-M "C 2/M"
_symmetry_group_IT_number 12
_symmetry_cell_setting 'monoclinic'
loop_
_space_group_symop_operation_xyz
x,y,z
-x,y,-z
-x,-y,-z
x,-y,z
1/2+x,1/2+y,z
1/2-x,1/2+y,-z
1/2-x,1/2-y,-z
1/2+x,1/2-y,z
loop_
_atom_site_type_symbol
_atom_site_label
_atom_site_fract_x
_atom_site_fract_y
_atom_site_fract_z
Si Si1 0.486116 0.573402 0.343959
Si Si2 0.670230 0.288239 0.475182
Si Si3 0.766842 0.428582 0.216495
Si Si4 0.735348 0.070823 0.046050
Si Si5 0.947278 0.929794 0.129422
Si Si6 0.134351 0.290906 0.165132
Si Si7 0.000000 0.817833 0.500000
Si Si8 0.485145 0.714951 0.095892
O O1 0.397358 0.500000 0.429621
O O2 0.348563 0.636179 0.483814
O O3 0.658114 0.575479 0.243386
O O4 0.599718 0.579909 0.166265
O O5 0.570242 0.243095 0.625711
O O6 0.512670 0.279211 0.557940
O O7 0.870996 0.264756 0.252644
O O8 0.716984 0.500000 0.293042
O O9 0.682404 0.367550 0.335068
O O10 0.000000 0.424316 0.000000
O O11 0.602029 0.134692 0.171024
O O12 0.638136 0.000000 0.124784
O O13 0.858272 0.068096 0.003121
O O14 0.871335 0.855436 0.210197
O O15 0.840150 0.000000 0.243961
O O16 0.000000 0.931038 0.000000
O O17 0.250000 0.250000 0.000000
O O18 0.294618 0.292645 0.078525
O O19 0.500000 0.731591 0.000000
#
# Coordination Sequence:
#
# PCOD9204936 Si02
#       8
#     8   8   8   8   8   8   4   8
#     4   9  18  34  56  82 116 161 206 246 298 355
#     4  11  22  37  59  86 115 157 198 245 299 354
#     4   9  18  33  55  80 109 149 199 250 296 340
#     4   9  17  34  59  83 116 160 197 239 301 357
#     4   8  15  31  57  87 116 150 194 242 297 360
#     4  11  22  39  60  88 121 157 197 247 298 351
#     4  10  21  34  52  80 117 150 192 242 294 354
#     4  10  22  39  62  91 121 157 200 246 297 359
#
# _framework density 22.393179
#
# number of rings (size 3 to 8) (size 9 to 14) (size 15 to 20)
#    0.000    2.400    1.333    1.000    0.000    3.733 
#    0.000    0.667    0.000    2.000    0.000   10.267 
#    0.000    0.000    0.000    0.000    0.000    0.000 
#
# Total GULP energy -167227.944146 kJ/mol
# GULP energy per Si atom -5574.264805 kJ/mol
# Density = 2.234221 g / cm^3
# Si number density = 22.393179 Si / 1000 Ang^3
#
#
#
# Elastic Constant Matrix: (Units=GPa)
#
#
# Indices 1 2 3 4 5 6 
#
# 1 76.4642 28.3853 20.9604 0.0068 9.7914 -0.0078
# 2 28.3853 167.2576 68.0951 -0.0384 3.8425 0.0069
# 3 20.9604 68.0951 94.8464 -0.0355 0.8230 0.0064
# 4 0.0068 -0.0384 -0.0355 26.1671 -0.0004 11.4870
# 5 9.7914 3.8425 0.8230 -0.0004 19.0278 0.0016
# 6 -0.0078 0.0069 0.0064 11.4870 0.0016 23.0084
#
#
#
# Elastic Compliance Matrix: (Units=1/GPa)
#
#
# Indices 1 2 3 4 5 6 
#
# 1 0.015194 -0.001508 -0.002211 -0.000016 -0.007418 0.000015
# 2 -0.001508 0.008638 -0.005862 0.000007 -0.000715 -0.000005
# 3 -0.002211 -0.005862 0.015226 0.000018 0.001663 -0.000012
# 4 -0.000016 0.000007 0.000018 0.048942 0.000009 -0.024435
# 5 -0.007418 -0.000715 0.001663 0.000009 0.056444 -0.000011
# 6 0.000015 -0.000005 -0.000012 -0.024435 -0.000011 0.055662
#
#
# Mechanical properties :
#
#
# Convention : Reuss Voigt Hill
#
# Bulk Modulus (GPa) = 50.26090 63.71663 56.98876
# Shear Modulus (GPa) = 22.13375 28.38251 25.25813
#
# Velocity S-wave (km/s) = 3.14732 3.56401 3.36212
# Velocity P-wave (km/s) = 5.97503 6.74178 6.36995
#
# Compressibility (1/GPa) = 0.01989618
#
# Stress axis : x y z
#
# Youngs Moduli (GPa) = 65.81651 115.77114 65.67682
#
# Poissons Ratio (x) = 0.17460 0.14519
# Poissons Ratio (y) = 0.09926 0.38500
# Poissons Ratio (z) = 0.14549 0.67865
#
# Static dielectric constant tensor:
#      x y z
#    x 1.917240 -0.000060 0.056600 
#    y -0.000060 1.906380 0.000030 
#    z 0.056600 0.000030 1.858510 
# 
# From -- ./inp_files/322954.got.cif
#   From: 2010.05.17/outbox.cif.g08.bks.cpg/sg12_162_cif.got.tgz:322954.got - 2010.06.03 13:09:07.
