data_PCOD9204573
_publ_section_title
;
Structure prediction by ZEFSAII (Michael W. Deem and Ramdas Pophale) SiO2 
 PCOD9204573
Probable space group: C 2/M
;
_chemical_formula_sum "Si O2"
_cell_formula_units_Z 64
_cell_length_a 10.506144
_cell_length_b 28.275903
_cell_length_c 14.949051
_cell_angle_alpha 90.000000
_cell_angle_beta 45.913077
_cell_angle_gamma 90.000000
_cell_volume 3189.850436
_symmetry_space_group_name_H-M "C 2/M"
_symmetry_group_IT_number 12
_symmetry_cell_setting 'monoclinic'
loop_
_space_group_symop_operation_xyz
x,y,z
-x,y,-z
-x,-y,-z
x,-y,z
1/2+x,1/2+y,z
1/2-x,1/2+y,-z
1/2-x,1/2-y,-z
1/2+x,1/2-y,z
loop_
_atom_site_type_symbol
_atom_site_label
_atom_site_fract_x
_atom_site_fract_y
_atom_site_fract_z
Si Si1 0.789496 0.894208 0.394994
Si Si2 0.136752 0.624485 0.858111
Si Si3 0.110112 0.211841 0.032875
Si Si4 0.859653 0.944334 0.850231
Si Si5 0.691082 0.885838 0.095783
Si Si6 0.442298 0.224606 0.423395
Si Si7 0.532493 0.309079 0.269157
Si Si8 0.964995 0.616181 0.649485
O O1 0.659773 0.886979 0.375477
O O2 0.653415 0.909938 0.539475
O O3 0.952832 0.926019 0.281144
O O4 0.872389 0.843024 0.378138
O O5 0.214340 0.573845 0.849576
O O6 0.297262 0.660171 0.787718
O O7 0.013794 0.621531 0.833062
O O8 0.000000 0.640835 0.000000
O O9 0.007078 0.198242 0.175015
O O10 0.250000 0.250000 0.000000
O O11 0.209596 0.164117 0.954253
O O12 0.000000 0.228315 0.000000
O O13 0.860917 0.000000 0.861406
O O14 0.795979 0.918332 0.973137
O O15 0.660985 0.902962 0.210578
O O16 0.500000 0.226515 0.500000
O O17 0.250000 0.250000 0.500000
O O18 0.557853 0.259931 0.306542
O O19 0.479357 0.171630 0.369949
#
# Coordination Sequence:
#
# PCOD9204573 Si02
#       8
#     8   8   8   8   8   8   8   8
#     4  10  20  43  63  85 129 173 212 267 333 391
#     4   9  19  38  62  91 129 165 206 265 335 401
#     4  12  26  39  62  91 136 182 222 272 331 391
#     4  10  22  43  72  96 124 165 215 273 343 413
#     4  11  23  40  65  97 131 169 217 270 335 392
#     4  12  24  39  60  92 128 181 235 269 316 387
#     4  11  21  38  60  87 131 169 229 271 320 386
#     4  11  22  40  62  88 131 176 218 268 326 383
#
# _framework density 20.063635999999999
#
# number of rings (size 3 to 8) (size 9 to 14) (size 15 to 20)
#    0.000    1.250    6.250    1.500    3.500    3.250 
#    0.000    5.000    0.000    0.750    0.000    0.000 
#    0.000    0.000    0.000    0.000    0.000    0.000 
#
# Total GULP energy -178362.200596 kJ/mol
# GULP energy per Si atom -5573.818769 kJ/mol
# Density = 2.001797 g / cm^3
# Si number density = 20.063636 Si / 1000 Ang^3
#
#
#
# Elastic Constant Matrix: (Units=GPa)
#
#
# Indices 1 2 3 4 5 6 
#
# 1 69.5164 32.9591 16.4114 0.0000 -5.0863 0.0000
# 2 32.9591 47.9951 19.8999 0.0000 4.1646 0.0000
# 3 16.4114 19.8999 81.9579 0.0000 1.6021 0.0000
# 4 0.0000 0.0000 0.0000 16.5798 0.0000 -1.7673
# 5 -5.0863 4.1646 1.6021 0.0000 27.2933 0.0000
# 6 0.0000 0.0000 0.0000 -1.7673 0.0000 -30.9256
#
#
#
# Elastic Compliance Matrix: (Units=1/GPa)
#
#
# Indices 1 2 3 4 5 6 
#
# 1 0.022503 -0.015686 -0.000827 0.000000 0.006636 0.000000
# 2 -0.015686 0.034386 -0.005054 0.000000 -0.007873 0.000000
# 3 -0.000827 -0.005054 0.013598 0.000000 -0.000181 0.000000
# 4 0.000000 0.000000 0.000000 0.059949 0.000000 -0.003426
# 5 0.006636 -0.007873 -0.000181 0.000000 0.039088 0.000000
# 6 0.000000 0.000000 0.000000 -0.003426 0.000000 -0.032140
#
#
# Mechanical properties :
#
#
# Convention : Reuss Voigt Hill
#
# Bulk Modulus (GPa) = 36.56025 37.55666 37.05846
# Shear Modulus (GPa) = 26.36632 11.26942 18.81787
#
# Velocity S-wave (km/s) = 3.62903 2.37256 3.06585
# Velocity P-wave (km/s) = 5.98511 5.12492 5.57164
#
# Compressibility (1/GPa) = 0.02735211
#
# Stress axis : x y z
#
# Youngs Moduli (GPa) = 44.43871 29.08150 73.54160
#
# Poissons Ratio (x) = 0.45617 0.06082
# Poissons Ratio (y) = 0.69707 0.37170
# Poissons Ratio (z) = 0.03675 0.14699
#
# Static dielectric constant tensor:
#      x y z
#    x 1.566840 0.000000 0.090190 
#    y 0.000000 1.702330 0.000000 
#    z 0.090190 0.000000 1.906770 
# 
# From -- ./inp_files/201296.got.cif
#   From: 2010.05.17/outbox.cif.g08.bks.cpg/sg12_101_cif.got.tgz:201296.got - 2010.06.03 13:09:07.
