data_PCOD9204764
_publ_section_title
;
Structure prediction by ZEFSAII (Michael W. Deem and Ramdas Pophale) SiO2 
 PCOD9204764
Probable space group: C 2/M
;
_chemical_formula_sum "Si O2"
_cell_formula_units_Z 56
_cell_length_a 15.002038
_cell_length_b 19.266400
_cell_length_c 9.405382
_cell_angle_alpha 90.000000
_cell_angle_beta 94.006359
_cell_angle_gamma 90.000000
_cell_volume 2711.843917
_symmetry_space_group_name_H-M "C 2/M"
_symmetry_group_IT_number 12
_symmetry_cell_setting 'monoclinic'
loop_
_space_group_symop_operation_xyz
x,y,z
-x,y,-z
-x,-y,-z
x,-y,z
1/2+x,1/2+y,z
1/2-x,1/2+y,-z
1/2-x,1/2-y,-z
1/2+x,1/2-y,z
loop_
_atom_site_type_symbol
_atom_site_label
_atom_site_fract_x
_atom_site_fract_y
_atom_site_fract_z
Si Si1 0.557018 0.422769 0.123260
Si Si2 0.267453 0.080345 0.603333
Si Si3 0.997300 0.257820 0.658116
Si Si4 0.745620 0.583156 0.273194
Si Si5 0.938905 0.100855 0.365458
Si Si6 0.152521 0.694237 0.866354
Si Si7 0.179576 0.288703 0.203396
O O1 0.581738 0.500000 0.069466
O O2 0.646291 0.395521 0.207876
O O3 0.482112 0.429650 0.232011
O O4 0.500000 0.380584 0.000000
O O5 0.271460 0.103854 0.437619
O O6 0.162118 0.081197 0.623624
O O7 0.307294 0.136928 0.716533
O O8 0.299853 0.000000 0.619987
O O9 0.897312 0.252848 0.709341
O O10 0.000000 0.290306 0.500000
O O11 0.044514 0.183241 0.644581
O O12 0.058112 0.296190 0.779894
O O13 0.747455 0.500000 0.273272
O O14 0.811259 0.618387 0.169205
O O15 0.000000 0.076439 0.500000
O O16 0.226689 0.746330 0.801977
O O17 0.149736 0.705138 0.035215
#
# Coordination Sequence:
#
# PCOD9204764 Si02
#       7
#     8   8   8   8   8   8   8
#     4  10  21  33  51  82 123 165 203 249 310 382
#     4  11  23  40  63  94 134 171 217 269 321 390
#     4  11  24  41  67  94 125 166 216 272 323 381
#     4  10  22  39  61  90 126 170 212 266 325 382
#     4  11  21  36  59  94 123 168 210 260 322 381
#     4  11  24  43  65  94 130 171 216 274 321 388
#     4  11  25  42  65  98 130 172 219 268 329 383
#
# _framework density 20.650155999999999
#
# number of rings (size 3 to 8) (size 9 to 14) (size 15 to 20)
#    0.000    1.286    2.857    2.571    4.000    3.429 
#    0.000    0.714    0.000    4.286    0.000    0.000 
#    0.000    0.000    0.000    0.000    0.000    0.000 
#
# Total GULP energy -156185.466649 kJ/mol
# GULP energy per Si atom -5578.052380 kJ/mol
# Density = 2.060316 g / cm^3
# Si number density = 20.650156 Si / 1000 Ang^3
#
#
#
# Elastic Constant Matrix: (Units=GPa)
#
#
# Indices 1 2 3 4 5 6 
#
# 1 41.9742 2.4124 21.9606 0.0000 -0.2847 0.0000
# 2 2.4124 44.1826 23.8288 0.0000 8.9726 0.0000
# 3 21.9606 23.8288 123.2754 0.0000 7.9728 0.0000
# 4 0.0000 0.0000 0.0000 14.6059 0.0000 -17.4664
# 5 -0.2847 8.9726 7.9728 0.0000 33.4911 0.0000
# 6 0.0000 0.0000 0.0000 -17.4664 0.0000 5.0933
#
#
#
# Elastic Compliance Matrix: (Units=1/GPa)
#
#
# Indices 1 2 3 4 5 6 
#
# 1 0.026372 0.001008 -0.004966 0.000000 0.001136 0.000000
# 2 0.001008 0.026423 -0.004905 0.000000 -0.005903 0.000000
# 3 -0.004966 -0.004905 0.010017 0.000000 -0.001113 0.000000
# 4 0.000000 0.000000 0.000000 -0.022079 0.000000 -0.075716
# 5 0.001136 -0.005903 -0.001113 0.000000 0.031715 0.000000
# 6 0.000000 0.000000 0.000000 -0.075716 0.000000 -0.063315
#
#
# Mechanical properties :
#
#
# Convention : Reuss Voigt Hill
#
# Bulk Modulus (GPa) = 22.18080 33.98174 28.08127
# Shear Modulus (GPa) = 119.36698 21.38674 70.37686
#
# Velocity S-wave (km/s) = 7.61117 3.22167 5.84419
# Velocity P-wave (km/s) = 9.38107 5.50732 7.69204
#
# Compressibility (1/GPa) = 0.04508404
#
# Stress axis : x y z
#
# Youngs Moduli (GPa) = 37.91855 37.84652 99.83279
#
# Poissons Ratio (x) = -0.03814 0.49580
# Poissons Ratio (y) = -0.03821 0.48970
# Poissons Ratio (z) = 0.18832 0.18564
#
# Static dielectric constant tensor:
#      x y z
#    x 1.712350 0.000000 0.028290 
#    y 0.000000 1.733370 0.000000 
#    z 0.028290 0.000000 1.788970 
# 
# From -- ./inp_files/64069.got.cif
#   From: 2010.05.17/outbox.cif.g08.bks.cpg/sg12_33_cif.got.tgz:64069.got - 2010.06.03 13:09:07.
