data_PCOD9204219
_publ_section_title
;
Structure prediction by ZEFSAII (Michael W. Deem and Ramdas Pophale) SiO2 
 PCOD9204219
Probable space group: C 2/M
;
_chemical_formula_sum "Si O2"
_cell_formula_units_Z 48
_cell_length_a 21.302999
_cell_length_b 15.011507
_cell_length_c 7.687689
_cell_angle_alpha 90.000000
_cell_angle_beta 107.546339
_cell_angle_gamma 90.000000
_cell_volume 2344.063890
_symmetry_space_group_name_H-M "C 2/M"
_symmetry_group_IT_number 12
_symmetry_cell_setting 'monoclinic'
loop_
_space_group_symop_operation_xyz
x,y,z
-x,y,-z
-x,-y,-z
x,-y,z
1/2+x,1/2+y,z
1/2-x,1/2+y,-z
1/2-x,1/2-y,-z
1/2+x,1/2-y,z
loop_
_atom_site_type_symbol
_atom_site_label
_atom_site_fract_x
_atom_site_fract_y
_atom_site_fract_z
Si Si1 0.065154 0.703775 0.674836
Si Si2 0.426059 0.000000 0.359903
Si Si3 0.196941 0.000000 0.587037
Si Si4 0.564466 0.647654 0.947032
Si Si5 0.704366 0.332599 0.137532
Si Si6 0.567583 0.500000 0.653968
Si Si7 0.779725 0.500000 0.306845
Si Si8 0.196727 0.198319 0.724040
O O1 0.077990 0.599178 0.726711
O O2 0.054755 0.756926 0.846236
O O3 0.127407 0.751236 0.627160
O O4 0.000000 0.711120 0.500000
O O5 0.500000 0.000000 0.500000
O O6 0.357302 0.000000 0.411179
O O7 0.235365 0.000000 0.440946
O O8 0.210013 0.096603 0.683257
O O9 0.118583 0.000000 0.538529
O O10 0.575447 0.582460 0.791741
O O11 0.500000 0.622216 0.000000
O O12 0.629475 0.643623 0.122745
O O13 0.754643 0.414418 0.181115
O O14 0.740625 0.257368 0.278483
O O15 0.695440 0.300924 0.932714
O O16 0.500000 0.500000 0.500000
#
# Coordination Sequence:
#
# PCOD9204219 Si02
#       8
#     8   4   4   8   8   4   4   8
#     4  10  20  40  68  87 121 166 206 253 309 370
#     4  10  22  44  64  89 124 164 211 252 317 361
#     4  12  25  39  60  95 130 156 209 252 310 373
#     4  11  24  41  61  95 125 165 209 253 307 373
#     4  10  21  40  63  87 122 161 212 251 311 364
#     4  12  24  40  62  90 132 172 202 247 316 373
#     4  12  24  37  66  97 120 165 206 264 305 362
#     4  10  21  41  63  88 120 166 202 254 314 371
#
# _framework density 20.477257000000002
#
# number of rings (size 3 to 8) (size 9 to 14) (size 15 to 20)
#    0.000    1.333    5.000    1.750    2.333    0.667 
#    6.000    0.417    0.000    0.000    0.000    0.000 
#    0.000    0.000    0.000    0.000    0.000    0.000 
#
# Total GULP energy -133614.459775 kJ/mol
# GULP energy per Si atom -5567.269157 kJ/mol
# Density = 2.043065 g / cm^3
# Si number density = 20.477257 Si / 1000 Ang^3
#
#
#
# Elastic Constant Matrix: (Units=GPa)
#
#
# Indices 1 2 3 4 5 6 
#
# 1 144.1857 13.5852 37.7097 0.0000 34.0809 0.0000
# 2 13.5852 143.4223 15.6690 0.0000 27.2034 0.0000
# 3 37.7097 15.6690 39.9710 0.0000 18.6017 0.0000
# 4 0.0000 0.0000 0.0000 21.7664 0.0000 -0.2770
# 5 34.0809 27.2034 18.6017 0.0000 31.9437 0.0000
# 6 0.0000 0.0000 0.0000 -0.2770 0.0000 32.3629
#
#
#
# Elastic Compliance Matrix: (Units=1/GPa)
#
#
# Indices 1 2 3 4 5 6 
#
# 1 0.010535 0.001343 -0.006451 0.000000 -0.008628 0.000000
# 2 0.001343 0.008487 -0.000773 0.000000 -0.008210 0.000000
# 3 -0.006451 -0.000773 0.038269 0.000000 -0.014744 0.000000
# 4 0.000000 0.000000 0.000000 0.045947 0.000000 0.000393
# 5 -0.008628 -0.008210 -0.014744 0.000000 0.056088 0.000000
# 6 0.000000 0.000000 0.000000 0.000393 0.000000 0.030903
#
#
# Mechanical properties :
#
#
# Convention : Reuss Voigt Hill
#
# Bulk Modulus (GPa) = 21.96379 51.27854 36.62117
# Shear Modulus (GPa) = 23.02374 34.58894 28.80634
#
# Velocity S-wave (km/s) = 3.35678 4.11437 3.75473
# Velocity P-wave (km/s) = 5.07673 6.90412 6.05970
#
# Compressibility (1/GPa) = 0.04552947
#
# Stress axis : x y z
#
# Youngs Moduli (GPa) = 94.91858 117.82804 26.13101
#
# Poissons Ratio (x) = -0.15827 0.16856
# Poissons Ratio (y) = -0.12750 0.02021
# Poissons Ratio (z) = 0.61229 0.09112
#
# Static dielectric constant tensor:
#      x y z
#    x 1.812350 0.000000 0.013430 
#    y 0.000000 1.845440 0.000000 
#    z 0.013430 0.000000 1.713610 
# 
# From -- ./inp_files/86014.got.cif
#   From: 2010.05.17/outbox.cif.g08.bks.cpg/sg12_44_cif.got.tgz:86014.got - 2010.06.03 13:09:07.
