data_PCOD9204867
_publ_section_title
;
Structure prediction by ZEFSAII (Michael W. Deem and Ramdas Pophale) SiO2 
 PCOD9204867
Probable space group: C 2/M
;
_chemical_formula_sum "Si O2"
_cell_formula_units_Z 64
_cell_length_a 14.609511
_cell_length_b 7.616907
_cell_length_c 31.180543
_cell_angle_alpha 90.000000
_cell_angle_beta 62.261311
_cell_angle_gamma 90.000000
_cell_volume 3071.003475
_symmetry_space_group_name_H-M "C 2/M"
_symmetry_group_IT_number 12
_symmetry_cell_setting 'monoclinic'
loop_
_space_group_symop_operation_xyz
x,y,z
-x,y,-z
-x,-y,-z
x,-y,z
1/2+x,1/2+y,z
1/2-x,1/2+y,-z
1/2-x,1/2-y,-z
1/2+x,1/2-y,z
loop_
_atom_site_type_symbol
_atom_site_label
_atom_site_fract_x
_atom_site_fract_y
_atom_site_fract_z
Si Si1 0.220658 0.710045 0.133443
Si Si2 0.133261 0.210193 0.509515
Si Si3 0.192227 0.793539 0.406734
Si Si4 0.921508 0.212947 0.387401
Si Si5 0.506131 0.710216 0.135066
Si Si6 0.642949 0.289496 0.323161
Si Si7 0.442501 0.285193 0.055216
Si Si8 0.214419 0.789235 0.788049
O O1 0.229367 0.500000 0.133530
O O2 0.113399 0.749448 0.134206
O O3 0.322816 0.771104 0.085653
O O4 0.229646 0.774964 0.180566
O O5 0.250000 0.250000 0.500000
O O6 0.129405 0.279924 0.461705
O O7 0.067288 0.268969 0.564921
O O8 0.119427 0.000000 0.509704
O O9 0.313621 0.779719 0.392180
O O10 0.174916 0.719878 0.363145
O O11 0.165117 0.000000 0.410846
O O12 0.024982 0.269242 0.340395
O O13 0.914101 0.000000 0.388607
O O14 0.498032 0.500000 0.135067
O O15 0.496906 0.771169 0.087761
O O16 0.404280 0.774507 0.182768
O O17 0.638698 0.500000 0.327315
O O18 0.723270 0.251929 0.268245
O O19 0.443984 0.500000 0.053931
O O20 0.500000 0.224003 0.000000
O O21 0.211172 0.000000 0.790900
#
# Coordination Sequence:
#
# PCOD9204867 Si02
#       8
#     8   8   8   8   8   8   8   8
#     4   9  18  33  53  75  98 129 168 203 238 283
#     4   8  14  27  47  67  90 120 150 183 227 281
#     4   9  18  32  49  70  95 122 153 190 234 285
#     4   9  18  32  49  70  95 122 153 190 234 285
#     4   9  18  33  53  75  98 129 168 203 238 283
#     4  10  21  34  49  72  97 121 156 201 244 284
#     4   8  15  30  51  75 106 139 165 193 235 288
#     4   9  20  37  51  66  94 130 164 198 240 290
#
# _framework density 20.840094000000001
#
# number of rings (size 3 to 8) (size 9 to 14) (size 15 to 20)
#    0.000    3.125    0.000    1.500    0.000    4.000 
#    0.000    9.375    0.000    0.750    0.000    9.625 
#    0.000    0.000    0.000    0.000    0.000    0.000 
#
# Total GULP energy -178395.287089 kJ/mol
# GULP energy per Si atom -5574.852722 kJ/mol
# Density = 2.079266 g / cm^3
# Si number density = 20.840094 Si / 1000 Ang^3
#
#
#
# Elastic Constant Matrix: (Units=GPa)
#
#
# Indices 1 2 3 4 5 6 
#
# 1 122.8462 -2.2469 68.7364 0.0000 -7.3025 0.0000
# 2 -2.2469 40.7922 4.0687 0.0000 0.0226 0.0000
# 3 68.7364 4.0687 168.0723 0.0000 -12.8232 0.0000
# 4 0.0000 0.0000 0.0000 15.4461 0.0000 0.8732
# 5 -7.3025 0.0226 -12.8232 0.0000 14.7890 0.0000
# 6 0.0000 0.0000 0.0000 0.8732 0.0000 18.8828
#
#
#
# Elastic Compliance Matrix: (Units=1/GPa)
#
#
# Indices 1 2 3 4 5 6 
#
# 1 0.010631 0.001009 -0.004253 0.000000 0.001560 0.000000
# 2 0.001009 0.024674 -0.001044 0.000000 -0.000445 0.000000
# 3 -0.004253 -0.001044 0.008090 0.000000 0.004916 0.000000
# 4 0.000000 0.000000 0.000000 0.064911 0.000000 -0.003002
# 5 0.001560 -0.000445 0.004916 0.000000 0.072651 0.000000
# 6 0.000000 0.000000 0.000000 -0.003002 0.000000 0.053097
#
#
# Mechanical properties :
#
#
# Convention : Reuss Voigt Hill
#
# Bulk Modulus (GPa) = 28.72000 52.53636 40.62818
# Shear Modulus (GPa) = 19.66666 27.23374 23.45020
#
# Velocity S-wave (km/s) = 3.07529 3.61888 3.35811
# Velocity P-wave (km/s) = 5.14013 6.53649 5.87991
#
# Compressibility (1/GPa) = 0.03481895
#
# Stress axis : x y z
#
# Youngs Moduli (GPa) = 94.06196 40.52774 123.61559
#
# Poissons Ratio (x) = -0.04089 0.52577
# Poissons Ratio (y) = -0.09490 0.12904
# Poissons Ratio (z) = 0.40007 0.04231
#
# Static dielectric constant tensor:
#      x y z
#    x 1.749290 0.000000 -0.002950 
#    y 0.000000 1.830810 0.000000 
#    z -0.002950 0.000000 1.754490 
# 
# From -- ./inp_files/375061.got.cif
#   From: 2010.05.17/outbox.cif.g08.bks.cpg/sg12_188_cif.got.tgz:375061.got - 2010.06.03 13:09:07.
