data_PCOD9204912
_publ_section_title
;
Structure prediction by ZEFSAII (Michael W. Deem and Ramdas Pophale) SiO2 
 PCOD9204912
Probable space group: C 2/M
;
_chemical_formula_sum "Si O2"
_cell_formula_units_Z 48
_cell_length_a 21.745622
_cell_length_b 9.938034
_cell_length_c 11.222829
_cell_angle_alpha 90.000000
_cell_angle_beta 89.556074
_cell_angle_gamma 90.000000
_cell_volume 2425.278533
_symmetry_space_group_name_H-M "C 2/M"
_symmetry_group_IT_number 12
_symmetry_cell_setting 'monoclinic'
loop_
_space_group_symop_operation_xyz
x,y,z
-x,y,-z
-x,-y,-z
x,-y,z
1/2+x,1/2+y,z
1/2-x,1/2+y,-z
1/2-x,1/2-y,-z
1/2+x,1/2-y,z
loop_
_atom_site_type_symbol
_atom_site_label
_atom_site_fract_x
_atom_site_fract_y
_atom_site_fract_z
Si Si1 0.538622 0.348059 0.834778
Si Si2 0.153527 0.780674 0.979863
Si Si3 0.937632 0.838013 0.435772
Si Si4 0.356632 0.662865 0.649629
Si Si5 0.571847 0.845480 0.162198
Si Si6 0.247768 0.849735 0.182365
O O1 0.511482 0.500000 0.827634
O O2 0.595774 0.354076 0.923056
O O3 0.561957 0.304553 0.703048
O O4 0.489139 0.236483 0.870785
O O5 0.198977 0.740832 0.872683
O O6 0.121469 0.660348 0.054408
O O7 0.195077 0.851375 0.079799
O O8 0.878137 0.803337 0.515750
O O9 0.000000 0.787803 0.500000
O O10 0.940972 0.000000 0.438939
O O11 0.365577 0.500000 0.667798
O O12 0.399947 0.753465 0.732851
O O13 0.287909 0.692743 0.697295
O O14 0.560292 0.000000 0.195441
O O15 0.271748 0.000000 0.198401
#
# Coordination Sequence:
#
# PCOD9204912 Si02
#       6
#     8   8   8   8   8   8
#     4  11  22  36  56  81 109 141 181 223 262 318
#     4  10  21  34  51  78 108 141 178 220 267 313
#     4   9  16  31  56  82 107 136 174 222 268 308
#     4   9  17  34  59  82 104 139 185 220 258 315
#     4  11  22  34  52  79 114 146 173 217 274 320
#     4   9  18  34  55  75 101 140 181 219 261 317
#
# _framework density 19.791540999999999
#
# number of rings (size 3 to 8) (size 9 to 14) (size 15 to 20)
#    0.000    2.167    1.667    2.000    0.000    4.667 
#    0.000    3.333    0.000    0.000    0.000    0.000 
#    0.000    0.000    0.000    0.000    0.000    0.000 
#
# Total GULP energy -133668.053215 kJ/mol
# GULP energy per Si atom -5569.502217 kJ/mol
# Density = 1.974649 g / cm^3
# Si number density = 19.791541 Si / 1000 Ang^3
#
#
#
# Elastic Constant Matrix: (Units=GPa)
#
#
# Indices 1 2 3 4 5 6 
#
# 1 65.6189 27.5072 16.9017 0.0000 -26.5589 0.0000
# 2 27.5072 82.4630 7.4166 0.0000 -10.4045 0.0000
# 3 16.9017 7.4166 77.4265 0.0000 -32.5938 0.0000
# 4 0.0000 0.0000 0.0000 12.3187 0.0000 -5.6152
# 5 -26.5589 -10.4045 -32.5938 0.0000 40.9321 0.0000
# 6 0.0000 0.0000 0.0000 -5.6152 0.0000 9.8405
#
#
#
# Elastic Compliance Matrix: (Units=1/GPa)
#
#
# Indices 1 2 3 4 5 6 
#
# 1 0.023433 -0.006074 0.001831 0.000000 0.015119 0.000000
# 2 -0.006074 0.014105 -0.000263 0.000000 -0.000565 0.000000
# 3 0.001831 -0.000263 0.019575 0.000000 0.016708 0.000000
# 4 0.000000 0.000000 0.000000 0.109715 0.000000 0.062606
# 5 0.015119 -0.000565 0.016708 0.000000 0.047402 0.000000
# 6 0.000000 0.000000 0.000000 0.062606 0.000000 0.137346
#
#
# Mechanical properties :
#
#
# Convention : Reuss Voigt Hill
#
# Bulk Modulus (GPa) = 20.78959 36.57327 28.68143
# Shear Modulus (GPa) = 13.27597 24.19711 18.73654
#
# Velocity S-wave (km/s) = 2.59277 3.50036 3.08018
# Velocity P-wave (km/s) = 4.41479 5.90390 5.21279
#
# Compressibility (1/GPa) = 0.04810100
#
# Stress axis : x y z
#
# Youngs Moduli (GPa) = 42.67433 70.89663 51.08673
#
# Poissons Ratio (x) = 0.43061 -0.09354
# Poissons Ratio (y) = 0.25919 0.01344
# Poissons Ratio (z) = -0.07814 0.01866
#
# Static dielectric constant tensor:
#      x y z
#    x 1.719950 0.000000 -0.024490 
#    y 0.000000 1.674010 0.000000 
#    z -0.024490 0.000000 1.729560 
# 
# From -- ./inp_files/172244.got.cif
#   From: 2010.05.17/outbox.cif.g08.bks.cpg/sg12_87_cif.got.tgz:172244.got - 2010.06.03 13:09:07.
