data_PCOD9204602
_publ_section_title
;
Structure prediction by ZEFSAII (Michael W. Deem and Ramdas Pophale) SiO2 
 PCOD9204602
Probable space group: C 2/M
;
_chemical_formula_sum "Si O2"
_cell_formula_units_Z 38
_cell_length_a 12.182381
_cell_length_b 20.162153
_cell_length_c 10.025129
_cell_angle_alpha 90.000000
_cell_angle_beta 122.508204
_cell_angle_gamma 90.000000
_cell_volume 2076.579789
_symmetry_space_group_name_H-M "C 2/M"
_symmetry_group_IT_number 12
_symmetry_cell_setting 'monoclinic'
loop_
_space_group_symop_operation_xyz
x,y,z
-x,y,-z
-x,-y,-z
x,-y,z
1/2+x,1/2+y,z
1/2-x,1/2+y,-z
1/2-x,1/2-y,-z
1/2+x,1/2-y,z
loop_
_atom_site_type_symbol
_atom_site_label
_atom_site_fract_x
_atom_site_fract_y
_atom_site_fract_z
Si Si1 0.349733 0.818634 0.921240
Si Si2 0.500000 0.735114 0.500000
Si Si3 0.000000 0.000000 0.500000
Si Si4 0.845090 0.577417 0.425132
Si Si5 0.707366 0.813923 0.806502
Si Si6 0.304295 0.622792 0.420214
O O1 0.318575 0.741783 0.865645
O O2 0.264046 0.862683 0.765724
O O3 0.500000 0.833548 0.000000
O O4 0.311917 0.827826 0.050465
O O5 0.580019 0.778948 0.657586
O O6 0.396650 0.686720 0.505425
O O7 0.893999 0.058432 0.470084
O O8 0.809152 0.500000 0.402791
O O9 0.773616 0.619106 0.263350
O O10 0.802691 0.611557 0.535560
O O11 0.000000 0.580929 0.500000
#
# Coordination Sequence:
#
# PCOD9204602 Si02
#       6
#     8   4   2   8   8   8
#     4  10  22  37  59  89 123 157 194 256 306 352
#     4   9  20  35  67  90 111 158 214 258 291 352
#     4  10  20  44  64  86 118 154 212 244 286 370
#     4  11  22  37  59  89 123 160 202 247 296 361
#     4  10  21  38  57  91 122 156 203 250 305 354
#     4  10  21  39  65  89 116 161 206 250 298 353
#
# _framework density 18.299320999999999
#
# number of rings (size 3 to 8) (size 9 to 14) (size 15 to 20)
#    0.000    1.895    2.105    1.263    2.947    1.684 
#    1.895    0.526    0.000    1.895    0.000    0.000 
#    0.000    0.000    0.000    0.000    0.000    0.000 
#
# Total GULP energy -105775.824412 kJ/mol
# GULP energy per Si atom -5567.148653 kJ/mol
# Density = 1.825767 g / cm^3
# Si number density = 18.299321 Si / 1000 Ang^3
#
#
#
# Elastic Constant Matrix: (Units=GPa)
#
#
# Indices 1 2 3 4 5 6 
#
# 1 78.1918 14.4087 16.2104 0.0000 -10.1282 0.0000
# 2 14.4087 87.7013 32.5708 0.0000 -18.9809 0.0000
# 3 16.2104 32.5708 78.2319 0.0000 -15.6425 0.0000
# 4 0.0000 0.0000 0.0000 -0.7110 0.0000 18.4147
# 5 -10.1282 -18.9809 -15.6425 0.0000 24.5297 0.0000
# 6 0.0000 0.0000 0.0000 18.4147 0.0000 -19.4892
#
#
#
# Elastic Compliance Matrix: (Units=1/GPa)
#
#
# Indices 1 2 3 4 5 6 
#
# 1 0.013809 -0.000753 -0.001747 0.000000 0.004005 0.000000
# 2 -0.000753 0.014994 -0.004388 0.000000 0.008493 0.000000
# 3 -0.001747 -0.004388 0.016216 0.000000 0.006224 0.000000
# 4 0.000000 0.000000 0.000000 0.059922 0.000000 0.056618
# 5 0.004005 0.008493 0.006224 0.000000 0.052961 0.000000
# 6 0.000000 0.000000 0.000000 0.056618 0.000000 0.002186
#
#
# Mechanical properties :
#
#
# Convention : Reuss Voigt Hill
#
# Bulk Modulus (GPa) = 32.00847 41.16719 36.58783
# Shear Modulus (GPa) = 27.13294 12.92827 20.03061
#
# Velocity S-wave (km/s) = 3.85480 2.66087 3.31208
# Velocity P-wave (km/s) = 6.11083 5.65559 5.88761
#
# Compressibility (1/GPa) = 0.03124173
#
# Stress axis : x y z
#
# Youngs Moduli (GPa) = 72.41774 66.69387 61.66759
#
# Poissons Ratio (x) = 0.05023 0.10773
# Poissons Ratio (y) = 0.05454 0.27062
# Poissons Ratio (z) = 0.12651 0.29267
#
# Static dielectric constant tensor:
#      x y z
#    x 1.640700 0.000000 0.006050 
#    y 0.000000 1.623910 0.000000 
#    z 0.006050 0.000000 1.618460 
# 
# From -- ./inp_files/48914.got.cif
#   From: 2010.05.17/outbox.cif.g08.bks.cpg/sg12_25_cif.got.tgz:48914.got - 2010.06.03 13:09:07.
