data_PCOD9204387
_publ_section_title
;
Structure prediction by ZEFSAII (Michael W. Deem and Ramdas Pophale) SiO2 
 PCOD9204387
Probable space group: C 2/M
;
_chemical_formula_sum "Si O2"
_cell_formula_units_Z 56
_cell_length_a 9.456527
_cell_length_b 15.506647
_cell_length_c 19.793860
_cell_angle_alpha 90.000000
_cell_angle_beta 62.706364
_cell_angle_gamma 90.000000
_cell_volume 2579.405889
_symmetry_space_group_name_H-M "C 2/M"
_symmetry_group_IT_number 12
_symmetry_cell_setting 'monoclinic'
loop_
_space_group_symop_operation_xyz
x,y,z
-x,y,-z
-x,-y,-z
x,-y,z
1/2+x,1/2+y,z
1/2-x,1/2+y,-z
1/2-x,1/2-y,-z
1/2+x,1/2-y,z
loop_
_atom_site_type_symbol
_atom_site_label
_atom_site_fract_x
_atom_site_fract_y
_atom_site_fract_z
Si Si1 0.379336 0.604498 0.803464
Si Si2 0.942073 0.667542 0.365986
Si Si3 0.866330 0.500000 0.473142
Si Si4 0.338008 0.402239 0.065267
Si Si5 0.683463 0.836324 0.978572
Si Si6 0.263588 0.396877 0.226696
Si Si7 0.985774 0.000000 0.422966
Si Si8 0.359574 0.325878 0.661818
O O1 0.355442 0.500000 0.800220
O O2 0.286490 0.635477 0.890966
O O3 0.568512 0.619307 0.773373
O O4 0.329925 0.659731 0.748502
O O5 0.106012 0.638798 0.294760
O O6 0.005634 0.755268 0.386145
O O7 0.883627 0.587238 0.424590
O O8 0.802963 0.689361 0.343388
O O9 0.700865 0.500000 0.549345
O O10 0.000000 0.500000 0.500000
O O11 0.381568 0.500000 0.075422
O O12 0.279966 0.360749 0.146950
O O13 0.500000 0.363917 0.000000
O O14 0.210869 0.402795 0.033856
O O15 0.500000 0.830988 0.000000
O O16 0.750000 0.750000 0.000000
O O17 0.241616 0.500000 0.230218
O O18 0.000000 0.000000 0.500000
O O19 0.070461 0.916966 0.375789
#
# Coordination Sequence:
#
# PCOD9204387 Si02
#       8
#     8   8   4   8   8   8   4   8
#     4  11  25  46  74 105 142 194 251 311 379 449
#     4  12  27  49  73 117 151 198 248 302 379 447
#     4  12  30  50  86 114 156 192 248 300 374 465
#     4  10  20  41  66  93 129 176 231 291 358 422
#     4  12  28  43  64  96 141 188 247 310 374 434
#     4  10  22  41  73 100 141 188 241 300 365 444
#     4  12  26  56  80 110 152 196 236 311 378 443
#     4  12  28  47  78 109 155 197 253 308 377 452
#
# _framework density 21.710425999999998
#
# number of rings (size 3 to 8) (size 9 to 14) (size 15 to 20)
#    0.000    0.714    4.286    1.714    8.000    2.286 
#    0.000    0.000    0.000    0.000    0.000    0.000 
#    0.000    0.000    0.000    0.000    0.000    0.000 
#
# Total GULP energy -156500.103345 kJ/mol
# GULP energy per Si atom -5589.289405 kJ/mol
# Density = 2.166101 g / cm^3
# Si number density = 21.710426 Si / 1000 Ang^3
#
#
#
# Elastic Constant Matrix: (Units=GPa)
#
#
# Indices 1 2 3 4 5 6 
#
# 1 155.6726 27.5047 4.3443 0.0000 -1.9595 0.0000
# 2 27.5047 111.1912 10.7991 0.0000 -1.8419 0.0000
# 3 4.3443 10.7991 42.4887 0.0000 3.8374 0.0000
# 4 0.0000 0.0000 0.0000 -12.9682 0.0000 -14.9267
# 5 -1.9595 -1.8419 3.8374 0.0000 43.2430 0.0000
# 6 0.0000 0.0000 0.0000 -14.9267 0.0000 11.6291
#
#
#
# Elastic Compliance Matrix: (Units=1/GPa)
#
#
# Indices 1 2 3 4 5 6 
#
# 1 0.006723 -0.001630 -0.000297 0.000000 0.000262 0.000000
# 2 -0.001630 0.009632 -0.002331 0.000000 0.000543 0.000000
# 3 -0.000297 -0.002331 0.024364 0.000000 -0.002275 0.000000
# 4 0.000000 0.000000 0.000000 -0.031126 0.000000 -0.039952
# 5 0.000262 0.000543 -0.002275 0.000000 0.023362 0.000000
# 6 0.000000 0.000000 0.000000 -0.039952 0.000000 0.034710
#
#
# Mechanical properties :
#
#
# Convention : Reuss Voigt Hill
#
# Bulk Modulus (GPa) = 31.05140 43.84984 37.45062
# Shear Modulus (GPa) = 57.52764 26.16108 41.84436
#
# Velocity S-wave (km/s) = 5.15318 3.47508 4.39496
# Velocity P-wave (km/s) = 7.05270 6.02852 6.56062
#
# Compressibility (1/GPa) = 0.03220466
#
# Stress axis : x y z
#
# Youngs Moduli (GPa) = 148.73653 103.82011 41.04448
#
# Poissons Ratio (x) = 0.16922 0.01218
# Poissons Ratio (y) = 0.24243 0.09565
# Poissons Ratio (z) = 0.04414 0.24195
#
# Static dielectric constant tensor:
#      x y z
#    x 1.685820 0.000000 0.069800 
#    y 0.000000 1.995410 0.000000 
#    z 0.069800 0.000000 1.840570 
# 
# From -- ./inp_files/257091.got.cif
#   From: 2010.05.17/outbox.cif.g08.bks.cpg/sg12_129_cif.got.tgz:257091.got - 2010.06.03 13:09:07.
