data_PCOD9204167
_publ_section_title
;
Structure prediction by ZEFSAII (Michael W. Deem and Ramdas Pophale) SiO2 
 PCOD9204167
Probable space group: C 2/M
;
_chemical_formula_sum "Si O2"
_cell_formula_units_Z 48
_cell_length_a 11.489329
_cell_length_b 22.043736
_cell_length_c 11.628815
_cell_angle_alpha 90.000000
_cell_angle_beta 49.060543
_cell_angle_gamma 90.000000
_cell_volume 2224.813897
_symmetry_space_group_name_H-M "C 2/M"
_symmetry_group_IT_number 12
_symmetry_cell_setting 'monoclinic'
loop_
_space_group_symop_operation_xyz
x,y,z
-x,y,-z
-x,-y,-z
x,-y,z
1/2+x,1/2+y,z
1/2-x,1/2+y,-z
1/2-x,1/2-y,-z
1/2+x,1/2-y,z
loop_
_atom_site_type_symbol
_atom_site_label
_atom_site_fract_x
_atom_site_fract_y
_atom_site_fract_z
Si Si1 0.530487 0.866536 0.165023
Si Si2 0.855641 0.747026 0.167126
Si Si3 0.662451 0.857753 0.329229
Si Si4 0.224005 0.931819 0.373680
Si Si5 0.691482 0.358017 0.171007
Si Si6 0.413677 0.430359 0.282189
O O1 0.434022 0.806137 0.192466
O O2 0.626269 0.855793 0.217967
O O3 0.405289 0.918405 0.266064
O O4 0.649258 0.881777 0.986830
O O5 0.761954 0.797846 0.294931
O O6 0.731307 0.712518 0.165160
O O7 0.000000 0.772076 0.000000
O O8 0.500000 0.859720 0.500000
O O9 0.772860 0.913240 0.290755
O O10 0.165246 0.886718 0.313612
O O11 0.152774 0.924206 0.545343
O O12 0.192790 0.000000 0.354183
O O13 0.552050 0.381912 0.184332
O O14 0.465017 0.500000 0.232407
#
# Coordination Sequence:
#
# PCOD9204167 Si02
#       6
#     8   8   8   8   8   8
#     4  10  23  42  62  98 128 165 212 260 324 379
#     4   9  23  42  68  95 127 166 207 268 326 375
#     4  12  26  42  64  92 128 176 214 261 317 388
#     4  10  20  40  66  91 128 168 212 263 315 370
#     4  10  22  41  66  98 127 160 213 270 319 373
#     4  11  25  42  64  95 133 174 212 260 319 379
#
# _framework density 21.574838
#
# number of rings (size 3 to 8) (size 9 to 14) (size 15 to 20)
#    0.000    1.667    1.667    2.500    4.667    9.000 
#    0.000    0.833    0.000    0.000    0.000    0.000 
#    0.000    0.000    0.000    0.000    0.000    0.000 
#
# Total GULP energy -134054.611157 kJ/mol
# GULP energy per Si atom -5585.608798 kJ/mol
# Density = 2.152573 g / cm^3
# Si number density = 21.574838 Si / 1000 Ang^3
#
#
#
# Elastic Constant Matrix: (Units=GPa)
#
#
# Indices 1 2 3 4 5 6 
#
# 1 110.1462 24.8392 14.6342 0.0000 -9.2204 0.0000
# 2 24.8392 45.1131 10.9900 0.0000 -12.6467 0.0000
# 3 14.6342 10.9900 27.5684 0.0000 -9.0474 0.0000
# 4 0.0000 0.0000 0.0000 44.0977 0.0000 44.1334
# 5 -9.2204 -12.6467 -9.0474 0.0000 32.6875 0.0000
# 6 0.0000 0.0000 0.0000 44.1334 0.0000 104.9461
#
#
#
# Elastic Compliance Matrix: (Units=1/GPa)
#
#
# Indices 1 2 3 4 5 6 
#
# 1 0.010694 -0.004973 -0.003669 0.000000 0.000077 0.000000
# 2 -0.004973 0.028640 -0.006161 0.000000 0.007973 0.000000
# 3 -0.003669 -0.006161 0.043507 0.000000 0.008623 0.000000
# 4 0.000000 0.000000 0.000000 0.039157 0.000000 -0.016467
# 5 0.000077 0.007973 0.008623 0.000000 0.036086 0.000000
# 6 0.000000 0.000000 0.000000 -0.016467 0.000000 0.016454
#
#
# Mechanical properties :
#
#
# Convention : Reuss Voigt Hill
#
# Bulk Modulus (GPa) = 18.78434 31.52827 25.15630
# Shear Modulus (GPa) = 22.53370 45.17055 33.85212
#
# Velocity S-wave (km/s) = 3.23529 4.58063 3.96543
# Velocity P-wave (km/s) = 4.76252 6.52850 5.71415
#
# Compressibility (1/GPa) = 0.05323584
#
# Stress axis : x y z
#
# Youngs Moduli (GPa) = 93.50867 34.91564 22.98469
#
# Poissons Ratio (x) = 0.17363 0.08434
# Poissons Ratio (y) = 0.46500 0.14161
# Poissons Ratio (z) = 0.34310 0.21512
#
# Static dielectric constant tensor:
#      x y z
#    x 1.826880 0.000000 -0.009630 
#    y 0.000000 1.776240 0.000000 
#    z -0.009630 0.000000 1.756270 
# 
# From -- ./inp_files/51457.got.cif
#   From: 2010.05.17/outbox.cif.g08.bks.cpg/sg12_26_cif.got.tgz:51457.got - 2010.06.03 13:09:07.
