data_PCOD9204080
_publ_section_title
;
Structure prediction by ZEFSAII (Michael W. Deem and Ramdas Pophale) SiO2 
 PCOD9204080
Probable space group: C 2/M
;
_chemical_formula_sum "Si O2"
_cell_formula_units_Z 56
_cell_length_a 31.889499
_cell_length_b 9.270878
_cell_length_c 21.052733
_cell_angle_alpha 90.000000
_cell_angle_beta 28.646475
_cell_angle_gamma 90.000000
_cell_volume 2983.860942
_symmetry_space_group_name_H-M "C 2/M"
_symmetry_group_IT_number 12
_symmetry_cell_setting 'monoclinic'
loop_
_space_group_symop_operation_xyz
x,y,z
-x,y,-z
-x,-y,-z
x,-y,z
1/2+x,1/2+y,z
1/2-x,1/2+y,-z
1/2-x,1/2-y,-z
1/2+x,1/2-y,z
loop_
_atom_site_type_symbol
_atom_site_label
_atom_site_fract_x
_atom_site_fract_y
_atom_site_fract_z
Si Si1 0.123621 0.833359 0.709049
Si Si2 0.729508 0.329523 0.092639
Si Si3 0.974396 0.835667 0.608005
Si Si4 0.278501 0.827189 0.165325
Si Si5 0.467689 0.828419 0.971022
Si Si6 0.215355 0.833604 0.450449
Si Si7 0.635445 0.170992 0.439062
O O1 0.159598 0.830150 0.589449
O O2 0.190448 0.734645 0.659948
O O3 0.028860 0.764681 0.843695
O O4 0.125503 0.000000 0.727902
O O5 0.742797 0.500000 0.065179
O O6 0.627736 0.307189 0.246098
O O7 0.784603 0.287838 0.082479
O O8 0.750000 0.250000 0.000000
O O9 0.000000 0.830129 0.500000
O O10 0.036794 0.723705 0.559753
O O11 0.992856 0.000000 0.605697
O O12 0.197731 0.743014 0.303283
O O13 0.261096 0.000000 0.191110
O O14 0.366480 0.798598 0.088731
O O15 0.481248 0.000000 0.942875
O O16 0.500000 0.796287 0.000000
O O17 0.169211 0.736778 0.459789
O O18 0.224189 0.000000 0.417798
O O19 0.642593 0.000000 0.427793
#
# Coordination Sequence:
#
# PCOD9204080 Si02
#       7
#     8   8   8   8   8   8   8
#     4  10  21  37  58  84 116 152 196 248 296 343
#     4  10  22  40  63  89 120 162 203 253 308 362
#     4  10  20  40  65  85 116 160 202 239 293 366
#     4  10  21  40  61  83 117 161 204 242 298 368
#     4  10  21  36  58  86 117 157 198 238 293 363
#     4  10  21  38  59  83 116 157 196 237 295 363
#     4  12  24  36  59  93 121 148 195 254 303 346
#
# _framework density 18.76763
#
# number of rings (size 3 to 8) (size 9 to 14) (size 15 to 20)
#    0.000    1.714    1.429    3.000    0.000    6.286 
#    0.000    2.857    0.000    0.000    0.000    0.000 
#    0.000    0.000    0.000    0.000    0.000    0.000 
#
# Total GULP energy -156386.269970 kJ/mol
# GULP energy per Si atom -5585.223927 kJ/mol
# Density = 1.872491 g / cm^3
# Si number density = 18.767630 Si / 1000 Ang^3
#
#
#
# Elastic Constant Matrix: (Units=GPa)
#
#
# Indices 1 2 3 4 5 6 
#
# 1 105.3752 44.6681 20.9112 0.0003 -6.6826 0.0006
# 2 44.6681 81.2393 39.4065 0.0036 -7.7520 -0.0027
# 3 20.9112 39.4065 62.7202 0.0038 -1.9161 -0.0009
# 4 0.0003 0.0036 0.0038 0.2127 -0.0005 21.9224
# 5 -6.6826 -7.7520 -1.9161 -0.0005 15.4013 -0.0001
# 6 0.0006 -0.0027 -0.0009 21.9224 -0.0001 12.2498
#
#
#
# Elastic Compliance Matrix: (Units=1/GPa)
#
#
# Indices 1 2 3 4 5 6 
#
# 1 0.012436 -0.006706 0.000129 -0.000002 0.002037 0.000001
# 2 -0.006706 0.022243 -0.011530 0.000003 0.006852 -0.000001
# 3 0.000129 -0.011530 0.023057 0.000001 -0.002879 -0.000002
# 4 -0.000002 0.000003 0.000001 -0.025628 0.000000 0.045864
# 5 0.002037 0.006852 -0.002879 0.000000 0.068904 0.000001
# 6 0.000001 -0.000001 -0.000002 0.045864 0.000001 -0.000445
#
#
# Mechanical properties :
#
#
# Convention : Reuss Voigt Hill
#
# Bulk Modulus (GPa) = 46.46272 51.03404 48.74838
# Shear Modulus (GPa) = 34.73306 15.19602 24.96454
#
# Velocity S-wave (km/s) = 4.30663 2.84860 3.65114
# Velocity P-wave (km/s) = 7.03847 6.17017 6.61857
#
# Compressibility (1/GPa) = 0.02152263
#
# Stress axis : x y z
#
# Youngs Moduli (GPa) = 80.41088 44.95745 43.37095
#
# Poissons Ratio (x) = 0.30150 -0.00561
# Poissons Ratio (y) = 0.53926 0.50007
# Poissons Ratio (z) = -0.01041 0.51836
#
# Static dielectric constant tensor:
#      x y z
#    x 1.666250 0.000000 -0.002210 
#    y 0.000000 1.622890 0.000000 
#    z -0.002210 0.000000 1.643370 
# 
# From -- ./inp_files/329463.got.cif
#   From: 2010.05.17/outbox.cif.g08.bks.cpg/sg12_165_cif.got.tgz:329463.got - 2010.06.03 13:09:07.
