data_PCOD9204633
_publ_section_title
;
Structure prediction by ZEFSAII (Michael W. Deem and Ramdas Pophale) SiO2 
 PCOD9204633
Probable space group: C 2/M
;
_chemical_formula_sum "Si O2"
_cell_formula_units_Z 44
_cell_length_a 15.070792
_cell_length_b 15.157783
_cell_length_c 15.480731
_cell_angle_alpha 90.000000
_cell_angle_beta 42.002597
_cell_angle_gamma 90.000000
_cell_volume 2366.442640
_symmetry_space_group_name_H-M "C 2/M"
_symmetry_group_IT_number 12
_symmetry_cell_setting 'monoclinic'
loop_
_space_group_symop_operation_xyz
x,y,z
-x,y,-z
-x,-y,-z
x,-y,z
1/2+x,1/2+y,z
1/2-x,1/2+y,-z
1/2-x,1/2-y,-z
1/2+x,1/2-y,z
loop_
_atom_site_type_symbol
_atom_site_label
_atom_site_fract_x
_atom_site_fract_y
_atom_site_fract_z
Si Si1 0.247507 0.781793 0.215962
Si Si2 0.752404 0.398335 0.051689
Si Si3 0.045550 0.399714 0.622182
Si Si4 0.724441 0.401626 0.874079
Si Si5 0.568313 0.896069 0.797596
Si Si6 0.500000 0.779019 0.500000
O O1 0.311296 0.685224 0.153371
O O2 0.350551 0.842665 0.191281
O O3 0.114567 0.773433 0.368417
O O4 0.209332 0.826540 0.152406
O O5 0.726807 0.500000 0.097654
O O6 0.694609 0.387752 0.997136
O O7 0.911385 0.388012 0.927634
O O8 0.091465 0.500000 0.574453
O O9 0.097085 0.367572 0.677854
O O10 0.070009 0.339895 0.521873
O O11 0.885287 0.403443 0.748957
O O12 0.677246 0.500000 0.882394
O O13 0.599615 0.000000 0.780701
#
# Coordination Sequence:
#
# PCOD9204633 Si02
#       6
#     8   8   8   8   8   4
#     4  11  19  29  47  73 102 126 151 189 237 284
#     4   9  17  32  53  73  91 117 160 206 239 266
#     4   8  15  31  51  69  91 119 158 205 237 262
#     4   8  16  30  49  73  96 120 155 197 237 276
#     4   9  18  32  52  75  92 114 157 207 244 269
#     4  10  21  30  43  70 100 130 158 178 224 296
#
# _framework density 18.593309000000001
#
# number of rings (size 3 to 8) (size 9 to 14) (size 15 to 20)
#    0.000    2.909    0.000    4.091    0.000    2.909 
#    0.000    1.818    0.000    2.182    0.000   25.455 
#    0.000    0.000    0.000    0.000    0.000    0.000 
#
# Total GULP energy -122626.987400 kJ/mol
# GULP energy per Si atom -5573.953973 kJ/mol
# Density = 1.855099 g / cm^3
# Si number density = 18.593309 Si / 1000 Ang^3
#
#
#
# Elastic Constant Matrix: (Units=GPa)
#
#
# Indices 1 2 3 4 5 6 
#
# 1 25.7792 17.3003 7.1280 0.0000 10.6149 0.0000
# 2 17.3003 70.0400 53.2297 0.0000 16.2041 0.0000
# 3 7.1280 53.2297 83.5632 0.0000 19.3418 0.0000
# 4 0.0000 0.0000 0.0000 28.4577 0.0000 18.4052
# 5 10.6149 16.2041 19.3418 0.0000 14.1656 0.0000
# 6 0.0000 0.0000 0.0000 18.4052 0.0000 7.1824
#
#
#
# Elastic Compliance Matrix: (Units=1/GPa)
#
#
# Indices 1 2 3 4 5 6 
#
# 1 0.069225 -0.018352 0.018909 -0.000001 -0.056699 0.000001
# 2 -0.018352 0.033787 -0.020753 0.000000 0.003439 0.000000
# 3 0.018909 -0.020753 0.031228 0.000000 -0.033069 0.000001
# 4 -0.000001 0.000000 0.000000 -0.053457 0.000001 0.136986
# 5 -0.056699 0.003439 -0.033069 0.000001 0.154299 -0.000002
# 6 0.000001 0.000000 0.000001 0.136986 -0.000002 -0.211804
#
#
# Mechanical properties :
#
#
# Convention : Reuss Voigt Hill
#
# Bulk Modulus (GPa) = 10.65551 37.18868 23.92210
# Shear Modulus (GPa) = 52.65843 16.74276 34.70059
#
# Velocity S-wave (km/s) = 5.32754 3.00404 4.32475
# Velocity P-wave (km/s) = 6.60203 5.66365 6.15076
#
# Compressibility (1/GPa) = 0.09384815
#
# Stress axis : x y z
#
# Youngs Moduli (GPa) = 14.44559 29.59727 32.02285
#
# Poissons Ratio (x) = 0.54317 -0.60552
# Poissons Ratio (y) = 0.26511 0.66456
# Poissons Ratio (z) = -0.27315 0.61423
#
# Static dielectric constant tensor:
#      x y z
#    x 1.634900 0.000000 0.021960 
#    y 0.000000 1.671090 0.000000 
#    z 0.021960 0.000000 1.647510 
# 
# From -- ./inp_files/155194.got.cif
#   From: 2010.05.17/outbox.cif.g08.bks.cpg/sg12_78_cif.got.tgz:155194.got - 2010.06.03 13:09:07.
