data_PCOD9204205
_publ_section_title
;
Structure prediction by ZEFSAII (Michael W. Deem and Ramdas Pophale) SiO2 
 PCOD9204205
Probable space group: C 2/M
;
_chemical_formula_sum "Si O2"
_cell_formula_units_Z 48
_cell_length_a 12.400055
_cell_length_b 17.770682
_cell_length_c 14.721686
_cell_angle_alpha 90.000000
_cell_angle_beta 139.358390
_cell_angle_gamma 90.000000
_cell_volume 2112.921231
_symmetry_space_group_name_H-M "C 2/M"
_symmetry_group_IT_number 12
_symmetry_cell_setting 'monoclinic'
loop_
_space_group_symop_operation_xyz
x,y,z
-x,y,-z
-x,-y,-z
x,-y,z
1/2+x,1/2+y,z
1/2-x,1/2+y,-z
1/2-x,1/2-y,-z
1/2+x,1/2-y,z
loop_
_atom_site_type_symbol
_atom_site_label
_atom_site_fract_x
_atom_site_fract_y
_atom_site_fract_z
Si Si1 0.049384 0.690376 0.626917
Si Si2 0.407771 0.334066 0.238319
Si Si3 0.337019 0.085617 0.045443
Si Si4 0.241053 0.089243 0.478598
Si Si5 0.771880 0.588475 0.709467
Si Si6 0.812428 0.085171 0.850888
O O1 0.053925 0.747988 0.713482
O O2 0.224568 0.647536 0.733970
O O3 0.000000 0.728299 0.500000
O O4 0.907653 0.628611 0.552065
O O5 0.277355 0.353784 0.076968
O O6 0.577520 0.377744 0.328214
O O7 0.325065 0.365715 0.277448
O O8 0.299844 0.000000 0.987230
O O9 0.530710 0.099688 0.154342
O O10 0.294530 0.084693 0.124683
O O11 0.224937 0.106280 0.576038
O O12 0.252483 0.000000 0.474896
O O13 0.737339 0.500000 0.701535
O O14 0.809167 0.000000 0.810154
O O15 0.000000 0.102049 0.000000
#
# Coordination Sequence:
#
# PCOD9204205 Si02
#       6
#     8   8   8   8   8   8
#     4  12  27  45  64  94 136 176 214 267 329 386
#     4  12  25  39  63 100 135 171 214 260 326 400
#     4  10  21  41  68  99 129 167 218 272 324 379
#     4  11  23  43  68  93 126 173 224 271 320 375
#     4  10  20  40  67  95 130 167 214 271 324 382
#     4  10  23  45  69  96 129 171 226 273 314 380
#
# _framework density 22.717364
#
# number of rings (size 3 to 8) (size 9 to 14) (size 15 to 20)
#    0.000    1.167    1.667    4.500    2.333    6.000 
#    0.000    0.000    0.000    0.000    0.000    0.000 
#    0.000    0.000    0.000    0.000    0.000    0.000 
#
# Total GULP energy -134403.052026 kJ/mol
# GULP energy per Si atom -5600.127168 kJ/mol
# Density = 2.266566 g / cm^3
# Si number density = 22.717364 Si / 1000 Ang^3
#
#
#
# Elastic Constant Matrix: (Units=GPa)
#
#
# Indices 1 2 3 4 5 6 
#
# 1 52.3055 7.1788 2.2830 0.0000 13.8382 0.0000
# 2 7.1788 62.5802 32.2543 -0.0002 5.7575 -0.0001
# 3 2.2830 32.2543 78.8475 -0.0002 5.9027 -0.0002
# 4 0.0000 -0.0002 -0.0002 30.6905 -0.0001 -3.8795
# 5 13.8382 5.7575 5.9027 -0.0001 40.3699 -0.0001
# 6 0.0000 -0.0001 -0.0002 -3.8795 -0.0001 26.7572
#
#
#
# Elastic Compliance Matrix: (Units=1/GPa)
#
#
# Indices 1 2 3 4 5 6 
#
# 1 0.021262 -0.002208 0.000819 0.000000 -0.007093 0.000000
# 2 -0.002208 0.020593 -0.008288 0.000000 -0.000968 0.000000
# 3 0.000819 -0.008288 0.016159 0.000000 -0.001461 0.000000
# 4 0.000000 0.000000 0.000000 0.033192 0.000000 0.004812
# 5 -0.007093 -0.000968 -0.001461 0.000000 0.027554 0.000000
# 6 0.000000 0.000000 0.000000 0.004812 0.000000 0.038071
#
#
# Mechanical properties :
#
#
# Convention : Reuss Voigt Hill
#
# Bulk Modulus (GPa) = 25.86678 30.79616 28.33147
# Shear Modulus (GPa) = 26.44484 29.69800 28.07142
#
# Velocity S-wave (km/s) = 3.41556 3.61956 3.51904
# Velocity P-wave (km/s) = 5.19286 5.57260 5.38608
#
# Compressibility (1/GPa) = 0.03865963
#
# Stress axis : x y z
#
# Youngs Moduli (GPa) = 47.03132 48.55904 61.88620
#
# Poissons Ratio (x) = 0.10724 -0.05067
# Poissons Ratio (y) = 0.10387 0.51290
# Poissons Ratio (z) = -0.03851 0.40245
#
# Static dielectric constant tensor:
#      x y z
#    x 1.825250 0.000000 -0.034520 
#    y 0.000000 1.842210 0.000000 
#    z -0.034520 0.000000 1.822840 
# 
# From -- ./inp_files/271774.got.cif
#   From: 2010.05.17/outbox.cif.g08.bks.cpg/sg12_136_cif.got.tgz:271774.got - 2010.06.03 13:09:07.
