data_PCOD9204589
_publ_section_title
;
Structure prediction by ZEFSAII (Michael W. Deem and Ramdas Pophale) SiO2 
 PCOD9204589
Probable space group: C 2/M
;
_chemical_formula_sum "Si O2"
_cell_formula_units_Z 42
_cell_length_a 14.057593
_cell_length_b 23.256297
_cell_length_c 5.038199
_cell_angle_alpha 90.000000
_cell_angle_beta 69.983059
_cell_angle_gamma 90.000000
_cell_volume 1547.625600
_symmetry_space_group_name_H-M "C 2/M"
_symmetry_group_IT_number 12
_symmetry_cell_setting 'monoclinic'
loop_
_space_group_symop_operation_xyz
x,y,z
-x,y,-z
-x,-y,-z
x,-y,z
1/2+x,1/2+y,z
1/2-x,1/2+y,-z
1/2-x,1/2-y,-z
1/2+x,1/2-y,z
loop_
_atom_site_type_symbol
_atom_site_label
_atom_site_fract_x
_atom_site_fract_y
_atom_site_fract_z
Si Si1 0.000000 0.500000 0.500000
Si Si2 0.399883 0.083756 0.249345
Si Si3 0.196646 0.933341 0.128906
Si Si4 0.343444 0.794088 0.133138
Si Si5 0.614525 0.276695 0.403543
Si Si6 0.403831 0.430455 0.265158
O O1 0.084817 0.550718 0.491663
O O2 0.302269 0.065949 0.176839
O O3 0.394317 0.151997 0.230395
O O4 0.500000 0.062332 0.000000
O O5 0.117094 0.909182 0.420151
O O6 0.167487 0.000000 0.118087
O O7 0.187760 0.910096 0.839938
O O8 0.363663 0.741613 0.314026
O O9 0.222603 0.805493 0.218213
O O10 0.385987 0.777087 0.805219
O O11 0.500000 0.300096 0.500000
O O12 0.408982 0.500000 0.291188
O O13 0.500000 0.412682 0.000000
#
# Coordination Sequence:
#
# PCOD9204589 Si02
#       6
#     2   8   8   8   8   8
#     4  12  30  44  68  94 146 198 254 300 366 418
#     4  12  27  43  64  97 136 190 243 299 358 429
#     4  10  21  35  57  81 119 163 217 272 330 391
#     4  10  24  40  71 105 138 183 233 284 364 437
#     4  10  20  43  70 107 143 178 224 293 364 444
#     4   9  18  34  56  80 106 148 206 273 334 389
#
# _framework density 27.138345000000001
#
# number of rings (size 3 to 8) (size 9 to 14) (size 15 to 20)
#    0.000    1.714    0.952    2.571    6.667    2.286 
#    0.000    1.905    0.000    0.000    0.000    0.000 
#    0.000    0.000    0.000    0.000    0.000    0.000 
#
# Total GULP energy -117166.410201 kJ/mol
# GULP energy per Si atom -5579.352867 kJ/mol
# Density = 2.707658 g / cm^3
# Si number density = 27.138345 Si / 1000 Ang^3
#
#
#
# Elastic Constant Matrix: (Units=GPa)
#
#
# Indices 1 2 3 4 5 6 
#
# 1 174.8740 37.1905 16.9942 0.0000 -16.9273 0.0000
# 2 37.1905 70.2379 12.7895 0.0000 -4.4294 0.0000
# 3 16.9942 12.7895 108.9317 0.0000 8.5774 0.0000
# 4 0.0000 0.0000 0.0000 -10.8142 0.0000 -12.9613
# 5 -16.9273 -4.4294 8.5774 0.0000 52.0930 0.0000
# 6 0.0000 0.0000 0.0000 -12.9613 0.0000 38.4141
#
#
#
# Elastic Compliance Matrix: (Units=1/GPa)
#
#
# Indices 1 2 3 4 5 6 
#
# 1 0.006689 -0.003264 -0.000820 0.000000 0.002031 0.000000
# 2 -0.003264 0.016264 -0.001444 0.000000 0.000560 0.000000
# 3 -0.000820 -0.001444 0.009633 0.000000 -0.001975 0.000000
# 4 0.000000 0.000000 0.000000 -0.065844 0.000000 -0.022216
# 5 0.002031 0.000560 -0.001975 0.000000 0.020229 0.000000
# 6 0.000000 0.000000 0.000000 -0.022216 0.000000 0.018536
#
#
# Mechanical properties :
#
#
# Convention : Reuss Voigt Hill
#
# Bulk Modulus (GPa) = 46.45027 54.22134 50.33580
# Shear Modulus (GPa) = 210.60151 35.07655 122.83903
#
# Velocity S-wave (km/s) = 8.81881 3.59905 6.73515
# Velocity P-wave (km/s) = 10.99311 6.10687 8.89220
#
# Compressibility (1/GPa) = 0.02152840
#
# Stress axis : x y z
#
# Youngs Moduli (GPa) = 149.50083 61.48518 103.80820
#
# Poissons Ratio (x) = 0.20071 0.08514
# Poissons Ratio (y) = 0.48802 0.14994
# Poissons Ratio (z) = 0.12262 0.08881
#
# Static dielectric constant tensor:
#      x y z
#    x 2.156040 0.000000 -0.037050 
#    y 0.000000 2.238900 0.000000 
#    z -0.037050 0.000000 2.223240 
# 
# From -- ./inp_files/12059.got.cif
#   From: 2010.05.17/outbox.cif.g08.bks.cpg/sg12_7_cif.got.tgz:12059.got - 2010.06.03 13:09:07.
