data_PCOD9204873
_publ_section_title
;
Structure prediction by ZEFSAII (Michael W. Deem and Ramdas Pophale) SiO2 
 PCOD9204873
Probable space group: C 2/M
;
_chemical_formula_sum "Si O2"
_cell_formula_units_Z 48
_cell_length_a 8.934907
_cell_length_b 22.901127
_cell_length_c 22.420454
_cell_angle_alpha 90.000000
_cell_angle_beta 34.216711
_cell_angle_gamma 90.000000
_cell_volume 2579.754408
_symmetry_space_group_name_H-M "C 2/M"
_symmetry_group_IT_number 12
_symmetry_cell_setting 'monoclinic'
loop_
_space_group_symop_operation_xyz
x,y,z
-x,y,-z
-x,-y,-z
x,-y,z
1/2+x,1/2+y,z
1/2-x,1/2+y,-z
1/2-x,1/2-y,-z
1/2+x,1/2-y,z
loop_
_atom_site_type_symbol
_atom_site_label
_atom_site_fract_x
_atom_site_fract_y
_atom_site_fract_z
Si Si1 0.015723 0.323596 0.894511
Si Si2 0.717903 0.722193 0.575127
Si Si3 0.986308 0.657593 0.322805
Si Si4 0.302614 0.563375 0.508077
Si Si5 0.211291 0.878706 0.294694
Si Si6 0.417358 0.699705 0.868150
O O1 0.108387 0.378179 0.823875
O O2 0.253245 0.306511 0.861391
O O3 0.951464 0.267925 0.873660
O O4 0.758457 0.329743 0.021510
O O5 0.750000 0.750000 0.500000
O O6 0.659288 0.779623 0.633433
O O7 0.473719 0.678294 0.654874
O O8 0.000000 0.694845 0.500000
O O9 0.880224 0.618149 0.412864
O O10 0.906127 0.627134 0.287319
O O11 0.294949 0.670724 0.229637
O O12 0.500000 0.561194 0.500000
O O13 0.168024 0.500000 0.547691
O O14 0.489171 0.574936 0.389223
#
# Coordination Sequence:
#
# PCOD9204873 Si02
#       6
#     8   8   8   8   8   8
#     4  10  21  34  49  75 106 143 175 208 254 306
#     4  12  21  31  45  75 110 137 167 204 254 315
#     4  11  20  33  52  78 105 137 171 210 259 310
#     4   9  19  36  55  77 104 134 172 218 263 303
#     4  11  21  32  53  78 104 137 173 210 258 310
#     4  10  21  34  50  73 108 142 174 210 254 306
#
# _framework density 18.606422999999999
#
# number of rings (size 3 to 8) (size 9 to 14) (size 15 to 20)
#    0.000    1.500    5.000    1.500    2.333    2.000 
#    0.000    0.000    0.000    5.500    0.000    7.000 
#    0.000    0.000    0.000    0.000    0.000    0.000 
#
# Total GULP energy -133809.408264 kJ/mol
# GULP energy per Si atom -5575.392011 kJ/mol
# Density = 1.856407 g / cm^3
# Si number density = 18.606423 Si / 1000 Ang^3
#
#
#
# Elastic Constant Matrix: (Units=GPa)
#
#
# Indices 1 2 3 4 5 6 
#
# 1 52.8681 -4.1784 16.1379 -0.0013 -4.6587 0.0034
# 2 -4.1784 55.8816 17.3650 -0.0002 -0.7571 0.0005
# 3 16.1379 17.3650 88.8952 0.0013 -0.6440 -0.0002
# 4 -0.0013 -0.0002 0.0013 11.8233 -0.0002 -1.0358
# 5 -4.6587 -0.7571 -0.6440 -0.0002 34.6137 -0.0008
# 6 0.0034 0.0005 -0.0002 -1.0358 -0.0008 8.0141
#
#
#
# Elastic Compliance Matrix: (Units=1/GPa)
#
#
# Indices 1 2 3 4 5 6 
#
# 1 0.020706 0.002925 -0.004310 0.000002 0.002771 -0.000008
# 2 0.002925 0.019469 -0.004329 0.000001 0.000739 -0.000002
# 3 -0.004310 -0.004329 0.012874 -0.000002 -0.000435 0.000002
# 4 0.000002 0.000001 -0.000002 0.085548 0.000001 0.011057
# 5 0.002771 0.000739 -0.000435 0.000001 0.029271 0.000002
# 6 -0.000008 -0.000002 0.000002 0.011057 0.000002 0.126209
#
#
# Mechanical properties :
#
#
# Convention : Reuss Voigt Hill
#
# Bulk Modulus (GPa) = 24.02618 28.47710 26.25164
# Shear Modulus (GPa) = 15.65543 22.11158 18.88350
#
# Velocity S-wave (km/s) = 2.90383 3.45103 3.18919
# Velocity P-wave (km/s) = 4.91771 5.58728 5.26316
#
# Compressibility (1/GPa) = 0.04162127
#
# Stress axis : x y z
#
# Youngs Moduli (GPa) = 48.29510 51.36405 77.67521
#
# Poissons Ratio (x) = -0.15025 0.33480
# Poissons Ratio (y) = -0.14127 0.33624
# Poissons Ratio (z) = 0.20817 0.22234
#
# Static dielectric constant tensor:
#      x y z
#    x 1.645270 0.000000 0.019320 
#    y 0.000000 1.676130 0.000000 
#    z 0.019320 0.000000 1.718060 
# 
# From -- ./inp_files/302058.got.cif
#   From: 2010.05.17/outbox.cif.g08.bks.cpg/sg12_152_cif.got.tgz:302058.got - 2010.06.03 13:09:07.
