data_PCOD9204171
_publ_section_title
;
Structure prediction by ZEFSAII (Michael W. Deem and Ramdas Pophale) SiO2 
 PCOD9204171
Probable space group: C 2/M
;
_chemical_formula_sum "Si O2"
_cell_formula_units_Z 56
_cell_length_a 18.953181
_cell_length_b 18.887466
_cell_length_c 9.181131
_cell_angle_alpha 90.000000
_cell_angle_beta 66.184818
_cell_angle_gamma 90.000000
_cell_volume 3006.790481
_symmetry_space_group_name_H-M "C 2/M"
_symmetry_group_IT_number 12
_symmetry_cell_setting 'monoclinic'
loop_
_space_group_symop_operation_xyz
x,y,z
-x,y,-z
-x,-y,-z
x,-y,z
1/2+x,1/2+y,z
1/2-x,1/2+y,-z
1/2-x,1/2-y,-z
1/2+x,1/2-y,z
loop_
_atom_site_type_symbol
_atom_site_label
_atom_site_fract_x
_atom_site_fract_y
_atom_site_fract_z
Si Si1 0.547475 0.581313 0.110928
Si Si2 0.808393 0.826263 0.100677
Si Si3 0.008990 0.317044 0.820317
Si Si4 0.336984 0.835005 0.979506
Si Si5 0.547514 0.321050 0.605731
Si Si6 0.717009 0.329541 0.537566
Si Si7 0.847894 0.584008 0.268424
O O1 0.568244 0.500000 0.122807
O O2 0.492966 0.613593 0.279904
O O3 0.500000 0.584439 0.000000
O O4 0.622327 0.629988 0.028923
O O5 0.824374 0.742840 0.061557
O O6 0.803297 0.842280 0.276277
O O7 0.728849 0.844266 0.085437
O O8 0.039294 0.247408 0.715790
O O9 0.071275 0.379213 0.754481
O O10 0.922898 0.336221 0.841395
O O11 0.000000 0.301634 0.000000
O O12 0.332905 0.890757 0.114595
O O13 0.500000 0.306761 0.500000
O O14 0.638188 0.334418 0.511018
O O15 0.750000 0.250000 0.500000
O O16 0.780610 0.382830 0.423239
O O17 0.851326 0.500000 0.276056
#
# Coordination Sequence:
#
# PCOD9204171 Si02
#       7
#     8   8   8   8   8   8   8
#     4  11  24  43  64  90 125 165 206 257 316 374
#     4  11  22  40  67  94 125 161 218 256 313 371
#     4  10  20  40  66  92 123 164 214 257 305 373
#     4  10  22  37  68  97 120 163 212 267 303 375
#     4  12  25  38  66  98 127 164 215 260 312 376
#     4  12  23  40  64  94 127 169 206 255 316 384
#     4  11  25  42  63  94 132 168 207 265 321 369
#
# _framework density 18.624510000000001
#
# number of rings (size 3 to 8) (size 9 to 14) (size 15 to 20)
#    0.000    1.000    5.714    1.286    4.000    4.571 
#    0.000    0.000    0.000    3.000    0.000    0.000 
#    0.000    0.000    0.000    0.000    0.000    0.000 
#
# Total GULP energy -156541.057187 kJ/mol
# GULP energy per Si atom -5590.752042 kJ/mol
# Density = 1.858212 g / cm^3
# Si number density = 18.624510 Si / 1000 Ang^3
#
#
#
# Elastic Constant Matrix: (Units=GPa)
#
#
# Indices 1 2 3 4 5 6 
#
# 1 141.2476 23.3314 24.6693 0.0000 -11.6109 0.0000
# 2 23.3314 98.6638 28.9481 0.0000 2.1203 0.0000
# 3 24.6693 28.9481 42.8153 0.0000 -15.4203 0.0000
# 4 0.0000 0.0000 0.0000 19.9837 0.0000 -8.9579
# 5 -11.6109 2.1203 -15.4203 0.0000 22.7796 0.0000
# 6 0.0000 0.0000 0.0000 -8.9579 0.0000 10.7455
#
#
#
# Elastic Compliance Matrix: (Units=1/GPa)
#
#
# Indices 1 2 3 4 5 6 
#
# 1 0.007966 -0.000984 -0.003213 0.000000 0.001977 0.000000
# 2 -0.000984 0.014417 -0.013018 0.000000 -0.010656 0.000000
# 3 -0.003213 -0.013018 0.044771 0.000000 0.029881 0.000000
# 4 0.000000 0.000000 0.000000 0.079898 0.000000 0.066606
# 5 0.001977 -0.010656 0.029881 0.000000 0.066126 0.000000
# 6 0.000000 0.000000 0.000000 0.066606 0.000000 0.148588
#
#
# Mechanical properties :
#
#
# Convention : Reuss Voigt Hill
#
# Bulk Modulus (GPa) = 30.55834 48.51380 39.53607
# Shear Modulus (GPa) = 12.28190 24.42027 18.35109
#
# Velocity S-wave (km/s) = 2.57076 3.62496 3.14238
# Velocity P-wave (km/s) = 5.02543 6.60495 5.86858
#
# Compressibility (1/GPa) = 0.03272429
#
# Stress axis : x y z
#
# Youngs Moduli (GPa) = 125.53568 69.36436 22.33585
#
# Poissons Ratio (x) = 0.06823 0.07176
# Poissons Ratio (y) = 0.12348 0.29078
# Poissons Ratio (z) = 0.40331 0.90301
#
# Static dielectric constant tensor:
#      x y z
#    x 1.662700 0.000000 -0.000470 
#    y 0.000000 1.609300 0.000000 
#    z -0.000470 0.000000 1.634040 
# 
# From -- ./inp_files/75874.got.cif
#   From: 2010.05.17/outbox.cif.g08.bks.cpg/sg12_38_cif.got.tgz:75874.got - 2010.06.03 13:09:07.
