data_PCOD9204806
_publ_section_title
;
Structure prediction by ZEFSAII (Michael W. Deem and Ramdas Pophale) SiO2 
 PCOD9204806
Probable space group: C 2/M
;
_chemical_formula_sum "Si O2"
_cell_formula_units_Z 56
_cell_length_a 13.541797
_cell_length_b 14.092623
_cell_length_c 16.299927
_cell_angle_alpha 90.000000
_cell_angle_beta 117.211128
_cell_angle_gamma 90.000000
_cell_volume 2766.403676
_symmetry_space_group_name_H-M "C 2/M"
_symmetry_group_IT_number 12
_symmetry_cell_setting 'monoclinic'
loop_
_space_group_symop_operation_xyz
x,y,z
-x,y,-z
-x,-y,-z
x,-y,z
1/2+x,1/2+y,z
1/2-x,1/2+y,-z
1/2-x,1/2-y,-z
1/2+x,1/2-y,z
loop_
_atom_site_type_symbol
_atom_site_label
_atom_site_fract_x
_atom_site_fract_y
_atom_site_fract_z
Si Si1 0.230771 0.610903 0.467950
Si Si2 0.559082 0.693475 0.171456
Si Si3 0.252050 0.191455 0.823350
Si Si4 0.328302 0.390342 0.043488
Si Si5 0.085348 0.781144 0.373290
Si Si6 0.760781 0.397456 0.174745
Si Si7 0.387075 0.393154 0.368568
O O1 0.208207 0.500000 0.471178
O O2 0.123152 0.675178 0.410594
O O3 0.303654 0.655892 0.568679
O O4 0.310311 0.622348 0.418349
O O5 0.623370 0.783514 0.157362
O O6 0.442059 0.668734 0.087492
O O7 0.551376 0.706611 0.265786
O O8 0.645737 0.609787 0.181750
O O9 0.245388 0.155114 0.912975
O O10 0.188325 0.293816 0.788125
O O11 0.192743 0.119477 0.740116
O O12 0.353663 0.500000 0.074039
O O13 0.271738 0.390595 0.933449
O O14 0.988334 0.821898 0.393634
O O15 0.814996 0.500000 0.210491
O O16 0.432644 0.500000 0.388491
#
# Coordination Sequence:
#
# PCOD9204806 Si02
#       7
#     8   8   8   8   8   8   8
#     4  10  22  39  60  85 115 149 183 229 282 330
#     4  10  21  33  55  84 114 144 182 238 278 323
#     4  10  21  34  53  85 116 143 179 235 279 326
#     4  11  20  36  60  83 108 147 193 234 274 325
#     4  11  21  37  59  87 115 144 188 233 274 332
#     4   9  20  35  53  80 116 148 184 230 279 329
#     4  11  21  38  61  86 110 145 191 232 273 327
#
# _framework density 20.242888000000001
#
# number of rings (size 3 to 8) (size 9 to 14) (size 15 to 20)
#    0.857    0.857    2.857    2.571    0.000    4.000 
#    0.000    0.714    0.000    9.429    0.000    6.000 
#    0.000    0.000    0.000    0.000    0.000    0.000 
#
# Total GULP energy -156148.661990 kJ/mol
# GULP energy per Si atom -5576.737928 kJ/mol
# Density = 2.019681 g / cm^3
# Si number density = 20.242888 Si / 1000 Ang^3
#
#
#
# Elastic Constant Matrix: (Units=GPa)
#
#
# Indices 1 2 3 4 5 6 
#
# 1 64.4812 30.0587 4.8140 0.0000 -4.1741 0.0000
# 2 30.0587 97.6321 11.7690 0.0000 4.3365 0.0000
# 3 4.8140 11.7690 20.4902 0.0000 -6.3077 0.0000
# 4 0.0000 0.0000 0.0000 10.2799 0.0000 1.9973
# 5 -4.1741 4.3365 -6.3077 0.0000 11.0733 0.0000
# 6 0.0000 0.0000 0.0000 1.9973 0.0000 31.9113
#
#
#
# Elastic Compliance Matrix: (Units=1/GPa)
#
#
# Indices 1 2 3 4 5 6 
#
# 1 0.019198 -0.006779 0.002945 0.000000 0.011569 0.000000
# 2 -0.006779 0.014308 -0.011080 0.000000 -0.014470 0.000000
# 3 0.002945 -0.011080 0.068094 0.000000 0.044238 0.000000
# 4 0.000000 0.000000 0.000000 0.098475 0.000000 -0.006163
# 5 0.011569 -0.014470 0.044238 0.000000 0.125534 0.000000
# 6 0.000000 0.000000 0.000000 -0.006163 0.000000 0.031723
#
#
# Mechanical properties :
#
#
# Convention : Reuss Voigt Hill
#
# Bulk Modulus (GPa) = 13.93317 30.65411 22.29364
# Shear Modulus (GPa) = 12.16294 19.71700 15.93997
#
# Velocity S-wave (km/s) = 2.45388 3.12432 2.80917
# Velocity P-wave (km/s) = 3.86350 5.30954 4.64316
#
# Compressibility (1/GPa) = 0.07177119
#
# Stress axis : x y z
#
# Youngs Moduli (GPa) = 52.08947 69.89055 14.68554
#
# Poissons Ratio (x) = 0.47382 -0.04325
# Poissons Ratio (y) = 0.35313 0.16271
# Poissons Ratio (z) = -0.15340 0.77438
#
# Static dielectric constant tensor:
#      x y z
#    x 1.716100 0.000000 0.006440 
#    y 0.000000 1.743370 0.000000 
#    z 0.006440 0.000000 1.710300 
# 
# From -- ./inp_files/263429.got.cif
#   From: 2010.05.17/outbox.cif.g08.bks.cpg/sg12_132_cif.got.tgz:263429.got - 2010.06.03 13:09:07.
