data_PCOD9204506
_publ_section_title
;
Structure prediction by ZEFSAII (Michael W. Deem and Ramdas Pophale) SiO2 
 PCOD9204506
Probable space group: C 2/M
;
_chemical_formula_sum "Si O2"
_cell_formula_units_Z 52
_cell_length_a 7.559664
_cell_length_b 14.102589
_cell_length_c 20.897655
_cell_angle_alpha 90.000000
_cell_angle_beta 60.156039
_cell_angle_gamma 90.000000
_cell_volume 1932.458820
_symmetry_space_group_name_H-M "C 2/M"
_symmetry_group_IT_number 12
_symmetry_cell_setting 'monoclinic'
loop_
_space_group_symop_operation_xyz
x,y,z
-x,y,-z
-x,-y,-z
x,-y,z
1/2+x,1/2+y,z
1/2-x,1/2+y,-z
1/2-x,1/2-y,-z
1/2+x,1/2-y,z
loop_
_atom_site_type_symbol
_atom_site_label
_atom_site_fract_x
_atom_site_fract_y
_atom_site_fract_z
Si Si1 0.933337 0.603530 0.288017
Si Si2 0.291164 0.642600 0.795512
Si Si3 0.837035 0.887429 0.441973
Si Si4 0.499305 0.500000 0.164979
Si Si5 0.706618 0.349192 0.866064
Si Si6 0.979439 0.690929 0.595987
Si Si7 0.418988 0.894383 0.949893
O O1 0.887809 0.500000 0.323698
O O2 0.758236 0.633562 0.270017
O O3 0.991100 0.672824 0.334442
O O4 0.125634 0.593532 0.205617
O O5 0.488176 0.584914 0.781500
O O6 0.245723 0.747953 0.827563
O O7 0.118743 0.592367 0.869730
O O8 0.003386 0.803593 0.422419
O O9 0.722293 0.857090 0.396855
O O10 0.664758 0.862709 0.526194
O O11 0.889007 0.000000 0.434418
O O12 0.488488 0.413134 0.112752
O O13 0.763836 0.344252 0.930065
O O14 0.346088 0.000000 0.978844
O O15 0.500000 0.847279 0.000000
#
# Coordination Sequence:
#
# PCOD9204506 Si02
#       7
#     8   8   8   4   8   8   8
#     4  11  21  42  63  88 128 170 210 264 329 382
#     4  11  23  40  63  92 130 166 211 269 321 383
#     4  10  21  44  66  96 135 172 215 271 326 386
#     4  12  20  42  65  92 130 165 210 267 324 363
#     4  11  23  40  64  92 127 168 212 264 321 388
#     4  10  22  39  70  96 128 173 220 267 324 392
#     4  10  20  42  65  84 124 172 207 255 327 385
#
# _framework density 26.908721
#
# number of rings (size 3 to 8) (size 9 to 14) (size 15 to 20)
#    0.000    1.385    3.077    4.615    2.154    0.615 
#    0.000    9.231    0.000    0.000    0.000    0.000 
#    0.000    0.000    0.000    0.000    0.000    0.000 
#
# Total GULP energy -144895.034091 kJ/mol
# GULP energy per Si atom -5572.885927 kJ/mol
# Density = 2.684748 g / cm^3
# Si number density = 26.908721 Si / 1000 Ang^3
#
#
#
# Elastic Constant Matrix: (Units=GPa)
#
#
# Indices 1 2 3 4 5 6 
#
# 1 60.3891 28.6042 36.0641 0.0000 23.1184 0.0001
# 2 28.6042 276.1789 20.1381 0.0000 14.4947 0.0000
# 3 36.0641 20.1381 132.3856 0.0000 33.6825 0.0000
# 4 0.0000 0.0000 0.0000 34.6498 0.0000 2.4557
# 5 23.1184 14.4947 33.6825 0.0000 54.9499 0.0000
# 6 0.0001 0.0000 0.0000 2.4557 0.0000 28.3283
#
#
#
# Elastic Compliance Matrix: (Units=1/GPa)
#
#
# Indices 1 2 3 4 5 6 
#
# 1 0.022295 -0.001669 -0.004200 0.000000 -0.006365 0.000000
# 2 -0.001669 0.003812 -0.000057 0.000000 -0.000269 0.000000
# 3 -0.004200 -0.000057 0.009778 0.000000 -0.004212 0.000000
# 4 0.000000 0.000000 0.000000 0.029039 0.000000 -0.002517
# 5 -0.006365 -0.000269 -0.004212 0.000000 0.023529 0.000000
# 6 0.000000 0.000000 0.000000 -0.002517 0.000000 0.035519
#
#
# Mechanical properties :
#
#
# Convention : Reuss Voigt Hill
#
# Bulk Modulus (GPa) = 41.60956 70.95181 56.28068
# Shear Modulus (GPa) = 34.76247 49.19543 41.97895
#
# Velocity S-wave (km/s) = 3.59815 4.28042 3.95403
# Velocity P-wave (km/s) = 5.72355 7.13121 6.46580
#
# Compressibility (1/GPa) = 0.02403294
#
# Stress axis : x y z
#
# Youngs Moduli (GPa) = 44.85366 262.33478 102.26956
#
# Poissons Ratio (x) = 0.43778 0.42955
# Poissons Ratio (y) = 0.07485 0.00582
# Poissons Ratio (z) = 0.18839 0.01494
#
# Static dielectric constant tensor:
#      x y z
#    x 2.579300 0.000000 -0.051420 
#    y 0.000000 2.064440 0.000000 
#    z -0.051420 0.000000 2.056080 
# 
# From -- ./inp_files/299813.got.cif
#   From: 2010.05.17/outbox.cif.g08.bks.cpg/sg12_150_cif.got.tgz:299813.got - 2010.06.03 13:09:07.
