data_PCOD9204808
_publ_section_title
;
Structure prediction by ZEFSAII (Michael W. Deem and Ramdas Pophale) SiO2 
 PCOD9204808
Probable space group: C 2/M
;
_chemical_formula_sum "Si O2"
_cell_formula_units_Z 58
_cell_length_a 29.025538
_cell_length_b 7.898891
_cell_length_c 26.364310
_cell_angle_alpha 90.000000
_cell_angle_beta 29.086448
_cell_angle_gamma 90.000000
_cell_volume 2938.421323
_symmetry_space_group_name_H-M "C 2/M"
_symmetry_group_IT_number 12
_symmetry_cell_setting 'monoclinic'
loop_
_space_group_symop_operation_xyz
x,y,z
-x,y,-z
-x,-y,-z
x,-y,z
1/2+x,1/2+y,z
1/2-x,1/2+y,-z
1/2-x,1/2-y,-z
1/2+x,1/2-y,z
loop_
_atom_site_type_symbol
_atom_site_label
_atom_site_fract_x
_atom_site_fract_y
_atom_site_fract_z
Si Si1 0.281967 0.803750 0.191794
Si Si2 0.143806 0.308454 0.587426
Si Si3 0.274893 0.793915 0.312347
Si Si4 0.928115 0.695797 0.613572
Si Si5 0.500000 0.000000 0.000000
Si Si6 0.544378 0.695873 0.033233
Si Si7 0.074206 0.804041 0.548637
Si Si8 0.061545 0.195607 0.767902
O O1 0.295172 0.735935 0.235889
O O2 0.170265 0.795728 0.289618
O O3 0.346575 0.708953 0.089337
O O4 0.318372 0.000000 0.157524
O O5 0.151848 0.500000 0.561755
O O6 0.250000 0.250000 0.500000
O O7 0.097197 0.208847 0.585882
O O8 0.080119 0.297559 0.699034
O O9 0.169136 0.741761 0.429262
O O10 0.348356 0.725073 0.282201
O O11 0.277621 0.000000 0.311010
O O12 0.905092 0.500000 0.624471
O O13 0.000000 0.756471 0.500000
O O14 0.984782 0.708523 0.611697
O O15 0.504424 0.846286 0.951872
O O16 0.511832 0.500000 0.055390
O O17 0.525580 0.732200 0.110632
O O18 0.060292 0.000000 0.548475
O O19 0.057743 0.000000 0.756317
#
# Coordination Sequence:
#
# PCOD9204808 Si02
#       8
#     8   8   8   8   2   8   8   8
#     4  11  22  39  62  87 121 166 212 256 304 369
#     4  12  24  39  61  87 121 159 203 253 310 371
#     4  10  21  33  55  85 121 161 200 246 296 359
#     4  11  23  38  59  88 124 162 204 254 310 368
#     4  12  22  40  64  90 130 168 214 252 314 386
#     4  11  25  41  59  89 127 168 213 263 308 373
#     4  11  22  39  59  86 121 157 202 250 305 368
#     4  11  24  39  60  86 121 164 208 255 305 363
#
# _framework density 19.738491
#
# number of rings (size 3 to 8) (size 9 to 14) (size 15 to 20)
#    0.000    0.966    3.448    3.931    3.862    3.310 
#    0.000    0.000    0.000    0.828    0.000    0.000 
#    0.000    0.000    0.000    0.000    0.000    0.000 
#
# Total GULP energy -161837.948094 kJ/mol
# GULP energy per Si atom -5580.618900 kJ/mol
# Density = 1.969357 g / cm^3
# Si number density = 19.738491 Si / 1000 Ang^3
#
#
#
# Elastic Constant Matrix: (Units=GPa)
#
#
# Indices 1 2 3 4 5 6 
#
# 1 77.4013 -0.8446 32.4219 0.0179 5.9929 -0.0142
# 2 -0.8446 77.6207 12.4205 0.0287 7.6105 -0.0174
# 3 32.4219 12.4205 105.2554 0.0157 16.4434 -0.0188
# 4 0.0179 0.0287 0.0157 17.8066 -0.0125 1.6059
# 5 5.9929 7.6105 16.4434 -0.0125 23.7180 0.0146
# 6 -0.0142 -0.0174 -0.0188 1.6059 0.0146 26.4107
#
#
#
# Elastic Compliance Matrix: (Units=1/GPa)
#
#
# Indices 1 2 3 4 5 6 
#
# 1 0.014914 0.000983 -0.004567 -0.000014 -0.000918 0.000007
# 2 0.000983 0.013463 -0.001321 -0.000025 -0.003653 0.000012
# 3 -0.004567 -0.001321 0.012131 -0.000010 -0.006832 0.000010
# 4 -0.000014 -0.000025 -0.000010 0.056469 0.000050 -0.003434
# 5 -0.000918 -0.003653 -0.006832 0.000050 0.048303 -0.000038
# 6 0.000007 0.000012 0.000010 -0.003434 -0.000038 0.038072
#
#
# Mechanical properties :
#
#
# Convention : Reuss Voigt Hill
#
# Bulk Modulus (GPa) = 32.57403 38.69698 35.63551
# Shear Modulus (GPa) = 24.58276 28.00570 26.29423
#
# Velocity S-wave (km/s) = 3.53288 3.77083 3.65379
# Velocity P-wave (km/s) = 5.76023 6.21340 5.99110
#
# Compressibility (1/GPa) = 0.03069930
#
# Stress axis : x y z
#
# Youngs Moduli (GPa) = 67.04936 74.27558 82.43597
#
# Poissons Ratio (x) = -0.07302 0.37646
# Poissons Ratio (y) = -0.06591 0.10889
# Poissons Ratio (z) = 0.30619 0.09811
#
# Static dielectric constant tensor:
#      x y z
#    x 1.743320 0.000000 -0.071580 
#    y 0.000000 1.708630 0.000000 
#    z -0.071580 0.000000 1.834550 
# 
# From -- ./inp_files/351453.got.cif
#   From: 2010.05.17/outbox.cif.g08.bks.cpg/sg12_176_cif.got.tgz:351453.got - 2010.06.03 13:09:07.
