data_PCOD9204456
_publ_section_title
;
Structure prediction by ZEFSAII (Michael W. Deem and Ramdas Pophale) SiO2 
 PCOD9204456
Probable space group: C 2/M
;
_chemical_formula_sum "Si O2"
_cell_formula_units_Z 48
_cell_length_a 12.145866
_cell_length_b 23.961217
_cell_length_c 8.465271
_cell_angle_alpha 90.000000
_cell_angle_beta 68.234119
_cell_angle_gamma 90.000000
_cell_volume 2288.004386
_symmetry_space_group_name_H-M "C 2/M"
_symmetry_group_IT_number 12
_symmetry_cell_setting 'monoclinic'
loop_
_space_group_symop_operation_xyz
x,y,z
-x,y,-z
-x,-y,-z
x,-y,z
1/2+x,1/2+y,z
1/2-x,1/2+y,-z
1/2-x,1/2-y,-z
1/2+x,1/2-y,z
loop_
_atom_site_type_symbol
_atom_site_label
_atom_site_fract_x
_atom_site_fract_y
_atom_site_fract_z
Si Si1 0.647482 0.000000 0.445410
Si Si2 0.625802 0.166444 0.847292
Si Si3 0.500000 0.367097 0.000000
Si Si4 0.654619 0.608992 0.192739
Si Si5 0.841030 0.787504 0.299969
Si Si6 0.500000 0.310533 0.500000
Si Si7 0.355408 0.500000 0.601891
Si Si8 0.129819 0.628937 0.490999
O O1 0.500000 0.000000 0.500000
O O2 0.760545 0.000000 0.510130
O O3 0.661183 0.067665 0.402134
O O4 0.721550 0.138269 0.910647
O O5 0.671704 0.227804 0.774818
O O6 0.623055 0.130137 0.686831
O O7 0.500000 0.170408 0.000000
O O8 0.578501 0.401991 0.078362
O O9 0.418585 0.326550 0.145984
O O10 0.582553 0.650532 0.346777
O O11 0.672626 0.553779 0.280662
O O12 0.915547 0.778861 0.422297
O O13 0.725654 0.824301 0.395251
O O14 0.500000 0.500000 0.500000
O O15 0.000000 0.644617 0.500000
#
# Coordination Sequence:
#
# PCOD9204456 Si02
#       8
#     4   8   4   8   8   4   4   8
#     4  10  22  46  70 108 141 180 231 296 348 414
#     4  12  26  44  66 102 141 190 225 283 348 420
#     4  10  26  43  64  98 138 177 218 298 352 412
#     4  11  24  44  68 100 139 176 236 284 359 408
#     4  11  23  45  67 101 137 180 231 286 345 417
#     4  10  20  41  70  98 130 171 230 284 338 424
#     4  12  22  43  76 105 133 188 240 304 348 420
#     4  11  25  43  72 100 136 182 235 279 347 422
#
# _framework density 20.978981000000001
#
# number of rings (size 3 to 8) (size 9 to 14) (size 15 to 20)
#    0.000    1.000    5.000    0.500    5.833    2.333 
#    0.000    2.500    0.000    0.000    0.000    0.000 
#    0.000    0.000    0.000    0.000    0.000    0.000 
#
# Total GULP energy -133769.809229 kJ/mol
# GULP energy per Si atom -5573.742051 kJ/mol
# Density = 2.093123 g / cm^3
# Si number density = 20.978981 Si / 1000 Ang^3
#
#
#
# Elastic Constant Matrix: (Units=GPa)
#
#
# Indices 1 2 3 4 5 6 
#
# 1 178.7716 56.9417 39.8326 0.0000 -0.1523 0.0000
# 2 56.9417 109.7203 11.0365 0.0000 -22.8720 0.0000
# 3 39.8326 11.0365 68.8933 0.0000 -19.1825 0.0000
# 4 0.0000 0.0000 0.0000 9.4358 0.0000 -16.4666
# 5 -0.1523 -22.8720 -19.1825 0.0000 33.3872 0.0000
# 6 0.0000 0.0000 0.0000 -16.4666 0.0000 137.6086
#
#
#
# Elastic Compliance Matrix: (Units=1/GPa)
#
#
# Indices 1 2 3 4 5 6 
#
# 1 0.008671 -0.005378 -0.006150 0.000000 -0.007178 0.000000
# 2 -0.005378 0.013976 0.004201 0.000000 0.011964 0.000000
# 3 -0.006150 0.004201 0.021656 0.000000 0.015293 0.000000
# 4 0.000000 0.000000 0.000000 0.133951 0.000000 0.016029
# 5 -0.007178 0.011964 0.015293 0.000000 0.046901 0.000000
# 6 0.000000 0.000000 0.000000 0.016029 0.000000 0.009185
#
#
# Mechanical properties :
#
#
# Convention : Reuss Voigt Hill
#
# Bulk Modulus (GPa) = 33.72677 63.66744 48.69710
# Shear Modulus (GPa) = 19.31419 52.72463 36.01941
#
# Velocity S-wave (km/s) = 3.03750 5.01863 4.14808
# Velocity P-wave (km/s) = 5.33041 7.99977 6.79741
#
# Compressibility (1/GPa) = 0.02965004
#
# Stress axis : x y z
#
# Youngs Moduli (GPa) = 115.32873 71.55015 46.17601
#
# Poissons Ratio (x) = 0.38477 0.28400
# Poissons Ratio (y) = 0.62019 -0.19400
# Poissons Ratio (z) = 0.70933 -0.30061
#
# Static dielectric constant tensor:
#      x y z
#    x 1.784510 0.000000 0.007760 
#    y 0.000000 1.694480 0.000000 
#    z 0.007760 0.000000 1.769690 
# 
# From -- ./inp_files/51422.got.cif
#   From: 2010.05.17/outbox.cif.g08.bks.cpg/sg12_26_cif.got.tgz:51422.got - 2010.06.03 13:09:07.
