data_PCOD9204878
_publ_section_title
;
Structure prediction by ZEFSAII (Michael W. Deem and Ramdas Pophale) SiO2 
 PCOD9204878
Probable space group: C 2/M
;
_chemical_formula_sum "Si O2"
_cell_formula_units_Z 40
_cell_length_a 31.740924
_cell_length_b 7.491365
_cell_length_c 7.951709
_cell_angle_alpha 90.000000
_cell_angle_beta 104.382474
_cell_angle_gamma 90.000000
_cell_volume 1831.521422
_symmetry_space_group_name_H-M "C 2/M"
_symmetry_group_IT_number 12
_symmetry_cell_setting 'monoclinic'
loop_
_space_group_symop_operation_xyz
x,y,z
-x,y,-z
-x,-y,-z
x,-y,z
1/2+x,1/2+y,z
1/2-x,1/2+y,-z
1/2-x,1/2-y,-z
1/2+x,1/2-y,z
loop_
_atom_site_type_symbol
_atom_site_label
_atom_site_fract_x
_atom_site_fract_y
_atom_site_fract_z
Si Si1 0.356609 0.208277 0.413991
Si Si2 0.198984 0.714260 0.950667
Si Si3 0.546822 0.701244 0.510572
Si Si4 0.045312 0.716550 0.124427
Si Si5 0.140345 0.717590 0.197247
O O1 0.324796 0.284967 0.240938
O O2 0.406455 0.218974 0.396704
O O3 0.353883 0.280715 0.603049
O O4 0.345859 0.000000 0.420540
O O5 0.192836 0.500000 0.944154
O O6 0.250000 0.750000 0.000000
O O7 0.175575 0.780144 0.097562
O O8 0.500000 0.789415 0.500000
O O9 0.545453 0.500000 0.578270
O O10 0.548100 0.703022 0.311255
O O11 0.044116 0.500000 0.138011
O O12 0.091411 0.763104 0.086471
O O13 0.000000 0.773767 0.000000
O O14 0.141893 0.500000 0.205278
#
# Coordination Sequence:
#
# PCOD9204878 Si02
#       5
#     8   8   8   8   8
#     4   9  19  36  57  77 102 140 183 224 267 316
#     4  10  21  36  56  80 106 137 176 224 275 321
#     4  10  21  34  49  76 113 147 176 215 271 324
#     4   9  18  32  54  80 104 138 184 223 263 317
#     4   8  16  33  52  76 107 134 171 224 265 308
#
# _framework density 21.839766999999998
#
# number of rings (size 3 to 8) (size 9 to 14) (size 15 to 20)
#    0.000    2.800    0.000    1.800    2.800    3.600 
#    0.000    4.000    0.000    0.000    0.000    0.000 
#    0.000    0.000    0.000    0.000    0.000    0.000 
#
# Total GULP energy -111478.140631 kJ/mol
# GULP energy per Si atom -5573.907032 kJ/mol
# Density = 2.179006 g / cm^3
# Si number density = 21.839767 Si / 1000 Ang^3
#
#
#
# Elastic Constant Matrix: (Units=GPa)
#
#
# Indices 1 2 3 4 5 6 
#
# 1 209.0099 -1.8328 103.4739 0.0000 3.0800 0.0000
# 2 -1.8328 53.5056 5.2520 0.0000 -0.3851 0.0000
# 3 103.4739 5.2520 123.0700 0.0000 18.8908 0.0000
# 4 0.0000 0.0000 0.0000 -0.9361 0.0000 1.8050
# 5 3.0800 -0.3851 18.8908 0.0000 39.7583 0.0000
# 6 0.0000 0.0000 0.0000 1.8050 0.0000 30.5551
#
#
#
# Elastic Compliance Matrix: (Units=1/GPa)
#
#
# Indices 1 2 3 4 5 6 
#
# 1 0.008567 0.001072 -0.007710 0.000000 0.003010 0.000000
# 2 0.001072 0.018916 -0.001860 0.000000 0.000984 0.000000
# 3 -0.007710 -0.001860 0.015747 0.000000 -0.006903 0.000000
# 4 0.000000 0.000000 0.000000 -0.959009 0.000000 0.056653
# 5 0.003010 0.000984 -0.006903 0.000000 0.028208 0.000000
# 6 0.000000 0.000000 0.000000 0.056653 0.000000 0.029381
#
#
# Mechanical properties :
#
#
# Convention : Reuss Voigt Hill
#
# Bulk Modulus (GPa) = 38.11881 66.59684 52.35782
# Shear Modulus (GPa) = -6.00637 32.45494 13.22429
#
# Velocity S-wave (km/s) = -1.66017 3.85911 2.46339
# Velocity P-wave (km/s) = 3.71710 7.10046 5.66716
#
# Compressibility (1/GPa) = 0.02623377
#
# Stress axis : x y z
#
# Youngs Moduli (GPa) = 116.73110 52.86538 63.50373
#
# Poissons Ratio (x) = -0.05667 0.48964
# Poissons Ratio (y) = -0.12513 0.11809
# Poissons Ratio (z) = 0.90005 0.09830
#
# Static dielectric constant tensor:
#      x y z
#    x 1.812160 0.000000 0.000320 
#    y 0.000000 1.831590 0.000000 
#    z 0.000320 0.000000 1.781300 
# 
# From -- ./inp_files/101202.got.cif
#   From: 2010.05.17/outbox.cif.g08.bks.cpg/sg12_51_cif.got.tgz:101202.got - 2010.06.03 13:09:07.
