data_PCOD9204276
_publ_section_title
;
Structure prediction by ZEFSAII (Michael W. Deem and Ramdas Pophale) SiO2 
 PCOD9204276
Probable space group: C 2/M
;
_chemical_formula_sum "Si O2"
_cell_formula_units_Z 56
_cell_length_a 12.168177
_cell_length_b 24.779660
_cell_length_c 9.929386
_cell_angle_alpha 90.000000
_cell_angle_beta 111.372339
_cell_angle_gamma 90.000000
_cell_volume 2788.053364
_symmetry_space_group_name_H-M "C 2/M"
_symmetry_group_IT_number 12
_symmetry_cell_setting 'monoclinic'
loop_
_space_group_symop_operation_xyz
x,y,z
-x,y,-z
-x,-y,-z
x,-y,z
1/2+x,1/2+y,z
1/2-x,1/2+y,-z
1/2-x,1/2-y,-z
1/2+x,1/2-y,z
loop_
_atom_site_type_symbol
_atom_site_label
_atom_site_fract_x
_atom_site_fract_y
_atom_site_fract_z
Si Si1 0.877027 0.809376 0.675646
Si Si2 0.778452 0.643216 0.168858
Si Si3 0.381203 0.558574 0.033654
Si Si4 0.771589 0.353777 0.618932
Si Si5 0.141787 0.437930 0.561407
Si Si6 0.050634 0.903622 0.660615
Si Si7 0.493486 0.794047 0.837145
O O1 0.805847 0.817674 0.782364
O O2 0.782407 0.810186 0.511108
O O3 0.964503 0.759521 0.737313
O O4 0.954257 0.862111 0.676309
O O5 0.703638 0.609139 0.028419
O O6 0.819307 0.597544 0.293693
O O7 0.887525 0.676172 0.157506
O O8 0.329297 0.500000 0.972130
O O9 0.500000 0.566242 0.000000
O O10 0.417085 0.557719 0.204742
O O11 0.811500 0.405097 0.547031
O O12 0.665976 0.370593 0.668603
O O13 0.882289 0.331838 0.750654
O O14 0.183982 0.500000 0.582773
O O15 0.000000 0.438499 0.500000
O O16 0.000000 0.928049 0.500000
O O17 0.500000 0.783051 0.000000
#
# Coordination Sequence:
#
# PCOD9204276 Si02
#       7
#     8   8   8   8   8   8   8
#     4  10  24  41  66  92 127 178 219 271 327 389
#     4  11  23  43  66  94 136 165 222 275 320 400
#     4  11  23  41  68  97 132 175 217 268 333 395
#     4  10  22  44  63  95 135 168 215 278 326 393
#     4  10  20  40  70  97 127 171 218 267 326 393
#     4  10  22  43  64  93 135 168 218 278 326 388
#     4  12  26  40  63  96 129 180 222 269 332 388
#
# _framework density 20.085699000000002
#
# number of rings (size 3 to 8) (size 9 to 14) (size 15 to 20)
#    0.000    1.429    2.857    1.714    4.000    1.429 
#    7.714    0.000    0.000    2.143    0.000    0.000 
#    0.000    0.000    0.000    0.000    0.000    0.000 
#
# Total GULP energy -156382.214296 kJ/mol
# GULP energy per Si atom -5585.079082 kJ/mol
# Density = 2.003998 g / cm^3
# Si number density = 20.085699 Si / 1000 Ang^3
#
#
#
# Elastic Constant Matrix: (Units=GPa)
#
#
# Indices 1 2 3 4 5 6 
#
# 1 96.9596 19.7804 29.3892 0.0000 7.8381 0.0000
# 2 19.7804 78.5273 27.2780 0.0000 12.4056 0.0000
# 3 29.3892 27.2780 105.9928 0.0000 -0.0686 0.0000
# 4 0.0000 0.0000 0.0000 20.4562 0.0000 4.5131
# 5 7.8381 12.4056 -0.0686 0.0000 21.2448 0.0000
# 6 0.0000 0.0000 0.0000 4.5131 0.0000 55.8855
#
#
#
# Elastic Compliance Matrix: (Units=1/GPa)
#
#
# Indices 1 2 3 4 5 6 
#
# 1 0.011765 -0.001396 -0.002905 0.000000 -0.003535 0.000000
# 2 -0.001396 0.015732 -0.003667 0.000000 -0.008683 0.000000
# 3 -0.002905 -0.003667 0.011186 0.000000 0.003249 0.000000
# 4 0.000000 0.000000 0.000000 0.049772 0.000000 -0.004019
# 5 -0.003535 -0.008683 0.003249 0.000000 0.053455 0.000000
# 6 0.000000 0.000000 0.000000 -0.004019 0.000000 0.018218
#
#
# Mechanical properties :
#
#
# Convention : Reuss Voigt Hill
#
# Bulk Modulus (GPa) = 43.96395 48.26388 46.11391
# Shear Modulus (GPa) = 27.22632 33.18612 30.20622
#
# Velocity S-wave (km/s) = 3.68572 4.06917 3.88218
# Velocity P-wave (km/s) = 6.32838 6.79402 6.56533
#
# Compressibility (1/GPa) = 0.02274591
#
# Stress axis : x y z
#
# Youngs Moduli (GPa) = 85.00051 63.56618 89.39742
#
# Poissons Ratio (x) = 0.08873 0.25971
# Poissons Ratio (y) = 0.11865 0.32784
# Poissons Ratio (z) = 0.24693 0.23311
#
# Static dielectric constant tensor:
#      x y z
#    x 1.682080 0.000000 0.033690 
#    y 0.000000 1.710940 0.000000 
#    z 0.033690 0.000000 1.734090 
# 
# From -- ./inp_files/53292.got.cif
#   From: 2010.05.17/outbox.cif.g08.bks.cpg/sg12_27_cif.got.tgz:53292.got - 2010.06.03 13:09:07.
