data_PCOD9204931
_publ_section_title
;
Structure prediction by ZEFSAII (Michael W. Deem and Ramdas Pophale) SiO2 
 PCOD9204931
Probable space group: C 2/M
;
_chemical_formula_sum "Si O2"
_cell_formula_units_Z 64
_cell_length_a 18.372991
_cell_length_b 22.297470
_cell_length_c 18.981048
_cell_angle_alpha 90.000000
_cell_angle_beta 148.659324
_cell_angle_gamma 90.000000
_cell_volume 4044.490847
_symmetry_space_group_name_H-M "C 2/M"
_symmetry_group_IT_number 12
_symmetry_cell_setting 'monoclinic'
loop_
_space_group_symop_operation_xyz
x,y,z
-x,y,-z
-x,-y,-z
x,-y,z
1/2+x,1/2+y,z
1/2-x,1/2+y,-z
1/2-x,1/2-y,-z
1/2+x,1/2-y,z
loop_
_atom_site_type_symbol
_atom_site_label
_atom_site_fract_x
_atom_site_fract_y
_atom_site_fract_z
Si Si1 0.692668 0.431487 0.095411
Si Si2 0.574476 0.265424 0.637199
Si Si3 0.610907 0.671343 0.410619
Si Si4 0.379208 0.740035 0.842390
Si Si5 0.903624 0.723341 0.708285
Si Si6 0.463925 0.148068 0.299097
Si Si7 0.743178 0.069823 0.547518
Si Si8 0.121799 0.101728 0.193084
O O1 0.716699 0.500000 0.093092
O O2 0.820670 0.388509 0.182345
O O3 0.674188 0.429462 0.164833
O O4 0.545400 0.408190 0.942802
O O5 0.500000 0.267671 0.500000
O O6 0.514979 0.316902 0.639571
O O7 0.739426 0.267524 0.759960
O O8 0.539315 0.202257 0.646903
O O9 0.747153 0.700220 0.561249
O O10 0.585055 0.711563 0.319416
O O11 0.653883 0.605581 0.420510
O O12 0.423894 0.773275 0.807980
O O13 0.346558 0.671930 0.791536
O O14 0.500000 0.737912 0.000000
O O15 0.007326 0.679843 0.751929
O O16 0.594986 0.104538 0.422359
O O17 0.805395 0.077122 0.677258
O O18 0.727991 0.000000 0.517686
#
# Coordination Sequence:
#
# PCOD9204931 Si02
#       8
#     8   8   8   8   8   8   8   8
#     4  11  21  35  49  68 105 149 179 199 247 305
#     4  11  19  33  55  76 102 137 172 208 262 318
#     4   9  18  33  53  75 101 137 172 208 258 314
#     4  12  20  34  54  79 107 135 170 215 260 305
#     4   9  18  34  52  75 105 134 166 213 267 307
#     4  10  21  34  52  79 102 131 175 221 252 298
#     4  11  21  34  53  76 104 136 175 217 251 293
#     4  11  20  35  48  73 106 143 172 204 245 304
#
# _framework density 15.823994000000001
#
# number of rings (size 3 to 8) (size 9 to 14) (size 15 to 20)
#    0.000    1.500    5.000    3.375    0.000    0.000 
#    2.250    3.125    0.000    0.375    0.000    0.000 
#    0.000   13.000    0.000    0.000    0.000    0.000 
#
# Total GULP energy -178585.728725 kJ/mol
# GULP energy per Si atom -5580.804023 kJ/mol
# Density = 1.578798 g / cm^3
# Si number density = 15.823994 Si / 1000 Ang^3
#
#
#
# Elastic Constant Matrix: (Units=GPa)
#
#
# Indices 1 2 3 4 5 6 
#
# 1 98.2233 37.6953 28.5088 0.0002 4.1122 0.0001
# 2 37.6953 57.2874 19.8691 0.0002 4.1224 0.0003
# 3 28.5088 19.8691 25.5956 -0.0005 7.0758 -0.0003
# 4 0.0002 0.0002 -0.0005 5.5984 -0.0007 -2.7959
# 5 4.1122 4.1224 7.0758 -0.0007 26.4161 -0.0005
# 6 0.0001 0.0003 -0.0003 -2.7959 -0.0005 12.1866
#
#
#
# Elastic Compliance Matrix: (Units=1/GPa)
#
#
# Indices 1 2 3 4 5 6 
#
# 1 0.016598 -0.006099 -0.014366 -0.000002 0.002216 -0.000001
# 2 -0.006099 0.026172 -0.013669 -0.000003 0.000526 -0.000002
# 3 -0.014366 -0.013669 0.069629 0.000007 -0.014281 0.000003
# 4 -0.000002 -0.000003 0.000007 0.201740 0.000005 0.046284
# 5 0.002216 0.000526 -0.014281 0.000005 0.041254 0.000003
# 6 -0.000001 -0.000002 0.000003 0.046284 0.000003 0.092676
#
#
# Mechanical properties :
#
#
# Convention : Reuss Voigt Hill
#
# Bulk Modulus (GPa) = 22.65939 39.25029 30.95484
# Shear Modulus (GPa) = 9.41539 15.17577 12.29558
#
# Velocity S-wave (km/s) = 2.44192 3.10019 2.79053
# Velocity P-wave (km/s) = 4.72243 6.13784 5.47606
#
# Compressibility (1/GPa) = 0.04413182
#
# Stress axis : x y z
#
# Youngs Moduli (GPa) = 60.24777 38.20914 14.36191
#
# Poissons Ratio (x) = 0.23302 0.20632
# Poissons Ratio (y) = 0.36743 0.19631
# Poissons Ratio (z) = 0.86550 0.52228
#
# Static dielectric constant tensor:
#      x y z
#    x 1.531420 0.000000 0.010020 
#    y 0.000000 1.537010 0.000000 
#    z 0.010020 0.000000 1.516900 
# 
# From -- ./inp_files/90638.got.cif
#   From: 2010.05.17/outbox.cif.g08.bks.cpg/sg12_46_cif.got.tgz:90638.got - 2010.06.03 13:09:07.
