data_PCOD9204693
_publ_section_title
;
Structure prediction by ZEFSAII (Michael W. Deem and Ramdas Pophale) SiO2 
 PCOD9204693
Probable space group: C 2/M
;
_chemical_formula_sum "Si O2"
_cell_formula_units_Z 64
_cell_length_a 5.698751
_cell_length_b 24.774775
_cell_length_c 22.096030
_cell_angle_alpha 90.000000
_cell_angle_beta 98.285276
_cell_angle_gamma 90.000000
_cell_volume 3087.073968
_symmetry_space_group_name_H-M "C 2/M"
_symmetry_group_IT_number 12
_symmetry_cell_setting 'monoclinic'
loop_
_space_group_symop_operation_xyz
x,y,z
-x,y,-z
-x,-y,-z
x,-y,z
1/2+x,1/2+y,z
1/2-x,1/2+y,-z
1/2-x,1/2-y,-z
1/2+x,1/2-y,z
loop_
_atom_site_type_symbol
_atom_site_label
_atom_site_fract_x
_atom_site_fract_y
_atom_site_fract_z
Si Si1 0.481492 0.439776 0.755351
Si Si2 0.120872 0.280136 0.623063
Si Si3 0.894015 0.327281 0.062277
Si Si4 0.669991 0.168878 0.757307
Si Si5 0.928774 0.394994 0.429909
Si Si6 0.322914 0.125116 0.834194
Si Si7 0.103309 0.938126 0.620853
Si Si8 0.967158 0.209861 0.877952
O O1 0.375154 0.500000 0.757200
O O2 0.309807 0.388003 0.755242
O O3 0.681372 0.428151 0.812880
O O4 0.599471 0.436654 0.693553
O O5 0.868980 0.248734 0.614653
O O6 0.089637 0.330951 0.578208
O O7 0.156264 0.302059 0.692940
O O8 0.618419 0.321759 0.065387
O O9 0.970142 0.376491 0.108839
O O10 0.961754 0.268451 0.094847
O O11 0.000000 0.330497 0.000000
O O12 0.420126 0.150976 0.775871
O O13 0.788528 0.207134 0.813203
O O14 0.152887 0.412036 0.395530
O O15 0.000000 0.411670 0.500000
O O16 0.660441 0.415836 0.406032
O O17 0.164085 0.170747 0.858727
O O18 0.109458 0.000000 0.600449
#
# Coordination Sequence:
#
# PCOD9204693 Si02
#       8
#     8   8   8   8   8   8   8   8
#     4  10  22  41  66  91 121 157 203 267 331 395
#     4  12  28  42  67  94 130 180 226 274 324 391
#     4  11  21  33  53  84 127 169 205 249 307 375
#     4  10  23  38  59  87 125 156 210 260 326 382
#     4  12  26  47  69  97 139 177 224 275 324 404
#     4  10  22  36  55  87 123 161 206 251 313 387
#     4  11  24  44  73 106 134 170 216 280 354 401
#     4  10  21  32  52  83 119 165 201 251 302 376
#
# _framework density 20.731605999999999
#
# number of rings (size 3 to 8) (size 9 to 14) (size 15 to 20)
#    0.000    1.250    2.500    2.625    7.000    2.500 
#    0.000    0.000    0.000    0.375    0.000    7.875 
#    0.000    0.000    0.000    0.000    0.000    0.000 
#
# Total GULP energy -178252.917860 kJ/mol
# GULP energy per Si atom -5570.403683 kJ/mol
# Density = 2.068442 g / cm^3
# Si number density = 20.731606 Si / 1000 Ang^3
#
#
#
# Elastic Constant Matrix: (Units=GPa)
#
#
# Indices 1 2 3 4 5 6 
#
# 1 107.8066 49.7630 10.7388 0.0000 -8.9259 0.0000
# 2 49.7630 99.7035 16.8183 0.0000 1.7940 0.0000
# 3 10.7388 16.8183 58.0399 0.0000 -1.1626 0.0000
# 4 0.0000 0.0000 0.0000 -430.8192 0.0000 76.0830
# 5 -8.9259 1.7940 -1.1626 0.0000 24.0696 0.0000
# 6 0.0000 0.0000 0.0000 76.0830 0.0000 22.4013
#
#
#
# Elastic Compliance Matrix: (Units=1/GPa)
#
#
# Indices 1 2 3 4 5 6 
#
# 1 0.012674 -0.006351 -0.000402 0.000000 0.005154 0.000000
# 2 -0.006351 0.013748 -0.002879 0.000000 -0.003519 0.000000
# 3 -0.000402 -0.002879 0.018157 0.000000 0.000943 0.000000
# 4 0.000000 0.000000 0.000000 -0.001451 0.000000 0.004928
# 5 0.005154 -0.003519 0.000943 0.000000 0.043765 0.000000
# 6 0.000000 0.000000 0.000000 0.004928 0.000000 0.027904
#
#
# Mechanical properties :
#
#
# Convention : Reuss Voigt Hill
#
# Bulk Modulus (GPa) = 39.50015 46.68780 43.09397
# Shear Modulus (GPa) = 35.08777 -64.32101 -14.61662
#
# Velocity S-wave (km/s) = 4.11844 -5.57610 -2.65814
# Velocity P-wave (km/s) = 6.45831 4.34606 3.37799
#
# Compressibility (1/GPa) = 0.02531636
#
# Stress axis : x y z
#
# Youngs Moduli (GPa) = 78.90122 72.73530 55.07502
#
# Poissons Ratio (x) = 0.46192 0.02211
# Poissons Ratio (y) = 0.50108 0.15858
# Poissons Ratio (z) = 0.03168 0.20943
#
# Static dielectric constant tensor:
#      x y z
#    x 2.111640 0.000000 0.083790 
#    y 0.000000 1.722640 0.000000 
#    z 0.083790 0.000000 1.780560 
# 
# From -- ./inp_files/331402.got.cif
#   From: 2010.05.17/outbox.cif.g08.bks.cpg/sg12_166_cif.got.tgz:331402.got - 2010.06.03 13:09:07.
