data_PCOD9204414
_publ_section_title
;
Structure prediction by ZEFSAII (Michael W. Deem and Ramdas Pophale) SiO2 
 PCOD9204414
Probable space group: C 2/M
;
_chemical_formula_sum "Si O2"
_cell_formula_units_Z 56
_cell_length_a 17.039644
_cell_length_b 27.520640
_cell_length_c 8.791459
_cell_angle_alpha 90.000000
_cell_angle_beta 41.011070
_cell_angle_gamma 90.000000
_cell_volume 2705.324875
_symmetry_space_group_name_H-M "C 2/M"
_symmetry_group_IT_number 12
_symmetry_cell_setting 'monoclinic'
loop_
_space_group_symop_operation_xyz
x,y,z
-x,y,-z
-x,-y,-z
x,-y,z
1/2+x,1/2+y,z
1/2-x,1/2+y,-z
1/2-x,1/2-y,-z
1/2+x,1/2-y,z
loop_
_atom_site_type_symbol
_atom_site_label
_atom_site_fract_x
_atom_site_fract_y
_atom_site_fract_z
Si Si1 0.818342 0.329610 0.577947
Si Si2 0.629455 0.607550 0.385275
Si Si3 0.688236 0.827858 0.049325
Si Si4 0.154638 0.000000 0.264765
Si Si5 0.486006 0.746330 0.700079
Si Si6 0.916911 0.159274 0.248602
Si Si7 0.996205 0.598152 0.188458
Si Si8 0.920194 0.500000 0.770754
O O1 0.804683 0.334239 0.779660
O O2 0.696277 0.318208 0.670929
O O3 0.912035 0.286243 0.413557
O O4 0.871301 0.379812 0.432504
O O5 0.500000 0.606085 0.500000
O O6 0.680063 0.553119 0.296028
O O7 0.625038 0.621217 0.566512
O O8 0.695679 0.651553 0.201922
O O9 0.639942 0.773660 0.087517
O O10 0.589154 0.863520 0.123819
O O11 0.000000 0.000000 0.500000
O O12 0.272368 0.000000 0.970881
O O13 0.500000 0.735963 0.500000
O O14 0.508690 0.700167 0.770450
O O15 0.000000 0.135872 0.000000
O O16 0.035607 0.546920 0.199428
O O17 0.000000 0.598460 0.000000
O O18 0.000000 0.500000 0.500000
#
# Coordination Sequence:
#
# PCOD9204414 Si02
#       8
#     8   8   8   4   8   8   8   4
#     4  10  22  39  62  94 134 176 221 281 348 416
#     4  11  23  43  69  95 132 181 232 285 348 429
#     4  10  20  41  67  95 131 173 227 282 349 415
#     4  10  24  45  75 105 140 187 242 280 354 423
#     4   9  21  40  64  94 130 175 225 285 350 422
#     4  12  25  41  60  93 131 178 233 284 351 421
#     4  11  22  38  63  99 138 177 222 284 350 412
#     4  12  23  41  72 111 145 180 239 298 357 422
#
# _framework density 20.699915000000001
#
# number of rings (size 3 to 8) (size 9 to 14) (size 15 to 20)
#    0.000    1.429    1.429    4.929    0.000    4.571 
#    0.000    3.929    0.000    0.000    0.000    0.000 
#    0.000    0.000    0.000    0.000    0.000    0.000 
#
# Total GULP energy -156190.518512 kJ/mol
# GULP energy per Si atom -5578.232804 kJ/mol
# Density = 2.065280 g / cm^3
# Si number density = 20.699915 Si / 1000 Ang^3
#
#
#
# Elastic Constant Matrix: (Units=GPa)
#
#
# Indices 1 2 3 4 5 6 
#
# 1 107.7137 35.7910 32.0806 0.0000 11.1594 0.0000
# 2 35.7910 81.3949 40.5545 0.0000 -3.6602 0.0000
# 3 32.0806 40.5545 118.7765 0.0000 7.2703 0.0000
# 4 0.0000 0.0000 0.0000 71.6263 0.0000 31.5653
# 5 11.1594 -3.6602 7.2703 0.0000 31.9020 0.0000
# 6 0.0000 0.0000 0.0000 31.5653 0.0000 154.3721
#
#
#
# Elastic Compliance Matrix: (Units=1/GPa)
#
#
# Indices 1 2 3 4 5 6 
#
# 1 0.011673 -0.004686 -0.001288 0.000000 -0.004327 0.000000
# 2 -0.004686 0.016953 -0.004809 0.000000 0.004680 0.000000
# 3 -0.001288 -0.004809 0.010563 0.000000 -0.002508 0.000000
# 4 0.000000 0.000000 0.000000 0.015344 0.000000 -0.003137
# 5 -0.004327 0.004680 -0.002508 0.000000 0.033968 0.000000
# 6 0.000000 0.000000 0.000000 -0.003137 0.000000 0.007119
#
#
# Mechanical properties :
#
#
# Convention : Reuss Voigt Hill
#
# Bulk Modulus (GPa) = 56.74565 58.30416 57.52491
# Shear Modulus (GPa) = 40.63075 64.87734 52.75405
#
# Velocity S-wave (km/s) = 4.43521 5.60445 5.05376
# Velocity P-wave (km/s) = 7.32810 8.37301 7.86792
#
# Compressibility (1/GPa) = 0.01762250
#
# Stress axis : x y z
#
# Youngs Moduli (GPa) = 85.66986 58.98755 94.67340
#
# Poissons Ratio (x) = 0.27639 0.12194
# Poissons Ratio (y) = 0.40141 0.45530
# Poissons Ratio (z) = 0.11034 0.28368
#
# Static dielectric constant tensor:
#      x y z
#    x 1.740710 0.000000 -0.070220 
#    y 0.000000 1.727800 0.000000 
#    z -0.070220 0.000000 1.815520 
# 
# From -- ./inp_files/80054.got.cif
#   From: 2010.05.17/outbox.cif.g08.bks.cpg/sg12_41_cif.got.tgz:80054.got - 2010.06.03 13:09:07.
