data_PCOD9204103
_publ_section_title
;
Structure prediction by ZEFSAII (Michael W. Deem and Ramdas Pophale) SiO2 
 PCOD9204103
Probable space group: C 2/M
;
_chemical_formula_sum "Si O2"
_cell_formula_units_Z 40
_cell_length_a 22.760716
_cell_length_b 16.487558
_cell_length_c 7.122109
_cell_angle_alpha 90.000000
_cell_angle_beta 43.344423
_cell_angle_gamma 90.000000
_cell_volume 1834.497046
_symmetry_space_group_name_H-M "C 2/M"
_symmetry_group_IT_number 12
_symmetry_cell_setting 'monoclinic'
loop_
_space_group_symop_operation_xyz
x,y,z
-x,y,-z
-x,-y,-z
x,-y,z
1/2+x,1/2+y,z
1/2-x,1/2+y,-z
1/2-x,1/2-y,-z
1/2+x,1/2-y,z
loop_
_atom_site_type_symbol
_atom_site_label
_atom_site_fract_x
_atom_site_fract_y
_atom_site_fract_z
Si Si1 0.349885 0.907374 0.156252
Si Si2 0.987731 0.914679 0.308314
Si Si3 0.428620 0.248511 0.007787
Si Si4 0.800694 0.142248 0.759007
Si Si5 0.248296 0.313076 0.291200
O O1 0.419317 0.839703 0.933910
O O2 0.276208 0.900333 0.171289
O O3 0.309748 0.872183 0.446152
O O4 0.378202 0.000000 0.110651
O O5 0.888044 0.901136 0.499849
O O6 0.000000 0.920414 0.500000
O O7 0.020283 0.000000 0.151279
O O8 0.032621 0.831928 0.154088
O O9 0.327458 0.277249 0.230947
O O10 0.500000 0.229766 0.000000
O O11 0.801838 0.236244 0.684966
O O12 0.786900 0.143196 0.015820
#
# Coordination Sequence:
#
# PCOD9204103 Si02
#       5
#     8   8   8   8   8
#     4  11  24  40  62  92 126 168 216 256 298 366
#     4  11  22  36  59  91 122 154 196 254 319 375
#     4  11  22  40  61  88 128 162 203 254 315 369
#     4  10  20  40  65  89 123 163 208 258 314 373
#     4  10  21  39  65  89 121 167 206 258 315 362
#
# _framework density 21.804341000000001
#
# number of rings (size 3 to 8) (size 9 to 14) (size 15 to 20)
#    0.000    1.400    2.000    5.400    0.000    3.200 
#    0.000    0.000    0.000    0.600    0.000    0.000 
#    0.000    0.000    0.000    0.000    0.000    0.000 
#
# Total GULP energy -111341.028738 kJ/mol
# GULP energy per Si atom -5567.051437 kJ/mol
# Density = 2.175471 g / cm^3
# Si number density = 21.804341 Si / 1000 Ang^3
#
#
#
# Elastic Constant Matrix: (Units=GPa)
#
#
# Indices 1 2 3 4 5 6 
#
# 1 110.2372 23.4303 15.5202 0.0000 -9.9274 0.0000
# 2 23.4303 202.1494 27.4837 0.0000 -15.9434 0.0000
# 3 15.5202 27.4837 29.5905 0.0000 5.0424 0.0000
# 4 0.0000 0.0000 0.0000 27.6977 0.0000 -0.2274
# 5 -9.9274 -15.9434 5.0424 0.0000 33.8889 0.0000
# 6 0.0000 0.0000 0.0000 -0.2274 0.0000 20.3277
#
#
#
# Elastic Compliance Matrix: (Units=1/GPa)
#
#
# Indices 1 2 3 4 5 6 
#
# 1 0.010277 -0.000073 -0.005981 0.000000 0.003866 0.000000
# 2 -0.000073 0.006108 -0.006280 0.000000 0.003786 0.000000
# 3 -0.005981 -0.006280 0.044700 0.000000 -0.011358 0.000000
# 4 0.000000 0.000000 0.000000 0.036107 0.000000 0.000404
# 5 0.003866 0.003786 -0.011358 0.000000 0.034112 0.000000
# 6 0.000000 0.000000 0.000000 0.000404 0.000000 0.049198
#
#
# Mechanical properties :
#
#
# Convention : Reuss Voigt Hill
#
# Bulk Modulus (GPa) = 27.46013 52.76062 40.11038
# Shear Modulus (GPa) = 23.00863 34.75240 28.88052
#
# Velocity S-wave (km/s) = 3.25196 3.99661 3.64336
# Velocity P-wave (km/s) = 5.16929 6.74885 6.01118
#
# Compressibility (1/GPa) = 0.03641643
#
# Stress axis : x y z
#
# Youngs Moduli (GPa) = 97.30326 163.72720 22.37142
#
# Poissons Ratio (x) = 0.01196 0.13381
# Poissons Ratio (y) = 0.00711 0.14049
# Poissons Ratio (z) = 0.58200 1.02817
#
# Static dielectric constant tensor:
#      x y z
#    x 1.728040 0.000000 0.055280 
#    y 0.000000 1.962490 0.000000 
#    z 0.055280 0.000000 1.904120 
# 
# From -- ./inp_files/95596.got.cif
#   From: 2010.05.17/outbox.cif.g08.bks.cpg/sg12_48_cif.got.tgz:95596.got - 2010.06.03 13:09:07.
