data_PCOD9204445
_publ_section_title
;
Structure prediction by ZEFSAII (Michael W. Deem and Ramdas Pophale) SiO2 
 PCOD9204445
Probable space group: C 2/M
;
_chemical_formula_sum "Si O2"
_cell_formula_units_Z 34
_cell_length_a 17.577505
_cell_length_b 17.602550
_cell_length_c 9.120486
_cell_angle_alpha 90.000000
_cell_angle_beta 31.746891
_cell_angle_gamma 90.000000
_cell_volume 1484.824240
_symmetry_space_group_name_H-M "C 2/M"
_symmetry_group_IT_number 12
_symmetry_cell_setting 'monoclinic'
loop_
_space_group_symop_operation_xyz
x,y,z
-x,y,-z
-x,-y,-z
x,-y,z
1/2+x,1/2+y,z
1/2-x,1/2+y,-z
1/2-x,1/2-y,-z
1/2+x,1/2-y,z
loop_
_atom_site_type_symbol
_atom_site_label
_atom_site_fract_x
_atom_site_fract_y
_atom_site_fract_z
Si Si1 0.595227 0.715500 0.211949
Si Si2 0.532856 0.868085 0.694793
Si Si3 0.294879 0.911643 0.322845
Si Si4 0.467741 0.414828 0.880482
Si Si5 0.500000 0.000000 0.500000
O O1 0.500000 0.681114 0.500000
O O2 0.495454 0.784694 0.320419
O O3 0.622125 0.651484 0.045532
O O4 0.750000 0.750000 0.000000
O O5 0.667711 0.870706 0.585760
O O6 0.533795 0.932556 0.569193
O O7 0.397294 0.884620 0.025225
O O8 0.128829 0.906711 0.551004
O O9 0.326305 0.000000 0.300727
O O10 0.410046 0.500000 0.947082
O O11 0.500000 0.408159 0.000000
#
# Coordination Sequence:
#
# PCOD9204445 Si02
#       5
#     8   8   8   8   2
#     4  12  28  47  65 105 143 180 228 283 359 416
#     4  11  22  39  67 103 136 179 221 288 339 409
#     4  10  20  41  69  97 133 174 239 276 336 404
#     4  10  25  47  72  98 131 187 237 286 337 411
#     4  12  20  38  64 108 144 178 218 280 356 420
#
# _framework density 22.898333000000001
#
# number of rings (size 3 to 8) (size 9 to 14) (size 15 to 20)
#    0.000    1.176    3.529    2.118    6.588    1.412 
#    6.353    0.000    0.000    0.000    0.000    0.000 
#    0.000    0.000    0.000    0.000    0.000    0.000 
#
# Total GULP energy -94861.990389 kJ/mol
# GULP energy per Si atom -5580.117082 kJ/mol
# Density = 2.284622 g / cm^3
# Si number density = 22.898333 Si / 1000 Ang^3
#
#
#
# Elastic Constant Matrix: (Units=GPa)
#
#
# Indices 1 2 3 4 5 6 
#
# 1 93.7826 73.2136 17.2143 0.0001 18.5937 -0.0001
# 2 73.2136 154.5558 2.9363 0.0001 17.0641 -0.0001
# 3 17.2143 2.9363 59.1113 0.0001 3.6617 -0.0001
# 4 0.0001 0.0001 0.0001 24.5733 -0.0001 8.8213
# 5 18.5937 17.0641 3.6617 -0.0001 31.1695 0.0001
# 6 -0.0001 -0.0001 -0.0001 8.8213 0.0001 59.8193
#
#
#
# Elastic Compliance Matrix: (Units=1/GPa)
#
#
# Indices 1 2 3 4 5 6 
#
# 1 0.019349 -0.008368 -0.004823 0.000000 -0.006394 0.000000
# 2 -0.008368 0.010506 0.001976 0.000000 -0.000992 0.000000
# 3 -0.004823 0.001976 0.018245 0.000000 -0.000348 0.000000
# 4 0.000000 0.000000 0.000000 0.042969 0.000000 -0.006337
# 5 -0.006394 -0.000992 -0.000348 0.000000 0.036481 0.000000
# 6 0.000000 0.000000 0.000000 -0.006337 0.000000 0.017651
#
#
# Mechanical properties :
#
#
# Convention : Reuss Voigt Hill
#
# Bulk Modulus (GPa) = 38.95419 54.90865 46.93142
# Shear Modulus (GPa) = 28.37887 37.38476 32.88181
#
# Velocity S-wave (km/s) = 3.52425 4.04498 3.79356
# Velocity P-wave (km/s) = 5.79734 6.77106 6.30303
#
# Compressibility (1/GPa) = 0.02567118
#
# Stress axis : x y z
#
# Youngs Moduli (GPa) = 51.68335 95.18346 54.80904
#
# Poissons Ratio (x) = 0.79648 0.26434
# Poissons Ratio (y) = 0.43248 -0.10833
# Poissons Ratio (z) = 0.24926 -0.18813
#
# Static dielectric constant tensor:
#      x y z
#    x 1.887170 0.000000 -0.004220 
#    y 0.000000 1.833180 0.000000 
#    z -0.004220 0.000000 1.927410 
# 
# From -- ./inp_files/74919.got.cif
#   From: 2010.05.17/outbox.cif.g08.bks.cpg/sg12_38_cif.got.tgz:74919.got - 2010.06.03 13:09:07.
