data_PCOD9204107
_publ_section_title
;
Structure prediction by ZEFSAII (Michael W. Deem and Ramdas Pophale) SiO2 
 PCOD9204107
Probable space group: C 2/M
;
_chemical_formula_sum "Si O2"
_cell_formula_units_Z 52
_cell_length_a 5.692678
_cell_length_b 21.227428
_cell_length_c 20.157822
_cell_angle_alpha 90.000000
_cell_angle_beta 115.406576
_cell_angle_gamma 90.000000
_cell_volume 2200.305113
_symmetry_space_group_name_H-M "C 2/M"
_symmetry_group_IT_number 12
_symmetry_cell_setting 'monoclinic'
loop_
_space_group_symop_operation_xyz
x,y,z
-x,y,-z
-x,-y,-z
x,-y,z
1/2+x,1/2+y,z
1/2-x,1/2+y,-z
1/2-x,1/2-y,-z
1/2+x,1/2-y,z
loop_
_atom_site_type_symbol
_atom_site_label
_atom_site_fract_x
_atom_site_fract_y
_atom_site_fract_z
Si Si1 0.352831 0.429102 0.822734
Si Si2 0.733147 0.231146 0.651227
Si Si3 0.423193 0.400058 0.684403
Si Si4 0.786505 0.071512 0.523714
Si Si5 0.187559 0.500000 0.955916
Si Si6 0.092723 0.625704 0.083065
Si Si7 0.071975 0.676584 0.216886
O O1 0.274034 0.500000 0.835923
O O2 0.383834 0.436367 0.747077
O O3 0.182742 0.365767 0.806941
O O4 0.630094 0.409342 0.886645
O O5 0.440030 0.257442 0.616818
O O6 0.716572 0.156916 0.658661
O O7 0.892817 0.262025 0.733252
O O8 0.406443 0.431877 0.611507
O O9 0.701786 0.367762 0.726763
O O10 0.500000 0.100778 0.500000
O O11 0.000000 0.101007 0.500000
O O12 0.738323 0.000000 0.491696
O O13 0.102169 0.569083 0.918243
O O14 0.500000 0.500000 0.000000
O O15 0.000000 0.500000 0.000000
O O16 0.109560 0.679178 0.141828
O O17 0.000000 0.648576 0.000000
#
# Coordination Sequence:
#
# PCOD9204107 Si02
#       7
#     8   8   8   8   4   8   8
#     4  11  22  36  59  96 128 164 218 271 334 395
#     4  10  20  40  65  90 120 164 219 269 321 372
#     4  10  22  41  64  93 129 168 224 266 322 384
#     4  10  23  41  66  99 140 179 210 254 321 393
#     4  10  22  36  56  82 122 176 206 252 330 404
#     4  10  23  37  55  86 129 172 214 268 334 400
#     4  10  23  36  62  92 123 172 218 277 328 389
#
# _framework density 23.633087
#
# number of rings (size 3 to 8) (size 9 to 14) (size 15 to 20)
#    0.000    1.846    2.308    0.462    7.538    1.231 
#    0.000    0.000    0.000   19.385    0.000    0.000 
#    0.000    0.000    0.000    0.000    0.000    0.000 
#
# Total GULP energy -144947.906615 kJ/mol
# GULP energy per Si atom -5574.919485 kJ/mol
# Density = 2.357930 g / cm^3
# Si number density = 23.633087 Si / 1000 Ang^3
#
#
#
# Elastic Constant Matrix: (Units=GPa)
#
#
# Indices 1 2 3 4 5 6 
#
# 1 112.2133 -5.6975 16.5829 0.0000 1.3749 0.0000
# 2 -5.6975 52.4917 -7.1381 0.0000 -14.1153 0.0000
# 3 16.5829 -7.1381 105.9219 0.0000 -10.6078 0.0000
# 4 0.0000 0.0000 0.0000 15.5474 0.0000 -5.9318
# 5 1.3749 -14.1153 -10.6078 0.0000 24.5765 0.0000
# 6 0.0000 0.0000 0.0000 -5.9318 0.0000 32.5194
#
#
#
# Elastic Compliance Matrix: (Units=1/GPa)
#
#
# Indices 1 2 3 4 5 6 
#
# 1 0.009169 0.000573 -0.001479 0.000000 -0.000822 0.000000
# 2 0.000573 0.023478 0.002968 0.000000 0.014734 0.000000
# 3 -0.001479 0.002968 0.010506 0.000000 0.006322 0.000000
# 4 0.000000 0.000000 0.000000 0.069131 0.000000 0.012610
# 5 -0.000822 0.014734 0.006322 0.000000 0.051926 0.000000
# 6 0.000000 0.000000 0.000000 0.012610 0.000000 0.033051
#
#
# Mechanical properties :
#
#
# Convention : Reuss Voigt Hill
#
# Bulk Modulus (GPa) = 21.15204 30.90240 26.02722
# Shear Modulus (GPa) = 23.93525 32.32062 28.12793
#
# Velocity S-wave (km/s) = 3.18588 3.70212 3.45366
# Velocity P-wave (km/s) = 4.74370 5.60166 5.19044
#
# Compressibility (1/GPa) = 0.04727676
#
# Stress axis : x y z
#
# Youngs Moduli (GPa) = 109.05869 42.59243 95.18674
#
# Poissons Ratio (x) = -0.02440 0.14081
# Poissons Ratio (y) = -0.06248 -0.28252
# Poissons Ratio (z) = 0.16133 -0.12642
#
# Static dielectric constant tensor:
#      x y z
#    x 2.037700 0.000000 -0.077580 
#    y 0.000000 2.117770 0.000000 
#    z -0.077580 0.000000 1.945290 
# 
# From -- ./inp_files/298129.got.cif
#   From: 2010.05.17/outbox.cif.g08.bks.cpg/sg12_150_cif.got.tgz:298129.got - 2010.06.03 13:09:07.
