data_PCOD9204911
_publ_section_title
;
Structure prediction by ZEFSAII (Michael W. Deem and Ramdas Pophale) SiO2 
 PCOD9204911
Probable space group: C 2/M
;
_chemical_formula_sum "Si O2"
_cell_formula_units_Z 48
_cell_length_a 13.102303
_cell_length_b 23.410377
_cell_length_c 12.924059
_cell_angle_alpha 90.000000
_cell_angle_beta 145.276851
_cell_angle_gamma 90.000000
_cell_volume 2258.051471
_symmetry_space_group_name_H-M "C 2/M"
_symmetry_group_IT_number 12
_symmetry_cell_setting 'monoclinic'
loop_
_space_group_symop_operation_xyz
x,y,z
-x,y,-z
-x,-y,-z
x,-y,z
1/2+x,1/2+y,z
1/2-x,1/2+y,-z
1/2-x,1/2-y,-z
1/2+x,1/2-y,z
loop_
_atom_site_type_symbol
_atom_site_label
_atom_site_fract_x
_atom_site_fract_y
_atom_site_fract_z
Si Si1 0.527863 0.263545 0.418706
Si Si2 0.635805 0.280266 0.025325
Si Si3 0.748408 0.932965 0.198125
Si Si4 0.330682 0.435435 0.499446
Si Si5 0.876272 0.339790 0.071373
Si Si6 0.206023 0.661802 0.497184
O O1 0.500000 0.297791 0.500000
O O2 0.331083 0.243682 0.222040
O O3 0.645538 0.301257 0.440846
O O4 0.640740 0.204974 0.530436
O O5 0.692925 0.324378 0.982432
O O6 0.500000 0.302185 0.000000
O O7 0.552816 0.220977 0.914382
O O8 0.741488 0.917029 0.314592
O O9 0.958061 0.932945 0.344877
O O10 0.691279 0.000000 0.137941
O O11 0.657321 0.887087 0.044896
O O12 0.272691 0.500000 0.465730
O O13 0.292260 0.399817 0.571082
O O14 0.027193 0.352384 0.282069
#
# Coordination Sequence:
#
# PCOD9204911 Si02
#       6
#     8   8   8   8   8   8
#     4  10  21  35  52  76 106 140 177 216 261 317
#     4  10  21  35  52  76 106 140 176 217 265 313
#     4   9  19  34  53  77 106 141 177 215 261 313
#     4   9  19  34  52  76 106 141 177 214 261 314
#     4  10  21  34  51  78 108 138 174 219 265 312
#     4  10  21  34  52  78 106 140 176 214 265 315
#
# _framework density 21.257265
#
# number of rings (size 3 to 8) (size 9 to 14) (size 15 to 20)
#    0.000    2.333    0.000    3.000    7.000    4.667 
#    0.000    1.667    0.000    1.000    0.000    0.000 
#    0.000    0.000    0.000    0.000    0.000    0.000 
#
# Total GULP energy -133691.067420 kJ/mol
# GULP energy per Si atom -5570.461142 kJ/mol
# Density = 2.120888 g / cm^3
# Si number density = 21.257265 Si / 1000 Ang^3
#
#
#
# Elastic Constant Matrix: (Units=GPa)
#
#
# Indices 1 2 3 4 5 6 
#
# 1 88.8099 20.4440 13.4329 0.0000 16.3866 0.0000
# 2 20.4440 83.4564 17.1502 0.0000 -0.4904 0.0000
# 3 13.4329 17.1502 72.5016 0.0000 5.2153 0.0000
# 4 0.0000 0.0000 0.0000 26.2696 0.0000 -7.8023
# 5 16.3866 -0.4904 5.2153 0.0000 20.8429 0.0000
# 6 0.0000 0.0000 0.0000 -7.8023 0.0000 20.7881
#
#
#
# Elastic Compliance Matrix: (Units=1/GPa)
#
#
# Indices 1 2 3 4 5 6 
#
# 1 0.014214 -0.003330 -0.001055 0.000000 -0.010989 0.000000
# 2 -0.003330 0.013398 -0.002814 0.000000 0.003637 0.000000
# 3 -0.001055 -0.002814 0.014867 0.000000 -0.002956 0.000000
# 4 0.000000 0.000000 0.000000 0.042843 0.000000 0.016080
# 5 -0.010989 0.003637 -0.002956 0.000000 0.057443 0.000000
# 6 0.000000 0.000000 0.000000 0.016080 0.000000 0.054140
#
#
# Mechanical properties :
#
#
# Convention : Reuss Voigt Hill
#
# Bulk Modulus (GPa) = 35.61234 38.53579 37.07406
# Shear Modulus (GPa) = 22.65918 26.49616 24.57767
#
# Velocity S-wave (km/s) = 3.26843 3.53434 3.40398
# Velocity P-wave (km/s) = 5.57072 5.90111 5.73829
#
# Compressibility (1/GPa) = 0.02808016
#
# Stress axis : x y z
#
# Youngs Moduli (GPa) = 70.35461 74.64045 67.26471
#
# Poissons Ratio (x) = 0.24852 0.07099
# Poissons Ratio (y) = 0.23425 0.18928
# Poissons Ratio (z) = 0.07425 0.21003
#
# Static dielectric constant tensor:
#      x y z
#    x 1.796160 0.000000 -0.031860 
#    y 0.000000 1.818330 0.000000 
#    z -0.031860 0.000000 1.886260 
# 
# From -- ./inp_files/218548.got.cif
#   From: 2010.05.17/outbox.cif.g08.bks.cpg/sg12_110_cif.got.tgz:218548.got - 2010.06.03 13:09:07.
