data_PCOD9204823
_publ_section_title
;
Structure prediction by ZEFSAII (Michael W. Deem and Ramdas Pophale) SiO2 
 PCOD9204823
Probable space group: C 2/M
;
_chemical_formula_sum "Si O2"
_cell_formula_units_Z 48
_cell_length_a 15.823797
_cell_length_b 9.641799
_cell_length_c 27.322767
_cell_angle_alpha 90.000000
_cell_angle_beta 30.030342
_cell_angle_gamma 90.000000
_cell_volume 2086.227028
_symmetry_space_group_name_H-M "C 2/M"
_symmetry_group_IT_number 12
_symmetry_cell_setting 'monoclinic'
loop_
_space_group_symop_operation_xyz
x,y,z
-x,y,-z
-x,-y,-z
x,-y,z
1/2+x,1/2+y,z
1/2-x,1/2+y,-z
1/2-x,1/2-y,-z
1/2+x,1/2-y,z
loop_
_atom_site_type_symbol
_atom_site_label
_atom_site_fract_x
_atom_site_fract_y
_atom_site_fract_z
Si Si1 0.087896 0.801252 0.781479
Si Si2 0.636889 0.000000 0.335286
Si Si3 0.989307 0.722164 0.681915
Si Si4 0.282123 0.000000 0.283937
Si Si5 0.776096 0.500000 0.393848
Si Si6 0.634439 0.341248 0.021123
Si Si7 0.765032 0.159288 0.873989
Si Si8 0.443237 0.500000 0.398927
O O1 0.107859 0.637457 0.774097
O O2 0.037540 0.849950 0.861735
O O3 0.938115 0.842344 0.819882
O O4 0.261397 0.878971 0.683949
O O5 0.553333 0.122208 0.341910
O O6 0.822661 0.772018 0.794464
O O7 0.103814 0.633625 0.661267
O O8 0.086854 0.859788 0.615766
O O9 0.196454 0.000000 0.380421
O O10 0.140796 0.000000 0.313607
O O11 0.657495 0.500000 0.500212
O O12 0.693752 0.500000 0.984152
O O13 0.750000 0.250000 0.000000
O O14 0.640001 0.255374 0.968327
O O15 0.709289 0.000000 0.896390
#
# Coordination Sequence:
#
# PCOD9204823 Si02
#       8
#     8   4   8   4   4   8   8   4
#     4  11  21  39  62  90 127 167 207 254 307 362
#     4  11  22  41  62  89 123 169 201 244 321 378
#     4  11  24  41  66  91 127 164 202 252 320 383
#     4  12  24  39  69  93 123 161 211 260 309 372
#     4  11  25  44  67  94 121 164 208 258 313 387
#     4  10  21  33  57  92 127 167 214 260 296 354
#     4  11  22  38  63  92 127 164 217 257 299 369
#     4  12  24  44  65  95 127 157 206 263 321 372
#
# _framework density 23.008040999999999
#
# number of rings (size 3 to 8) (size 9 to 14) (size 15 to 20)
#    0.000    1.000    5.833    2.250    8.167    0.000 
#    0.000    1.667    0.000    3.000    0.000    0.000 
#    0.000    0.000    0.000    0.000    0.000    0.000 
#
# Total GULP energy -133666.821319 kJ/mol
# GULP energy per Si atom -5569.450888 kJ/mol
# Density = 2.295567 g / cm^3
# Si number density = 23.008041 Si / 1000 Ang^3
#
#
#
# Elastic Constant Matrix: (Units=GPa)
#
#
# Indices 1 2 3 4 5 6 
#
# 1 63.2571 12.9121 -7.6711 -0.0001 -7.5042 0.0000
# 2 12.9121 217.8586 21.1524 0.0000 11.3053 -0.0001
# 3 -7.6711 21.1524 51.4272 0.0000 26.3150 0.0001
# 4 -0.0001 0.0000 0.0000 12.3441 -0.0001 3.2872
# 5 -7.5042 11.3053 26.3150 -0.0001 30.6733 0.0001
# 6 0.0000 -0.0001 0.0001 3.2872 0.0001 8.0613
#
#
#
# Elastic Compliance Matrix: (Units=1/GPa)
#
#
# Indices 1 2 3 4 5 6 
#
# 1 0.016634 -0.001286 0.001221 0.000000 0.003495 0.000000
# 2 -0.001286 0.004881 -0.001993 0.000000 -0.000404 0.000000
# 3 0.001221 -0.001993 0.035504 0.000000 -0.029426 0.000000
# 4 0.000000 0.000000 0.000000 0.090879 0.000000 -0.037058
# 5 0.003495 -0.000404 -0.029426 0.000000 0.058851 0.000000
# 6 0.000000 0.000000 0.000000 -0.037058 0.000000 0.139162
#
#
# Mechanical properties :
#
#
# Convention : Reuss Voigt Hill
#
# Bulk Modulus (GPa) = 18.90204 42.81440 30.85822
# Shear Modulus (GPa) = 13.59958 30.62568 22.11263
#
# Velocity S-wave (km/s) = 2.43385 3.65236 3.10350
# Velocity P-wave (km/s) = 4.01639 6.03616 5.12672
#
# Compressibility (1/GPa) = 0.05290434
#
# Stress axis : x y z
#
# Youngs Moduli (GPa) = 60.11867 204.88564 28.16609
#
# Poissons Ratio (x) = 0.26345 -0.03440
# Poissons Ratio (y) = 0.07730 0.05612
# Poissons Ratio (z) = -0.07343 0.40824
#
# Static dielectric constant tensor:
#      x y z
#    x 1.844540 0.000000 -0.007480 
#    y 0.000000 1.840500 0.000000 
#    z -0.007480 0.000000 1.949880 
# 
# From -- ./inp_files/377944.got.cif
#   From: 2010.05.17/outbox.cif.g08.bks.cpg/sg12_189_cif.got.tgz:377944.got - 2010.06.03 13:09:07.
