data_PCOD9204733
_publ_section_title
;
Structure prediction by ZEFSAII (Michael W. Deem and Ramdas Pophale) SiO2 
 PCOD9204733
Probable space group: C 2/M
;
_chemical_formula_sum "Si O2"
_cell_formula_units_Z 40
_cell_length_a 17.360204
_cell_length_b 27.035142
_cell_length_c 5.172341
_cell_angle_alpha 90.000000
_cell_angle_beta 116.502247
_cell_angle_gamma 90.000000
_cell_volume 2172.467657
_symmetry_space_group_name_H-M "C 2/M"
_symmetry_group_IT_number 12
_symmetry_cell_setting 'monoclinic'
loop_
_space_group_symop_operation_xyz
x,y,z
-x,y,-z
-x,-y,-z
x,-y,z
1/2+x,1/2+y,z
1/2-x,1/2+y,-z
1/2-x,1/2-y,-z
1/2+x,1/2-y,z
loop_
_atom_site_type_symbol
_atom_site_label
_atom_site_fract_x
_atom_site_fract_y
_atom_site_fract_z
Si Si1 0.589931 0.261690 0.195059
Si Si2 0.225454 0.804494 0.068869
Si Si3 0.396224 0.555760 0.856563
Si Si4 0.909914 0.693957 0.308225
Si Si5 0.103200 0.881816 0.640823
O O1 0.673527 0.293692 0.254551
O O2 0.587943 0.237830 0.473165
O O3 0.500000 0.289612 0.000000
O O4 0.589483 0.217567 0.978257
O O5 0.317809 0.831204 0.220106
O O6 0.250000 0.750000 0.000000
O O7 0.158776 0.834015 0.793095
O O8 0.362823 0.500000 0.770972
O O9 0.372743 0.593521 0.594439
O O10 0.500000 0.552690 0.000000
O O11 0.375869 0.578626 0.103375
O O12 0.000000 0.666531 0.500000
O O13 0.000000 0.871842 0.500000
#
# Coordination Sequence:
#
# PCOD9204733 Si02
#       5
#     8   8   8   8   8
#     4   9  18  30  45  62  87 127 171 208 246 289
#     4  10  21  33  48  70 104 142 174 210 252 295
#     4   9  18  35  56  76 101 130 161 208 266 316
#     4   9  18  32  46  62  86 127 175 210 242 282
#     4  10  21  33  50  77 104 134 173 208 248 310
#
# _framework density 18.412240000000001
#
# number of rings (size 3 to 8) (size 9 to 14) (size 15 to 20)
#    0.000    2.600    0.000    1.200    0.000   17.600 
#    0.000    0.000    0.000    0.000    0.000    0.000 
#    0.000    4.800    0.000    0.000    0.000    0.000 
#
# Total GULP energy -111525.241683 kJ/mol
# GULP energy per Si atom -5576.262084 kJ/mol
# Density = 1.837033 g / cm^3
# Si number density = 18.412240 Si / 1000 Ang^3
#
#
#
# Elastic Constant Matrix: (Units=GPa)
#
#
# Indices 1 2 3 4 5 6 
#
# 1 87.4617 6.2003 17.9103 0.0000 19.9800 0.0000
# 2 6.2003 67.1537 23.7813 0.0000 5.4145 0.0000
# 3 17.9103 23.7813 75.3928 0.0000 -2.2364 0.0000
# 4 0.0000 0.0000 0.0000 13.3808 0.0000 5.5156
# 5 19.9800 5.4145 -2.2364 0.0000 39.7710 0.0000
# 6 0.0000 0.0000 0.0000 5.5156 0.0000 4.7890
#
#
#
# Elastic Compliance Matrix: (Units=1/GPa)
#
#
# Indices 1 2 3 4 5 6 
#
# 1 0.013794 0.000613 -0.003685 0.000000 -0.007221 0.000000
# 2 0.000613 0.017060 -0.005615 0.000000 -0.002947 0.000000
# 3 -0.003685 -0.005615 0.016014 0.000000 0.003516 0.000000
# 4 0.000000 0.000000 0.000000 0.142278 0.000000 -0.163862
# 5 -0.007221 -0.002947 0.003516 0.000000 0.029370 0.000000
# 6 0.000000 0.000000 0.000000 -0.163862 0.000000 0.397531
#
#
# Mechanical properties :
#
#
# Convention : Reuss Voigt Hill
#
# Bulk Modulus (GPa) = 33.90110 36.19911 35.05011
# Shear Modulus (GPa) = 7.77300 23.72925 15.75113
#
# Velocity S-wave (km/s) = 2.05689 3.59385 2.92802
# Velocity P-wave (km/s) = 4.90849 6.07651 5.52347
#
# Compressibility (1/GPa) = 0.02949757
#
# Stress axis : x y z
#
# Youngs Moduli (GPa) = 72.49470 58.61517 62.44347
#
# Poissons Ratio (x) = -0.03596 0.23008
# Poissons Ratio (y) = -0.04447 0.35059
# Poissons Ratio (z) = 0.26711 0.32910
#
# Static dielectric constant tensor:
#      x y z
#    x 1.728560 0.000000 0.037710 
#    y 0.000000 1.624170 0.000000 
#    z 0.037710 0.000000 1.707360 
# 
# From -- ./inp_files/17250.got.cif
#   From: 2010.05.17/outbox.cif.g08.bks.cpg/sg12_9_cif.got.tgz:17250.got - 2010.06.03 13:09:07.
