data_PCOD9204334
_publ_section_title
;
Structure prediction by ZEFSAII (Michael W. Deem and Ramdas Pophale) SiO2 
 PCOD9204334
Probable space group: C 2/M
;
_chemical_formula_sum "Si O2"
_cell_formula_units_Z 64
_cell_length_a 19.146521
_cell_length_b 9.083417
_cell_length_c 33.805757
_cell_angle_alpha 90.000000
_cell_angle_beta 148.160476
_cell_angle_gamma 90.000000
_cell_volume 3101.607137
_symmetry_space_group_name_H-M "C 2/M"
_symmetry_group_IT_number 12
_symmetry_cell_setting 'monoclinic'
loop_
_space_group_symop_operation_xyz
x,y,z
-x,y,-z
-x,-y,-z
x,-y,z
1/2+x,1/2+y,z
1/2-x,1/2+y,-z
1/2-x,1/2-y,-z
1/2+x,1/2-y,z
loop_
_atom_site_type_symbol
_atom_site_label
_atom_site_fract_x
_atom_site_fract_y
_atom_site_fract_z
Si Si1 0.864966 0.824496 0.221740
Si Si2 0.345100 0.326536 0.749054
Si Si3 0.433586 0.330868 0.531795
Si Si4 0.079671 0.175870 0.079449
Si Si5 0.328978 0.328287 0.003790
Si Si6 0.793706 0.170193 0.387535
Si Si7 0.079917 0.324424 0.670654
Si Si8 0.919341 0.328144 0.167932
O O1 0.713831 0.765794 0.147175
O O2 0.928733 0.756803 0.291851
O O3 0.931587 0.760013 0.214429
O O4 0.869377 0.000000 0.224342
O O5 0.369344 0.500000 0.763360
O O6 0.292361 0.278518 0.680334
O O7 0.225547 0.289753 0.721640
O O8 0.481732 0.237888 0.817340
O O9 0.407524 0.500000 0.531312
O O10 0.567086 0.332866 0.569332
O O11 0.321909 0.284401 0.446364
O O12 0.469726 0.231657 0.586570
O O13 0.108536 0.000000 0.097461
O O14 0.000000 0.193720 0.000000
O O15 0.974856 0.223312 0.062539
O O16 0.340457 0.500000 0.019076
O O17 0.231826 0.315521 0.919301
O O18 0.250000 0.250000 0.000000
O O19 0.745451 0.000000 0.364222
O O20 0.072341 0.500000 0.671621
O O21 0.947366 0.500000 0.187088
#
# Coordination Sequence:
#
# PCOD9204334 Si02
#       8
#     8   8   8   8   8   8   8   8
#     4  12  25  39  59  85 112 146 190 236 279 331
#     4  10  21  35  54  84 116 148 189 235 277 327
#     4   8  14  27  49  78 111 144 186 232 274 323
#     4  10  20  41  64  82 109 146 186 226 276 334
#     4  10  23  40  61  86 113 145 181 227 279 332
#     4   8  14  27  49  77 110 149 184 225 279 330
#     4  10  21  36  55  82 116 152 188 230 282 331
#     4  11  23  42  61  80 111 152 189 226 282 341
#
# _framework density 20.634464000000001
#
# number of rings (size 3 to 8) (size 9 to 14) (size 15 to 20)
#    0.000    2.125    1.250    3.000    1.750    3.750 
#    0.000    2.500    0.000    0.750    0.000    0.000 
#    0.000    0.000    0.000    0.000    0.000    0.000 
#
# Total GULP energy -178673.487790 kJ/mol
# GULP energy per Si atom -5583.546493 kJ/mol
# Density = 2.058750 g / cm^3
# Si number density = 20.634464 Si / 1000 Ang^3
#
#
#
# Elastic Constant Matrix: (Units=GPa)
#
#
# Indices 1 2 3 4 5 6 
#
# 1 65.9013 24.9633 1.5122 0.0001 -19.2390 -0.0001
# 2 24.9633 66.2299 8.4561 0.0001 -21.2821 -0.0001
# 3 1.5122 8.4561 31.8540 0.0000 -16.0409 0.0000
# 4 0.0001 0.0001 0.0000 30.9955 0.0000 -1.3673
# 5 -19.2390 -21.2821 -16.0409 0.0000 29.5647 0.0001
# 6 -0.0001 -0.0001 0.0000 -1.3673 0.0001 20.6179
#
#
#
# Elastic Compliance Matrix: (Units=1/GPa)
#
#
# Indices 1 2 3 4 5 6 
#
# 1 0.020838 -0.004094 0.007488 0.000000 0.014675 0.000000
# 2 -0.004094 0.020608 0.001173 0.000000 0.012806 0.000000
# 3 0.007488 0.001173 0.046239 0.000000 0.030805 0.000000
# 4 0.000000 0.000000 0.000000 0.032357 0.000000 0.002146
# 5 0.014675 0.012806 0.030805 0.000000 0.069306 0.000000
# 6 0.000000 0.000000 0.000000 0.002146 0.000000 0.048644
#
#
# Mechanical properties :
#
#
# Convention : Reuss Voigt Hill
#
# Bulk Modulus (GPa) = 10.32887 25.98316 18.15601
# Shear Modulus (GPa) = 19.14745 24.83918 21.99332
#
# Velocity S-wave (km/s) = 3.04951 3.47331 3.26828
# Velocity P-wave (km/s) = 4.17323 5.35767 4.80211
#
# Compressibility (1/GPa) = 0.09681604
#
# Stress axis : x y z
#
# Youngs Moduli (GPa) = 47.99019 48.52592 21.62684
#
# Poissons Ratio (x) = 0.19868 -0.16194
# Poissons Ratio (y) = 0.19649 -0.02536
# Poissons Ratio (z) = -0.35934 -0.05690
#
# Static dielectric constant tensor:
#      x y z
#    x 1.750340 0.000000 0.003260 
#    y 0.000000 1.682560 0.000000 
#    z 0.003260 0.000000 1.785880 
# 
# From -- ./inp_files/378481.got.cif
#   From: 2010.05.17/outbox.cif.g08.bks.cpg/sg12_190_cif.got.tgz:378481.got - 2010.06.03 13:09:07.
