data_PCOD9204378
_publ_section_title
;
Structure prediction by ZEFSAII (Michael W. Deem and Ramdas Pophale) SiO2 
 PCOD9204378
Probable space group: C 2/M
;
_chemical_formula_sum "Si O2"
_cell_formula_units_Z 32
_cell_length_a 20.188017
_cell_length_b 8.731532
_cell_length_c 9.865273
_cell_angle_alpha 90.000000
_cell_angle_beta 76.375014
_cell_angle_gamma 90.000000
_cell_volume 1690.036939
_symmetry_space_group_name_H-M "C 2/M"
_symmetry_group_IT_number 12
_symmetry_cell_setting 'monoclinic'
loop_
_space_group_symop_operation_xyz
x,y,z
-x,y,-z
-x,-y,-z
x,-y,z
1/2+x,1/2+y,z
1/2-x,1/2+y,-z
1/2-x,1/2-y,-z
1/2+x,1/2-y,z
loop_
_atom_site_type_symbol
_atom_site_label
_atom_site_fract_x
_atom_site_fract_y
_atom_site_fract_z
Si Si1 0.955772 0.323989 0.385327
Si Si2 0.188473 0.316011 0.119325
Si Si3 0.809102 0.314961 0.565679
Si Si4 0.042779 0.818595 0.110481
O O1 0.951763 0.500000 0.335367
O O2 0.881028 0.270073 0.464153
O O3 0.000000 0.328293 0.500000
O O4 0.994552 0.219972 0.260122
O O5 0.191043 0.500000 0.115095
O O6 0.194461 0.266461 0.274753
O O7 0.115419 0.262153 0.097247
O O8 0.250000 0.250000 0.000000
O O9 0.806628 0.500000 0.566825
O O10 0.750000 0.250000 0.500000
O O11 0.054948 0.000000 0.093426
O O12 0.000000 0.767087 0.000000
#
# Coordination Sequence:
#
# PCOD9204378 Si02
#       4
#     8   8   8   8
#     4  10  20  41  66  89 119 159 206 255 307 363
#     4  11  24  44  65  90 126 165 206 254 306 367
#     4  10  23  41  63  91 124 160 202 252 306 364
#     4  11  25  42  62  93 127 162 206 256 307 364
#
# _framework density 18.934497
#
# number of rings (size 3 to 8) (size 9 to 14) (size 15 to 20)
#    0.000    1.500    2.500    1.500    3.500    5.500 
#    0.000    0.000    0.000    0.000    0.000    0.000 
#    0.000    0.000    0.000    0.000    0.000    0.000 
#
# Total GULP energy -89387.273833 kJ/mol
# GULP energy per Si atom -5586.704615 kJ/mol
# Density = 1.889140 g / cm^3
# Si number density = 18.934497 Si / 1000 Ang^3
#
#
#
# Elastic Constant Matrix: (Units=GPa)
#
#
# Indices 1 2 3 4 5 6 
#
# 1 202.9076 40.7654 90.6332 0.0000 -7.1799 0.0000
# 2 40.7654 32.3091 34.1945 0.0000 0.9331 0.0000
# 3 90.6332 34.1945 122.6707 0.0000 -0.9815 0.0000
# 4 0.0000 0.0000 0.0000 35.0107 0.0000 -3.1949
# 5 -7.1799 0.9331 -0.9815 0.0000 37.7535 0.0000
# 6 0.0000 0.0000 0.0000 -3.1949 0.0000 58.8808
#
#
#
# Elastic Compliance Matrix: (Units=1/GPa)
#
#
# Indices 1 2 3 4 5 6 
#
# 1 0.008065 -0.005571 -0.004393 0.000000 0.001557 0.000000
# 2 -0.005571 0.047826 -0.009235 0.000000 -0.002482 0.000000
# 3 -0.004393 -0.009235 0.013970 0.000000 -0.000244 0.000000
# 4 0.000000 0.000000 0.000000 0.028705 0.000000 0.001558
# 5 0.001557 -0.002482 -0.000244 0.000000 0.026839 0.000000
# 6 0.000000 0.000000 0.000000 0.001558 0.000000 0.017068
#
#
# Mechanical properties :
#
#
# Convention : Reuss Voigt Hill
#
# Bulk Modulus (GPa) = 31.78441 76.56373 54.17407
# Shear Modulus (GPa) = 26.12875 39.14861 32.63868
#
# Velocity S-wave (km/s) = 3.71880 4.55200 4.15633
# Velocity P-wave (km/s) = 5.93821 8.25539 7.19075
#
# Compressibility (1/GPa) = 0.03146197
#
# Stress axis : x y z
#
# Youngs Moduli (GPa) = 123.99028 20.90902 71.58099
#
# Poissons Ratio (x) = 0.11649 0.31448
# Poissons Ratio (y) = 0.69079 0.66106
# Poissons Ratio (z) = 0.54473 0.19310
#
# Static dielectric constant tensor:
#      x y z
#    x 1.649850 0.000000 0.020950 
#    y 0.000000 1.664970 0.000000 
#    z 0.020950 0.000000 1.633290 
# 
# From -- ./inp_files/81635.got.cif
#   From: 2010.05.17/outbox.cif.g08.bks.cpg/sg12_41_cif.got.tgz:81635.got - 2010.06.03 13:09:07.
