data_PCOD9204359
_publ_section_title
;
Structure prediction by ZEFSAII (Michael W. Deem and Ramdas Pophale) SiO2 
 PCOD9204359
Probable space group: C 2/M
;
_chemical_formula_sum "Si O2"
_cell_formula_units_Z 52
_cell_length_a 17.738066
_cell_length_b 11.669670
_cell_length_c 13.844583
_cell_angle_alpha 90.000000
_cell_angle_beta 61.347060
_cell_angle_gamma 90.000000
_cell_volume 2514.848290
_symmetry_space_group_name_H-M "C 2/M"
_symmetry_group_IT_number 12
_symmetry_cell_setting 'monoclinic'
loop_
_space_group_symop_operation_xyz
x,y,z
-x,y,-z
-x,-y,-z
x,-y,z
1/2+x,1/2+y,z
1/2-x,1/2+y,-z
1/2-x,1/2-y,-z
1/2+x,1/2-y,z
loop_
_atom_site_type_symbol
_atom_site_label
_atom_site_fract_x
_atom_site_fract_y
_atom_site_fract_z
Si Si1 0.837915 0.264193 0.824444
Si Si2 0.733539 0.868251 0.321025
Si Si3 0.159574 0.364128 0.971426
Si Si4 0.402510 0.222947 0.184964
Si Si5 0.568926 0.806546 0.543703
Si Si6 0.555101 0.000000 0.713048
Si Si7 0.990944 0.865320 0.279920
O O1 0.811504 0.349079 0.755195
O O2 0.756211 0.183683 0.897707
O O3 0.916236 0.183309 0.747617
O O4 0.863431 0.334431 0.904419
O O5 0.810863 0.777210 0.274245
O O6 0.661089 0.841900 0.444746
O O7 0.763344 0.000000 0.312254
O O8 0.154608 0.500000 0.959771
O O9 0.103628 0.298350 0.925668
O O10 0.421135 0.101751 0.223222
O O11 0.468658 0.314135 0.188500
O O12 0.500000 0.799473 0.500000
O O13 0.572766 0.688723 0.601471
O O14 0.539520 0.900416 0.639441
O O15 0.988578 0.000000 0.280493
#
# Coordination Sequence:
#
# PCOD9204359 Si02
#       7
#     8   8   8   8   8   4   8
#     4  10  22  39  65  94 121 158 210 250 313 361
#     4  11  22  40  62  92 126 165 207 254 306 363
#     4  10  20  41  65  92 122 159 204 254 304 367
#     4  10  23  41  61  92 126 167 203 251 307 366
#     4  11  22  40  63  91 121 162 208 254 308 362
#     4  10  21  38  62  85 127 164 197 247 307 363
#     4  11  24  43  62  90 126 161 206 258 307 369
#
# _framework density 20.677192999999999
#
# number of rings (size 3 to 8) (size 9 to 14) (size 15 to 20)
#    0.000    1.538    3.077    1.615    0.000    3.385 
#    9.692    3.846    0.000    0.000    0.000    0.000 
#    0.000    0.000    0.000    0.000    0.000    0.000 
#
# Total GULP energy -144795.376930 kJ/mol
# GULP energy per Si atom -5569.052959 kJ/mol
# Density = 2.063013 g / cm^3
# Si number density = 20.677193 Si / 1000 Ang^3
#
#
#
# Elastic Constant Matrix: (Units=GPa)
#
#
# Indices 1 2 3 4 5 6 
#
# 1 55.6586 -0.7016 9.5274 0.0000 15.8810 0.0000
# 2 -0.7016 126.1815 11.3341 0.0000 3.8331 0.0000
# 3 9.5274 11.3341 54.5102 0.0000 15.7213 0.0000
# 4 0.0000 0.0000 0.0000 11.5997 0.0000 11.3716
# 5 15.8810 3.8331 15.7213 0.0000 36.8932 0.0000
# 6 0.0000 0.0000 0.0000 11.3716 0.0000 24.8230
#
#
#
# Elastic Compliance Matrix: (Units=1/GPa)
#
#
# Indices 1 2 3 4 5 6 
#
# 1 0.020578 0.000484 -0.001286 0.000000 -0.008360 0.000000
# 2 0.000484 0.008088 -0.001669 0.000000 -0.000337 0.000000
# 3 -0.001286 -0.001669 0.021329 0.000000 -0.008362 0.000000
# 4 0.000000 0.000000 0.000000 0.156487 0.000000 -0.071688
# 5 -0.008360 -0.000337 -0.008362 0.000000 0.034302 0.000000
# 6 0.000000 0.000000 0.000000 -0.071688 0.000000 0.073126
#
#
# Mechanical properties :
#
#
# Convention : Reuss Voigt Hill
#
# Bulk Modulus (GPa) = 22.19626 30.74112 26.46869
# Shear Modulus (GPa) = 14.97588 29.07587 22.02587
#
# Velocity S-wave (km/s) = 2.69415 3.75398 3.26732
# Velocity P-wave (km/s) = 4.52060 5.80424 5.20217
#
# Compressibility (1/GPa) = 0.04505263
#
# Stress axis : x y z
#
# Youngs Moduli (GPa) = 48.59464 123.64086 46.88539
#
# Poissons Ratio (x) = -0.05983 0.06030
# Poissons Ratio (y) = -0.02352 0.07825
# Poissons Ratio (z) = 0.06250 0.20635
#
# Static dielectric constant tensor:
#      x y z
#    x 1.779710 0.000000 -0.026240 
#    y 0.000000 1.697260 0.000000 
#    z -0.026240 0.000000 1.768090 
# 
# From -- ./inp_files/223061.got.cif
#   From: 2010.05.17/outbox.cif.g08.bks.cpg/sg12_112_cif.got.tgz:223061.got - 2010.06.03 13:09:07.
