data_PCOD9204640
_publ_section_title
;
Structure prediction by ZEFSAII (Michael W. Deem and Ramdas Pophale) SiO2 
 PCOD9204640
Probable space group: C 2/M
;
_chemical_formula_sum "Si O2"
_cell_formula_units_Z 40
_cell_length_a 10.907797
_cell_length_b 24.759136
_cell_length_c 10.207311
_cell_angle_alpha 90.000000
_cell_angle_beta 42.160663
_cell_angle_gamma 90.000000
_cell_volume 1850.305663
_symmetry_space_group_name_H-M "C 2/M"
_symmetry_group_IT_number 12
_symmetry_cell_setting 'monoclinic'
loop_
_space_group_symop_operation_xyz
x,y,z
-x,y,-z
-x,-y,-z
x,-y,z
1/2+x,1/2+y,z
1/2-x,1/2+y,-z
1/2-x,1/2-y,-z
1/2+x,1/2-y,z
loop_
_atom_site_type_symbol
_atom_site_label
_atom_site_fract_x
_atom_site_fract_y
_atom_site_fract_z
Si Si1 0.963164 0.500000 0.877130
Si Si2 0.292626 0.594609 0.357618
Si Si3 0.367928 0.903185 0.785973
Si Si4 0.892071 0.780719 0.292034
Si Si5 0.147882 0.718564 0.260305
Si Si6 0.386026 0.500000 0.456071
O O1 0.860579 0.446181 0.908279
O O2 0.831220 0.500000 0.342977
O O3 0.000000 0.500000 0.000000
O O4 0.263627 0.578834 0.228949
O O5 0.369487 0.654848 0.311761
O O6 0.410403 0.553013 0.348066
O O7 0.082060 0.595632 0.574272
O O8 0.328950 0.839416 0.827837
O O9 0.750000 0.750000 0.500000
O O10 0.826767 0.764791 0.198681
O O11 0.077690 0.761109 0.210615
O O12 0.000000 0.711241 0.500000
O O13 0.500000 0.500000 0.500000
#
# Coordination Sequence:
#
# PCOD9204640 Si02
#       6
#     4   8   8   8   8   4
#     4  10  21  33  49  69  91 128 166 198 240 282
#     4   9  15  27  43  67  92 125 152 191 244 278
#     4   9  14  28  46  63  88 117 165 201 221 277
#     4   9  14  22  36  60  97 120 148 182 239 293
#     4   9  14  23  37  64  96 120 149 191 237 282
#     4  10  21  31  45  71 107 118 150 204 250 282
#
# _framework density 21.618048999999999
#
# number of rings (size 3 to 8) (size 9 to 14) (size 15 to 20)
#    0.000    2.800    6.000    0.600    0.000    4.800 
#    0.000    0.000    0.000    2.400    0.000    5.600 
#    0.000    0.000    0.000    0.000    0.000    0.000 
#
# Total GULP energy -111504.653017 kJ/mol
# GULP energy per Si atom -5575.232651 kJ/mol
# Density = 2.156885 g / cm^3
# Si number density = 21.618049 Si / 1000 Ang^3
#
#
#
# Elastic Constant Matrix: (Units=GPa)
#
#
# Indices 1 2 3 4 5 6 
#
# 1 193.3141 121.7282 53.9597 0.0000 61.8691 0.0000
# 2 121.7282 133.5091 38.3179 0.0000 53.7511 0.0000
# 3 53.9597 38.3179 49.7197 0.0000 5.3786 0.0000
# 4 0.0000 0.0000 0.0000 5.3206 0.0000 21.6461
# 5 61.8691 53.7511 5.3786 0.0000 51.0313 0.0000
# 6 0.0000 0.0000 0.0000 21.6461 0.0000 42.9251
#
#
#
# Elastic Compliance Matrix: (Units=1/GPa)
#
#
# Indices 1 2 3 4 5 6 
#
# 1 0.016352 -0.007420 -0.010853 0.000000 -0.010866 0.000000
# 2 -0.007420 0.021482 -0.007110 0.000000 -0.012882 0.000000
# 3 -0.010853 -0.007110 0.035542 0.000000 0.016900 0.000000
# 4 0.000000 0.000000 0.000000 -0.178731 0.000000 0.090130
# 5 -0.010866 -0.012882 0.016900 0.000000 0.044557 0.000000
# 6 0.000000 0.000000 0.000000 0.090130 0.000000 -0.022154
#
#
# Mechanical properties :
#
#
# Convention : Reuss Voigt Hill
#
# Bulk Modulus (GPa) = 44.22493 89.39495 66.80994
# Shear Modulus (GPa) = -202.82640 30.69119 -86.06760
#
# Velocity S-wave (km/s) = -9.69672 3.77198 -6.31659
# Velocity P-wave (km/s) = 10.24044 7.77253 4.71458
#
# Compressibility (1/GPa) = 0.02261168
#
# Stress axis : x y z
#
# Youngs Moduli (GPa) = 61.15552 46.55081 28.13561
#
# Poissons Ratio (x) = 0.34538 0.30535
# Poissons Ratio (y) = 0.45374 0.20004
# Poissons Ratio (z) = 0.66370 0.33097
#
# Static dielectric constant tensor:
#      x y z
#    x 1.717360 0.000000 0.010510 
#    y 0.000000 1.744620 0.000000 
#    z 0.010510 0.000000 1.845970 
# 
# From -- ./inp_files/50467.got.cif
#   From: 2010.05.17/outbox.cif.g08.bks.cpg/sg12_26_cif.got.tgz:50467.got - 2010.06.03 13:09:07.
