data_PCOD9204674
_publ_section_title
;
Structure prediction by ZEFSAII (Michael W. Deem and Ramdas Pophale) SiO2 
 PCOD9204674
Probable space group: C 2/M
;
_chemical_formula_sum "Si O2"
_cell_formula_units_Z 56
_cell_length_a 9.041634
_cell_length_b 27.139022
_cell_length_c 15.543597
_cell_angle_alpha 90.000000
_cell_angle_beta 132.013700
_cell_angle_gamma 90.000000
_cell_volume 2833.822067
_symmetry_space_group_name_H-M "C 2/M"
_symmetry_group_IT_number 12
_symmetry_cell_setting 'monoclinic'
loop_
_space_group_symop_operation_xyz
x,y,z
-x,y,-z
-x,-y,-z
x,-y,z
1/2+x,1/2+y,z
1/2-x,1/2+y,-z
1/2-x,1/2-y,-z
1/2+x,1/2-y,z
loop_
_atom_site_type_symbol
_atom_site_label
_atom_site_fract_x
_atom_site_fract_y
_atom_site_fract_z
Si Si1 0.802320 0.253708 0.321623
Si Si2 0.674576 0.683237 0.433024
Si Si3 0.524628 0.891028 0.865777
Si Si4 0.404918 0.374843 0.216085
Si Si5 0.600206 0.442917 0.949041
Si Si6 0.703735 0.201281 0.031804
Si Si7 0.481088 0.179288 0.709365
O O1 0.779457 0.288349 0.395513
O O2 0.624412 0.214279 0.260242
O O3 0.998393 0.219438 0.396065
O O4 0.827748 0.290900 0.251196
O O5 0.570022 0.634580 0.353103
O O6 0.828091 0.675546 0.570053
O O7 0.307858 0.890955 0.825800
O O8 0.508996 0.874274 0.761030
O O9 0.662079 0.936958 0.942305
O O10 0.655941 0.846008 0.954880
O O11 0.456322 0.411076 0.157371
O O12 0.366283 0.320064 0.161279
O O13 0.548009 0.500000 0.915677
O O14 0.500000 0.425746 0.000000
O O15 0.500000 0.211230 0.000000
O O16 0.750000 0.250000 0.000000
#
# Coordination Sequence:
#
# PCOD9204674 Si02
#       7
#     8   8   8   8   8   8   8
#     4  10  21  32  48  75 116 171 208 226 255 298
#     4  11  20  33  51  80 119 158 200 233 260 311
#     4  10  22  36  55  83 110 144 185 223 278 332
#     4  10  22  36  55  83 110 144 185 223 278 332
#     4  10  23  45  67  85 102 128 178 237 291 353
#     4   9  20  32  42  66 105 144 180 218 257 304
#     4  11  20  33  51  80 119 158 200 233 260 311
#
# _framework density 19.761296000000002
#
# number of rings (size 3 to 8) (size 9 to 14) (size 15 to 20)
#    0.000    1.857    1.429    4.714    6.000    3.429 
#    0.000    0.000    0.000    0.857    0.000    4.000 
#    0.000    0.000    0.000    0.000    0.000    0.000 
#
# Total GULP energy -156372.815768 kJ/mol
# GULP energy per Si atom -5584.743420 kJ/mol
# Density = 1.971632 g / cm^3
# Si number density = 19.761296 Si / 1000 Ang^3
#
#
#
# Elastic Constant Matrix: (Units=GPa)
#
#
# Indices 1 2 3 4 5 6 
#
# 1 84.1016 22.6419 16.5022 0.0000 -15.8334 0.0000
# 2 22.6419 51.0620 18.6853 0.0000 -8.7552 0.0000
# 3 16.5022 18.6853 84.1414 0.0000 -5.5535 0.0000
# 4 0.0000 0.0000 0.0000 23.3786 0.0000 -3.7725
# 5 -15.8334 -8.7552 -5.5535 0.0000 24.5922 0.0000
# 6 0.0000 0.0000 0.0000 -3.7725 0.0000 20.9459
#
#
#
# Elastic Compliance Matrix: (Units=1/GPa)
#
#
# Indices 1 2 3 4 5 6 
#
# 1 0.014872 -0.004804 -0.001351 0.000000 0.007560 0.000000
# 2 -0.004804 0.023985 -0.004086 0.000000 0.004523 0.000000
# 3 -0.001351 -0.004086 0.013099 0.000000 0.000634 0.000000
# 4 0.000000 0.000000 0.000000 0.044055 0.000000 0.007935
# 5 0.007560 0.004523 0.000634 0.000000 0.047284 0.000000
# 6 0.000000 0.000000 0.000000 0.007935 0.000000 0.049171
#
#
# Mechanical properties :
#
#
# Convention : Reuss Voigt Hill
#
# Bulk Modulus (GPa) = 31.77165 37.21821 34.49493
# Shear Modulus (GPa) = 22.37756 24.54837 23.46297
#
# Velocity S-wave (km/s) = 3.36876 3.52837 3.44949
# Velocity P-wave (km/s) = 5.58963 5.95601 5.77572
#
# Compressibility (1/GPa) = 0.03147460
#
# Stress axis : x y z
#
# Youngs Moduli (GPa) = 67.24024 41.69305 76.34268
#
# Poissons Ratio (x) = 0.20029 0.10314
# Poissons Ratio (y) = 0.32302 0.31191
# Poissons Ratio (z) = 0.09084 0.17034
#
# Static dielectric constant tensor:
#      x y z
#    x 1.754460 0.000000 0.004570 
#    y 0.000000 1.664760 0.000000 
#    z 0.004570 0.000000 1.838230 
# 
# From -- ./inp_files/199913.got.cif
#   From: 2010.05.17/outbox.cif.g08.bks.cpg/sg12_100_cif.got.tgz:199913.got - 2010.06.03 13:09:07.
