data_PCOD9204579
_publ_section_title
;
Structure prediction by ZEFSAII (Michael W. Deem and Ramdas Pophale) SiO2 
 PCOD9204579
Probable space group: C 2/M
;
_chemical_formula_sum "Si O2"
_cell_formula_units_Z 42
_cell_length_a 5.478504
_cell_length_b 14.316764
_cell_length_c 23.882501
_cell_angle_alpha 90.000000
_cell_angle_beta 71.256415
_cell_angle_gamma 90.000000
_cell_volume 1773.867153
_symmetry_space_group_name_H-M "C 2/M"
_symmetry_group_IT_number 12
_symmetry_cell_setting 'monoclinic'
loop_
_space_group_symop_operation_xyz
x,y,z
-x,y,-z
-x,-y,-z
x,-y,z
1/2+x,1/2+y,z
1/2-x,1/2+y,-z
1/2-x,1/2-y,-z
1/2+x,1/2-y,z
loop_
_atom_site_type_symbol
_atom_site_label
_atom_site_fract_x
_atom_site_fract_y
_atom_site_fract_z
Si Si1 0.118213 0.391448 0.875575
Si Si2 0.500000 0.000000 0.500000
Si Si3 0.461116 0.385902 0.067229
Si Si4 0.151562 0.634855 0.573573
Si Si5 0.908902 0.801958 0.758862
Si Si6 0.914446 0.845446 0.379919
O O1 0.086150 0.500000 0.891215
O O2 0.304501 0.352919 0.910684
O O3 0.273307 0.379865 0.806489
O O4 0.825554 0.355216 0.892916
O O5 0.310312 0.916324 0.487805
O O6 0.467536 0.500000 0.069162
O O7 0.500000 0.358533 0.000000
O O8 0.140631 0.747391 0.582587
O O9 0.358718 0.605185 0.603652
O O10 0.857089 0.603646 0.606597
O O11 0.674951 0.727624 0.769255
O O12 0.983762 0.824383 0.689577
#
# Coordination Sequence:
#
# PCOD9204579 Si02
#       6
#     8   2   8   8   8   8
#     4  10  21  35  55  93 120 148 207 262 305 348
#     4  12  28  42  64 106 128 156 184 270 302 326
#     4   9  17  33  57  83 121 164 201 245 304 370
#     4  10  22  41  64  90 123 151 203 237 290 352
#     4  12  21  39  65  87 116 162 207 247 301 363
#     4  10  20  43  65  84 114 172 203 235 279 390
#
# _framework density 23.677083
#
# number of rings (size 3 to 8) (size 9 to 14) (size 15 to 20)
#    0.000    1.714    3.810    1.714    0.000    7.619 
#    3.429    0.000    0.000   11.429    0.000    0.000 
#    0.000    0.000    0.000    0.000    0.000    0.000 
#
# Total GULP energy -116949.546899 kJ/mol
# GULP energy per Si atom -5569.026043 kJ/mol
# Density = 2.362319 g / cm^3
# Si number density = 23.677083 Si / 1000 Ang^3
#
#
#
# Elastic Constant Matrix: (Units=GPa)
#
#
# Indices 1 2 3 4 5 6 
#
# 1 193.6910 6.6236 23.5461 0.0000 0.2913 0.0000
# 2 6.6236 93.9391 9.8381 0.0000 11.0957 0.0000
# 3 23.5461 9.8381 61.9682 0.0000 -0.2641 0.0000
# 4 0.0000 0.0000 0.0000 -34.6977 0.0000 12.7835
# 5 0.2913 11.0957 -0.2641 0.0000 45.0368 0.0000
# 6 0.0000 0.0000 0.0000 12.7835 0.0000 -6.4169
#
#
#
# Elastic Compliance Matrix: (Units=1/GPa)
#
#
# Indices 1 2 3 4 5 6 
#
# 1 0.005416 -0.000168 -0.002031 0.000000 -0.000005 0.000000
# 2 -0.000168 0.011163 -0.001720 0.000000 -0.002759 0.000000
# 3 -0.002031 -0.001720 0.017184 0.000000 0.000538 0.000000
# 4 0.000000 0.000000 0.000000 -0.108333 0.000000 -0.215817
# 5 -0.000005 -0.002759 0.000538 0.000000 0.022887 0.000000
# 6 0.000000 0.000000 0.000000 -0.215817 0.000000 -0.585784
#
#
# Mechanical properties :
#
#
# Convention : Reuss Voigt Hill
#
# Bulk Modulus (GPa) = 38.57425 47.73486 43.15456
# Shear Modulus (GPa) = -8.05170 21.42382 6.68606
#
# Velocity S-wave (km/s) = -1.84608 3.01131 1.68226
# Velocity P-wave (km/s) = 3.43266 5.68289 4.69459
#
# Compressibility (1/GPa) = 0.02592403
#
# Stress axis : x y z
#
# Youngs Moduli (GPa) = 184.65395 89.58076 58.19235
#
# Poissons Ratio (x) = 0.01509 0.11819
# Poissons Ratio (y) = 0.03111 0.10009
# Poissons Ratio (z) = 0.37504 0.15408
#
# Static dielectric constant tensor:
#      x y z
#    x 1.920120 0.000000 -0.004450 
#    y 0.000000 1.950410 0.000000 
#    z -0.004450 0.000000 1.983210 
# 
# From -- ./inp_files/297606.got.cif
#   From: 2010.05.17/outbox.cif.g08.bks.cpg/sg12_149_cif.got.tgz:297606.got - 2010.06.03 13:09:07.
