data_PCOD9204099
_publ_section_title
;
Structure prediction by ZEFSAII (Michael W. Deem and Ramdas Pophale) SiO2 
 PCOD9204099
Probable space group: C 2/M
;
_chemical_formula_sum "Si O2"
_cell_formula_units_Z 64
_cell_length_a 19.825340
_cell_length_b 8.808084
_cell_length_c 31.087012
_cell_angle_alpha 90.000000
_cell_angle_beta 38.005585
_cell_angle_gamma 90.000000
_cell_volume 3342.544751
_symmetry_space_group_name_H-M "C 2/M"
_symmetry_group_IT_number 12
_symmetry_cell_setting 'monoclinic'
loop_
_space_group_symop_operation_xyz
x,y,z
-x,y,-z
-x,-y,-z
x,-y,z
1/2+x,1/2+y,z
1/2-x,1/2+y,-z
1/2-x,1/2-y,-z
1/2+x,1/2-y,z
loop_
_atom_site_type_symbol
_atom_site_label
_atom_site_fract_x
_atom_site_fract_y
_atom_site_fract_z
Si Si1 0.496962 0.683882 0.713985
Si Si2 0.724695 0.326196 0.303335
Si Si3 0.261898 0.675506 0.804294
Si Si4 0.628004 0.317654 0.561288
Si Si5 0.128149 0.817243 0.062376
Si Si6 0.467412 0.180713 0.212458
Si Si7 0.984391 0.320734 0.556892
Si Si8 0.471894 0.682463 0.062120
O O1 0.499596 0.500000 0.715150
O O2 0.369488 0.731251 0.774770
O O3 0.563299 0.727396 0.637584
O O4 0.542009 0.756320 0.734688
O O5 0.704577 0.500000 0.328296
O O6 0.705567 0.322442 0.262083
O O7 0.640558 0.214602 0.367961
O O8 0.851045 0.289899 0.248202
O O9 0.240723 0.500000 0.826932
O O10 0.151203 0.767180 0.865899
O O11 0.633211 0.500000 0.557952
O O12 0.750000 0.250000 0.500000
O O13 0.561005 0.261226 0.553338
O O14 0.062529 0.760776 0.137320
O O15 0.056872 0.766474 0.056386
O O16 0.133530 0.000000 0.059721
O O17 0.250000 0.750000 0.000000
O O18 0.486392 0.000000 0.203182
O O19 0.007281 0.500000 0.547423
O O20 0.000000 0.268542 0.500000
O O21 0.476827 0.500000 0.059428
O O22 0.500000 0.737707 0.000000
#
# Coordination Sequence:
#
# PCOD9204099 Si02
#       8
#     8   8   8   8   8   8   8   8
#     4  10  23  42  63  90 125 162 201 252 310 367
#     4  10  21  41  65  90 121 160 207 258 310 366
#     4  10  20  40  65  89 118 156 202 250 304 361
#     4  11  24  44  66  91 128 167 208 258 314 376
#     4  11  24  42  63  89 126 167 205 251 310 367
#     4  11  24  41  64  93 124 161 208 256 306 369
#     4  11  25  42  63  94 127 165 211 258 312 372
#     4  10  23  41  61  90 123 157 199 250 303 355
#
# _framework density 19.147088
#
# number of rings (size 3 to 8) (size 9 to 14) (size 15 to 20)
#    0.000    1.500    2.500    1.500    3.500    4.750 
#    0.000    0.000    0.000    0.000    0.000    0.000 
#    0.000    0.000    0.000    0.000    0.000    0.000 
#
# Total GULP energy -178768.163270 kJ/mol
# GULP energy per Si atom -5586.505102 kJ/mol
# Density = 1.910351 g / cm^3
# Si number density = 19.147088 Si / 1000 Ang^3
#
#
#
# Elastic Constant Matrix: (Units=GPa)
#
#
# Indices 1 2 3 4 5 6 
#
# 1 60.4377 24.2365 23.4806 -0.0018 5.5182 0.0288
# 2 24.2365 32.8248 31.0542 -0.0039 0.4073 0.0062
# 3 23.4806 31.0542 97.0718 0.0000 4.2739 -0.0002
# 4 -0.0018 -0.0039 0.0000 35.6674 0.0002 -4.8136
# 5 5.5182 0.4073 4.2739 0.0002 33.8948 -0.0003
# 6 0.0288 0.0062 -0.0002 -4.8136 -0.0003 27.7123
#
#
#
# Elastic Compliance Matrix: (Units=1/GPa)
#
#
# Indices 1 2 3 4 5 6 
#
# 1 0.023958 -0.017660 0.000017 -0.000004 -0.003690 -0.000022
# 2 -0.017660 0.056756 -0.014060 0.000006 0.003966 0.000007
# 3 0.000017 -0.014060 0.014871 -0.000001 -0.001709 0.000003
# 4 -0.000004 0.000006 -0.000001 0.028710 0.000001 0.004987
# 5 -0.003690 0.003966 -0.001709 0.000001 0.030272 0.000003
# 6 -0.000022 0.000007 0.000003 0.004987 0.000003 0.036951
#
#
# Mechanical properties :
#
#
# Convention : Reuss Voigt Hill
#
# Bulk Modulus (GPa) = 31.07569 38.65300 34.86435
# Shear Modulus (GPa) = 18.82172 26.89243 22.85707
#
# Velocity S-wave (km/s) = 3.13870 3.75176 3.45883
# Velocity P-wave (km/s) = 5.42222 6.24490 5.84804
#
# Compressibility (1/GPa) = 0.03217950
#
# Stress axis : x y z
#
# Youngs Moduli (GPa) = 41.73912 17.61918 67.24641
#
# Poissons Ratio (x) = 0.31115 -0.00113
# Poissons Ratio (y) = 0.73711 0.94547
# Poissons Ratio (z) = -0.00070 0.24772
#
# Static dielectric constant tensor:
#      x y z
#    x 1.646880 0.000000 0.007600 
#    y 0.000000 1.655500 0.000000 
#    z 0.007600 0.000000 1.643450 
# 
# From -- ./inp_files/377958.got.cif
#   From: 2010.05.17/outbox.cif.g08.bks.cpg/sg12_189_cif.got.tgz:377958.got - 2010.06.03 13:09:07.
