data_PCOD9204347
_publ_section_title
;
Structure prediction by ZEFSAII (Michael W. Deem and Ramdas Pophale) SiO2 
 PCOD9204347
Probable space group: C 2/M
;
_chemical_formula_sum "Si O2"
_cell_formula_units_Z 48
_cell_length_a 9.099059
_cell_length_b 15.652893
_cell_length_c 15.702071
_cell_angle_alpha 90.000000
_cell_angle_beta 72.246186
_cell_angle_gamma 90.000000
_cell_volume 2129.885469
_symmetry_space_group_name_H-M "C 2/M"
_symmetry_group_IT_number 12
_symmetry_cell_setting 'monoclinic'
loop_
_space_group_symop_operation_xyz
x,y,z
-x,y,-z
-x,-y,-z
x,-y,z
1/2+x,1/2+y,z
1/2-x,1/2+y,-z
1/2-x,1/2-y,-z
1/2+x,1/2-y,z
loop_
_atom_site_type_symbol
_atom_site_label
_atom_site_fract_x
_atom_site_fract_y
_atom_site_fract_z
Si Si1 0.365070 0.175234 0.855564
Si Si2 0.390858 0.000000 0.939768
Si Si3 0.833349 0.000000 0.872862
Si Si4 0.435792 0.500000 0.416559
Si Si5 0.543507 0.334933 0.840973
Si Si6 0.773414 0.833199 0.373056
Si Si7 0.051218 0.336373 0.649669
Si Si8 0.720506 0.000000 0.705991
O O1 0.414623 0.084811 0.882336
O O2 0.431287 0.258164 0.888357
O O3 0.182793 0.168283 0.882344
O O4 0.447189 0.188336 0.749844
O O5 0.500000 0.000000 0.000000
O O6 0.230783 0.000000 0.019402
O O7 0.715994 0.000000 0.811370
O O8 0.938652 0.916958 0.849452
O O9 0.500000 0.500000 0.500000
O O10 0.339441 0.414245 0.413037
O O11 0.594658 0.500000 0.336068
O O12 0.639914 0.334066 0.734416
O O13 0.588645 0.845603 0.393766
O O14 0.830948 0.739898 0.395481
O O15 0.145933 0.418484 0.669144
#
# Coordination Sequence:
#
# PCOD9204347 Si02
#       8
#     8   4   4   4   8   8   8   4
#     4  10  23  41  64  94 128 162 221 266 326 362
#     4  12  27  42  58  90 131 169 215 274 323 373
#     4  12  25  40  65  86 128 174 219 262 324 381
#     4  12  25  43  68 100 136 167 205 264 321 383
#     4  10  22  40  68  91 120 170 214 270 312 382
#     4  10  20  41  65 100 129 166 219 261 318 380
#     4  10  21  38  71  96 129 172 215 269 309 379
#     4  12  23  41  68  98 126 170 222 259 324 389
#
# _framework density 22.536424
#
# number of rings (size 3 to 8) (size 9 to 14) (size 15 to 20)
#    0.000    1.333    1.667    3.500    9.333    4.667 
#    0.000    5.000    0.000    0.000    0.000    0.000 
#    0.000    0.000    0.000    0.000    0.000    0.000 
#
# Total GULP energy -133839.530076 kJ/mol
# GULP energy per Si atom -5576.647086 kJ/mol
# Density = 2.248513 g / cm^3
# Si number density = 22.536424 Si / 1000 Ang^3
#
#
#
# Elastic Constant Matrix: (Units=GPa)
#
#
# Indices 1 2 3 4 5 6 
#
# 1 138.2253 87.7955 2.4824 0.0000 38.0127 0.0000
# 2 87.7955 184.2874 -1.7573 0.0000 27.7911 0.0000
# 3 2.4824 -1.7573 40.1219 0.0000 -5.6891 0.0000
# 4 0.0000 0.0000 0.0000 1.2384 0.0000 7.5458
# 5 38.0127 27.7911 -5.6891 0.0000 29.5524 0.0000
# 6 0.0000 0.0000 0.0000 7.5458 0.0000 28.6981
#
#
#
# Elastic Compliance Matrix: (Units=1/GPa)
#
#
# Indices 1 2 3 4 5 6 
#
# 1 0.014226 -0.004610 -0.003148 0.000000 -0.014569 0.000000
# 2 -0.004610 0.007830 0.000437 0.000000 -0.001349 0.000000
# 3 -0.003148 0.000437 0.026374 0.000000 0.008716 0.000000
# 4 0.000000 0.000000 0.000000 -1.341056 0.000000 0.352612
# 5 -0.014569 -0.001349 0.008716 0.000000 0.055525 0.000000
# 6 0.000000 0.000000 0.000000 0.352612 0.000000 -0.057869
#
#
# Mechanical properties :
#
#
# Convention : Reuss Voigt Hill
#
# Bulk Modulus (GPa) = 29.59690 59.96398 44.78044
# Shear Modulus (GPa) = -3.93991 30.17203 13.11606
#
# Velocity S-wave (km/s) = -1.32364 3.66295 2.41507
# Velocity P-wave (km/s) = 3.29019 6.67495 5.26214
#
# Compressibility (1/GPa) = 0.03378733
#
# Stress axis : x y z
#
# Youngs Moduli (GPa) = 70.29398 127.70853 37.91646
#
# Poissons Ratio (x) = 0.58877 0.11936
# Poissons Ratio (y) = 0.32407 -0.01656
# Poissons Ratio (z) = 0.22128 -0.05579
#
# Static dielectric constant tensor:
#      x y z
#    x 1.948600 0.000000 -0.113520 
#    y 0.000000 1.802830 0.000000 
#    z -0.113520 0.000000 2.050930 
# 
# From -- ./inp_files/255861.got.cif
#   From: 2010.05.17/outbox.cif.g08.bks.cpg/sg12_128_cif.got.tgz:255861.got - 2010.06.03 13:09:07.
