data_PCOD9204376
_publ_section_title
;
Structure prediction by ZEFSAII (Michael W. Deem and Ramdas Pophale) SiO2 
 PCOD9204376
Probable space group: C 2/M
;
_chemical_formula_sum "Si O2"
_cell_formula_units_Z 50
_cell_length_a 16.152871
_cell_length_b 14.938733
_cell_length_c 28.818974
_cell_angle_alpha 90.000000
_cell_angle_beta 21.515596
_cell_angle_gamma 90.000000
_cell_volume 2550.453594
_symmetry_space_group_name_H-M "C 2/M"
_symmetry_group_IT_number 12
_symmetry_cell_setting 'monoclinic'
loop_
_space_group_symop_operation_xyz
x,y,z
-x,y,-z
-x,-y,-z
x,-y,z
1/2+x,1/2+y,z
1/2-x,1/2+y,-z
1/2-x,1/2-y,-z
1/2+x,1/2-y,z
loop_
_atom_site_type_symbol
_atom_site_label
_atom_site_fract_x
_atom_site_fract_y
_atom_site_fract_z
Si Si1 0.200879 0.150002 0.359700
Si Si2 0.285394 0.902274 0.215639
Si Si3 0.633308 0.647858 0.724659
Si Si4 0.288312 0.356961 0.983454
Si Si5 0.807759 0.599366 0.862966
Si Si6 0.000000 0.500000 0.500000
Si Si7 0.251122 0.210345 0.146173
O O1 0.163333 0.109897 0.328444
O O2 0.251937 0.255485 0.326704
O O3 0.428143 0.107129 0.261800
O O4 0.000000 0.136337 0.500000
O O5 0.221846 0.824708 0.213253
O O6 0.234172 0.000000 0.222120
O O7 0.552895 0.896889 0.087410
O O8 0.497894 0.619394 0.841599
O O9 0.816111 0.577903 0.611945
O O10 0.438774 0.667624 0.787834
O O11 0.250000 0.250000 0.000000
O O12 0.312805 0.383390 0.024421
O O13 0.757868 0.500000 0.871553
O O14 0.759018 0.682621 0.854961
O O15 0.500000 0.180927 0.000000
#
# Coordination Sequence:
#
# PCOD9204376 Si02
#       7
#     8   8   8   8   8   2   8
#     4  10  20  41  66  88 124 172 222 274 320 387
#     4  11  23  36  62 103 126 161 216 272 342 397
#     4  11  23  39  63  91 133 175 221 271 324 393
#     4  11  17  37  64  94 127 164 220 278 333 380
#     4  10  22  37  62  96 130 168 223 275 331 399
#     4  12  28  40  62  96 130 190 236 258 324 404
#     4  11  22  40  63  95 138 169 204 278 346 395
#
# _framework density 19.604355999999999
#
# number of rings (size 3 to 8) (size 9 to 14) (size 15 to 20)
#    0.000    1.280    7.200    1.920    3.360    1.920 
#    0.000    3.200    1.760    0.000    0.000    0.000 
#    0.000    0.000    0.000    0.000    0.000    0.000 
#
# Total GULP energy -139432.659363 kJ/mol
# GULP energy per Si atom -5577.306375 kJ/mol
# Density = 1.955974 g / cm^3
# Si number density = 19.604356 Si / 1000 Ang^3
#
#
#
# Elastic Constant Matrix: (Units=GPa)
#
#
# Indices 1 2 3 4 5 6 
#
# 1 75.6207 40.9631 36.9634 0.0111 16.1211 0.0140
# 2 40.9631 148.0219 46.3975 0.0425 7.9189 -0.0114
# 3 36.9634 46.3975 164.0535 0.1828 23.4104 -0.0494
# 4 0.0111 0.0425 0.1828 27.1934 -0.0739 1.4288
# 5 16.1211 7.9189 23.4104 -0.0739 20.6537 0.0013
# 6 0.0140 -0.0114 -0.0494 1.4288 0.0013 9.3719
#
#
#
# Elastic Compliance Matrix: (Units=1/GPa)
#
#
# Indices 1 2 3 4 5 6 
#
# 1 0.018534 -0.004083 -0.001408 -0.000021 -0.011305 -0.000035
# 2 -0.004083 0.008318 -0.001709 0.000005 0.001934 0.000006
# 3 -0.001408 -0.001709 0.007928 -0.000073 -0.007233 0.000054
# 4 -0.000021 0.000005 -0.000073 0.037072 0.000229 -0.005652
# 5 -0.011305 0.001934 -0.007233 0.000229 0.064699 -0.000063
# 6 -0.000035 0.000006 0.000054 -0.005652 -0.000063 0.107564
#
#
# Mechanical properties :
#
#
# Convention : Reuss Voigt Hill
#
# Bulk Modulus (GPa) = 49.06495 70.70488 59.88491
# Shear Modulus (GPa) = 18.84608 29.00194 23.92401
#
# Velocity S-wave (km/s) = 3.10388 3.85042 3.49713
# Velocity P-wave (km/s) = 6.15852 7.47742 6.84979
#
# Compressibility (1/GPa) = 0.02038115
#
# Stress axis : x y z
#
# Youngs Moduli (GPa) = 53.95525 120.22575 126.13219
#
# Poissons Ratio (x) = 0.49087 0.17758
# Poissons Ratio (y) = 0.22029 0.21550
# Poissons Ratio (z) = 0.07596 0.20541
#
# Static dielectric constant tensor:
#      x y z
#    x 1.690580 0.000000 -0.002370 
#    y 0.000000 1.710630 0.000010 
#    z -0.002370 0.000010 1.670000 
# 
# From -- ./inp_files/379447.got.cif
#   From: 2010.05.17/outbox.cif.g08.bks.cpg/sg12_190_cif.got.tgz:379447.got - 2010.06.03 13:09:07.
