data_PCOD9204117
_publ_section_title
;
Structure prediction by ZEFSAII (Michael W. Deem and Ramdas Pophale) SiO2 
 PCOD9204117
Probable space group: C 2/M
;
_chemical_formula_sum "Si O2"
_cell_formula_units_Z 56
_cell_length_a 18.118170
_cell_length_b 19.623593
_cell_length_c 13.285530
_cell_angle_alpha 90.000000
_cell_angle_beta 151.612653
_cell_angle_gamma 90.000000
_cell_volume 2245.733768
_symmetry_space_group_name_H-M "C 2/M"
_symmetry_group_IT_number 12
_symmetry_cell_setting 'monoclinic'
loop_
_space_group_symop_operation_xyz
x,y,z
-x,y,-z
-x,-y,-z
x,-y,z
1/2+x,1/2+y,z
1/2-x,1/2+y,-z
1/2-x,1/2-y,-z
1/2+x,1/2-y,z
loop_
_atom_site_type_symbol
_atom_site_label
_atom_site_fract_x
_atom_site_fract_y
_atom_site_fract_z
Si Si1 0.946953 0.569956 0.550282
Si Si2 0.177337 0.574994 0.177786
Si Si3 0.586287 0.797171 0.403584
Si Si4 0.078997 0.169690 0.984479
Si Si5 0.796584 0.077543 0.023410
Si Si6 0.780138 0.692847 0.934657
Si Si7 0.700195 0.337176 0.511184
O O1 0.862391 0.500000 0.475897
O O2 0.000000 0.568065 0.500000
O O3 0.861988 0.639499 0.468846
O O4 0.108614 0.571940 0.806462
O O5 0.223543 0.500000 0.194343
O O6 0.277753 0.596744 0.395799
O O7 0.184083 0.636143 0.107097
O O8 0.000000 0.571204 0.000000
O O9 0.401755 0.791748 0.172439
O O10 0.657599 0.727884 0.527236
O O11 0.642918 0.816799 0.359483
O O12 0.166256 0.102347 0.045954
O O13 0.188932 0.235090 0.088369
O O14 0.928239 0.166358 0.729494
O O15 0.000000 0.171881 0.000000
O O16 0.856112 0.000000 0.112580
O O17 0.842351 0.142021 0.150583
#
# Coordination Sequence:
#
# PCOD9204117 Si02
#       7
#     8   8   8   8   8   8   8
#     4   9  19  34  56  85 114 153 209 265 313 363
#     4  11  22  37  62  97 129 164 216 275 332 387
#     4   9  19  35  58  84 123 162 204 262 323 378
#     4  11  25  40  65  96 132 178 218 265 325 401
#     4  10  22  41  61  87 128 172 217 268 323 389
#     4  10  20  40  65  91 122 164 220 276 328 373
#     4  10  22  38  57  90 130 167 209 261 324 394
#
# _framework density 24.936170000000001
#
# number of rings (size 3 to 8) (size 9 to 14) (size 15 to 20)
#    0.000    2.000    1.429    1.286    6.000    2.000 
#    0.000    0.714    0.000    1.714    0.000    0.000 
#    0.000    0.000    0.000    0.000    0.000    0.000 
#
# Total GULP energy -155907.789419 kJ/mol
# GULP energy per Si atom -5568.135336 kJ/mol
# Density = 2.487941 g / cm^3
# Si number density = 24.936170 Si / 1000 Ang^3
#
#
#
# Elastic Constant Matrix: (Units=GPa)
#
#
# Indices 1 2 3 4 5 6 
#
# 1 110.6489 56.3486 22.1073 0.0000 -3.4475 0.0000
# 2 56.3486 194.0336 17.0406 0.0000 -4.8400 0.0000
# 3 22.1073 17.0406 66.1031 0.0000 -15.4597 0.0000
# 4 0.0000 0.0000 0.0000 -28.1028 0.0000 -18.1252
# 5 -3.4475 -4.8400 -15.4597 0.0000 26.8115 0.0000
# 6 0.0000 0.0000 0.0000 -18.1252 0.0000 18.1651
#
#
#
# Elastic Compliance Matrix: (Units=1/GPa)
#
#
# Indices 1 2 3 4 5 6 
#
# 1 0.011165 -0.002986 -0.003184 0.000000 -0.000939 0.000000
# 2 -0.002986 0.006073 -0.000463 0.000000 0.000446 0.000000
# 3 -0.003184 -0.000463 0.018721 0.000000 0.010302 0.000000
# 4 0.000000 0.000000 0.000000 -0.021651 0.000000 -0.021603
# 5 -0.000939 0.000446 0.010302 0.000000 0.043197 0.000000
# 6 0.000000 0.000000 0.000000 -0.021603 0.000000 0.033495
#
#
# Mechanical properties :
#
#
# Convention : Reuss Voigt Hill
#
# Bulk Modulus (GPa) = 44.06498 62.41984 53.24241
# Shear Modulus (GPa) = 44.71031 21.72737 33.21884
#
# Velocity S-wave (km/s) = 4.23897 2.95501 3.65383
# Velocity P-wave (km/s) = 6.45507 6.06045 6.26087
#
# Compressibility (1/GPa) = 0.02269376
#
# Stress axis : x y z
#
# Youngs Moduli (GPa) = 89.56370 164.67104 53.41513
#
# Poissons Ratio (x) = 0.49175 0.17007
# Poissons Ratio (y) = 0.26746 0.02471
# Poissons Ratio (z) = 0.28516 0.07617
#
# Static dielectric constant tensor:
#      x y z
#    x 2.020370 0.000000 0.040230 
#    y 0.000000 2.069020 0.000000 
#    z 0.040230 0.000000 2.064510 
# 
# From -- ./inp_files/234704.got.cif
#   From: 2010.05.17/outbox.cif.g08.bks.cpg/sg12_118_cif.got.tgz:234704.got - 2010.06.03 13:09:07.
