data_PCOD9204085
_publ_section_title
;
Structure prediction by ZEFSAII (Michael W. Deem and Ramdas Pophale) SiO2 
 PCOD9204085
Probable space group: C 2/M
;
_chemical_formula_sum "Si O2"
_cell_formula_units_Z 56
_cell_length_a 19.087021
_cell_length_b 8.838672
_cell_length_c 20.954047
_cell_angle_alpha 90.000000
_cell_angle_beta 53.639130
_cell_angle_gamma 90.000000
_cell_volume 2846.755574
_symmetry_space_group_name_H-M "C 2/M"
_symmetry_group_IT_number 12
_symmetry_cell_setting 'monoclinic'
loop_
_space_group_symop_operation_xyz
x,y,z
-x,y,-z
-x,-y,-z
x,-y,z
1/2+x,1/2+y,z
1/2-x,1/2+y,-z
1/2-x,1/2-y,-z
1/2+x,1/2-y,z
loop_
_atom_site_type_symbol
_atom_site_label
_atom_site_fract_x
_atom_site_fract_y
_atom_site_fract_z
Si Si1 0.836155 0.180318 0.634980
Si Si2 0.598958 0.825015 0.922455
Si Si3 0.522116 0.818926 0.346251
Si Si4 0.839356 0.317304 0.974978
Si Si5 0.983992 0.681749 0.794167
Si Si6 0.850547 0.821523 0.235462
Si Si7 0.338099 0.318803 0.482480
O O1 0.912633 0.251311 0.636511
O O2 0.742948 0.245070 0.705774
O O3 0.844235 0.212147 0.555115
O O4 0.838254 0.000000 0.642403
O O5 0.614696 0.722395 0.853282
O O6 0.621169 0.000000 0.893927
O O7 0.500000 0.825612 0.000000
O O8 0.649861 0.772508 0.957352
O O9 0.550951 0.784211 0.257800
O O10 0.425325 0.752528 0.406144
O O11 0.519384 0.000000 0.354880
O O12 0.838935 0.500000 0.973694
O O13 0.917943 0.269184 0.885791
O O14 0.750000 0.250000 0.000000
O O15 0.994452 0.500000 0.793561
O O16 0.077639 0.756041 0.754941
O O17 0.842673 0.000000 0.247658
O O18 0.337293 0.500000 0.473627
O O19 0.250000 0.250000 0.500000
#
# Coordination Sequence:
#
# PCOD9204085 Si02
#       7
#     8   8   8   8   8   8   8
#     4  11  25  44  65  91 127 168 207 250 306 371
#     4  10  20  40  65  86 116 165 210 250 309 371
#     4  11  24  41  66  97 129 164 204 257 311 364
#     4  10  22  39  61  87 120 161 205 255 308 366
#     4  10  22  43  63  86 124 166 206 251 309 373
#     4  12  25  39  62  94 125 159 207 264 311 362
#     4  11  24  43  68  96 127 166 208 254 306 366
#
# _framework density 19.671517000000001
#
# number of rings (size 3 to 8) (size 9 to 14) (size 15 to 20)
#    0.000    1.286    1.429    3.857    2.000   10.000 
#    0.000    0.000    0.000    0.000    0.000    0.000 
#    0.000    0.000    0.000    0.000    0.000    0.000 
#
# Total GULP energy -156538.811374 kJ/mol
# GULP energy per Si atom -5590.671835 kJ/mol
# Density = 1.962674 g / cm^3
# Si number density = 19.671517 Si / 1000 Ang^3
#
#
#
# Elastic Constant Matrix: (Units=GPa)
#
#
# Indices 1 2 3 4 5 6 
#
# 1 144.5807 40.7536 25.4475 0.0000 12.2844 0.0001
# 2 40.7536 43.6492 34.7191 0.0001 15.8629 0.0000
# 3 25.4475 34.7191 71.7084 0.0000 6.0060 0.0000
# 4 0.0000 0.0001 0.0000 24.3443 0.0000 -4.8266
# 5 12.2844 15.8629 6.0060 0.0000 35.4649 0.0000
# 6 0.0001 0.0000 0.0000 -4.8266 0.0000 38.3684
#
#
#
# Elastic Compliance Matrix: (Units=1/GPa)
#
#
# Indices 1 2 3 4 5 6 
#
# 1 0.009525 -0.010663 0.001683 0.000000 0.001185 0.000000
# 2 -0.010663 0.057310 -0.022445 0.000000 -0.018140 0.000000
# 3 0.001683 -0.022445 0.023760 0.000000 0.005432 0.000000
# 4 0.000000 0.000000 0.000000 0.042128 0.000000 0.005300
# 5 0.001185 -0.018140 0.005432 0.000000 0.034980 0.000000
# 6 0.000000 0.000000 0.000000 0.005300 0.000000 0.026730
#
#
# Mechanical properties :
#
#
# Convention : Reuss Voigt Hill
#
# Bulk Modulus (GPa) = 36.03993 51.30872 43.67432
# Shear Modulus (GPa) = 18.75954 30.23672 24.49813
#
# Velocity S-wave (km/s) = 3.09146 3.92482 3.53280
# Velocity P-wave (km/s) = 5.57705 6.83215 6.23625
#
# Compressibility (1/GPa) = 0.02774700
#
# Stress axis : x y z
#
# Youngs Moduli (GPa) = 104.98514 17.44891 42.08726
#
# Poissons Ratio (x) = 0.18605 -0.07083
# Poissons Ratio (y) = 1.11941 0.94464
# Poissons Ratio (z) = -0.17669 0.39164
#
# Static dielectric constant tensor:
#      x y z
#    x 1.663940 0.000000 0.031310 
#    y 0.000000 1.662850 0.000000 
#    z 0.031310 0.000000 1.700540 
# 
# From -- ./inp_files/319645.got.cif
#   From: 2010.05.17/outbox.cif.g08.bks.cpg/sg12_160_cif.got.tgz:319645.got - 2010.06.03 13:09:07.
