data_PCOD9204929
_publ_section_title
;
Structure prediction by ZEFSAII (Michael W. Deem and Ramdas Pophale) SiO2 
 PCOD9204929
Probable space group: C 2/M
;
_chemical_formula_sum "Si O2"
_cell_formula_units_Z 40
_cell_length_a 18.793202
_cell_length_b 19.270513
_cell_length_c 8.716480
_cell_angle_alpha 90.000000
_cell_angle_beta 138.174870
_cell_angle_gamma 90.000000
_cell_volume 2105.084123
_symmetry_space_group_name_H-M "C 2/M"
_symmetry_group_IT_number 12
_symmetry_cell_setting 'monoclinic'
loop_
_space_group_symop_operation_xyz
x,y,z
-x,y,-z
-x,-y,-z
x,-y,z
1/2+x,1/2+y,z
1/2-x,1/2+y,-z
1/2-x,1/2-y,-z
1/2+x,1/2-y,z
loop_
_atom_site_type_symbol
_atom_site_label
_atom_site_fract_x
_atom_site_fract_y
_atom_site_fract_z
Si Si1 0.374041 0.080584 0.802428
Si Si2 0.260924 0.301501 0.247967
Si Si3 0.642952 0.669079 0.917488
Si Si4 0.066405 0.808723 0.243239
Si Si5 0.204565 0.920272 0.280276
O O1 0.312128 0.136302 0.806576
O O2 0.318628 0.086562 0.546423
O O3 0.356930 0.000000 0.824821
O O4 0.500000 0.093104 0.000000
O O5 0.190479 0.239542 0.067793
O O6 0.338061 0.273834 0.508277
O O7 0.332307 0.328960 0.221561
O O8 0.701560 0.607589 0.102884
O O9 0.520087 0.667233 0.770967
O O10 0.122768 0.872638 0.245840
O O11 0.000000 0.770958 0.000000
O O12 0.171653 0.000000 0.234996
#
# Coordination Sequence:
#
# PCOD9204929 Si02
#       5
#     8   8   8   8   8
#     4   9  19  36  56  76 101 136 177 217 254 298
#     4  10  21  36  52  77 108 135 171 212 255 306
#     4  10  21  34  52  78 108 138 167 209 258 307
#     4   9  19  34  55  76 101 134 171 210 254 302
#     4   9  19  35  54  78 105 133 172 215 254 304
#
# _framework density 19.001615999999999
#
# number of rings (size 3 to 8) (size 9 to 14) (size 15 to 20)
#    0.000    2.600    0.000    0.600    0.000   15.600 
#    0.000    3.000    0.000   13.200    0.000    0.000 
#    0.000    0.000    0.000    0.000    0.000    0.000 
#
# Total GULP energy -111512.434190 kJ/mol
# GULP energy per Si atom -5575.621709 kJ/mol
# Density = 1.895837 g / cm^3
# Si number density = 19.001616 Si / 1000 Ang^3
#
#
#
# Elastic Constant Matrix: (Units=GPa)
#
#
# Indices 1 2 3 4 5 6 
#
# 1 79.4809 11.0440 40.7635 0.0000 -3.5390 0.0000
# 2 11.0440 51.1799 27.5865 0.0000 -6.0677 0.0000
# 3 40.7635 27.5865 120.4338 0.0000 1.4755 0.0000
# 4 0.0000 0.0000 0.0000 10.3189 0.0000 -10.8509
# 5 -3.5390 -6.0677 1.4755 0.0000 25.6678 0.0000
# 6 0.0000 0.0000 0.0000 -10.8509 0.0000 11.0539
#
#
#
# Elastic Compliance Matrix: (Units=1/GPa)
#
#
# Indices 1 2 3 4 5 6 
#
# 1 0.015376 -0.000248 -0.005176 0.000000 0.002359 0.000000
# 2 -0.000248 0.023119 -0.005282 0.000000 0.005735 0.000000
# 3 -0.005176 -0.005282 0.011297 0.000000 -0.002612 0.000000
# 4 0.000000 0.000000 0.000000 -3.005855 0.000000 -2.950645
# 5 0.002359 0.005735 -0.002612 0.000000 0.040790 0.000000
# 6 0.000000 0.000000 0.000000 -2.950645 0.000000 -2.805983
#
#
# Mechanical properties :
#
#
# Convention : Reuss Voigt Hill
#
# Bulk Modulus (GPa) = 35.23662 45.54252 40.38957
# Shear Modulus (GPa) = -0.87868 20.85482 9.98807
#
# Velocity S-wave (km/s) = -0.68075 3.31649 2.29518
# Velocity P-wave (km/s) = 4.23868 6.21975 5.32220
#
# Compressibility (1/GPa) = 0.02837957
#
# Stress axis : x y z
#
# Youngs Moduli (GPa) = 65.03655 43.25369 88.51703
#
# Poissons Ratio (x) = 0.01073 0.45820
# Poissons Ratio (y) = 0.01614 0.46755
# Poissons Ratio (z) = 0.33665 0.22847
#
# Static dielectric constant tensor:
#      x y z
#    x 1.647240 0.000000 -0.002330 
#    y 0.000000 1.661270 0.000000 
#    z -0.002330 0.000000 1.707530 
# 
# From -- ./inp_files/47141.got.cif
#   From: 2010.05.17/outbox.cif.g08.bks.cpg/sg12_24_cif.got.tgz:47141.got - 2010.06.03 13:09:07.
