data_PCOD9204848
_publ_section_title
;
Structure prediction by ZEFSAII (Michael W. Deem and Ramdas Pophale) SiO2 
 PCOD9204848
Probable space group: C 2/M
;
_chemical_formula_sum "Si O2"
_cell_formula_units_Z 56
_cell_length_a 19.706417
_cell_length_b 8.108768
_cell_length_c 19.915152
_cell_angle_alpha 90.000000
_cell_angle_beta 121.395261
_cell_angle_gamma 90.000000
_cell_volume 2716.423416
_symmetry_space_group_name_H-M "C 2/M"
_symmetry_group_IT_number 12
_symmetry_cell_setting 'monoclinic'
loop_
_space_group_symop_operation_xyz
x,y,z
-x,y,-z
-x,-y,-z
x,-y,z
1/2+x,1/2+y,z
1/2-x,1/2+y,-z
1/2-x,1/2-y,-z
1/2+x,1/2-y,z
loop_
_atom_site_type_symbol
_atom_site_label
_atom_site_fract_x
_atom_site_fract_y
_atom_site_fract_z
Si Si1 0.166261 0.804767 0.252692
Si Si2 0.746647 0.697094 0.575423
Si Si3 0.189373 0.298701 0.764661
Si Si4 0.011001 0.698965 0.668790
Si Si5 0.004695 0.697865 0.822549
Si Si6 0.679938 0.801197 0.914867
Si Si7 0.575301 0.305495 0.500857
O O1 0.185128 0.751005 0.338593
O O2 0.237021 0.737161 0.241738
O O3 0.076916 0.756765 0.186751
O O4 0.171644 0.000000 0.252797
O O5 0.745271 0.500000 0.575238
O O6 0.750000 0.750000 0.500000
O O7 0.662173 0.764406 0.559791
O O8 0.189958 0.500000 0.764380
O O9 0.195132 0.247067 0.845710
O O10 0.100968 0.250729 0.694341
O O11 0.003882 0.500000 0.659367
O O12 0.002021 0.742609 0.742128
O O13 0.946315 0.781914 0.588228
O O14 0.004414 0.500000 0.826066
O O15 0.091565 0.756663 0.891513
O O16 0.677115 0.000000 0.911688
O O17 0.750000 0.750000 0.000000
O O18 0.500000 0.228877 0.500000
O O19 0.578170 0.500000 0.518304
#
# Coordination Sequence:
#
# PCOD9204848 Si02
#       7
#     8   8   8   8   8   8   8
#     4  11  21  34  54  78 104 136 176 218 259 309
#     4  11  23  37  52  72 103 141 178 220 267 312
#     4   8  17  34  54  77 105 137 172 211 258 310
#     4   9  17  32  53  71  91 128 174 212 249 300
#     4   9  19  35  54  76 104 136 167 205 255 307
#     4   9  18  36  60  83 108 137 171 211 253 304
#     4  10  21  34  47  68  98 129 164 212 265 305
#
# _framework density 20.615341999999998
#
# number of rings (size 3 to 8) (size 9 to 14) (size 15 to 20)
#    0.000    2.429    0.000    4.286    0.000    4.857 
#    0.000    5.000    0.000    4.286    0.000    0.000 
#    0.000    0.000    0.000    0.000    0.000    0.000 
#
# Total GULP energy -156259.677196 kJ/mol
# GULP energy per Si atom -5580.702757 kJ/mol
# Density = 2.056842 g / cm^3
# Si number density = 20.615342 Si / 1000 Ang^3
#
#
#
# Elastic Constant Matrix: (Units=GPa)
#
#
# Indices 1 2 3 4 5 6 
#
# 1 121.9302 11.4875 29.2383 0.0000 29.4858 0.0000
# 2 11.4875 12.3172 -0.4262 0.0000 4.5806 0.0000
# 3 29.2383 -0.4262 81.3282 0.0000 27.5587 0.0000
# 4 0.0000 0.0000 0.0000 26.9168 0.0000 3.5117
# 5 29.4858 4.5806 27.5587 0.0000 30.8893 0.0000
# 6 0.0000 0.0000 0.0000 3.5117 0.0000 19.0194
#
#
#
# Elastic Compliance Matrix: (Units=1/GPa)
#
#
# Indices 1 2 3 4 5 6 
#
# 1 0.011256 -0.007333 -0.001165 0.000000 -0.008617 0.000000
# 2 -0.007333 0.093437 0.007810 0.000000 -0.013824 0.000000
# 3 -0.001165 0.007810 0.018305 0.000000 -0.016378 0.000000
# 4 0.000000 0.000000 0.000000 0.038069 0.000000 -0.007029
# 5 -0.008617 -0.013824 -0.016378 0.000000 0.057262 0.000000
# 6 0.000000 0.000000 0.000000 -0.007029 0.000000 0.053876
#
#
# Mechanical properties :
#
#
# Convention : Reuss Voigt Hill
#
# Bulk Modulus (GPa) = 8.22208 32.90831 20.56520
# Shear Modulus (GPa) = 15.91748 27.05015 21.48382
#
# Velocity S-wave (km/s) = 2.78172 3.62627 3.23170
# Velocity P-wave (km/s) = 3.78342 5.79058 4.89107
#
# Compressibility (1/GPa) = 0.12162376
#
# Stress axis : x y z
#
# Youngs Moduli (GPa) = 88.84543 10.70235 54.62890
#
# Poissons Ratio (x) = 0.07848 0.06363
# Poissons Ratio (y) = 0.65149 -0.42667
# Poissons Ratio (z) = 0.10349 -0.08359
#
# Static dielectric constant tensor:
#      x y z
#    x 1.813260 0.000000 0.000200 
#    y 0.000000 1.735910 0.000000 
#    z 0.000200 0.000000 1.698060 
# 
# From -- ./inp_files/314388.got.cif
#   From: 2010.05.17/outbox.cif.g08.bks.cpg/sg12_158_cif.got.tgz:314388.got - 2010.06.03 13:09:07.
