data_PCOD9204670
_publ_section_title
;
Structure prediction by ZEFSAII (Michael W. Deem and Ramdas Pophale) SiO2 
 PCOD9204670
Probable space group: C 2/M
;
_chemical_formula_sum "Si O2"
_cell_formula_units_Z 52
_cell_length_a 16.397433
_cell_length_b 22.129055
_cell_length_c 10.169099
_cell_angle_alpha 90.000000
_cell_angle_beta 133.991644
_cell_angle_gamma 90.000000
_cell_volume 2654.706138
_symmetry_space_group_name_H-M "C 2/M"
_symmetry_group_IT_number 12
_symmetry_cell_setting 'monoclinic'
loop_
_space_group_symop_operation_xyz
x,y,z
-x,y,-z
-x,-y,-z
x,-y,z
1/2+x,1/2+y,z
1/2-x,1/2+y,-z
1/2-x,1/2-y,-z
1/2+x,1/2-y,z
loop_
_atom_site_type_symbol
_atom_site_label
_atom_site_fract_x
_atom_site_fract_y
_atom_site_fract_z
Si Si1 0.742670 0.134767 0.256032
Si Si2 0.934121 0.745822 0.183973
Si Si3 0.500000 0.829685 0.000000
Si Si4 0.324000 0.247564 0.452452
Si Si5 0.951860 0.070990 0.594613
Si Si6 0.374710 0.142025 0.329165
Si Si7 0.825077 0.125449 0.057713
O O1 0.769371 0.206423 0.288797
O O2 0.830546 0.104082 0.454786
O O3 0.768835 0.113656 0.137666
O O4 0.611739 0.130266 0.147442
O O5 0.894150 0.693314 0.238071
O O6 0.852566 0.802812 0.073506
O O7 0.049195 0.770536 0.378998
O O8 0.972303 0.712885 0.093140
O O9 0.250000 0.250000 0.500000
O O10 0.335105 0.180174 0.410994
O O11 0.000000 0.080865 0.500000
O O12 0.051415 0.094428 0.801359
O O13 0.935271 0.000000 0.595292
O O14 0.500000 0.115332 0.500000
O O15 0.267773 0.105375 0.153668
#
# Coordination Sequence:
#
# PCOD9204670 Si02
#       7
#     8   8   4   8   8   8   8
#     4  11  20  34  51  76 110 142 176 218 276 311
#     4  11  20  30  48  76 112 148 181 204 256 323
#     4  12  22  30  49  82 117 146 176 208 256 338
#     4  11  20  31  46  75 113 148 176 213 253 322
#     4   9  20  36  58  82 102 131 185 237 273 317
#     4  10  21  32  47  74 110 147 180 208 256 322
#     4  11  19  34  56  73 104 150 176 219 274 309
#
# _framework density 19.587855000000001
#
# number of rings (size 3 to 8) (size 9 to 14) (size 15 to 20)
#    0.000    1.385    6.154    1.385    0.000    0.000 
#    0.000    0.385    0.000    0.462    0.000    4.846 
#    0.000    0.000    0.000    0.000    0.000    0.000 
#
# Total GULP energy -145026.348126 kJ/mol
# GULP energy per Si atom -5577.936466 kJ/mol
# Density = 1.954327 g / cm^3
# Si number density = 19.587855 Si / 1000 Ang^3
#
#
#
# Elastic Constant Matrix: (Units=GPa)
#
#
# Indices 1 2 3 4 5 6 
#
# 1 74.2967 4.5094 28.4331 0.0000 9.9575 0.0000
# 2 4.5094 26.5953 27.9187 0.0000 15.3018 0.0000
# 3 28.4331 27.9187 168.6151 0.0000 47.1300 0.0000
# 4 0.0000 0.0000 0.0000 13.6867 0.0000 1.1936
# 5 9.9575 15.3018 47.1300 0.0000 43.7526 0.0000
# 6 0.0000 0.0000 0.0000 1.1936 0.0000 7.8989
#
#
#
# Elastic Compliance Matrix: (Units=1/GPa)
#
#
# Indices 1 2 3 4 5 6 
#
# 1 0.014420 0.000495 -0.002215 0.000000 -0.001069 0.000000
# 2 0.000495 0.049684 -0.004896 0.000000 -0.012215 0.000000
# 3 -0.002215 -0.004896 0.009293 0.000000 -0.007795 0.000000
# 4 0.000000 0.000000 0.000000 0.074039 0.000000 -0.011188
# 5 -0.001069 -0.012215 -0.007795 0.000000 0.035767 0.000000
# 6 0.000000 0.000000 0.000000 -0.011188 0.000000 0.128290
#
#
# Mechanical properties :
#
#
# Convention : Reuss Voigt Hill
#
# Bulk Modulus (GPa) = 16.62034 43.46994 30.04514
# Shear Modulus (GPa) = 14.50196 26.97739 20.73967
#
# Velocity S-wave (km/s) = 2.72390 3.71516 3.25745
# Velocity P-wave (km/s) = 4.28909 6.37524 5.43323
#
# Compressibility (1/GPa) = 0.06016725
#
# Stress axis : x y z
#
# Youngs Moduli (GPa) = 69.34621 20.12719 107.60308
#
# Poissons Ratio (x) = -0.00997 0.23831
# Poissons Ratio (y) = -0.03433 0.52679
# Poissons Ratio (z) = 0.15358 0.09854
#
# Static dielectric constant tensor:
#      x y z
#    x 1.699640 0.000000 0.022610 
#    y 0.000000 1.669140 0.000000 
#    z 0.022610 0.000000 1.793930 
# 
# From -- ./inp_files/148868.got.cif
#   From: 2010.05.17/outbox.cif.g08.bks.cpg/sg12_75_cif.got.tgz:148868.got - 2010.06.03 13:09:07.
