data_PCOD9204973
_publ_section_title
;
Structure prediction by ZEFSAII (Michael W. Deem and Ramdas Pophale) SiO2 
 PCOD9204973
Probable space group: C 2/M
;
_chemical_formula_sum "Si O2"
_cell_formula_units_Z 64
_cell_length_a 13.541787
_cell_length_b 14.807557
_cell_length_c 13.348662
_cell_angle_alpha 90.000000
_cell_angle_beta 100.057032
_cell_angle_gamma 90.000000
_cell_volume 2635.555341
_symmetry_space_group_name_H-M "C 2/M"
_symmetry_group_IT_number 12
_symmetry_cell_setting 'monoclinic'
loop_
_space_group_symop_operation_xyz
x,y,z
-x,y,-z
-x,-y,-z
x,-y,z
1/2+x,1/2+y,z
1/2-x,1/2+y,-z
1/2-x,1/2-y,-z
1/2+x,1/2-y,z
loop_
_atom_site_type_symbol
_atom_site_label
_atom_site_fract_x
_atom_site_fract_y
_atom_site_fract_z
Si Si1 0.701439 0.285358 0.744451
Si Si2 0.076333 0.898395 0.353954
Si Si3 0.234889 0.102066 0.045435
Si Si4 0.611030 0.251282 0.944443
Si Si5 0.793228 0.405645 0.289795
Si Si6 0.440356 0.773539 0.772485
Si Si7 0.926224 0.608656 0.578758
Si Si8 0.803454 0.107378 0.445798
O O1 0.659525 0.286559 0.847909
O O2 0.663268 0.192911 0.685590
O O3 0.821903 0.275968 0.771383
O O4 0.678993 0.365659 0.665340
O O5 0.188273 0.909029 0.328165
O O6 0.030775 0.821068 0.276581
O O7 0.105497 0.860600 0.468219
O O8 0.031462 0.000000 0.348036
O O9 0.322931 0.164075 0.014063
O O10 0.267112 0.094304 0.167146
O O11 0.225112 0.000000 0.004087
O O12 0.134289 0.162412 0.018017
O O13 0.502275 0.220477 0.886654
O O14 0.848257 0.500000 0.324414
O O15 0.457714 0.850937 0.692430
O O16 0.921938 0.500000 0.584441
O O17 0.809011 0.639557 0.543946
O O18 0.000000 0.632124 0.500000
O O19 0.804212 0.000000 0.457235
#
# Coordination Sequence:
#
# PCOD9204973 Si02
#       8
#     8   8   8   8   8   8   8   8
#     4   9  19  35  54  77 109 144 176 215 261 310
#     4   9  18  33  52  76 106 140 179 219 262 315
#     4   9  19  37  58  79 105 136 174 222 272 322
#     4  10  21  37  57  81 106 137 178 219 267 324
#     4   8  15  30  52  76 100 129 168 215 266 314
#     4  10  21  34  54  81 109 140 176 221 267 315
#     4   9  19  33  50  77 109 143 186 228 263 303
#     4   9  18  33  52  75 108 148 183 215 256 310
#
# _framework density 24.283307000000001
#
# number of rings (size 3 to 8) (size 9 to 14) (size 15 to 20)
#    0.000    2.875    0.000    0.000    0.000   10.000 
#    0.000   13.750    0.000   13.125    0.000    0.000 
#    0.000    0.000    0.000    0.000    0.000    0.000 
#
# Total GULP energy -178730.311222 kJ/mol
# GULP energy per Si atom -5585.322226 kJ/mol
# Density = 2.422804 g / cm^3
# Si number density = 24.283307 Si / 1000 Ang^3
#
#
#
# Elastic Constant Matrix: (Units=GPa)
#
#
# Indices 1 2 3 4 5 6 
#
# 1 82.5120 -3.0732 -4.4266 0.0000 3.3217 0.0000
# 2 -3.0732 94.6712 36.3479 0.0000 6.7778 0.0000
# 3 -4.4266 36.3479 55.6952 0.0000 23.8527 0.0000
# 4 0.0000 0.0000 0.0000 26.3330 0.0000 -1.8800
# 5 3.3217 6.7778 23.8527 0.0000 37.0028 0.0000
# 6 0.0000 0.0000 0.0000 -1.8800 0.0000 17.2121
#
#
#
# Elastic Compliance Matrix: (Units=1/GPa)
#
#
# Indices 1 2 3 4 5 6 
#
# 1 0.012329 -0.000277 0.002228 0.000000 -0.002492 0.000000
# 2 -0.000277 0.014698 -0.011702 0.000000 0.004876 0.000000
# 3 0.002228 -0.011702 0.034447 0.000000 -0.020261 0.000000
# 4 0.000000 0.000000 0.000000 0.038274 0.000000 0.004180
# 5 -0.002492 0.004876 -0.020261 0.000000 0.039416 0.000000
# 6 0.000000 0.000000 0.000000 0.004180 0.000000 0.058555
#
#
# Mechanical properties :
#
#
# Convention : Reuss Voigt Hill
#
# Bulk Modulus (GPa) = 23.82616 32.28606 28.05611
# Shear Modulus (GPa) = 21.62522 29.71160 25.66841
#
# Velocity S-wave (km/s) = 2.98743 3.50171 3.25474
# Velocity P-wave (km/s) = 4.66183 5.44736 5.06983
#
# Compressibility (1/GPa) = 0.04197067
#
# Stress axis : x y z
#
# Youngs Moduli (GPa) = 81.10963 68.03741 29.03045
#
# Poissons Ratio (x) = 0.01883 -0.06467
# Poissons Ratio (y) = 0.02244 0.33973
# Poissons Ratio (z) = -0.18069 0.79620
#
# Static dielectric constant tensor:
#      x y z
#    x 2.030170 0.000000 0.013480 
#    y 0.000000 1.941810 0.000000 
#    z 0.013480 0.000000 1.995140 
# 
# From -- ./inp_files/225346.got.cif
#   From: 2010.05.17/outbox.cif.g08.bks.cpg/sg12_113_cif.got.tgz:225346.got - 2010.06.03 13:09:07.
