data_PCOD9204331
_publ_section_title
;
Structure prediction by ZEFSAII (Michael W. Deem and Ramdas Pophale) SiO2 
 PCOD9204331
Probable space group: C 2/M
;
_chemical_formula_sum "Si O2"
_cell_formula_units_Z 56
_cell_length_a 19.568524
_cell_length_b 8.763981
_cell_length_c 18.293262
_cell_angle_alpha 90.000000
_cell_angle_beta 117.413037
_cell_angle_gamma 90.000000
_cell_volume 2784.980001
_symmetry_space_group_name_H-M "C 2/M"
_symmetry_group_IT_number 12
_symmetry_cell_setting 'monoclinic'
loop_
_space_group_symop_operation_xyz
x,y,z
-x,y,-z
-x,-y,-z
x,-y,z
1/2+x,1/2+y,z
1/2-x,1/2+y,-z
1/2-x,1/2-y,-z
1/2+x,1/2-y,z
loop_
_atom_site_type_symbol
_atom_site_label
_atom_site_fract_x
_atom_site_fract_y
_atom_site_fract_z
Si Si1 0.993731 0.816521 0.084080
Si Si2 0.868671 0.318979 0.752299
Si Si3 0.676576 0.682438 0.003598
Si Si4 0.743563 0.681517 0.190553
Si Si5 0.397448 0.315017 0.297088
Si Si6 0.075537 0.814846 0.369058
Si Si7 0.092965 0.174158 0.537472
O O1 0.058684 0.735725 0.163301
O O2 0.001629 0.000000 0.098802
O O3 0.907542 0.766850 0.063862
O O4 0.000000 0.789598 0.000000
O O5 0.866355 0.500000 0.747340
O O6 0.793643 0.257311 0.756801
O O7 0.879140 0.249533 0.677085
O O8 0.678206 0.500000 0.996502
O O9 0.688016 0.716612 0.094978
O O10 0.750000 0.750000 0.000000
O O11 0.747031 0.500000 0.200630
O O12 0.828189 0.747375 0.216469
O O13 0.393971 0.500000 0.295116
O O14 0.484560 0.273441 0.318181
O O15 0.382424 0.257220 0.373094
O O16 0.105932 0.759098 0.463402
O O17 0.078404 0.000000 0.371098
O O18 0.000000 0.165093 0.500000
O O19 0.122663 0.000000 0.550713
#
# Coordination Sequence:
#
# PCOD9204331 Si02
#       7
#     8   8   8   8   8   8   8
#     4  10  20  41  64  80 105 147 190 226 275 333
#     4  12  25  38  56  84 115 147 189 238 278 326
#     4  10  23  40  60  83 111 145 183 229 275 329
#     4  11  23  41  58  79 114 153 188 227 281 337
#     4   9  18  34  59  89 115 144 185 232 278 329
#     4   9  18  35  60  86 114 150 186 225 277 336
#     4   7  12  28  55  84 112 143 183 226 271 327
#
# _framework density 20.107863999999999
#
# number of rings (size 3 to 8) (size 9 to 14) (size 15 to 20)
#    0.000    2.286    1.429    3.429    2.000    2.571 
#    0.000    1.429    0.000    2.571    0.000    0.000 
#    0.000    0.000    0.000    0.000    0.000    0.000 
#
# Total GULP energy -156236.854135 kJ/mol
# GULP energy per Si atom -5579.887648 kJ/mol
# Density = 2.006210 g / cm^3
# Si number density = 20.107864 Si / 1000 Ang^3
#
#
#
# Elastic Constant Matrix: (Units=GPa)
#
#
# Indices 1 2 3 4 5 6 
#
# 1 74.0636 13.3339 -7.1879 0.0000 -13.2201 0.0000
# 2 13.3339 23.5897 8.3258 0.0000 -8.7898 0.0000
# 3 -7.1879 8.3258 11.7255 0.0000 -6.1848 0.0000
# 4 0.0000 0.0000 0.0000 15.2800 0.0000 -2.3802
# 5 -13.2201 -8.7898 -6.1848 0.0000 37.8199 0.0000
# 6 0.0000 0.0000 0.0000 -2.3802 0.0000 17.8177
#
#
#
# Elastic Compliance Matrix: (Units=1/GPa)
#
#
# Indices 1 2 3 4 5 6 
#
# 1 0.021827 -0.020749 0.032388 0.000000 0.008104 0.000000
# 2 -0.020749 0.078142 -0.068347 0.000000 -0.000269 0.000000
# 3 0.032388 -0.068347 0.165542 0.000000 0.022508 0.000000
# 4 0.000000 0.000000 0.000000 0.066836 0.000000 0.008928
# 5 0.008104 -0.000269 0.022508 0.000000 0.032892 0.000000
# 6 0.000000 0.000000 0.000000 0.008928 0.000000 0.057317
#
#
# Mechanical properties :
#
#
# Convention : Reuss Voigt Hill
#
# Bulk Modulus (GPa) = 6.57485 15.36916 10.97200
# Shear Modulus (GPa) = 8.52266 20.51064 14.51665
#
# Velocity S-wave (km/s) = 2.06099 3.19726 2.68981
# Velocity P-wave (km/s) = 2.99006 4.61410 3.88782
#
# Compressibility (1/GPa) = 0.15209484
#
# Stress axis : x y z
#
# Youngs Moduli (GPa) = 45.81432 12.79717 6.04077
#
# Poissons Ratio (x) = 0.26553 -0.19565
# Poissons Ratio (y) = 0.95061 0.41287
# Poissons Ratio (z) = -1.48384 0.87465
#
# Static dielectric constant tensor:
#      x y z
#    x 1.709600 0.000000 -0.017950 
#    y 0.000000 1.674800 0.000000 
#    z -0.017950 0.000000 1.742410 
# 
# From -- ./inp_files/281596.got.cif
#   From: 2010.05.17/outbox.cif.g08.bks.cpg/sg12_141_cif.got.tgz:281596.got - 2010.06.03 13:09:07.
