data_PCOD9204372
_publ_section_title
;
Structure prediction by ZEFSAII (Michael W. Deem and Ramdas Pophale) SiO2 
 PCOD9204372
Probable space group: C 2/M
;
_chemical_formula_sum "Si O2"
_cell_formula_units_Z 50
_cell_length_a 19.966076
_cell_length_b 9.939076
_cell_length_c 16.626200
_cell_angle_alpha 90.000000
_cell_angle_beta 125.508207
_cell_angle_gamma 90.000000
_cell_volume 2685.798245
_symmetry_space_group_name_H-M "C 2/M"
_symmetry_group_IT_number 12
_symmetry_cell_setting 'monoclinic'
loop_
_space_group_symop_operation_xyz
x,y,z
-x,y,-z
-x,-y,-z
x,-y,z
1/2+x,1/2+y,z
1/2-x,1/2+y,-z
1/2-x,1/2-y,-z
1/2+x,1/2-y,z
loop_
_atom_site_type_symbol
_atom_site_label
_atom_site_fract_x
_atom_site_fract_y
_atom_site_fract_z
Si Si1 0.000000 0.500000 0.000000
Si Si2 0.411681 0.268890 0.936470
Si Si3 0.355670 0.842001 0.435572
Si Si4 0.441199 0.339716 0.629708
Si Si5 0.407136 0.844309 0.287677
Si Si6 0.337559 0.342020 0.720351
Si Si7 0.255976 0.347904 0.929499
O O1 0.935329 0.619548 0.981126
O O2 0.377852 0.262613 0.821926
O O3 0.341449 0.330679 0.942231
O O4 0.500000 0.342717 0.000000
O O5 0.396171 0.739999 0.526337
O O6 0.396546 0.829475 0.376300
O O7 0.258543 0.811767 0.359454
O O8 0.364180 0.000000 0.466468
O O9 0.449640 0.500000 0.620094
O O10 0.527988 0.263643 0.699097
O O11 0.387529 0.323037 0.673055
O O12 0.318709 0.824552 0.184822
O O13 0.433101 0.000000 0.290313
O O14 0.342019 0.500000 0.746168
O O15 0.248661 0.500000 0.953625
O O16 0.250000 0.250000 0.000000
#
# Coordination Sequence:
#
# PCOD9204372 Si02
#       7
#     2   8   8   8   8   8   8
#     4   8  24  40  62  92 132 158 198 268 304 372
#     4  10  22  44  64  90 124 166 206 249 313 370
#     4  10  20  41  66  86 115 161 208 251 298 362
#     4  11  24  39  57  95 126 155 199 256 309 358
#     4  10  22  42  63  86 120 166 207 245 298 368
#     4  10  21  40  65  88 120 157 209 254 298 371
#     4  11  25  42  67  95 126 164 209 259 310 371
#
# _framework density 18.616437999999999
#
# number of rings (size 3 to 8) (size 9 to 14) (size 15 to 20)
#    0.480    1.280    1.600    1.920    3.360    4.480 
#    7.200    0.000    0.000    0.000    0.000    0.000 
#    0.000    0.000    0.000    0.000    0.000    0.000 
#
# Total GULP energy -139266.481501 kJ/mol
# GULP energy per Si atom -5570.659260 kJ/mol
# Density = 1.857407 g / cm^3
# Si number density = 18.616438 Si / 1000 Ang^3
#
#
#
# Elastic Constant Matrix: (Units=GPa)
#
#
# Indices 1 2 3 4 5 6 
#
# 1 72.3908 40.1254 21.0568 0.0000 12.1013 0.0000
# 2 40.1254 83.7672 33.4395 0.0000 0.6952 0.0000
# 3 21.0568 33.4395 60.1984 0.0000 0.9643 0.0000
# 4 0.0000 0.0000 0.0000 14.0587 0.0000 1.5881
# 5 12.1013 0.6952 0.9643 0.0000 32.1592 0.0000
# 6 0.0000 0.0000 0.0000 1.5881 0.0000 27.4946
#
#
#
# Elastic Compliance Matrix: (Units=1/GPa)
#
#
# Indices 1 2 3 4 5 6 
#
# 1 0.020672 -0.008996 -0.002113 0.000000 -0.007521 0.000000
# 2 -0.008996 0.019255 -0.007600 0.000000 0.003197 0.000000
# 3 -0.002113 -0.007600 0.021568 0.000000 0.000313 0.000000
# 4 0.000000 0.000000 0.000000 0.071597 0.000000 -0.004135
# 5 -0.007521 0.003197 0.000313 0.000000 0.033847 0.000000
# 6 0.000000 0.000000 0.000000 -0.004135 0.000000 0.036610
#
#
# Mechanical properties :
#
#
# Convention : Reuss Voigt Hill
#
# Bulk Modulus (GPa) = 41.53603 45.06664 43.30134
# Shear Modulus (GPa) = 20.08091 22.85816 21.46953
#
# Velocity S-wave (km/s) = 3.28787 3.50787 3.39965
# Velocity P-wave (km/s) = 6.06410 6.37710 6.22257
#
# Compressibility (1/GPa) = 0.02407548
#
# Stress axis : x y z
#
# Youngs Moduli (GPa) = 48.37376 51.93575 46.36570
#
# Poissons Ratio (x) = 0.46723 0.09798
# Poissons Ratio (y) = 0.43518 0.35238
# Poissons Ratio (z) = 0.10222 0.39472
#
# Static dielectric constant tensor:
#      x y z
#    x 1.643740 0.000000 0.025230 
#    y 0.000000 1.621680 0.000000 
#    z 0.025230 0.000000 1.648670 
# 
# From -- ./inp_files/275801.got.cif
#   From: 2010.05.17/outbox.cif.g08.bks.cpg/sg12_138_cif.got.tgz:275801.got - 2010.06.03 13:09:07.
