data_PCOD9204138
_publ_section_title
;
Structure prediction by ZEFSAII (Michael W. Deem and Ramdas Pophale) SiO2 
 PCOD9204138
Probable space group: C 2/M
;
_chemical_formula_sum "Si O2"
_cell_formula_units_Z 60
_cell_length_a 9.602290
_cell_length_b 16.925618
_cell_length_c 19.653941
_cell_angle_alpha 90.000000
_cell_angle_beta 58.851443
_cell_angle_gamma 90.000000
_cell_volume 2733.732479
_symmetry_space_group_name_H-M "C 2/M"
_symmetry_group_IT_number 12
_symmetry_cell_setting 'monoclinic'
loop_
_space_group_symop_operation_xyz
x,y,z
-x,y,-z
-x,-y,-z
x,-y,z
1/2+x,1/2+y,z
1/2-x,1/2+y,-z
1/2-x,1/2-y,-z
1/2+x,1/2-y,z
loop_
_atom_site_type_symbol
_atom_site_label
_atom_site_fract_x
_atom_site_fract_y
_atom_site_fract_z
Si Si1 0.187733 0.410119 0.859475
Si Si2 0.290086 0.695383 0.707543
Si Si3 0.000000 0.128645 0.000000
Si Si4 0.540342 0.412329 0.569939
Si Si5 0.976502 0.342270 0.705248
Si Si6 0.361091 0.882517 0.871227
Si Si7 0.638421 0.170116 0.520950
Si Si8 0.643906 0.290065 0.084164
O O1 0.241949 0.500000 0.853296
O O2 0.257607 0.366541 0.775691
O O3 0.254642 0.356941 0.903621
O O4 0.994886 0.409394 0.892566
O O5 0.438862 0.657774 0.629088
O O6 0.134158 0.698528 0.699194
O O7 0.334593 0.780285 0.725037
O O8 0.182131 0.093042 0.944139
O O9 0.996526 0.175001 0.928196
O O10 0.500000 0.410449 0.500000
O O11 0.493391 0.500000 0.607120
O O12 0.729567 0.395363 0.533513
O O13 0.049931 0.361638 0.612102
O O14 0.910457 0.402903 0.780406
O O15 0.387227 0.786515 0.862405
O O16 0.500000 0.184484 0.500000
O O17 0.750000 0.250000 0.500000
O O18 0.750000 0.250000 0.000000
#
# Coordination Sequence:
#
# PCOD9204138 Si02
#       8
#     8   8   4   8   8   8   8   8
#     4  11  24  42  66 100 136 171 219 277 336 403
#     4  11  22  39  65  98 130 170 223 277 337 393
#     4  10  22  38  63  88 125 160 214 264 320 384
#     4  11  23  41  62  89 133 182 221 270 340 404
#     4  11  22  35  64  97 127 168 222 276 331 389
#     4  10  21  40  64  94 129 170 219 271 335 399
#     4  12  23  39  61  94 131 171 225 278 329 388
#     4  10  20  40  65  96 126 167 215 263 321 397
#
# _framework density 21.948014000000001
#
# number of rings (size 3 to 8) (size 9 to 14) (size 15 to 20)
#    0.000    1.200    4.000    3.200    1.867    1.867 
#    0.000    6.667    0.000    0.000    0.000    0.000 
#    0.000    0.000    0.000    0.000    0.000    0.000 
#
# Total GULP energy -167246.915221 kJ/mol
# GULP energy per Si atom -5574.897174 kJ/mol
# Density = 2.189806 g / cm^3
# Si number density = 21.948014 Si / 1000 Ang^3
#
#
#
# Elastic Constant Matrix: (Units=GPa)
#
#
# Indices 1 2 3 4 5 6 
#
# 1 127.0940 6.4824 23.7081 0.0000 3.8974 0.0000
# 2 6.4824 19.5252 -26.1086 0.0000 -7.8444 0.0000
# 3 23.7081 -26.1086 80.3698 0.0000 -6.0148 0.0000
# 4 0.0000 0.0000 0.0000 -8.4523 0.0000 -4.7247
# 5 3.8974 -7.8444 -6.0148 0.0000 32.0776 0.0000
# 6 0.0000 0.0000 0.0000 -4.7247 0.0000 -14.1927
#
#
#
# Elastic Compliance Matrix: (Units=1/GPa)
#
#
# Indices 1 2 3 4 5 6 
#
# 1 0.011448 -0.022789 -0.011462 0.000000 -0.009113 0.000000
# 2 -0.022789 0.170240 0.066279 0.000000 0.056828 0.000000
# 3 -0.011462 0.066279 0.039222 0.000000 0.024955 0.000000
# 4 0.000000 0.000000 0.000000 -0.145360 0.000000 0.048389
# 5 -0.009113 0.056828 0.024955 0.000000 0.050858 0.000000
# 6 0.000000 0.000000 0.000000 0.048389 0.000000 -0.086567
#
#
# Mechanical properties :
#
#
# Convention : Reuss Voigt Hill
#
# Bulk Modulus (GPa) = 3.50920 26.12809 14.81865
# Shear Modulus (GPa) = 70.64591 16.74698 43.69645
#
# Velocity S-wave (km/s) = 5.67959 2.76530 4.46680
# Velocity P-wave (km/s) = 6.67927 4.70385 5.77663
#
# Compressibility (1/GPa) = 0.28496491
#
# Stress axis : x y z
#
# Youngs Moduli (GPa) = 87.34999 5.87407 25.49559
#
# Poissons Ratio (x) = 0.13387 0.29224
# Poissons Ratio (y) = 1.99065 -1.68982
# Poissons Ratio (z) = 1.00124 -0.38933
#
# Static dielectric constant tensor:
#      x y z
#    x 1.725860 0.000000 0.013270 
#    y 0.000000 1.917560 0.000000 
#    z 0.013270 0.000000 1.930860 
# 
# From -- ./inp_files/301132.got.cif
#   From: 2010.05.17/outbox.cif.g08.bks.cpg/sg12_151_cif.got.tgz:301132.got - 2010.06.03 13:09:07.
