data_PCOD9204242
_publ_section_title
;
Structure prediction by ZEFSAII (Michael W. Deem and Ramdas Pophale) SiO2 
 PCOD9204242
Probable space group: C 2/M
;
_chemical_formula_sum "Si O2"
_cell_formula_units_Z 56
_cell_length_a 13.923055
_cell_length_b 18.877804
_cell_length_c 17.740810
_cell_angle_alpha 90.000000
_cell_angle_beta 35.398314
_cell_angle_gamma 90.000000
_cell_volume 2701.039195
_symmetry_space_group_name_H-M "C 2/M"
_symmetry_group_IT_number 12
_symmetry_cell_setting 'monoclinic'
loop_
_space_group_symop_operation_xyz
x,y,z
-x,y,-z
-x,-y,-z
x,-y,z
1/2+x,1/2+y,z
1/2-x,1/2+y,-z
1/2-x,1/2-y,-z
1/2+x,1/2-y,z
loop_
_atom_site_type_symbol
_atom_site_label
_atom_site_fract_x
_atom_site_fract_y
_atom_site_fract_z
Si Si1 0.119309 0.297849 0.207628
Si Si2 0.501759 0.416501 0.649019
Si Si3 0.647710 0.190536 0.363617
Si Si4 0.680014 0.156491 0.922382
Si Si5 0.775052 0.578440 0.953766
Si Si6 0.758861 0.200754 0.569560
Si Si7 0.604269 0.423803 0.755782
O O1 0.104342 0.289945 0.306930
O O2 0.222436 0.228645 0.116924
O O3 0.210182 0.368920 0.125192
O O4 0.936383 0.310219 0.291278
O O5 0.494020 0.500000 0.632012
O O6 0.315729 0.384921 0.782628
O O7 0.620224 0.365963 0.523089
O O8 0.588621 0.413252 0.675977
O O9 0.500000 0.149036 0.500000
O O10 0.677915 0.256524 0.398805
O O11 0.805729 0.141105 0.264074
O O12 0.500000 0.169958 0.000000
O O13 0.650391 0.111569 0.017295
O O14 0.842494 0.500000 0.895877
O O15 0.581953 0.573238 0.096319
O O16 0.750000 0.250000 0.500000
O O17 0.685408 0.500000 0.718939
#
# Coordination Sequence:
#
# PCOD9204242 Si02
#       7
#     8   8   8   8   8   8   8
#     4  12  26  40  68  99 132 175 226 269 330 402
#     4  10  20  40  68  96 128 174 219 270 342 395
#     4  12  23  38  64  94 127 168 217 270 328 385
#     4  11  23  40  69 102 132 176 224 276 328 400
#     4  10  24  45  65  93 136 177 216 272 336 391
#     4  12  21  44  66  92 130 168 218 281 326 380
#     4   9  19  37  62  90 128 170 211 266 329 392
#
# _framework density 20.732759999999999
#
# number of rings (size 3 to 8) (size 9 to 14) (size 15 to 20)
#    0.000    1.143    4.286    2.571    4.000    2.571 
#    0.000    1.429    0.000    1.286    0.000    0.000 
#    0.000    0.000    0.000    0.000    0.000    0.000 
#
# Total GULP energy -156271.651747 kJ/mol
# GULP energy per Si atom -5581.130420 kJ/mol
# Density = 2.068557 g / cm^3
# Si number density = 20.732760 Si / 1000 Ang^3
#
#
#
# Elastic Constant Matrix: (Units=GPa)
#
#
# Indices 1 2 3 4 5 6 
#
# 1 79.0107 37.6131 38.4966 -0.0019 -6.9779 -0.0005
# 2 37.6131 143.2728 51.6349 -0.0025 3.5646 -0.0004
# 3 38.4966 51.6349 52.2790 -0.0028 -5.8391 0.0016
# 4 -0.0019 -0.0025 -0.0028 17.2615 0.0025 -27.8451
# 5 -6.9779 3.5646 -5.8391 0.0025 25.3011 0.0002
# 6 -0.0005 -0.0004 0.0016 -27.8451 0.0002 -35.2682
#
#
#
# Elastic Compliance Matrix: (Units=1/GPa)
#
#
# Indices 1 2 3 4 5 6 
#
# 1 0.019854 -0.000135 -0.014240 -0.000001 0.002208 0.000000
# 2 -0.000135 0.011270 -0.011509 0.000000 -0.004281 0.000000
# 3 -0.014240 -0.011509 0.041801 0.000003 0.007341 0.000000
# 4 -0.000001 0.000000 0.000003 0.025480 -0.000002 -0.020117
# 5 0.002208 -0.004281 0.007341 -0.000002 0.042430 0.000002
# 6 0.000000 0.000000 0.000000 -0.020117 0.000002 -0.012471
#
#
# Mechanical properties :
#
#
# Convention : Reuss Voigt Hill
#
# Bulk Modulus (GPa) = 47.26694 58.89461 53.08077
# Shear Modulus (GPa) = 26.71153 11.24673 18.97913
#
# Velocity S-wave (km/s) = 3.59329 2.33161 3.02887
# Velocity P-wave (km/s) = 6.32956 5.97635 6.15549
#
# Compressibility (1/GPa) = 0.02115644
#
# Stress axis : x y z
#
# Youngs Moduli (GPa) = 50.36787 88.73401 23.92277
#
# Poissons Ratio (x) = 0.01200 0.34065
# Poissons Ratio (y) = 0.00681 0.27534
# Poissons Ratio (z) = 0.71721 1.02127
#
# Static dielectric constant tensor:
#      x y z
#    x 1.769080 0.000000 -0.081370 
#    y 0.000000 1.776320 0.000000 
#    z -0.081370 0.000000 1.897020 
# 
# From -- ./inp_files/272342.got.cif
#   From: 2010.05.17/outbox.cif.g08.bks.cpg/sg12_137_cif.got.tgz:272342.got - 2010.06.03 13:09:07.
