data_PCOD9204739
_publ_section_title
;
Structure prediction by ZEFSAII (Michael W. Deem and Ramdas Pophale) SiO2 
 PCOD9204739
Probable space group: C 2/M
;
_chemical_formula_sum "Si O2"
_cell_formula_units_Z 56
_cell_length_a 27.096428
_cell_length_b 11.300146
_cell_length_c 12.573555
_cell_angle_alpha 90.000000
_cell_angle_beta 40.042945
_cell_angle_gamma 90.000000
_cell_volume 2476.904843
_symmetry_space_group_name_H-M "C 2/M"
_symmetry_group_IT_number 12
_symmetry_cell_setting 'monoclinic'
loop_
_space_group_symop_operation_xyz
x,y,z
-x,y,-z
-x,-y,-z
x,-y,z
1/2+x,1/2+y,z
1/2-x,1/2+y,-z
1/2-x,1/2-y,-z
1/2+x,1/2-y,z
loop_
_atom_site_type_symbol
_atom_site_label
_atom_site_fract_x
_atom_site_fract_y
_atom_site_fract_z
Si Si1 0.264584 0.866302 0.053253
Si Si2 0.416118 0.133855 0.544551
Si Si3 0.938960 0.628079 0.005853
Si Si4 0.577649 0.225241 0.240670
Si Si5 0.899901 0.872510 0.976362
Si Si6 0.243536 0.372471 0.680799
Si Si7 0.731046 0.872473 0.361883
O O1 0.356813 0.860419 0.912024
O O2 0.244276 0.000000 0.046365
O O3 0.250000 0.750000 0.000000
O O4 0.239621 0.858354 0.218724
O O5 0.493145 0.175194 0.359949
O O6 0.409753 0.221992 0.654075
O O7 0.341235 0.129140 0.597238
O O8 0.425789 0.000000 0.570772
O O9 0.954007 0.500000 0.926359
O O10 0.943841 0.756903 0.944500
O O11 0.848371 0.624407 0.185360
O O12 0.000000 0.630488 0.000000
O O13 0.594805 0.350664 0.158560
O O14 0.931664 0.000000 0.954527
O O15 0.811962 0.869038 0.163413
O O16 0.275702 0.500000 0.596023
O O17 0.274247 0.254716 0.574289
O O18 0.729224 0.000000 0.422343
#
# Coordination Sequence:
#
# PCOD9204739 Si02
#       7
#     8   8   8   8   8   8   8
#     4  11  21  31  48  71 100 134 171 212 252 298
#     4  10  21  33  49  72 102 140 182 226 266 302
#     4   9  17  31  53  81 110 137 169 216 270 320
#     4  11  20  33  48  71 101 137 179 219 263 304
#     4  10  21  35  54  78 106 138 172 215 267 321
#     4   9  17  30  47  74 102 129 166 208 257 304
#     4   9  17  33  51  71  98 132 174 214 255 307
#
# _framework density 22.608861000000001
#
# number of rings (size 3 to 8) (size 9 to 14) (size 15 to 20)
#    0.000    2.143    2.857    2.571    0.000    3.714 
#    0.000    2.857    0.000    0.000    0.000    4.000 
#    0.000    2.286    0.000    0.000    0.000    0.000 
#
# Total GULP energy -155880.080846 kJ/mol
# GULP energy per Si atom -5567.145745 kJ/mol
# Density = 2.255740 g / cm^3
# Si number density = 22.608861 Si / 1000 Ang^3
#
#
#
# Elastic Constant Matrix: (Units=GPa)
#
#
# Indices 1 2 3 4 5 6 
#
# 1 101.5007 53.8891 14.3723 0.0000 -6.7081 0.0000
# 2 53.8891 237.8983 6.7829 0.0000 0.4796 0.0000
# 3 14.3723 6.7829 27.4254 0.0000 -4.3388 0.0000
# 4 0.0000 0.0000 0.0000 6.4365 0.0000 -6.1458
# 5 -6.7081 0.4796 -4.3388 0.0000 11.6251 0.0000
# 6 0.0000 0.0000 0.0000 -6.1458 0.0000 7.8515
#
#
#
# Elastic Compliance Matrix: (Units=1/GPa)
#
#
# Indices 1 2 3 4 5 6 
#
# 1 0.012320 -0.002661 -0.004949 0.000000 0.005372 0.000000
# 2 -0.002661 0.004812 -0.000074 0.000000 -0.001762 0.000000
# 3 -0.004949 -0.000074 0.041047 0.000000 0.012467 0.000000
# 4 0.000000 0.000000 0.000000 0.615107 0.000000 0.481481
# 5 0.005372 -0.001762 0.012467 0.000000 0.093847 0.000000
# 6 0.000000 0.000000 0.000000 0.481481 0.000000 0.504249
#
#
# Mechanical properties :
#
#
# Convention : Reuss Voigt Hill
#
# Bulk Modulus (GPa) = 23.35821 57.43480 40.39650
# Shear Modulus (GPa) = 3.84314 24.63461 14.23888
#
# Velocity S-wave (km/s) = 1.30519 3.30449 2.51229
# Velocity P-wave (km/s) = 3.55320 6.32601 5.13048
#
# Compressibility (1/GPa) = 0.04281149
#
# Stress axis : x y z
#
# Youngs Moduli (GPa) = 81.16570 207.82106 24.36255
#
# Poissons Ratio (x) = 0.55293 0.12056
# Poissons Ratio (y) = 0.21595 0.00181
# Poissons Ratio (z) = 0.40166 0.01548
#
# Static dielectric constant tensor:
#      x y z
#    x 1.922230 0.000000 0.062940 
#    y 0.000000 1.919200 0.000000 
#    z 0.062940 0.000000 1.861830 
# 
# From -- ./inp_files/250512.got.cif
#   From: 2010.05.17/outbox.cif.g08.bks.cpg/sg12_126_cif.got.tgz:250512.got - 2010.06.03 13:09:07.
