data_PCOD9204978
_publ_section_title
;
Structure prediction by ZEFSAII (Michael W. Deem and Ramdas Pophale) SiO2 
 PCOD9204978
Probable space group: C 2/M
;
_chemical_formula_sum "Si O2"
_cell_formula_units_Z 58
_cell_length_a 18.017660
_cell_length_b 9.485932
_cell_length_c 22.782125
_cell_angle_alpha 90.000000
_cell_angle_beta 126.833322
_cell_angle_gamma 90.000000
_cell_volume 3116.523475
_symmetry_space_group_name_H-M "C 2/M"
_symmetry_group_IT_number 12
_symmetry_cell_setting 'monoclinic'
loop_
_space_group_symop_operation_xyz
x,y,z
-x,y,-z
-x,-y,-z
x,-y,z
1/2+x,1/2+y,z
1/2-x,1/2+y,-z
1/2-x,1/2-y,-z
1/2+x,1/2-y,z
loop_
_atom_site_type_symbol
_atom_site_label
_atom_site_fract_x
_atom_site_fract_y
_atom_site_fract_z
Si Si1 0.777231 0.839458 0.569707
Si Si2 0.880367 0.335196 0.714247
Si Si3 0.090740 0.168314 0.005316
Si Si4 0.097952 0.716734 0.558540
Si Si5 0.550067 0.666956 0.849966
Si Si6 0.734426 0.332742 0.860841
Si Si7 0.000000 0.000000 0.500000
Si Si8 0.697054 0.664447 0.708704
O O1 0.750000 0.750000 0.500000
O O2 0.852426 0.753985 0.643608
O O3 0.685003 0.844525 0.566186
O O4 0.806623 0.000000 0.570519
O O5 0.896798 0.500000 0.708709
O O6 0.792354 0.329200 0.716909
O O7 0.967513 0.262283 0.786506
O O8 0.179849 0.248516 0.071898
O O9 0.105236 0.000000 0.017637
O O10 0.071916 0.199419 0.928142
O O11 0.000000 0.206032 0.000000
O O12 0.124200 0.739460 0.639156
O O13 0.000000 0.645198 0.500000
O O14 0.077765 0.875479 0.526259
O O15 0.525379 0.500000 0.834302
O O16 0.642390 0.689810 0.855543
O O17 0.755503 0.500000 0.871618
O O18 0.714834 0.293570 0.783950
O O19 0.664484 0.500000 0.692578
#
# Coordination Sequence:
#
# PCOD9204978 Si02
#       8
#     8   8   8   8   8   8   2   8
#     4  11  24  38  58  83 116 152 191 239 286 336
#     4  10  21  37  59  81 107 144 186 228 277 338
#     4  10  21  37  56  78 109 149 185 225 277 331
#     4   9  18  33  57  81 110 147 190 230 287 342
#     4  10  21  37  54  80 114 143 180 229 282 333
#     4  10  21  34  54  82 109 142 183 230 276 329
#     4   8  16  32  58  84 108 148 190 236 282 352
#     4   9  16  32  53  78 106 136 180 228 274 328
#
# _framework density 18.610479999999999
#
# number of rings (size 3 to 8) (size 9 to 14) (size 15 to 20)
#    0.414    1.793    0.690    2.069    1.931    2.759 
#    0.000    4.138    0.000    0.000    0.000    0.000 
#    0.000    0.000    0.000    0.000    0.000    0.000 
#
# Total GULP energy -161520.600007 kJ/mol
# GULP energy per Si atom -5569.675862 kJ/mol
# Density = 1.856812 g / cm^3
# Si number density = 18.610480 Si / 1000 Ang^3
#
#
#
# Elastic Constant Matrix: (Units=GPa)
#
#
# Indices 1 2 3 4 5 6 
#
# 1 46.2278 40.3493 66.8099 0.0000 2.9348 0.0000
# 2 40.3493 109.8284 82.8010 0.0000 3.8634 0.0000
# 3 66.8099 82.8010 184.2004 0.0000 1.1376 0.0000
# 4 0.0000 0.0000 0.0000 21.8799 0.0000 1.5822
# 5 2.9348 3.8634 1.1376 0.0000 35.5452 0.0000
# 6 0.0000 0.0000 0.0000 1.5822 0.0000 13.2948
#
#
#
# Elastic Compliance Matrix: (Units=1/GPa)
#
#
# Indices 1 2 3 4 5 6 
#
# 1 0.048992 -0.006831 -0.014682 0.000000 -0.002833 0.000000
# 2 -0.006831 0.014785 -0.004163 0.000000 -0.000910 0.000000
# 3 -0.014682 -0.004163 0.012617 0.000000 0.001261 0.000000
# 4 0.000000 0.000000 0.000000 0.046101 0.000000 -0.005486
# 5 -0.002833 -0.000910 0.001261 0.000000 0.028426 0.000000
# 6 0.000000 0.000000 0.000000 -0.005486 0.000000 0.075870
#
#
# Mechanical properties :
#
#
# Convention : Reuss Voigt Hill
#
# Bulk Modulus (GPa) = 39.92942 80.01968 59.97455
# Shear Modulus (GPa) = 17.45261 24.16375 20.80818
#
# Velocity S-wave (km/s) = 3.06565 3.60723 3.34741
# Velocity P-wave (km/s) = 5.83377 7.77431 6.87287
#
# Compressibility (1/GPa) = 0.02504419
#
# Stress axis : x y z
#
# Youngs Moduli (GPa) = 20.41143 67.63531 79.25514
#
# Poissons Ratio (x) = 0.46200 1.16359
# Poissons Ratio (y) = 0.13942 0.32994
# Poissons Ratio (z) = 0.29967 0.28157
#
# Static dielectric constant tensor:
#      x y z
#    x 1.635360 0.000000 -0.001700 
#    y 0.000000 1.635980 0.000000 
#    z -0.001700 0.000000 1.633970 
# 
# From -- ./inp_files/314870.got.cif
#   From: 2010.05.17/outbox.cif.g08.bks.cpg/sg12_158_cif.got.tgz:314870.got - 2010.06.03 13:09:07.
