data_PCOD9204738
_publ_section_title
;
Structure prediction by ZEFSAII (Michael W. Deem and Ramdas Pophale) SiO2 
 PCOD9204738
Probable space group: C 2/M
;
_chemical_formula_sum "Si O2"
_cell_formula_units_Z 56
_cell_length_a 10.513002
_cell_length_b 31.518001
_cell_length_c 18.622307
_cell_angle_alpha 90.000000
_cell_angle_beta 32.133988
_cell_angle_gamma 90.000000
_cell_volume 3282.084072
_symmetry_space_group_name_H-M "C 2/M"
_symmetry_group_IT_number 12
_symmetry_cell_setting 'monoclinic'
loop_
_space_group_symop_operation_xyz
x,y,z
-x,y,-z
-x,-y,-z
x,-y,z
1/2+x,1/2+y,z
1/2-x,1/2+y,-z
1/2-x,1/2-y,-z
1/2+x,1/2-y,z
loop_
_atom_site_type_symbol
_atom_site_label
_atom_site_fract_x
_atom_site_fract_y
_atom_site_fract_z
Si Si1 0.523061 0.732919 0.651293
Si Si2 0.254268 0.548182 0.163822
Si Si3 0.231852 0.812630 0.845432
Si Si4 0.950494 0.384691 0.841278
Si Si5 0.276310 0.652611 0.388820
Si Si6 0.557230 0.347390 0.388820
Si Si7 0.025672 0.115309 0.841278
O O1 0.750000 0.750000 0.500000
O O2 0.376974 0.772628 0.748683
O O3 0.622632 0.700828 0.664641
O O4 0.383445 0.700828 0.664641
O O5 0.179829 0.500000 0.213447
O O6 0.075936 0.575286 0.199392
O O7 0.325889 0.575286 0.199392
O O8 0.500000 0.547415 0.000000
O O9 0.380497 0.843492 0.826980
O O10 0.138562 0.843492 0.826981
O O11 0.000000 0.797863 0.000000
O O12 0.219364 0.376919 0.737321
O O13 0.746872 0.388382 1.000000
O O14 0.329848 0.642119 0.446768
O O15 0.431328 0.623081 0.262679
O O16 0.000000 0.650462 0.500000
O O17 0.500000 0.349538 0.500000
#
# Coordination Sequence:
#
# PCOD9204738 Si02
#       7
#     8   8   8   8   8   8   8
#     4  10  21  33  49  70 105 139 191 227 262 303
#     4   8  15  30  58  90 111 136 173 213 263 328
#     4   9  18  31  50  75 105 141 176 220 269 318
#     4   9  18  33  54  80 110 138 174 222 271 322
#     4  10  23  36  52  76 104 146 183 225 268 314
#     4  10  23  36  52  76 104 146 183 225 268 314
#     4   9  18  33  54  80 110 138 174 222 271 322
#
# _framework density 17.062328999999998
#
# number of rings (size 3 to 8) (size 9 to 14) (size 15 to 20)
#    0.857    1.857    0.000    3.429    4.000    5.714 
#    0.000    2.857    0.000    1.714    0.000    4.000 
#    0.000    0.000    0.000    0.000    0.000    0.000 
#
# Total GULP energy -155906.514000 kJ/mol
# GULP energy per Si atom -5568.089786 kJ/mol
# Density = 1.702349 g / cm^3
# Si number density = 17.062329 Si / 1000 Ang^3
#
#
#
# Elastic Constant Matrix: (Units=GPa)
#
#
# Indices 1 2 3 4 5 6 
#
# 1 86.5375 35.9290 37.5348 0.0000 0.1179 0.0000
# 2 35.9290 111.4959 49.9484 0.0000 0.1199 0.0000
# 3 37.5348 49.9484 64.6470 0.0000 -0.3055 0.0000
# 4 0.0000 0.0000 0.0000 14.8220 0.0000 0.0333
# 5 0.1179 0.1199 -0.3055 0.0000 31.4039 0.0000
# 6 0.0000 0.0000 0.0000 0.0333 0.0000 10.9158
#
#
#
# Elastic Compliance Matrix: (Units=1/GPa)
#
#
# Indices 1 2 3 4 5 6 
#
# 1 0.015605 -0.001482 -0.007916 0.000000 -0.000130 0.000000
# 2 -0.001482 0.013858 -0.009847 0.000000 -0.000143 0.000000
# 3 -0.007916 -0.009847 0.027674 0.000000 0.000337 0.000000
# 4 0.000000 0.000000 0.000000 0.067468 0.000000 -0.000206
# 5 -0.000130 -0.000143 0.000337 0.000000 0.031847 0.000000
# 6 0.000000 0.000000 0.000000 -0.000206 0.000000 0.091611
#
#
# Mechanical properties :
#
#
# Convention : Reuss Voigt Hill
#
# Bulk Modulus (GPa) = 53.62831 56.61163 55.11997
# Shear Modulus (GPa) = 17.07831 20.71290 18.89561
#
# Velocity S-wave (km/s) = 3.16719 3.48797 3.33144
# Velocity P-wave (km/s) = 6.69880 7.03367 6.86828
#
# Compressibility (1/GPa) = 0.01864687
#
# Stress axis : x y z
#
# Youngs Moduli (GPa) = 64.08380 72.15935 36.13445
#
# Poissons Ratio (x) = 0.10696 0.28602
# Poissons Ratio (y) = 0.09499 0.35583
# Poissons Ratio (z) = 0.50726 0.71058
#
# Static dielectric constant tensor:
#      x y z
#    x 1.612530 0.000000 -0.000240 
#    y 0.000000 1.574050 0.000000 
#    z -0.000240 0.000000 1.584780 
# 
# From -- ./inp_files/307403.got.cif
#   From: 2010.05.17/outbox.cif.g08.bks.cpg/sg12_154_cif.got.tgz:307403.got - 2010.06.03 13:09:07.
