data_PCOD9204049
_publ_section_title
;
Structure prediction by ZEFSAII (Michael W. Deem and Ramdas Pophale) SiO2 
 PCOD9204049
Probable space group: C 2/M
;
_chemical_formula_sum "Si O2"
_cell_formula_units_Z 64
_cell_length_a 27.875642
_cell_length_b 20.983039
_cell_length_c 14.521430
_cell_angle_alpha 90.000000
_cell_angle_beta 20.111351
_cell_angle_gamma 90.000000
_cell_volume 2920.561073
_symmetry_space_group_name_H-M "C 2/M"
_symmetry_group_IT_number 12
_symmetry_cell_setting 'monoclinic'
loop_
_space_group_symop_operation_xyz
x,y,z
-x,y,-z
-x,-y,-z
x,-y,z
1/2+x,1/2+y,z
1/2-x,1/2+y,-z
1/2-x,1/2-y,-z
1/2+x,1/2-y,z
loop_
_atom_site_type_symbol
_atom_site_label
_atom_site_fract_x
_atom_site_fract_y
_atom_site_fract_z
Si Si1 0.683698 0.429763 0.931559
Si Si2 0.973254 0.569212 0.938805
Si Si3 0.573491 0.429530 0.467521
Si Si4 0.647070 0.826343 0.271320
Si Si5 0.551357 0.205123 0.090348
Si Si6 0.762903 0.806985 0.862878
Si Si7 0.204772 0.068943 0.682307
Si Si8 0.772992 0.790029 0.366683
O O1 0.746180 0.500000 0.838185
O O2 0.786156 0.373655 0.776119
O O3 0.649788 0.427732 0.885273
O O4 0.545615 0.424524 0.241228
O O5 0.903662 0.500000 0.047610
O O6 0.126785 0.566426 0.617154
O O7 0.908481 0.634871 0.021277
O O8 0.000000 0.574498 0.000000
O O9 0.500000 0.425459 0.500000
O O10 0.639314 0.500000 0.354721
O O11 0.675360 0.370466 0.291832
O O12 0.500000 0.850334 0.500000
O O13 0.638229 0.754325 0.323931
O O14 0.741261 0.821338 0.009656
O O15 0.621842 0.211105 0.063159
O O16 0.619754 0.256609 0.897269
O O17 0.383334 0.207988 0.395186
O O18 0.177125 0.139047 0.692868
O O19 0.162769 0.000000 0.715659
O O20 0.750000 0.750000 0.500000
#
# Coordination Sequence:
#
# PCOD9204049 Si02
#       8
#     8   8   8   8   8   8   8   8
#     4  10  21  39  63  92 126 171 218 267 324 379
#     4   9  18  36  61  88 120 157 196 247 317 386
#     4  10  20  40  64  87 122 171 225 271 315 371
#     4  11  25  38  58  84 128 172 213 265 318 381
#     4  11  24  38  63  92 125 160 209 263 315 380
#     4  11  25  39  58  89 124 167 218 266 322 374
#     4   9  19  36  62  94 126 161 206 258 314 378
#     4  11  23  43  67  94 126 163 208 258 329 401
#
# _framework density 21.913596999999999
#
# number of rings (size 3 to 8) (size 9 to 14) (size 15 to 20)
#    0.000    1.750    1.250    3.000    7.000    1.750 
#    0.000    0.000    0.000    2.250    0.000    0.000 
#    0.000    0.000    0.000    0.000    0.000    0.000 
#
# Total GULP energy -178689.059420 kJ/mol
# GULP energy per Si atom -5584.033107 kJ/mol
# Density = 2.186372 g / cm^3
# Si number density = 21.913597 Si / 1000 Ang^3
#
#
#
# Elastic Constant Matrix: (Units=GPa)
#
#
# Indices 1 2 3 4 5 6 
#
# 1 42.9660 4.7601 3.8982 0.0065 5.6392 -0.0056
# 2 4.7601 174.0859 25.9600 0.0068 1.8283 -0.0078
# 3 3.8982 25.9600 58.2109 0.0030 11.0301 -0.0055
# 4 0.0065 0.0068 0.0030 25.9051 -0.0046 0.1258
# 5 5.6392 1.8283 11.0301 -0.0046 33.2846 0.0062
# 6 -0.0056 -0.0078 -0.0055 0.1258 0.0062 28.0625
#
#
#
# Elastic Compliance Matrix: (Units=1/GPa)
#
#
# Indices 1 2 3 4 5 6 
#
# 1 0.023890 -0.000517 -0.000649 -0.000006 -0.003804 0.000005
# 2 -0.000517 0.006176 -0.002851 -0.000001 0.000693 0.000001
# 3 -0.000649 -0.002851 0.019679 -0.000002 -0.006255 0.000004
# 4 -0.000006 -0.000001 -0.000002 0.038603 0.000007 -0.000173
# 5 -0.003804 0.000693 -0.006255 0.000007 0.032723 -0.000009
# 6 0.000005 0.000001 0.000004 -0.000173 -0.000009 0.035636
#
#
# Mechanical properties :
#
#
# Convention : Reuss Voigt Hill
#
# Bulk Modulus (GPa) = 23.97375 38.27771 31.12573
# Shear Modulus (GPa) = 27.98870 33.49342 30.74106
#
# Velocity S-wave (km/s) = 3.57771 3.91376 3.74950
# Velocity P-wave (km/s) = 5.29439 6.15864 5.74279
#
# Compressibility (1/GPa) = 0.04171229
#
# Stress axis : x y z
#
# Youngs Moduli (GPa) = 41.85931 161.90912 50.81546
#
# Poissons Ratio (x) = 0.08363 0.03296
# Poissons Ratio (y) = 0.02162 0.14488
# Poissons Ratio (z) = 0.02715 0.46163
#
# Static dielectric constant tensor:
#      x y z
#    x 1.806630 0.000000 -0.018200 
#    y 0.000000 1.852670 0.000000 
#    z -0.018200 0.000000 1.767410 
# 
# From -- ./inp_files/251905.got.cif
#   From: 2010.05.17/outbox.cif.g08.bks.cpg/sg12_126_cif.got.tgz:251905.got - 2010.06.03 13:09:07.
