data_PCOD9204821
_publ_section_title
;
Structure prediction by ZEFSAII (Michael W. Deem and Ramdas Pophale) SiO2 
 PCOD9204821
Probable space group: C 2/M
;
_chemical_formula_sum "Si O2"
_cell_formula_units_Z 58
_cell_length_a 19.694474
_cell_length_b 9.856297
_cell_length_c 17.134839
_cell_angle_alpha 90.000000
_cell_angle_beta 120.433440
_cell_angle_gamma 90.000000
_cell_volume 2867.843002
_symmetry_space_group_name_H-M "C 2/M"
_symmetry_group_IT_number 12
_symmetry_cell_setting 'monoclinic'
loop_
_space_group_symop_operation_xyz
x,y,z
-x,y,-z
-x,-y,-z
x,-y,z
1/2+x,1/2+y,z
1/2-x,1/2+y,-z
1/2-x,1/2-y,-z
1/2+x,1/2-y,z
loop_
_atom_site_type_symbol
_atom_site_label
_atom_site_fract_x
_atom_site_fract_y
_atom_site_fract_z
Si Si1 0.651279 0.159433 0.867757
Si Si2 0.000000 0.500000 0.500000
Si Si3 0.197458 0.654864 0.065939
Si Si4 0.199747 0.161686 0.633709
Si Si5 0.056910 0.659220 0.099028
Si Si6 0.377202 0.835009 0.704956
Si Si7 0.428984 0.754479 0.562281
Si Si8 0.588366 0.654857 0.707626
O O1 0.734377 0.233850 0.897591
O O2 0.589371 0.243005 0.780886
O O3 0.650732 0.000000 0.847650
O O4 0.643940 0.171098 0.957071
O O5 0.038967 0.382863 0.466262
O O6 0.229412 0.500000 0.079740
O O7 0.143445 0.663242 0.110318
O O8 0.288074 0.212466 0.671854
O O9 0.143411 0.195267 0.528665
O O10 0.154932 0.207868 0.686024
O O11 0.204718 0.000000 0.644465
O O12 0.033583 0.500000 0.093257
O O13 0.066204 0.713818 0.191692
O O14 0.000000 0.721173 0.000000
O O15 0.401447 0.789953 0.633400
O O16 0.377959 0.000000 0.707532
O O17 0.504985 0.658917 0.615790
O O18 0.605608 0.500000 0.740618
#
# Coordination Sequence:
#
# PCOD9204821 Si02
#       8
#     8   2   8   8   8   8   8   8
#     4  10  21  33  57  89 118 153 196 247 302 361
#     4  12  24  40  58  92 126 160 186 256 316 368
#     4   9  18  36  57  83 117 154 198 248 299 351
#     4  10  21  40  62  85 112 157 207 256 294 352
#     4   9  18  33  56  85 116 153 199 249 290 344
#     4  10  21  35  59  89 118 155 202 247 300 358
#     4  12  23  39  59  86 126 160 197 244 311 369
#     4  11  23  38  61  87 120 160 203 249 299 358
#
# _framework density 20.224259
#
# number of rings (size 3 to 8) (size 9 to 14) (size 15 to 20)
#    0.000    1.793    2.069    2.069    2.897    3.862 
#    0.000    0.000    0.000    2.069    0.000    0.000 
#    0.000    0.000    0.000    0.000    0.000    0.000 
#
# Total GULP energy -161616.017639 kJ/mol
# GULP energy per Si atom -5572.966125 kJ/mol
# Density = 2.017823 g / cm^3
# Si number density = 20.224259 Si / 1000 Ang^3
#
#
#
# Elastic Constant Matrix: (Units=GPa)
#
#
# Indices 1 2 3 4 5 6 
#
# 1 93.3553 10.0334 40.3743 0.0000 -13.8738 0.0000
# 2 10.0334 44.0239 7.0231 0.0000 -5.0331 0.0000
# 3 40.3743 7.0231 103.7594 0.0000 -8.8903 0.0000
# 4 0.0000 0.0000 0.0000 -27.3822 0.0000 -35.4587
# 5 -13.8738 -5.0331 -8.8903 0.0000 31.3544 0.0000
# 6 0.0000 0.0000 0.0000 -35.4587 0.0000 -7.1605
#
#
#
# Elastic Compliance Matrix: (Units=1/GPa)
#
#
# Indices 1 2 3 4 5 6 
#
# 1 0.013639 -0.001841 -0.004808 0.000000 0.004376 0.000000
# 2 -0.001841 0.023555 -0.000639 0.000000 0.002785 0.000000
# 3 -0.004808 -0.000639 0.011643 0.000000 0.001072 0.000000
# 4 0.000000 0.000000 0.000000 0.006747 0.000000 -0.033412
# 5 0.004376 0.002785 0.001072 0.000000 0.034581 0.000000
# 6 0.000000 0.000000 0.000000 -0.033412 0.000000 0.025802
#
#
# Mechanical properties :
#
#
# Convention : Reuss Voigt Hill
#
# Bulk Modulus (GPa) = 29.18728 39.55559 34.37144
# Shear Modulus (GPa) = 35.22014 11.60954 23.41484
#
# Velocity S-wave (km/s) = 4.17763 2.39851 3.40628
# Velocity P-wave (km/s) = 6.14274 5.22221 5.70108
#
# Compressibility (1/GPa) = 0.03426150
#
# Stress axis : x y z
#
# Youngs Moduli (GPa) = 73.31787 42.45388 85.88502
#
# Poissons Ratio (x) = 0.07817 0.41290
# Poissons Ratio (y) = 0.13499 0.05490
# Poissons Ratio (z) = 0.35248 0.02714
#
# Static dielectric constant tensor:
#      x y z
#    x 1.732920 0.000000 0.026290 
#    y 0.000000 1.679920 0.000000 
#    z 0.026290 0.000000 1.765470 
# 
# From -- ./inp_files/282221.got.cif
#   From: 2010.05.17/outbox.cif.g08.bks.cpg/sg12_142_cif.got.tgz:282221.got - 2010.06.03 13:09:07.
