data_PCOD9204758
_publ_section_title
;
Structure prediction by ZEFSAII (Michael W. Deem and Ramdas Pophale) SiO2 
 PCOD9204758
Probable space group: C 2/M
;
_chemical_formula_sum "Si O2"
_cell_formula_units_Z 50
_cell_length_a 25.339996
_cell_length_b 7.793273
_cell_length_c 14.194127
_cell_angle_alpha 90.000000
_cell_angle_beta 114.897816
_cell_angle_gamma 90.000000
_cell_volume 2542.559730
_symmetry_space_group_name_H-M "C 2/M"
_symmetry_group_IT_number 12
_symmetry_cell_setting 'monoclinic'
loop_
_space_group_symop_operation_xyz
x,y,z
-x,y,-z
-x,-y,-z
x,-y,z
1/2+x,1/2+y,z
1/2-x,1/2+y,-z
1/2-x,1/2-y,-z
1/2+x,1/2-y,z
loop_
_atom_site_type_symbol
_atom_site_label
_atom_site_fract_x
_atom_site_fract_y
_atom_site_fract_z
Si Si1 0.818729 0.204842 0.443754
Si Si2 0.500000 0.000000 0.500000
Si Si3 0.271949 0.294104 0.119806
Si Si4 0.792896 0.296200 0.744207
Si Si5 0.987881 0.195287 0.631625
Si Si6 0.885352 0.204202 0.677490
Si Si7 0.613679 0.196983 0.694220
O O1 0.755397 0.274609 0.365997
O O2 0.847343 0.274444 0.560480
O O3 0.858935 0.236469 0.382488
O O4 0.814130 0.000000 0.452363
O O5 0.473254 0.845135 0.547978
O O6 0.279922 0.500000 0.133112
O O7 0.226134 0.236643 0.166357
O O8 0.333307 0.208147 0.192889
O O9 0.250000 0.250000 0.000000
O O10 0.784888 0.500000 0.739857
O O11 0.856732 0.264418 0.752502
O O12 0.952185 0.236003 0.699778
O O13 0.057651 0.203168 0.689059
O O14 0.970701 0.000000 0.589445
O O15 0.878802 0.000000 0.673970
O O16 0.592183 0.000000 0.662491
#
# Coordination Sequence:
#
# PCOD9204758 Si02
#       7
#     8   2   8   8   8   8   8
#     4   9  18  33  49  74 109 151 190 237 282 324
#     4  12  22  36  56  82 108 162 214 232 292 330
#     4  10  21  39  62  89 112 141 180 240 304 353
#     4   9  19  33  53  77 111 145 184 233 286 346
#     4  11  23  37  53  81 118 156 202 253 283 334
#     4  10  21  33  51  75 111 157 194 230 282 332
#     4  11  21  35  56  83 112 152 195 238 293 348
#
# _framework density 19.665219
#
# number of rings (size 3 to 8) (size 9 to 14) (size 15 to 20)
#    0.000    1.920    0.800    4.560    1.120    5.120 
#    0.000    0.000    0.000    0.960    0.000    6.720 
#    0.000    0.000    0.000    0.000    0.000    0.000 
#
# Total GULP energy -139273.878550 kJ/mol
# GULP energy per Si atom -5570.955142 kJ/mol
# Density = 1.962046 g / cm^3
# Si number density = 19.665219 Si / 1000 Ang^3
#
#
#
# Elastic Constant Matrix: (Units=GPa)
#
#
# Indices 1 2 3 4 5 6 
#
# 1 154.3385 12.9919 32.5507 0.0000 -12.9097 0.0000
# 2 12.9919 79.2598 2.8268 0.0000 -2.0394 0.0000
# 3 32.5507 2.8268 60.3669 0.0000 -9.0486 0.0000
# 4 0.0000 0.0000 0.0000 144.7465 0.0000 118.6697
# 5 -12.9097 -2.0394 -9.0486 0.0000 15.4012 0.0000
# 6 0.0000 0.0000 0.0000 118.6697 0.0000 145.4398
#
#
#
# Elastic Compliance Matrix: (Units=1/GPa)
#
#
# Indices 1 2 3 4 5 6 
#
# 1 0.007646 -0.001021 -0.003437 0.000000 0.004254 0.000000
# 2 -0.001021 0.012804 0.000084 0.000000 0.000889 0.000000
# 3 -0.003437 0.000084 0.019722 0.000000 0.008717 0.000000
# 4 0.000000 0.000000 0.000000 0.020868 0.000000 -0.017027
# 5 0.004254 0.000889 0.008717 0.000000 0.073735 0.000000
# 6 0.000000 0.000000 0.000000 -0.017027 0.000000 0.020769
#
#
# Mechanical properties :
#
#
# Convention : Reuss Voigt Hill
#
# Bulk Modulus (GPa) = 31.82372 43.41156 37.61764
# Shear Modulus (GPa) = 28.60955 77.49054 53.05005
#
# Velocity S-wave (km/s) = 3.81836 6.28414 5.19953
# Velocity P-wave (km/s) = 5.97141 8.64738 7.43084
#
# Compressibility (1/GPa) = 0.03142310
#
# Stress axis : x y z
#
# Youngs Moduli (GPa) = 130.78670 78.10058 50.70608
#
# Poissons Ratio (x) = 0.07976 0.17429
# Poissons Ratio (y) = 0.13357 -0.00428
# Poissons Ratio (z) = 0.44956 -0.00659
#
# Static dielectric constant tensor:
#      x y z
#    x 1.715430 0.000000 -0.036500 
#    y 0.000000 1.723680 0.000000 
#    z -0.036500 0.000000 1.563760 
# 
# From -- ./inp_files/243313.got.cif
#   From: 2010.05.17/outbox.cif.g08.bks.cpg/sg12_122_cif.got.tgz:243313.got - 2010.06.03 13:09:07.
