data_PCOD9204047
_publ_section_title
;
Structure prediction by ZEFSAII (Michael W. Deem and Ramdas Pophale) SiO2 
 PCOD9204047
Probable space group: C 2/M
;
_chemical_formula_sum "Si O2"
_cell_formula_units_Z 48
_cell_length_a 19.388435
_cell_length_b 9.160706
_cell_length_c 21.393252
_cell_angle_alpha 90.000000
_cell_angle_beta 37.665857
_cell_angle_gamma 90.000000
_cell_volume 2321.823052
_symmetry_space_group_name_H-M "C 2/M"
_symmetry_group_IT_number 12
_symmetry_cell_setting 'monoclinic'
loop_
_space_group_symop_operation_xyz
x,y,z
-x,y,-z
-x,-y,-z
x,-y,z
1/2+x,1/2+y,z
1/2-x,1/2+y,-z
1/2-x,1/2-y,-z
1/2+x,1/2-y,z
loop_
_atom_site_type_symbol
_atom_site_label
_atom_site_fract_x
_atom_site_fract_y
_atom_site_fract_z
Si Si1 0.913372 0.673358 0.358540
Si Si2 0.968702 0.826454 0.094825
Si Si3 0.339066 0.171895 0.795693
Si Si4 0.294578 0.829128 0.688442
Si Si5 0.323783 0.172879 0.000591
Si Si6 0.192997 0.826821 0.445975
O O1 0.903011 0.500000 0.378235
O O2 0.875997 0.757959 0.447428
O O3 0.824217 0.710229 0.368430
O O4 0.044509 0.700662 0.251679
O O5 0.837343 0.797460 0.202410
O O6 0.988384 0.000000 0.089472
O O7 0.000000 0.793530 0.000000
O O8 0.051201 0.736628 0.080575
O O9 0.357929 0.194118 0.708465
O O10 0.242583 0.277262 0.889456
O O11 0.306500 0.000000 0.827218
O O12 0.336205 0.737173 0.600224
O O13 0.303521 0.000000 0.665941
O O14 0.325563 0.000000 0.990489
O O15 0.250000 0.250000 0.000000
O O16 0.180259 0.000000 0.455584
#
# Coordination Sequence:
#
# PCOD9204047 Si02
#       6
#     8   8   8   8   8   8
#     4   9  20  39  62  84 112 152 196 241 292 351
#     4  10  20  40  64  87 119 158 199 242 292 349
#     4  10  21  41  63  86 116 154 200 245 292 348
#     4  10  21  37  61  87 117 155 194 239 292 352
#     4  12  26  41  60  88 122 159 200 245 296 351
#     4  10  21  37  58  87 119 150 192 243 294 350
#
# _framework density 20.673411999999999
#
# number of rings (size 3 to 8) (size 9 to 14) (size 15 to 20)
#    0.000    1.833    1.667    2.000    2.333    3.667 
#    0.000    3.333    0.000    0.000    0.000    0.000 
#    0.000    0.000    0.000    0.000    0.000    0.000 
#
# Total GULP energy -134134.407658 kJ/mol
# GULP energy per Si atom -5588.933652 kJ/mol
# Density = 2.062636 g / cm^3
# Si number density = 20.673412 Si / 1000 Ang^3
#
#
#
# Elastic Constant Matrix: (Units=GPa)
#
#
# Indices 1 2 3 4 5 6 
#
# 1 73.9220 31.8180 -5.7151 0.0000 -4.5578 0.0000
# 2 31.8180 38.5222 7.6257 0.0000 -2.4020 0.0000
# 3 -5.7151 7.6257 16.5661 0.0000 7.2233 0.0000
# 4 0.0000 0.0000 0.0000 26.5688 0.0000 0.2267
# 5 -4.5578 -2.4020 7.2233 0.0000 33.4854 0.0000
# 6 0.0000 0.0000 0.0000 0.2267 0.0000 27.1885
#
#
#
# Elastic Compliance Matrix: (Units=1/GPa)
#
#
# Indices 1 2 3 4 5 6 
#
# 1 0.026580 -0.026680 0.022858 0.000000 -0.003227 0.000000
# 2 -0.026680 0.056253 -0.038937 0.000000 0.008803 0.000000
# 3 0.022858 -0.038937 0.094967 0.000000 -0.020167 0.000000
# 4 0.000000 0.000000 0.000000 0.037641 0.000000 -0.000314
# 5 -0.003227 0.008803 -0.020167 0.000000 0.034406 0.000000
# 6 0.000000 0.000000 0.000000 -0.000314 0.000000 0.036783
#
#
# Mechanical properties :
#
#
# Convention : Reuss Voigt Hill
#
# Bulk Modulus (GPa) = 10.83639 21.82974 16.33306
# Shear Modulus (GPa) = 12.40974 23.80066 18.10520
#
# Velocity S-wave (km/s) = 2.45271 3.39672 2.96256
# Velocity P-wave (km/s) = 3.64337 5.09567 4.42944
#
# Compressibility (1/GPa) = 0.09228166
#
# Stress axis : x y z
#
# Youngs Moduli (GPa) = 37.62220 17.77683 10.52996
#
# Poissons Ratio (x) = 0.47429 -0.24070
# Poissons Ratio (y) = 1.00378 0.41001
# Poissons Ratio (z) = -0.85998 0.69218
#
# Static dielectric constant tensor:
#      x y z
#    x 1.758060 0.000000 -0.004930 
#    y 0.000000 1.685680 0.000000 
#    z -0.004930 0.000000 1.749150 
# 
# From -- ./inp_files/248810.got.cif
#   From: 2010.05.17/outbox.cif.g08.bks.cpg/sg12_125_cif.got.tgz:248810.got - 2010.06.03 13:09:07.
