data_PCOD9204027
_publ_section_title
;
Structure prediction by ZEFSAII (Michael W. Deem and Ramdas Pophale) SiO2 
 PCOD9204027
Probable space group: C 2/M
;
_chemical_formula_sum "Si O2"
_cell_formula_units_Z 48
_cell_length_a 14.435298
_cell_length_b 26.936955
_cell_length_c 11.435548
_cell_angle_alpha 90.000000
_cell_angle_beta 30.938252
_cell_angle_gamma 90.000000
_cell_volume 2286.076018
_symmetry_space_group_name_H-M "C 2/M"
_symmetry_group_IT_number 12
_symmetry_cell_setting 'monoclinic'
loop_
_space_group_symop_operation_xyz
x,y,z
-x,y,-z
-x,-y,-z
x,-y,z
1/2+x,1/2+y,z
1/2-x,1/2+y,-z
1/2-x,1/2-y,-z
1/2+x,1/2-y,z
loop_
_atom_site_type_symbol
_atom_site_label
_atom_site_fract_x
_atom_site_fract_y
_atom_site_fract_z
Si Si1 0.871308 0.778223 0.030548
Si Si2 0.936234 0.152743 0.747765
Si Si3 0.000000 0.235726 0.500000
Si Si4 0.722016 0.500000 0.865115
Si Si5 0.050990 0.333689 0.081947
Si Si6 0.500000 0.584752 0.000000
Si Si7 0.745985 0.396798 0.528531
Si Si8 0.584523 0.000000 0.597657
O O1 0.671225 0.768907 0.291269
O O2 0.883945 0.823003 0.927902
O O3 0.925613 0.724898 0.915478
O O4 0.000000 0.786046 0.000000
O O5 0.028727 0.197578 0.575747
O O6 0.082820 0.110860 0.613522
O O7 0.746866 0.141416 0.890553
O O8 0.596700 0.451553 0.990197
O O9 0.827750 0.500000 0.626995
O O10 0.869705 0.500000 0.807135
O O11 0.898594 0.357396 0.327942
O O12 0.000000 0.337428 0.000000
O O13 0.343209 0.610466 0.245800
O O14 0.840437 0.450383 0.424220
#
# Coordination Sequence:
#
# PCOD9204027 Si02
#       8
#     8   8   4   4   8   4   8   4
#     4  10  22  39  61  93 123 166 200 253 312 364
#     4  11  23  39  62  94 122 164 208 257 305 363
#     4  10  20  40  64  81 124 173 212 242 302 368
#     4   8  16  38  64  80 117 167 210 227 312 386
#     4  10  22  42  65  86 120 168 215 251 304 364
#     4   9  20  36  58  94 124 158 194 254 308 375
#     4  11  23  39  59  95 124 158 206 248 313 367
#     4   9  20  38  63  85 120 172 197 254 304 367
#
# _framework density 20.996676999999998
#
# number of rings (size 3 to 8) (size 9 to 14) (size 15 to 20)
#    0.000    2.000    0.000    5.500    3.500    4.000 
#    0.000    0.417    0.000    3.500    0.000    0.000 
#    0.000    0.000    0.000    0.000    0.000    0.000 
#
# Total GULP energy -134074.473611 kJ/mol
# GULP energy per Si atom -5586.436400 kJ/mol
# Density = 2.094889 g / cm^3
# Si number density = 20.996677 Si / 1000 Ang^3
#
#
#
# Elastic Constant Matrix: (Units=GPa)
#
#
# Indices 1 2 3 4 5 6 
#
# 1 109.5946 38.7794 32.3923 -0.0009 -37.5723 0.0005
# 2 38.7794 65.3820 58.0770 0.0003 -25.7521 -0.0002
# 3 32.3923 58.0770 117.3604 -0.0017 -10.7282 0.0010
# 4 -0.0009 0.0003 -0.0017 -82.9214 0.0006 65.8013
# 5 -37.5723 -25.7521 -10.7282 0.0006 37.4823 -0.0004
# 6 0.0005 -0.0002 0.0010 65.8013 -0.0004 -31.1791
#
#
#
# Elastic Compliance Matrix: (Units=1/GPa)
#
#
# Indices 1 2 3 4 5 6 
#
# 1 0.014840 -0.001982 -0.001930 0.000000 0.012961 0.000000
# 2 -0.001982 0.039959 -0.017353 0.000000 0.020500 0.000000
# 3 -0.001930 -0.017353 0.016814 0.000000 -0.009045 0.000000
# 4 0.000000 0.000000 0.000000 0.017874 0.000000 0.037722
# 5 0.012961 0.020500 -0.009045 0.000000 0.051167 0.000000
# 6 0.000000 0.000000 0.000000 0.037722 0.000000 0.047536
#
#
# Mechanical properties :
#
#
# Convention : Reuss Voigt Hill
#
# Bulk Modulus (GPa) = 34.38564 61.20382 47.79473
# Shear Modulus (GPa) = 20.79740 -4.45109 8.17316
#
# Velocity S-wave (km/s) = 3.15065 -1.45757 1.97511
# Velocity P-wave (km/s) = 5.44497 5.13614 5.29281
#
# Compressibility (1/GPa) = 0.02908190
#
# Stress axis : x y z
#
# Youngs Moduli (GPa) = 67.38576 25.02566 59.47423
#
# Poissons Ratio (x) = 0.04961 0.11479
# Poissons Ratio (y) = 0.13358 1.03206
# Poissons Ratio (z) = 0.13006 0.43427
#
# Static dielectric constant tensor:
#      x y z
#    x 0.782960 0.000000 -0.334540 
#    y 0.000000 1.764070 0.000000 
#    z -0.334540 0.000000 1.652070 
# 
# From -- ./inp_files/150238.got.cif
#   From: 2010.05.17/outbox.cif.g08.bks.cpg/sg12_76_cif.got.tgz:150238.got - 2010.06.03 13:09:07.
