data_PCOD9204384
_publ_section_title
;
Structure prediction by ZEFSAII (Michael W. Deem and Ramdas Pophale) SiO2 
 PCOD9204384
Probable space group: C 2/M
;
_chemical_formula_sum "Si O2"
_cell_formula_units_Z 56
_cell_length_a 9.003092
_cell_length_b 17.972596
_cell_length_c 19.659834
_cell_angle_alpha 90.000000
_cell_angle_beta 131.540971
_cell_angle_gamma 90.000000
_cell_volume 2381.022697
_symmetry_space_group_name_H-M "C 2/M"
_symmetry_group_IT_number 12
_symmetry_cell_setting 'monoclinic'
loop_
_space_group_symop_operation_xyz
x,y,z
-x,y,-z
-x,-y,-z
x,-y,z
1/2+x,1/2+y,z
1/2-x,1/2+y,-z
1/2-x,1/2-y,-z
1/2+x,1/2-y,z
loop_
_atom_site_type_symbol
_atom_site_label
_atom_site_fract_x
_atom_site_fract_y
_atom_site_fract_z
Si Si1 0.819676 0.785566 0.094921
Si Si2 0.056380 0.343892 0.137743
Si Si3 0.198497 0.294577 0.606125
Si Si4 0.858997 0.918307 0.562090
Si Si5 0.538563 0.082329 0.650590
Si Si6 0.274618 0.871326 0.679452
Si Si7 0.863323 0.086328 0.022692
O O1 0.659868 0.806165 0.103568
O O2 0.966844 0.720639 0.159486
O O3 0.750000 0.750000 0.000000
O O4 0.920414 0.862049 0.103161
O O5 0.213354 0.380655 0.235412
O O6 0.870891 0.396056 0.061157
O O7 0.343787 0.344553 0.604119
O O8 0.259995 0.212524 0.646171
O O9 0.000000 0.287388 0.500000
O O10 0.158006 0.347932 0.658132
O O11 0.668597 0.914892 0.455074
O O12 0.075253 0.912460 0.595571
O O13 0.842278 0.000000 0.591002
O O14 0.471252 0.093076 0.707265
O O15 0.625706 0.000000 0.667330
O O16 0.891542 0.000000 0.043990
O O17 0.000000 0.108196 0.000000
#
# Coordination Sequence:
#
# PCOD9204384 Si02
#       7
#     8   8   8   8   8   8   8
#     4  10  20  41  66  91 117 160 201 245 299 379
#     4  11  25  38  65  93 128 159 198 252 318 371
#     4  10  21  38  62  88 119 165 220 266 305 359
#     4  10  21  39  61  87 121 170 220 261 310 366
#     4  10  21  39  62  85 121 173 220 259 308 369
#     4  12  24  36  59  92 131 164 200 263 311 372
#     4  10  21  42  69  94 120 155 203 250 296 367
#
# _framework density 23.519306
#
# number of rings (size 3 to 8) (size 9 to 14) (size 15 to 20)
#    0.000    1.571    0.000    6.429    4.000    7.429 
#    0.000    0.000    0.000    0.000    0.000    0.000 
#    0.000    0.000    0.000    0.000    0.000    0.000 
#
# Total GULP energy -156325.027986 kJ/mol
# GULP energy per Si atom -5583.036714 kJ/mol
# Density = 2.346578 g / cm^3
# Si number density = 23.519306 Si / 1000 Ang^3
#
#
#
# Elastic Constant Matrix: (Units=GPa)
#
#
# Indices 1 2 3 4 5 6 
#
# 1 84.2087 9.0303 -14.4498 0.0000 -21.9656 0.0000
# 2 9.0303 104.9030 -10.3651 0.0000 -8.1592 0.0000
# 3 -14.4498 -10.3651 52.0065 0.0000 -7.9616 0.0000
# 4 0.0000 0.0000 0.0000 3.0196 0.0000 -2.8397
# 5 -21.9656 -8.1592 -7.9616 0.0000 22.8869 0.0000
# 6 0.0000 0.0000 0.0000 -2.8397 0.0000 17.8831
#
#
#
# Elastic Compliance Matrix: (Units=1/GPa)
#
#
# Indices 1 2 3 4 5 6 
#
# 1 0.018872 0.000906 0.008710 0.000000 0.021465 0.000000
# 2 0.000906 0.010201 0.003142 0.000000 0.005598 0.000000
# 3 0.008710 0.003142 0.025060 0.000001 0.018197 0.000000
# 4 0.000000 0.000000 0.000001 0.389300 0.000001 0.061818
# 5 0.021465 0.005598 0.018197 0.000001 0.072620 0.000000
# 6 0.000000 0.000000 0.000000 0.061818 0.000000 0.065735
#
#
# Mechanical properties :
#
#
# Convention : Reuss Voigt Hill
#
# Bulk Modulus (GPa) = 12.55540 23.28321 17.91931
# Shear Modulus (GPa) = 8.57895 25.88478 17.23186
#
# Velocity S-wave (km/s) = 1.91195 3.32109 2.70972
# Velocity P-wave (km/s) = 3.19750 4.96259 4.17440
#
# Compressibility (1/GPa) = 0.07964699
#
# Stress axis : x y z
#
# Youngs Moduli (GPa) = 52.98924 98.03416 39.90376
#
# Poissons Ratio (x) = -0.08878 -0.34756
# Poissons Ratio (y) = -0.04799 -0.12537
# Poissons Ratio (z) = -0.46153 -0.30799
#
# Static dielectric constant tensor:
#      x y z
#    x 1.920480 0.000000 -0.021380 
#    y 0.000000 1.898820 0.000000 
#    z -0.021380 0.000000 2.023550 
# 
# From -- ./inp_files/301458.got.cif
#   From: 2010.05.17/outbox.cif.g08.bks.cpg/sg12_151_cif.got.tgz:301458.got - 2010.06.03 13:09:07.
