data_PCOD9204940
_publ_section_title
;
Structure prediction by ZEFSAII (Michael W. Deem and Ramdas Pophale) SiO2 
 PCOD9204940
Probable space group: C 2/M
;
_chemical_formula_sum "Si O2"
_cell_formula_units_Z 48
_cell_length_a 12.774907
_cell_length_b 26.637969
_cell_length_c 14.650589
_cell_angle_alpha 90.000000
_cell_angle_beta 151.113086
_cell_angle_gamma 90.000000
_cell_volume 2408.436358
_symmetry_space_group_name_H-M "C 2/M"
_symmetry_group_IT_number 12
_symmetry_cell_setting 'monoclinic'
loop_
_space_group_symop_operation_xyz
x,y,z
-x,y,-z
-x,-y,-z
x,-y,z
1/2+x,1/2+y,z
1/2-x,1/2+y,-z
1/2-x,1/2-y,-z
1/2+x,1/2-y,z
loop_
_atom_site_type_symbol
_atom_site_label
_atom_site_fract_x
_atom_site_fract_y
_atom_site_fract_z
Si Si1 0.937554 0.744997 0.841044
Si Si2 0.141445 0.378972 0.868308
Si Si3 0.012868 0.054522 0.119513
Si Si4 0.127100 0.199847 0.819973
Si Si5 0.827136 0.153821 0.435076
Si Si6 0.277917 0.849301 0.280515
O O1 0.764305 0.701102 0.693067
O O2 0.857172 0.798888 0.811948
O O3 0.011183 0.758040 0.792233
O O4 0.159258 0.726254 0.058627
O O5 0.180048 0.361420 0.793396
O O6 0.887116 0.376808 0.698323
O O7 0.275835 0.430819 0.976101
O O8 0.265385 0.341418 0.031369
O O9 0.166634 0.103106 0.246296
O O10 0.087714 0.000000 0.211469
O O11 0.000000 0.050730 0.000000
O O12 0.959289 0.174734 0.622842
O O13 0.000000 0.127189 0.500000
O O14 0.500000 0.839189 0.500000
#
# Coordination Sequence:
#
# PCOD9204940 Si02
#       6
#     8   8   8   8   8   8
#     4  10  21  34  52  83 117 157 193 231 279 337
#     4  10  22  38  60  84 116 158 191 234 293 340
#     4   9  19  38  61  88 118 147 184 233 296 360
#     4  10  21  37  55  77 118 157 198 237 272 341
#     4  11  24  38  53  81 114 157 203 241 279 326
#     4  11  21  35  60  89 122 157 189 234 285 352
#
# _framework density 19.929943999999999
#
# number of rings (size 3 to 8) (size 9 to 14) (size 15 to 20)
#    0.000    1.833    1.667    2.000    0.000   11.000 
#    0.000    0.000    0.000    0.500    0.000    1.167 
#    0.000    0.000    0.000    0.000    0.000    0.000 
#
# Total GULP energy -133978.242016 kJ/mol
# GULP energy per Si atom -5582.426751 kJ/mol
# Density = 1.988458 g / cm^3
# Si number density = 19.929944 Si / 1000 Ang^3
#
#
#
# Elastic Constant Matrix: (Units=GPa)
#
#
# Indices 1 2 3 4 5 6 
#
# 1 72.1285 30.0046 35.6902 0.0001 32.0388 0.0000
# 2 30.0046 94.2291 30.7279 0.0000 17.4230 0.0000
# 3 35.6902 30.7279 128.2301 0.0000 7.1261 0.0000
# 4 0.0001 0.0000 0.0000 10.5207 0.0002 3.6243
# 5 32.0388 17.4230 7.1261 0.0002 45.4016 0.0000
# 6 0.0000 0.0000 0.0000 3.6243 0.0000 1.8198
#
#
#
# Elastic Compliance Matrix: (Units=1/GPa)
#
#
# Indices 1 2 3 4 5 6 
#
# 1 0.024601 -0.003312 -0.005205 0.000001 -0.015273 -0.000001
# 2 -0.003312 0.012734 -0.002005 0.000000 -0.002235 -0.000001
# 3 -0.005205 -0.002005 0.009564 0.000000 0.002941 0.000001
# 4 0.000001 0.000000 0.000000 0.302810 -0.000002 -0.603089
# 5 -0.015273 -0.002235 0.002941 -0.000002 0.033199 0.000003
# 6 -0.000001 -0.000001 0.000001 -0.603089 0.000003 1.750661
#
#
# Mechanical properties :
#
#
# Convention : Reuss Voigt Hill
#
# Bulk Modulus (GPa) = 38.67777 54.15925 46.41851
# Shear Modulus (GPa) = 2.31135 24.75940 13.53538
#
# Velocity S-wave (km/s) = 1.07808 3.52848 2.60887
# Velocity P-wave (km/s) = 4.58243 6.62073 5.69354
#
# Compressibility (1/GPa) = 0.02585464
#
# Stress axis : x y z
#
# Youngs Moduli (GPa) = 40.64809 78.52798 104.55626
#
# Poissons Ratio (x) = 0.26012 0.54419
# Poissons Ratio (y) = 0.13465 0.20968
# Poissons Ratio (z) = 0.21156 0.15748
#
# Static dielectric constant tensor:
#      x y z
#    x 1.826820 0.000000 0.021690 
#    y 0.000000 1.710460 0.000000 
#    z 0.021690 0.000000 1.712210 
# 
# From -- ./inp_files/209306.got.cif
#   From: 2010.05.17/outbox.cif.g08.bks.cpg/sg12_105_cif.got.tgz:209306.got - 2010.06.03 13:09:07.
