data_PCOD9204064
_publ_section_title
;
Structure prediction by ZEFSAII (Michael W. Deem and Ramdas Pophale) SiO2 
 PCOD9204064
Probable space group: C 2/M
;
_chemical_formula_sum "Si O2"
_cell_formula_units_Z 52
_cell_length_a 19.484912
_cell_length_b 9.598310
_cell_length_c 21.485105
_cell_angle_alpha 90.000000
_cell_angle_beta 43.272040
_cell_angle_gamma 90.000000
_cell_volume 2754.322542
_symmetry_space_group_name_H-M "C 2/M"
_symmetry_group_IT_number 12
_symmetry_cell_setting 'monoclinic'
loop_
_space_group_symop_operation_xyz
x,y,z
-x,y,-z
-x,-y,-z
x,-y,z
1/2+x,1/2+y,z
1/2-x,1/2+y,-z
1/2-x,1/2-y,-z
1/2+x,1/2-y,z
loop_
_atom_site_type_symbol
_atom_site_label
_atom_site_fract_x
_atom_site_fract_y
_atom_site_fract_z
Si Si1 0.560756 0.837534 0.896054
Si Si2 0.742129 0.500000 0.025611
Si Si3 0.286552 0.337594 0.761750
Si Si4 0.382566 0.657313 0.562475
Si Si5 0.445842 0.837170 0.734237
Si Si6 0.159349 0.333559 0.528880
Si Si7 0.596978 0.761392 0.095842
O O1 0.672720 0.786846 0.836324
O O2 0.499013 0.754032 0.885411
O O3 0.569743 0.000000 0.868980
O O4 0.500000 0.835498 0.000000
O O5 0.659373 0.621437 0.063298
O O6 0.827998 0.378177 0.980775
O O7 0.287668 0.500000 0.781707
O O8 0.325635 0.330315 0.665282
O O9 0.361229 0.253138 0.756100
O O10 0.500000 0.668640 0.500000
O O11 0.364136 0.500000 0.549553
O O12 0.353055 0.772597 0.532177
O O13 0.555298 0.804649 0.634165
O O14 0.438480 0.810585 0.812418
O O15 0.426074 0.000000 0.735364
O O16 0.175746 0.500000 0.518471
O O17 0.250000 0.250000 0.500000
#
# Coordination Sequence:
#
# PCOD9204064 Si02
#       7
#     8   4   8   8   8   8   8
#     4  10  22  38  61  91 124 159 205 255 308 366
#     4  10  24  40  70  84 124 168 206 256 312 368
#     4  10  23  39  64  92 124 168 208 256 311 379
#     4  10  20  40  64  91 125 163 210 260 313 378
#     4  11  24  41  64  93 126 163 207 261 320 374
#     4  11  25  42  64  92 128 170 213 266 320 382
#     4  11  23  43  63  95 123 165 209 257 313 375
#
# _framework density 18.879415000000002
#
# number of rings (size 3 to 8) (size 9 to 14) (size 15 to 20)
#    0.000    1.538    3.077    0.462    7.538    1.538 
#    1.385    0.385    0.000    0.000    0.000    0.000 
#    0.000    0.000    0.000    0.000    0.000    0.000 
#
# Total GULP energy -144741.555405 kJ/mol
# GULP energy per Si atom -5566.982900 kJ/mol
# Density = 1.883644 g / cm^3
# Si number density = 18.879415 Si / 1000 Ang^3
#
#
#
# Elastic Constant Matrix: (Units=GPa)
#
#
# Indices 1 2 3 4 5 6 
#
# 1 138.1918 49.1390 50.3087 0.0000 -24.2180 0.0000
# 2 49.1390 72.1536 21.5551 0.0000 -19.7853 0.0000
# 3 50.3087 21.5551 59.3666 0.0000 -25.4665 0.0000
# 4 0.0000 0.0000 0.0000 15.4026 0.0000 -4.1099
# 5 -24.2180 -19.7853 -25.4665 0.0000 28.7376 0.0000
# 6 0.0000 0.0000 0.0000 -4.1099 0.0000 30.9117
#
#
#
# Elastic Compliance Matrix: (Units=1/GPa)
#
#
# Indices 1 2 3 4 5 6 
#
# 1 0.012441 -0.006278 -0.009067 0.000000 -0.001872 0.000000
# 2 -0.006278 0.020382 0.002694 0.000000 0.011129 0.000000
# 3 -0.009067 0.002694 0.033988 0.000000 0.024333 0.000000
# 4 0.000000 0.000000 0.000000 0.067312 0.000000 0.008949
# 5 -0.001872 0.011129 0.024333 0.000000 0.062445 0.000000
# 6 0.000000 0.000000 0.000000 0.008949 0.000000 0.033540
#
#
# Mechanical properties :
#
#
# Convention : Reuss Voigt Hill
#
# Bulk Modulus (GPa) = 24.09110 56.85751 40.47431
# Shear Modulus (GPa) = 18.57036 24.92433 21.74734
#
# Velocity S-wave (km/s) = 3.13969 3.63738 3.39766
# Velocity P-wave (km/s) = 5.09232 6.91536 6.07264
#
# Compressibility (1/GPa) = 0.04150911
#
# Stress axis : x y z
#
# Youngs Moduli (GPa) = 80.37778 49.06374 29.42213
#
# Poissons Ratio (x) = 0.30801 0.26677
# Poissons Ratio (y) = 0.50459 -0.07925
# Poissons Ratio (z) = 0.72877 -0.13216
#
# Static dielectric constant tensor:
#      x y z
#    x 1.615150 0.000000 -0.015280 
#    y 0.000000 1.636180 0.000000 
#    z -0.015280 0.000000 1.648910 
# 
# From -- ./inp_files/314689.got.cif
#   From: 2010.05.17/outbox.cif.g08.bks.cpg/sg12_158_cif.got.tgz:314689.got - 2010.06.03 13:09:07.
