data_PCOD9204849
_publ_section_title
;
Structure prediction by ZEFSAII (Michael W. Deem and Ramdas Pophale) SiO2 
 PCOD9204849
Probable space group: C 2/M
;
_chemical_formula_sum "Si O2"
_cell_formula_units_Z 64
_cell_length_a 28.828703
_cell_length_b 8.816260
_cell_length_c 15.269754
_cell_angle_alpha 90.000000
_cell_angle_beta 87.217134
_cell_angle_gamma 90.000000
_cell_volume 3876.404318
_symmetry_space_group_name_H-M "C 2/M"
_symmetry_group_IT_number 12
_symmetry_cell_setting 'monoclinic'
loop_
_space_group_symop_operation_xyz
x,y,z
-x,y,-z
-x,-y,-z
x,-y,z
1/2+x,1/2+y,z
1/2-x,1/2+y,-z
1/2-x,1/2-y,-z
1/2+x,1/2-y,z
loop_
_atom_site_type_symbol
_atom_site_label
_atom_site_fract_x
_atom_site_fract_y
_atom_site_fract_z
Si Si1 0.489274 0.815908 0.901672
Si Si2 0.829534 0.678999 0.681477
Si Si3 0.446558 0.319117 0.254052
Si Si4 0.855343 0.179493 0.350368
Si Si5 0.901300 0.321892 0.512679
Si Si6 0.092246 0.323046 0.204695
Si Si7 0.018257 0.324020 0.371870
Si Si8 0.242364 0.320144 0.597754
O O1 0.528013 0.756450 0.830703
O O2 0.438668 0.760105 0.871918
O O3 0.488982 0.000000 0.896296
O O4 0.500000 0.771837 0.000000
O O5 0.819129 0.500000 0.695716
O O6 0.864622 0.686592 0.595691
O O7 0.859458 0.739835 0.761544
O O8 0.783635 0.765945 0.657376
O O9 0.449232 0.500000 0.246058
O O10 0.392823 0.275300 0.272958
O O11 0.306732 0.234680 0.359301
O O12 0.881641 0.219100 0.438173
O O13 0.975425 0.231165 0.337857
O O14 0.846894 0.000000 0.345297
O O15 0.903142 0.500000 0.486077
O O16 0.951656 0.277344 0.546527
O O17 0.101657 0.500000 0.184633
O O18 0.056024 0.319803 0.289225
O O19 0.004728 0.500000 0.384272
O O20 0.242582 0.500000 0.588137
O O21 0.250000 0.250000 0.500000
#
# Coordination Sequence:
#
# PCOD9204849 Si02
#       8
#     8   8   8   8   8   8   8   8
#     4   9  17  32  56  82 104 128 159 193 233 290
#     4   9  16  29  48  68  94 127 163 203 245 285
#     4  10  21  34  47  68  99 131 161 198 244 290
#     4  11  23  35  46  64  93 129 169 208 247 291
#     4   9  17  29  47  68  90 125 168 206 244 285
#     4   7  12  25  46  72  99 125 154 190 232 284
#     4   8  15  29  47  66  91 126 166 200 235 284
#     4  12  23  34  49  69  92 124 169 215 257 291
#
# _framework density 16.510145999999999
#
# number of rings (size 3 to 8) (size 9 to 14) (size 15 to 20)
#    0.000    2.625    1.250    4.125    0.000    3.250 
#    0.000    7.500    0.000    0.000    0.000    0.875 
#    0.000    0.000    0.000    0.000    0.000    0.000 
#
# Total GULP energy -178313.505477 kJ/mol
# GULP energy per Si atom -5572.297046 kJ/mol
# Density = 1.647257 g / cm^3
# Si number density = 16.510146 Si / 1000 Ang^3
#
#
#
# Elastic Constant Matrix: (Units=GPa)
#
#
# Indices 1 2 3 4 5 6 
#
# 1 150.4824 47.6122 55.8028 0.0000 11.3868 0.0000
# 2 47.6122 46.7468 24.7155 0.0000 1.4803 0.0000
# 3 55.8028 24.7155 67.0730 0.0000 18.6623 0.0000
# 4 0.0000 0.0000 0.0000 14.0179 0.0000 1.0589
# 5 11.3868 1.4803 18.6623 0.0000 21.6156 0.0000
# 6 0.0000 0.0000 0.0000 1.0589 0.0000 24.4790
#
#
#
# Elastic Compliance Matrix: (Units=1/GPa)
#
#
# Indices 1 2 3 4 5 6 
#
# 1 0.011819 -0.008465 -0.006768 0.000000 0.000197 0.000000
# 2 -0.008465 0.033944 -0.007975 0.000000 0.009020 0.000000
# 3 -0.006768 -0.007975 0.029397 0.000000 -0.021269 0.000000
# 4 0.000000 0.000000 0.000000 0.071571 0.000000 -0.003096
# 5 0.000197 0.009020 -0.021269 0.000000 0.063904 0.000000
# 6 0.000000 0.000000 0.000000 -0.003096 0.000000 0.040985
#
#
# Mechanical properties :
#
#
# Convention : Reuss Voigt Hill
#
# Bulk Modulus (GPa) = 34.79159 57.84036 46.31597
# Shear Modulus (GPa) = 16.25392 21.10063 18.67728
#
# Velocity S-wave (km/s) = 3.14105 3.57885 3.36707
# Velocity P-wave (km/s) = 5.85436 7.22404 6.57496
#
# Compressibility (1/GPa) = 0.02874258
#
# Stress axis : x y z
#
# Youngs Moduli (GPa) = 84.61253 29.45986 34.01740
#
# Poissons Ratio (x) = 0.24938 0.23024
# Poissons Ratio (y) = 0.71625 0.27129
# Poissons Ratio (z) = 0.57269 0.23495
#
# Static dielectric constant tensor:
#      x y z
#    x 1.589510 0.000000 0.008570 
#    y 0.000000 1.560840 0.000000 
#    z 0.008570 0.000000 1.564900 
# 
# From -- ./inp_files/243916.got.cif
#   From: 2010.05.17/outbox.cif.g08.bks.cpg/sg12_122_cif.got.tgz:243916.got - 2010.06.03 13:09:07.
