data_PCOD9204166
_publ_section_title
;
Structure prediction by ZEFSAII (Michael W. Deem and Ramdas Pophale) SiO2 
 PCOD9204166
Probable space group: C 2/M
;
_chemical_formula_sum "Si O2"
_cell_formula_units_Z 48
_cell_length_a 30.685870
_cell_length_b 8.839386
_cell_length_c 15.020571
_cell_angle_alpha 90.000000
_cell_angle_beta 39.980778
_cell_angle_gamma 90.000000
_cell_volume 2617.826027
_symmetry_space_group_name_H-M "C 2/M"
_symmetry_group_IT_number 12
_symmetry_cell_setting 'monoclinic'
loop_
_space_group_symop_operation_xyz
x,y,z
-x,y,-z
-x,-y,-z
x,-y,z
1/2+x,1/2+y,z
1/2-x,1/2+y,-z
1/2-x,1/2-y,-z
1/2+x,1/2-y,z
loop_
_atom_site_type_symbol
_atom_site_label
_atom_site_fract_x
_atom_site_fract_y
_atom_site_fract_z
Si Si1 0.830160 0.319914 0.652576
Si Si2 0.679934 0.818922 0.646417
Si Si3 0.568161 0.681517 0.150692
Si Si4 0.684661 0.819698 0.847901
Si Si5 0.588385 0.681527 0.641677
Si Si6 0.075730 0.181386 0.346816
O O1 0.831411 0.500000 0.643007
O O2 0.753421 0.260627 0.771795
O O3 0.868901 0.247412 0.507581
O O4 0.869749 0.265969 0.678359
O O5 0.750000 0.750000 0.500000
O O6 0.673878 0.784115 0.760403
O O7 0.619699 0.749010 0.682446
O O8 0.681357 0.000000 0.633136
O O9 0.575736 0.500000 0.129160
O O10 0.490580 0.719556 0.247680
O O11 0.580181 0.718405 0.235643
O O12 0.621561 0.764012 0.004527
O O13 0.693046 0.000000 0.842748
O O14 0.595381 0.500000 0.630392
O O15 0.000000 0.217426 0.500000
O O16 0.084715 0.000000 0.343536
#
# Coordination Sequence:
#
# PCOD9204166 Si02
#       6
#     8   8   8   8   8   8
#     4  12  24  38  63  95 125 161 210 258 305 371
#     4  11  23  39  63  93 123 164 209 258 309 365
#     4  10  23  42  65  92 125 165 206 253 311 370
#     4  11  25  43  63  89 128 167 204 256 315 367
#     4  11  22  40  65  93 125 163 207 256 310 368
#     4  10  20  40  66  91 124 164 206 254 308 367
#
# _framework density 18.335825
#
# number of rings (size 3 to 8) (size 9 to 14) (size 15 to 20)
#    0.000    1.167    3.333    3.000    0.000    5.667 
#    0.000    3.333    0.000    0.000    0.000    0.000 
#    0.000    0.000    0.000    0.000    0.000    0.000 
#
# Total GULP energy -134224.174398 kJ/mol
# GULP energy per Si atom -5592.673933 kJ/mol
# Density = 1.829409 g / cm^3
# Si number density = 18.335825 Si / 1000 Ang^3
#
#
#
# Elastic Constant Matrix: (Units=GPa)
#
#
# Indices 1 2 3 4 5 6 
#
# 1 153.0408 68.9658 58.2801 -0.0001 -4.7604 0.0000
# 2 68.9658 71.5755 57.9684 -0.0001 0.4752 0.0001
# 3 58.2801 57.9684 124.1709 0.0000 4.3942 0.0000
# 4 -0.0001 -0.0001 0.0000 35.2053 0.0000 -1.0345
# 5 -4.7604 0.4752 4.3942 0.0000 29.4039 0.0000
# 6 0.0000 0.0001 0.0000 -1.0345 0.0000 36.2191
#
#
#
# Elastic Compliance Matrix: (Units=1/GPa)
#
#
# Indices 1 2 3 4 5 6 
#
# 1 0.011691 -0.010892 -0.000478 0.000000 0.002140 0.000000
# 2 -0.010892 0.032655 -0.010105 0.000000 -0.000781 0.000000
# 3 -0.000478 -0.010105 0.013061 0.000000 -0.001866 0.000000
# 4 0.000000 0.000000 0.000000 0.028429 0.000000 0.000812
# 5 0.002140 -0.000781 -0.001866 0.000000 0.034647 0.000000
# 6 0.000000 0.000000 0.000000 0.000812 0.000000 0.027633
#
#
# Mechanical properties :
#
#
# Convention : Reuss Voigt Hill
#
# Bulk Modulus (GPa) = 69.16857 79.91287 74.54072
# Shear Modulus (GPa) = 25.52508 31.07051 28.29780
#
# Velocity S-wave (km/s) = 3.73512 4.12093 3.93276
# Velocity P-wave (km/s) = 7.51043 8.14372 7.83348
#
# Compressibility (1/GPa) = 0.01445743
#
# Stress axis : x y z
#
# Youngs Moduli (GPa) = 85.53502 30.62311 76.56119
#
# Poissons Ratio (x) = 0.33354 0.03662
# Poissons Ratio (y) = 0.93162 0.77366
# Poissons Ratio (z) = 0.04091 0.30945
#
# Static dielectric constant tensor:
#      x y z
#    x 1.616370 0.000000 0.003380 
#    y 0.000000 1.613820 0.000000 
#    z 0.003380 0.000000 1.591790 
# 
# From -- ./inp_files/244732.got.cif
#   From: 2010.05.17/outbox.cif.g08.bks.cpg/sg12_123_cif.got.tgz:244732.got - 2010.06.03 13:09:07.
