data_PCOD9204769
_publ_section_title
;
Structure prediction by ZEFSAII (Michael W. Deem and Ramdas Pophale) SiO2 
 PCOD9204769
Probable space group: C 2/M
;
_chemical_formula_sum "Si O2"
_cell_formula_units_Z 64
_cell_length_a 13.613818
_cell_length_b 27.852230
_cell_length_c 9.145302
_cell_angle_alpha 90.000000
_cell_angle_beta 85.664039
_cell_angle_gamma 90.000000
_cell_volume 3457.746724
_symmetry_space_group_name_H-M "C 2/M"
_symmetry_group_IT_number 12
_symmetry_cell_setting 'monoclinic'
loop_
_space_group_symop_operation_xyz
x,y,z
-x,y,-z
-x,-y,-z
x,-y,z
1/2+x,1/2+y,z
1/2-x,1/2+y,-z
1/2-x,1/2-y,-z
1/2+x,1/2-y,z
loop_
_atom_site_type_symbol
_atom_site_label
_atom_site_fract_x
_atom_site_fract_y
_atom_site_fract_z
Si Si1 0.994246 0.128461 0.173592
Si Si2 0.728208 0.876110 0.606579
Si Si3 0.412261 0.557133 0.626226
Si Si4 0.896754 0.758563 0.454140
Si Si5 0.353626 0.292116 0.751194
Si Si6 0.427402 0.826866 0.228280
Si Si7 0.211825 0.158359 0.705519
Si Si8 0.357609 0.198845 0.917335
O O1 0.882174 0.126202 0.241454
O O2 0.052721 0.083324 0.230854
O O3 0.048707 0.176844 0.224538
O O4 0.000000 0.129904 0.000000
O O5 0.805190 0.920058 0.604058
O O6 0.782950 0.833197 0.691857
O O7 0.621986 0.875215 0.699265
O O8 0.723935 0.862797 0.435277
O O9 0.500000 0.569596 0.500000
O O10 0.406789 0.500000 0.636389
O O11 0.848257 0.753612 0.618115
O O12 0.913957 0.711113 0.360986
O O13 0.839687 0.795217 0.360021
O O14 0.000000 0.779699 0.500000
O O15 0.343981 0.255854 0.888286
O O16 0.541040 0.821305 0.167522
O O17 0.369368 0.811193 0.087701
O O18 0.270668 0.171264 0.844627
#
# Coordination Sequence:
#
# PCOD9204769 Si02
#       8
#     8   8   8   8   8   8   8   8
#     4  11  23  35  57  87 119 152 185 236 295 350
#     4  10  22  36  58  84 107 149 191 233 286 345
#     4  10  21  42  67  92 118 141 174 229 300 373
#     4  11  19  34  52  72 113 158 204 237 283 327
#     4  10  21  33  52  77 114 157 198 238 277 333
#     4  11  24  37  51  76 114 158 207 250 277 326
#     4  11  22  35  54  80 113 154 198 237 278 339
#     4  11  24  36  50  78 118 162 205 242 281 312
#
# _framework density 18.509163000000001
#
# number of rings (size 3 to 8) (size 9 to 14) (size 15 to 20)
#    0.000    1.375    3.750    1.500    7.000    3.250 
#    0.000    0.000    0.000    0.000    0.000    4.375 
#    0.000    0.000    0.000    0.000    0.000    0.000 
#
# Total GULP energy -178339.780259 kJ/mol
# GULP energy per Si atom -5573.118133 kJ/mol
# Density = 1.846704 g / cm^3
# Si number density = 18.509163 Si / 1000 Ang^3
#
#
#
# Elastic Constant Matrix: (Units=GPa)
#
#
# Indices 1 2 3 4 5 6 
#
# 1 52.7437 20.4700 24.7735 0.0000 7.6253 0.0000
# 2 20.4700 55.5613 29.7244 0.0000 -3.1558 0.0000
# 3 24.7735 29.7244 105.2402 0.0000 2.6832 0.0000
# 4 0.0000 0.0000 0.0000 13.6170 0.0000 -5.2777
# 5 7.6253 -3.1558 2.6832 0.0000 37.0354 0.0000
# 6 0.0000 0.0000 0.0000 -5.2777 0.0000 16.5839
#
#
#
# Elastic Compliance Matrix: (Units=1/GPa)
#
#
# Indices 1 2 3 4 5 6 
#
# 1 0.024232 -0.007367 -0.003487 0.000000 -0.005364 0.000000
# 2 -0.007367 0.023629 -0.005039 0.000000 0.003895 0.000000
# 3 -0.003487 -0.005039 0.011760 0.000000 -0.000564 0.000000
# 4 0.000000 0.000000 0.000000 0.083770 0.000000 0.026659
# 5 -0.005364 0.003895 -0.000564 0.000000 0.028478 0.000000
# 6 0.000000 0.000000 0.000000 0.026659 0.000000 0.068784
#
#
# Mechanical properties :
#
#
# Convention : Reuss Voigt Hill
#
# Bulk Modulus (GPa) = 35.92426 40.38678 38.15552
# Shear Modulus (GPa) = 17.74824 22.68574 20.21699
#
# Velocity S-wave (km/s) = 3.09995 3.50473 3.30854
# Velocity P-wave (km/s) = 5.68014 6.18423 5.93754
#
# Compressibility (1/GPa) = 0.02783634
#
# Stress axis : x y z
#
# Youngs Moduli (GPa) = 41.26781 42.32028 85.03066
#
# Poissons Ratio (x) = 0.31177 0.29648
# Poissons Ratio (y) = 0.30402 0.42848
# Poissons Ratio (z) = 0.14389 0.21326
#
# Static dielectric constant tensor:
#      x y z
#    x 1.788010 0.000000 -0.084290 
#    y 0.000000 1.601960 0.000000 
#    z -0.084290 0.000000 1.690720 
# 
# From -- ./inp_files/67873.got.cif
#   From: 2010.05.17/outbox.cif.g08.bks.cpg/sg12_34_cif.got.tgz:67873.got - 2010.06.03 13:09:07.
