data_PCOD9204707
_publ_section_title
;
Structure prediction by ZEFSAII (Michael W. Deem and Ramdas Pophale) SiO2 
 PCOD9204707
Probable space group: C 2/M
;
_chemical_formula_sum "Si O2"
_cell_formula_units_Z 64
_cell_length_a 17.812165
_cell_length_b 17.856178
_cell_length_c 27.851038
_cell_angle_alpha 90.000000
_cell_angle_beta 155.080636
_cell_angle_gamma 90.000000
_cell_volume 3732.344335
_symmetry_space_group_name_H-M "C 2/M"
_symmetry_group_IT_number 12
_symmetry_cell_setting 'monoclinic'
loop_
_space_group_symop_operation_xyz
x,y,z
-x,y,-z
-x,-y,-z
x,-y,z
1/2+x,1/2+y,z
1/2-x,1/2+y,-z
1/2-x,1/2-y,-z
1/2+x,1/2-y,z
loop_
_atom_site_type_symbol
_atom_site_label
_atom_site_fract_x
_atom_site_fract_y
_atom_site_fract_z
Si Si1 0.462552 0.181582 0.250014
Si Si2 0.705012 0.586046 0.973253
Si Si3 0.856413 0.214914 0.372785
Si Si4 0.897854 0.411639 0.753181
Si Si5 0.051976 0.178716 0.238785
Si Si6 0.578221 0.792704 0.421398
Si Si7 0.352089 0.913232 0.455693
Si Si8 0.145400 0.082036 0.043340
O O1 0.586679 0.125648 0.290787
O O2 0.498088 0.263967 0.249722
O O3 0.485782 0.177051 0.319999
O O4 0.268635 0.152075 0.124760
O O5 0.699738 0.500000 0.951811
O O6 0.617817 0.646922 0.887998
O O7 0.588944 0.587454 0.955224
O O8 0.909602 0.601314 0.108847
O O9 0.760031 0.134747 0.313882
O O10 0.695850 0.273630 0.290976
O O11 0.000000 0.216983 0.500000
O O12 0.957574 0.237136 0.383052
O O13 0.867787 0.500000 0.734082
O O14 0.162742 0.108958 0.323368
O O15 0.750000 0.750000 0.500000
O O16 0.620456 0.859035 0.483188
O O17 0.500000 0.898947 0.500000
O O18 0.362982 0.000000 0.475217
O O19 0.241869 0.000000 0.101638
O O20 0.000000 0.080320 0.000000
#
# Coordination Sequence:
#
# PCOD9204707 Si02
#       8
#     8   8   8   8   8   8   8   8
#     4  10  21  32  57  80 110 152 180 232 287 335
#     4   9  19  35  58  82 110 151 190 233 280 329
#     4  11  21  37  59  84 112 153 190 238 288 337
#     4   9  20  40  60  84 113 145 197 244 277 334
#     4  11  19  37  56  84 115 148 196 232 280 339
#     4  12  21  39  56  79 119 151 183 231 294 343
#     4  11  22  37  58  84 113 149 195 237 278 343
#     4   9  19  34  49  78 117 143 179 230 281 338
#
# _framework density 17.147400000000001
#
# number of rings (size 3 to 8) (size 9 to 14) (size 15 to 20)
#    0.000    1.750    3.750    2.250    1.750    5.750 
#    0.000    0.625    0.000    0.000    0.000    1.750 
#    0.000    0.000    0.000    0.000    0.000    0.000 
#
# Total GULP energy -178293.400420 kJ/mol
# GULP energy per Si atom -5571.668763 kJ/mol
# Density = 1.710837 g / cm^3
# Si number density = 17.147400 Si / 1000 Ang^3
#
#
#
# Elastic Constant Matrix: (Units=GPa)
#
#
# Indices 1 2 3 4 5 6 
#
# 1 100.5108 50.0610 31.6017 0.0000 -3.1354 -0.0005
# 2 50.0610 107.2732 44.0803 0.0031 -1.5783 0.0001
# 3 31.6017 44.0803 57.7434 0.0010 -9.9134 0.0002
# 4 0.0000 0.0031 0.0010 24.8035 0.0001 7.2340
# 5 -3.1354 -1.5783 -9.9134 0.0001 25.5429 -0.0005
# 6 -0.0005 0.0001 0.0002 7.2340 -0.0005 22.3231
#
#
#
# Elastic Compliance Matrix: (Units=1/GPa)
#
#
# Indices 1 2 3 4 5 6 
#
# 1 0.013499 -0.004747 -0.003782 0.000001 -0.000104 0.000000
# 2 -0.004747 0.015536 -0.009853 -0.000002 -0.003447 0.000000
# 3 -0.003782 -0.009853 0.028633 0.000000 0.010040 0.000000
# 4 0.000001 -0.000002 0.000000 0.044525 -0.000001 -0.014429
# 5 -0.000104 -0.003447 0.010040 -0.000001 0.042821 0.000001
# 6 0.000000 0.000000 0.000000 -0.014429 0.000001 0.049472
#
#
# Mechanical properties :
#
#
# Convention : Reuss Voigt Hill
#
# Bulk Modulus (GPa) = 47.83905 57.44591 52.64248
# Shear Modulus (GPa) = 20.98910 23.85284 22.42097
#
# Velocity S-wave (km/s) = 3.50242 3.73372 3.61992
# Velocity P-wave (km/s) = 6.65697 7.22229 6.94539
#
# Compressibility (1/GPa) = 0.02090343
#
# Stress axis : x y z
#
# Youngs Moduli (GPa) = 74.07723 64.36852 34.92457
#
# Poissons Ratio (x) = 0.30558 0.13208
# Poissons Ratio (y) = 0.35167 0.34412
# Poissons Ratio (z) = 0.28015 0.63424
#
# Static dielectric constant tensor:
#      x y z
#    x 1.592560 0.000000 0.008300 
#    y 0.000000 1.601690 -0.000010 
#    z 0.008300 -0.000010 1.665100 
# 
# From -- ./inp_files/340883.got.cif
#   From: 2010.05.17/outbox.cif.g08.bks.cpg/sg12_171_cif.got.tgz:340883.got - 2010.06.03 13:09:07.
