data_PCOD9204887
_publ_section_title
;
Structure prediction by ZEFSAII (Michael W. Deem and Ramdas Pophale) SiO2 
 PCOD9204887
Probable space group: C 2/M
;
_chemical_formula_sum "Si O2"
_cell_formula_units_Z 56
_cell_length_a 14.998707
_cell_length_b 7.377678
_cell_length_c 25.544379
_cell_angle_alpha 90.000000
_cell_angle_beta 120.233353
_cell_angle_gamma 90.000000
_cell_volume 2442.156436
_symmetry_space_group_name_H-M "C 2/M"
_symmetry_group_IT_number 12
_symmetry_cell_setting 'monoclinic'
loop_
_space_group_symop_operation_xyz
x,y,z
-x,y,-z
-x,-y,-z
x,-y,z
1/2+x,1/2+y,z
1/2-x,1/2+y,-z
1/2-x,1/2-y,-z
1/2+x,1/2-y,z
loop_
_atom_site_type_symbol
_atom_site_label
_atom_site_fract_x
_atom_site_fract_y
_atom_site_fract_z
Si Si1 0.914756 0.221782 0.431975
Si Si2 0.788261 0.285185 0.570015
Si Si3 0.018851 0.795585 0.660026
Si Si4 0.761320 0.220100 0.881605
Si Si5 0.968331 0.209716 0.221419
Si Si6 0.903642 0.790382 0.012521
Si Si7 0.944298 0.777577 0.857602
O O1 0.802753 0.275447 0.418845
O O2 0.000000 0.279409 0.500000
O O3 0.936062 0.287407 0.379697
O O4 0.697646 0.000000 0.419411
O O5 0.750000 0.250000 0.500000
O O6 0.897043 0.196467 0.613380
O O7 0.079986 0.000000 0.567153
O O8 0.033487 0.708061 0.721153
O O9 0.062797 0.000000 0.676288
O O10 0.647063 0.283386 0.835516
O O11 0.842150 0.274408 0.859639
O O12 0.761603 0.000000 0.882927
O O13 0.808348 0.285206 0.951112
O O14 0.043468 0.283725 0.198475
O O15 0.999684 0.000000 0.237847
O O16 0.954942 0.713226 0.079880
O O17 0.878744 0.000000 0.016123
O O18 0.000000 0.788814 0.000000
O O19 0.946800 0.000000 0.859031
#
# Coordination Sequence:
#
# PCOD9204887 Si02
#       7
#     8   8   8   8   8   8   8
#     4   9  17  33  56  76 100 134 161 190 244 304
#     4  11  21  35  58  83 104 130 164 204 249 294
#     4  10  21  38  54  73 104 139 173 203 243 303
#     4   9  17  31  52  73  97 132 174 214 249 298
#     4  10  21  34  50  73 103 137 168 207 256 302
#     4   7  11  23  46  72  94 125 170 211 248 299
#     4   8  15  30  50  72 100 134 170 209 258 305
#
# _framework density 22.930554999999998
#
# number of rings (size 3 to 8) (size 9 to 14) (size 15 to 20)
#    0.000    2.857    1.429    2.143    0.000    2.286 
#    0.000    2.857    0.000    3.857    0.000    0.000 
#    0.000    0.000    0.000    0.000    0.000    0.000 
#
# Total GULP energy -156318.780008 kJ/mol
# GULP energy per Si atom -5582.813572 kJ/mol
# Density = 2.287836 g / cm^3
# Si number density = 22.930555 Si / 1000 Ang^3
#
#
#
# Elastic Constant Matrix: (Units=GPa)
#
#
# Indices 1 2 3 4 5 6 
#
# 1 101.4684 -1.9083 18.2171 0.0000 -28.7186 0.0000
# 2 -1.9083 86.7780 -4.1136 0.0000 -8.2114 0.0000
# 3 18.2171 -4.1136 62.3431 0.0000 -29.5581 0.0000
# 4 0.0000 0.0000 0.0000 0.3790 0.0000 15.1563
# 5 -28.7186 -8.2114 -29.5581 0.0000 46.4707 0.0000
# 6 0.0000 0.0000 0.0000 15.1563 0.0000 3.9224
#
#
#
# Elastic Compliance Matrix: (Units=1/GPa)
#
#
# Indices 1 2 3 4 5 6 
#
# 1 0.012029 0.001010 0.000230 0.000000 0.007759 0.000000
# 2 0.001010 0.012086 0.002593 0.000000 0.004409 0.000000
# 3 0.000230 0.002593 0.023522 0.000000 0.015562 0.000000
# 4 0.000000 0.000000 0.000000 -0.017187 0.000000 0.066409
# 5 0.007759 0.004409 0.015562 0.000000 0.036991 0.000000
# 6 0.000000 0.000000 0.000000 0.066409 0.000000 -0.001660
#
#
# Mechanical properties :
#
#
# Convention : Reuss Voigt Hill
#
# Bulk Modulus (GPa) = 18.08257 30.55333 24.31795
# Shear Modulus (GPa) = 65.31676 26.04737 45.68206
#
# Velocity S-wave (km/s) = 5.34289 3.37400 4.46824
# Velocity P-wave (km/s) = 6.77974 5.34151 6.10314
#
# Compressibility (1/GPa) = 0.05530187
#
# Stress axis : x y z
#
# Youngs Moduli (GPa) = 83.13350 82.74093 42.51288
#
# Poissons Ratio (x) = -0.08353 -0.00979
# Poissons Ratio (y) = -0.08393 -0.11022
# Poissons Ratio (z) = -0.01914 -0.21452
#
# Static dielectric constant tensor:
#      x y z
#    x 1.839670 0.000000 -0.037480 
#    y 0.000000 1.797100 0.000000 
#    z -0.037480 0.000000 1.844500 
# 
# From -- ./inp_files/335322.got.cif
#   From: 2010.05.17/outbox.cif.g08.bks.cpg/sg12_168_cif.got.tgz:335322.got - 2010.06.03 13:09:07.
