data_PCOD9204453
_publ_section_title
;
Structure prediction by ZEFSAII (Michael W. Deem and Ramdas Pophale) SiO2 
 PCOD9204453
Probable space group: C 2/M
;
_chemical_formula_sum "Si O2"
_cell_formula_units_Z 36
_cell_length_a 13.324426
_cell_length_b 28.443340
_cell_length_c 7.843458
_cell_angle_alpha 90.000000
_cell_angle_beta 35.832627
_cell_angle_gamma 90.000000
_cell_volume 1740.218642
_symmetry_space_group_name_H-M "C 2/M"
_symmetry_group_IT_number 12
_symmetry_cell_setting 'monoclinic'
loop_
_space_group_symop_operation_xyz
x,y,z
-x,y,-z
-x,-y,-z
x,-y,z
1/2+x,1/2+y,z
1/2-x,1/2+y,-z
1/2-x,1/2-y,-z
1/2+x,1/2-y,z
loop_
_atom_site_type_symbol
_atom_site_label
_atom_site_fract_x
_atom_site_fract_y
_atom_site_fract_z
Si Si1 0.824292 0.000000 0.347372
Si Si2 0.310012 0.263360 0.228424
Si Si3 0.363310 0.158438 0.040937
Si Si4 0.678129 0.430896 0.338503
Si Si5 0.453995 0.000000 0.860938
Si Si6 0.500000 0.824157 0.500000
O O1 0.821101 0.954447 0.476170
O O2 0.636720 0.000000 0.515012
O O3 0.000000 0.000000 0.000000
O O4 0.250000 0.250000 0.500000
O O5 0.164572 0.294058 0.338047
O O6 0.500000 0.284664 0.000000
O O7 0.329425 0.214200 0.100222
O O8 0.437705 0.148400 0.752144
O O9 0.500000 0.147535 0.000000
O O10 0.205428 0.124756 0.298747
O O11 0.500000 0.443638 0.500000
O O12 0.831351 0.454807 0.018249
O O13 0.500000 0.000000 0.000000
#
# Coordination Sequence:
#
# PCOD9204453 Si02
#       6
#     4   8   8   8   4   4
#     4  10  20  41  70  96 125 169 215 260 330 402
#     4  11  23  42  67  95 129 179 226 279 336 394
#     4  11  23  42  65  93 135 171 224 278 327 393
#     4  10  21  40  64  94 130 171 210 266 331 389
#     4   8  16  37  66  83 126 166 200 254 324 392
#     4  12  24  44  68  95 132 181 234 272 344 390
#
# _framework density 20.687056999999999
#
# number of rings (size 3 to 8) (size 9 to 14) (size 15 to 20)
#    0.000    1.778    4.444    4.000    1.556    0.000 
#    8.000    2.222    0.000    0.000    0.000    0.000 
#    0.000    0.000    0.000    0.000    0.000    0.000 
#
# Total GULP energy -100381.748270 kJ/mol
# GULP energy per Si atom -5576.763793 kJ/mol
# Density = 2.063997 g / cm^3
# Si number density = 20.687057 Si / 1000 Ang^3
#
#
#
# Elastic Constant Matrix: (Units=GPa)
#
#
# Indices 1 2 3 4 5 6 
#
# 1 103.9433 22.9189 51.2536 0.0000 -17.5973 0.0000
# 2 22.9189 60.2048 20.1916 0.0000 -10.5697 0.0000
# 3 51.2536 20.1916 145.8505 0.0000 -14.1220 0.0000
# 4 0.0000 0.0000 0.0000 35.6446 0.0000 0.9546
# 5 -17.5973 -10.5697 -14.1220 0.0000 59.4871 0.0000
# 6 0.0000 0.0000 0.0000 0.9546 0.0000 -10.1965
#
#
#
# Elastic Compliance Matrix: (Units=1/GPa)
#
#
# Indices 1 2 3 4 5 6 
#
# 1 0.012544 -0.003118 -0.003757 0.000000 0.002265 0.000000
# 2 -0.003118 0.018590 -0.001277 0.000000 0.002078 0.000000
# 3 -0.003757 -0.001277 0.008417 0.000000 0.000660 0.000000
# 4 0.000000 0.000000 0.000000 0.027985 0.000000 0.002620
# 5 0.002265 0.002078 0.000660 0.000000 0.018006 0.000000
# 6 0.000000 0.000000 0.000000 0.002620 0.000000 -0.097827
#
#
# Mechanical properties :
#
#
# Convention : Reuss Voigt Hill
#
# Bulk Modulus (GPa) = 43.01469 55.41408 49.21439
# Shear Modulus (GPa) = 424.90563 31.36267 228.13415
#
# Velocity S-wave (km/s) = 14.34722 3.89788 10.51276
# Velocity P-wave (km/s) = 17.18415 6.86316 13.08431
#
# Compressibility (1/GPa) = 0.02324787
#
# Stress axis : x y z
#
# Youngs Moduli (GPa) = 79.71839 53.79303 118.80231
#
# Poissons Ratio (x) = 0.16770 0.44637
# Poissons Ratio (y) = 0.24853 0.15169
# Poissons Ratio (z) = 0.29952 0.06869
#
# Static dielectric constant tensor:
#      x y z
#    x 1.751770 0.000000 -0.020400 
#    y 0.000000 1.774680 0.000000 
#    z -0.020400 0.000000 1.826740 
# 
# From -- ./inp_files/68010.got.cif
#   From: 2010.05.17/outbox.cif.g08.bks.cpg/sg12_35_cif.got.tgz:68010.got - 2010.06.03 13:09:07.
