data_PCOD9204303
_publ_section_title
;
Structure prediction by ZEFSAII (Michael W. Deem and Ramdas Pophale) SiO2 
 PCOD9204303
Probable space group: C 2/M
;
_chemical_formula_sum "Si O2"
_cell_formula_units_Z 30
_cell_length_a 7.933385
_cell_length_b 28.744955
_cell_length_c 8.094524
_cell_angle_alpha 90.000000
_cell_angle_beta 52.474357
_cell_angle_gamma 90.000000
_cell_volume 1463.959016
_symmetry_space_group_name_H-M "C 2/M"
_symmetry_group_IT_number 12
_symmetry_cell_setting 'monoclinic'
loop_
_space_group_symop_operation_xyz
x,y,z
-x,y,-z
-x,-y,-z
x,-y,z
1/2+x,1/2+y,z
1/2-x,1/2+y,-z
1/2-x,1/2-y,-z
1/2+x,1/2-y,z
loop_
_atom_site_type_symbol
_atom_site_label
_atom_site_fract_x
_atom_site_fract_y
_atom_site_fract_z
Si Si1 0.654982 0.189000 0.663319
Si Si2 0.500000 0.000000 0.500000
Si Si3 0.201716 0.792344 0.766446
Si Si4 0.277128 0.448381 0.071337
Si Si5 0.000000 0.385176 0.000000
O O1 0.799367 0.184043 0.413877
O O2 0.415791 0.194499 0.734468
O O3 0.711283 0.237085 0.721309
O O4 0.643998 0.147237 0.797224
O O5 0.626651 0.960233 0.315448
O O6 0.000000 0.802132 0.000000
O O7 0.326841 0.500000 0.966009
O O8 0.500000 0.428206 0.000000
O O9 0.152004 0.416892 0.019591
#
# Coordination Sequence:
#
# PCOD9204303 Si02
#       5
#     8   2   8   8   4
#     4  10  23  37  62  91 124 173 226 266 325 369
#     4   8  18  42  74  92 128 172 200 248 328 416
#     4  10  20  41  61  80 127 182 216 264 325 384
#     4   9  21  45  72  93 131 173 204 256 344 400
#     4  12  23  40  64 106 132 160 228 286 301 392
#
# _framework density 20.492377999999999
#
# number of rings (size 3 to 8) (size 9 to 14) (size 15 to 20)
#    0.800    1.333    1.333    1.200    0.000    3.200 
#    0.000    5.333    0.000    0.000    0.000    0.000 
#    0.000    0.000    0.000    0.000    0.000    0.000 
#
# Total GULP energy -83541.547645 kJ/mol
# GULP energy per Si atom -5569.436510 kJ/mol
# Density = 2.044574 g / cm^3
# Si number density = 20.492378 Si / 1000 Ang^3
#
#
#
# Elastic Constant Matrix: (Units=GPa)
#
#
# Indices 1 2 3 4 5 6 
#
# 1 101.9009 53.5585 76.0685 0.0000 3.6286 0.0000
# 2 53.5585 68.2421 50.1763 0.0000 12.0083 0.0000
# 3 76.0685 50.1763 187.7661 0.0000 3.3766 0.0000
# 4 0.0000 0.0000 0.0000 1.1451 0.0000 0.2537
# 5 3.6286 12.0083 3.3766 0.0000 13.1211 0.0000
# 6 0.0000 0.0000 0.0000 0.2537 0.0000 30.5202
#
#
#
# Elastic Compliance Matrix: (Units=1/GPa)
#
#
# Indices 1 2 3 4 5 6 
#
# 1 0.020368 -0.014049 -0.004649 0.000000 0.008421 0.000000
# 2 -0.014049 0.031722 -0.002344 0.000000 -0.024543 0.000000
# 3 -0.004649 -0.002344 0.007810 0.000000 0.001421 0.000000
# 4 0.000000 0.000000 0.000000 0.874873 0.000000 -0.007273
# 5 0.008421 -0.024543 0.001421 0.000000 0.095981 0.000000
# 6 0.000000 0.000000 0.000000 -0.007273 0.000000 0.032826
#
#
# Mechanical properties :
#
#
# Convention : Reuss Voigt Hill
#
# Bulk Modulus (GPa) = 56.12836 79.72396 67.92616
# Shear Modulus (GPa) = 4.49801 20.83100 12.66451
#
# Velocity S-wave (km/s) = 1.48315 3.19176 2.48868
# Velocity P-wave (km/s) = 5.51202 7.25064 6.44027
#
# Compressibility (1/GPa) = 0.01781631
#
# Stress axis : x y z
#
# Youngs Moduli (GPa) = 49.09662 31.52351 128.04298
#
# Poissons Ratio (x) = 0.44288 0.59522
# Poissons Ratio (y) = 0.68977 0.30013
# Poissons Ratio (z) = 0.22823 0.07389
#
# Static dielectric constant tensor:
#      x y z
#    x 1.669570 0.000000 0.000400 
#    y 0.000000 1.749520 0.000000 
#    z 0.000400 0.000000 1.722580 
# 
# From -- ./inp_files/40114.got.cif
#   From: 2010.05.17/outbox.cif.g08.bks.cpg/sg12_21_cif.got.tgz:40114.got - 2010.06.03 13:09:07.
