data_PCOD9204831
_publ_section_title
;
Structure prediction by ZEFSAII (Michael W. Deem and Ramdas Pophale) SiO2 
 PCOD9204831
Probable space group: C 2/M
;
_chemical_formula_sum "Si O2"
_cell_formula_units_Z 32
_cell_length_a 11.409555
_cell_length_b 15.637632
_cell_length_c 7.235462
_cell_angle_alpha 90.000000
_cell_angle_beta 73.354463
_cell_angle_gamma 90.000000
_cell_volume 1236.843164
_symmetry_space_group_name_H-M "C 2/M"
_symmetry_group_IT_number 12
_symmetry_cell_setting 'monoclinic'
loop_
_space_group_symop_operation_xyz
x,y,z
-x,y,-z
-x,-y,-z
x,-y,z
1/2+x,1/2+y,z
1/2-x,1/2+y,-z
1/2-x,1/2-y,-z
1/2+x,1/2-y,z
loop_
_atom_site_type_symbol
_atom_site_label
_atom_site_fract_x
_atom_site_fract_y
_atom_site_fract_z
Si Si1 0.362857 0.595812 0.604622
Si Si2 0.203774 0.907150 0.790795
Si Si3 0.677471 0.225884 0.717421
Si Si4 0.016334 0.591977 0.213303
O O1 0.500000 0.628452 0.500000
O O2 0.373412 0.500000 0.679803
O O3 0.305210 0.586289 0.427318
O O4 0.272825 0.656737 0.761344
O O5 0.149749 0.811495 0.845694
O O6 0.344071 0.902319 0.790420
O O7 0.153925 0.000000 0.881224
O O8 0.750000 0.250000 0.500000
O O9 0.559393 0.175052 0.702110
O O10 0.966524 0.500000 0.304614
O O11 0.000000 0.590119 0.000000
#
# Coordination Sequence:
#
# PCOD9204831 Si02
#       4
#     8   8   8   8
#     4   9  18  32  53  84 120 149 185 243 302 350
#     4   9  20  36  57  82 115 152 194 243 292 345
#     4  10  21  33  60  87 116 148 198 244 298 345
#     4  10  22  41  62  85 117 158 202 244 289 348
#
# _framework density 25.872318
#
# number of rings (size 3 to 8) (size 9 to 14) (size 15 to 20)
#    0.000    2.500    0.000    0.750    7.000    5.000 
#    0.000   11.250    0.000    0.750    0.000    0.000 
#    0.000    0.000    0.000    0.000    0.000    0.000 
#
# Total GULP energy -89292.422661 kJ/mol
# GULP energy per Si atom -5580.776416 kJ/mol
# Density = 2.581343 g / cm^3
# Si number density = 25.872318 Si / 1000 Ang^3
#
#
#
# Elastic Constant Matrix: (Units=GPa)
#
#
# Indices 1 2 3 4 5 6 
#
# 1 143.8420 51.3089 32.3121 0.0000 17.1542 0.0000
# 2 51.3089 211.3304 -2.0532 0.0000 -20.8799 0.0000
# 3 32.3121 -2.0532 71.0629 0.0000 19.6368 0.0000
# 4 0.0000 0.0000 0.0000 -2.7857 0.0000 -8.4437
# 5 17.1542 -20.8799 19.6368 0.0000 28.8620 0.0000
# 6 0.0000 0.0000 0.0000 -8.4437 0.0000 35.5088
#
#
#
# Elastic Compliance Matrix: (Units=1/GPa)
#
#
# Indices 1 2 3 4 5 6 
#
# 1 0.009254 -0.002837 -0.002713 0.000000 -0.005707 0.000000
# 2 -0.002837 0.006033 -0.000256 0.000000 0.006225 0.000000
# 3 -0.002713 -0.000256 0.018354 0.000000 -0.011061 0.000000
# 4 0.000000 0.000000 0.000000 -0.208614 0.000000 -0.049607
# 5 -0.005707 0.006225 -0.011061 0.000000 0.050068 0.000000
# 6 0.000000 0.000000 0.000000 -0.049607 0.000000 0.016366
#
#
# Mechanical properties :
#
#
# Convention : Reuss Voigt Hill
#
# Bulk Modulus (GPa) = 45.39152 65.48566 55.43859
# Shear Modulus (GPa) = -55.81357 35.29486 -10.25935
#
# Velocity S-wave (km/s) = -4.64968 3.69751 -1.99349
# Velocity P-wave (km/s) = 3.35314 6.60263 4.02189
#
# Compressibility (1/GPa) = 0.02203055
#
# Stress axis : x y z
#
# Youngs Moduli (GPa) = 108.06144 165.74756 54.48263
#
# Poissons Ratio (x) = 0.47022 0.14780
# Poissons Ratio (y) = 0.30657 0.01394
# Poissons Ratio (z) = 0.29315 0.04241
#
# Static dielectric constant tensor:
#      x y z
#    x 2.006180 0.000000 -0.004890 
#    y 0.000000 2.316170 0.000000 
#    z -0.004890 0.000000 2.063940 
# 
# From -- ./inp_files/45979.got.cif
#   From: 2010.05.17/outbox.cif.g08.bks.cpg/sg12_23_cif.got.tgz:45979.got - 2010.06.03 13:09:07.
