data_PCOD9204884
_publ_section_title
;
Structure prediction by ZEFSAII (Michael W. Deem and Ramdas Pophale) SiO2 
 PCOD9204884
Probable space group: C 2/M
;
_chemical_formula_sum "Si O2"
_cell_formula_units_Z 56
_cell_length_a 23.937168
_cell_length_b 13.688733
_cell_length_c 22.049646
_cell_angle_alpha 90.000000
_cell_angle_beta 162.336645
_cell_angle_gamma 90.000000
_cell_volume 2192.235171
_symmetry_space_group_name_H-M "C 2/M"
_symmetry_group_IT_number 12
_symmetry_cell_setting 'monoclinic'
loop_
_space_group_symop_operation_xyz
x,y,z
-x,y,-z
-x,-y,-z
x,-y,z
1/2+x,1/2+y,z
1/2-x,1/2+y,-z
1/2-x,1/2-y,-z
1/2+x,1/2-y,z
loop_
_atom_site_type_symbol
_atom_site_label
_atom_site_fract_x
_atom_site_fract_y
_atom_site_fract_z
Si Si1 0.998283 0.889838 0.816230
Si Si2 0.596568 0.106965 0.460934
Si Si3 0.694618 0.306796 0.218467
Si Si4 0.019354 0.697092 0.902170
Si Si5 0.455940 0.385018 0.271342
Si Si6 0.376974 0.661626 0.318650
Si Si7 0.472681 0.885825 0.208615
O O1 0.094400 0.801366 0.951817
O O2 0.959069 0.860995 0.706208
O O3 0.803123 0.897889 0.647300
O O4 0.081653 0.000000 0.902696
O O5 0.646413 0.141986 0.579221
O O6 0.494450 0.157544 0.298588
O O7 0.511476 0.000000 0.379678
O O8 0.613439 0.223500 0.179855
O O9 0.794760 0.258916 0.265088
O O10 0.500000 0.360209 0.000000
O O11 0.923147 0.654744 0.742675
O O12 0.176970 0.623225 0.089340
O O13 0.494185 0.500000 0.322427
O O14 0.485202 0.334082 0.366896
O O15 0.239860 0.374953 0.029836
O O16 0.500000 0.617118 0.500000
O O17 0.520249 0.000000 0.262874
#
# Coordination Sequence:
#
# PCOD9204884 Si02
#       7
#     8   8   8   8   8   8   8
#     4   9  18  33  54  80 104 128 166 213 261 309
#     4   9  18  32  53  79 102 129 169 214 256 300
#     4   9  19  35  50  70 102 138 174 208 245 300
#     4   9  19  35  54  74 102 137 169 211 264 300
#     4   9  19  35  52  73 104 135 164 209 264 308
#     4  10  21  34  50  72 100 136 178 208 241 302
#     4   9  18  32  50  76 106 132 165 209 259 310
#
# _framework density 25.544705
#
# number of rings (size 3 to 8) (size 9 to 14) (size 15 to 20)
#    0.000    2.857    0.000    0.000    0.000    8.571 
#    0.000    2.857    0.000    5.143    0.000    1.000 
#    0.000    0.000    0.000    0.000    0.000    0.000 
#
# Total GULP energy -155941.484552 kJ/mol
# GULP energy per Si atom -5569.338734 kJ/mol
# Density = 2.548656 g / cm^3
# Si number density = 25.544705 Si / 1000 Ang^3
#
#
#
# Elastic Constant Matrix: (Units=GPa)
#
#
# Indices 1 2 3 4 5 6 
#
# 1 166.6501 38.2860 31.7504 0.0026 -48.2820 0.0011
# 2 38.2860 71.3802 23.5173 0.0028 -20.8892 0.0019
# 3 31.7504 23.5173 114.2243 0.0002 -43.5860 -0.0022
# 4 0.0026 0.0028 0.0002 11.6654 -0.0007 -2.5197
# 5 -48.2820 -20.8892 -43.5860 -0.0007 56.5783 -0.0012
# 6 0.0011 0.0019 -0.0022 -2.5197 -0.0012 12.6547
#
#
#
# Elastic Compliance Matrix: (Units=1/GPa)
#
#
# Indices 1 2 3 4 5 6 
#
# 1 0.008467 -0.002818 0.000831 -0.000001 0.006825 0.000000
# 2 -0.002818 0.016815 -0.001738 -0.000004 0.002464 -0.000003
# 3 0.000831 -0.001738 0.012616 0.000001 0.009786 0.000004
# 4 -0.000001 -0.000004 0.000001 0.089576 0.000000 0.017835
# 5 0.006825 0.002464 0.009786 0.000000 0.031948 0.000004
# 6 0.000000 -0.000003 0.000004 0.017835 0.000004 0.082573
#
#
# Mechanical properties :
#
#
# Convention : Reuss Voigt Hill
#
# Bulk Modulus (GPa) = 32.84348 59.92911 46.38630
# Shear Modulus (GPa) = 19.26084 33.42641 26.34362
#
# Velocity S-wave (km/s) = 2.74889 3.62131 3.21483
# Velocity P-wave (km/s) = 4.79170 6.40286 5.65495
#
# Compressibility (1/GPa) = 0.03044744
#
# Stress axis : x y z
#
# Youngs Moduli (GPa) = 118.10455 59.47139 79.26544
#
# Poissons Ratio (x) = 0.16758 -0.06587
# Poissons Ratio (y) = 0.33280 0.13779
# Poissons Ratio (z) = -0.09815 0.10338
#
# Static dielectric constant tensor:
#      x y z
#    x 2.052580 0.000000 -0.012700 
#    y 0.000000 2.118120 0.000000 
#    z -0.012700 0.000000 2.134440 
# 
# From -- ./inp_files/326032.got.cif
#   From: 2010.05.17/outbox.cif.g08.bks.cpg/sg12_164_cif.got.tgz:326032.got - 2010.06.03 13:09:07.
