data_PCOD9204454
_publ_section_title
;
Structure prediction by ZEFSAII (Michael W. Deem and Ramdas Pophale) SiO2 
 PCOD9204454
Probable space group: C 2/M
;
_chemical_formula_sum "Si O2"
_cell_formula_units_Z 28
_cell_length_a 7.222147
_cell_length_b 30.815293
_cell_length_c 8.750281
_cell_angle_alpha 90.000000
_cell_angle_beta 36.261343
_cell_angle_gamma 90.000000
_cell_volume 1151.825863
_symmetry_space_group_name_H-M "C 2/M"
_symmetry_group_IT_number 12
_symmetry_cell_setting 'monoclinic'
loop_
_space_group_symop_operation_xyz
x,y,z
-x,y,-z
-x,-y,-z
x,-y,z
1/2+x,1/2+y,z
1/2-x,1/2+y,-z
1/2-x,1/2-y,-z
1/2+x,1/2-y,z
loop_
_atom_site_type_symbol
_atom_site_label
_atom_site_fract_x
_atom_site_fract_y
_atom_site_fract_z
Si Si1 0.000000 0.345832 0.500000
Si Si2 0.006883 0.720143 0.250245
Si Si3 0.624639 0.000000 0.241914
Si Si4 0.341029 0.905767 0.852479
Si Si5 0.500000 0.155745 0.000000
O O1 0.839806 0.310580 0.720769
O O2 0.920843 0.380425 0.419175
O O3 0.750000 0.750000 0.500000
O O4 0.250000 0.750000 0.000000
O O5 0.860869 0.688279 0.218914
O O6 0.500000 0.000000 0.500000
O O7 0.541403 0.955047 0.213428
O O8 0.000000 0.000000 0.000000
O O9 0.300187 0.877304 0.031248
O O10 0.000000 0.905917 0.000000
#
# Coordination Sequence:
#
# PCOD9204454 Si02
#       5
#     4   8   4   8   4
#     4  10  22  37  64  86 126 170 216 267 324 392
#     4  11  24  42  62  93 132 172 220 276 335 393
#     4  10  20  41  70  97 137 181 216 271 347 403
#     4  10  22  42  68  98 135 175 223 276 338 404
#     4  10  24  43  68 102 128 178 226 283 330 398
#
# _framework density 24.309232000000002
#
# number of rings (size 3 to 8) (size 9 to 14) (size 15 to 20)
#    0.000    1.714    1.429    1.714    8.000    0.571 
#    5.143    0.000    0.000    3.429    0.000    0.000 
#    0.000    0.000    0.000    0.000    0.000    0.000 
#
# Total GULP energy -77947.860990 kJ/mol
# GULP energy per Si atom -5567.704356 kJ/mol
# Density = 2.425390 g / cm^3
# Si number density = 24.309232 Si / 1000 Ang^3
#
#
#
# Elastic Constant Matrix: (Units=GPa)
#
#
# Indices 1 2 3 4 5 6 
#
# 1 70.6591 56.4350 40.3215 0.0000 20.7452 0.0000
# 2 56.4350 253.6323 90.0423 0.0000 21.2151 0.0000
# 3 40.3215 90.0423 166.0795 0.0000 6.1158 0.0000
# 4 0.0000 0.0000 0.0000 -20.4686 0.0000 16.0943
# 5 20.7452 21.2151 6.1158 0.0000 31.8035 0.0000
# 6 0.0000 0.0000 0.0000 16.0943 0.0000 31.3366
#
#
#
# Elastic Compliance Matrix: (Units=1/GPa)
#
#
# Indices 1 2 3 4 5 6 
#
# 1 0.021623 -0.002628 -0.003394 0.000000 -0.011699 0.000000
# 2 -0.002628 0.005456 -0.002265 0.000000 -0.001490 0.000000
# 3 -0.003394 -0.002265 0.007993 0.000000 0.002188 0.000000
# 4 0.000000 0.000000 0.000000 -0.034801 0.000000 0.017874
# 5 -0.011699 -0.001490 0.002188 0.000000 0.039647 0.000000
# 6 0.000000 0.000000 0.000000 0.017874 0.000000 0.022732
#
#
# Mechanical properties :
#
#
# Convention : Reuss Voigt Hill
#
# Bulk Modulus (GPa) = 54.06161 95.99650 75.02905
# Shear Modulus (GPa) = 58.55484 28.77244 43.66364
#
# Velocity S-wave (km/s) = 4.91323 3.44408 4.24273
# Velocity P-wave (km/s) = 7.38064 7.44252 7.41164
#
# Compressibility (1/GPa) = 0.01849742
#
# Stress axis : x y z
#
# Youngs Moduli (GPa) = 46.24746 183.27586 125.11120
#
# Poissons Ratio (x) = 0.48159 0.42466
# Poissons Ratio (y) = 0.12152 0.28342
# Poissons Ratio (z) = 0.15697 0.41518
#
# Static dielectric constant tensor:
#      x y z
#    x 1.774100 0.000000 0.048650 
#    y 0.000000 1.979030 0.000000 
#    z 0.048650 0.000000 1.910390 
# 
# From -- ./inp_files/40804.got.cif
#   From: 2010.05.17/outbox.cif.g08.bks.cpg/sg12_21_cif.got.tgz:40804.got - 2010.06.03 13:09:07.
