data_PCOD9204206
_publ_section_title
;
Structure prediction by ZEFSAII (Michael W. Deem and Ramdas Pophale) SiO2 
 PCOD9204206
Probable space group: C 2/M
;
_chemical_formula_sum "Si O2"
_cell_formula_units_Z 40
_cell_length_a 15.442541
_cell_length_b 27.398605
_cell_length_c 10.002966
_cell_angle_alpha 90.000000
_cell_angle_beta 153.956657
_cell_angle_gamma 90.000000
_cell_volume 1858.193419
_symmetry_space_group_name_H-M "C 2/M"
_symmetry_group_IT_number 12
_symmetry_cell_setting 'monoclinic'
loop_
_space_group_symop_operation_xyz
x,y,z
-x,y,-z
-x,-y,-z
x,-y,z
1/2+x,1/2+y,z
1/2-x,1/2+y,-z
1/2-x,1/2-y,-z
1/2+x,1/2-y,z
loop_
_atom_site_type_symbol
_atom_site_label
_atom_site_fract_x
_atom_site_fract_y
_atom_site_fract_z
Si Si1 0.942270 0.945404 0.575878
Si Si2 0.798949 0.815883 0.677355
Si Si3 0.843485 0.299389 0.080346
Si Si4 0.780079 0.388557 0.197884
Si Si5 0.270567 0.153503 0.706757
O O1 0.000000 0.947341 0.500000
O O2 0.779895 0.903342 0.355289
O O3 0.884160 0.000000 0.537286
O O4 0.121178 0.925041 0.914869
O O5 0.581151 0.793280 0.392817
O O6 0.780689 0.865278 0.743051
O O7 0.832301 0.826383 0.567912
O O8 0.000000 0.788778 0.000000
O O9 0.803992 0.341820 0.133305
O O10 0.750000 0.250000 0.000000
O O11 0.739205 0.317898 0.800241
O O12 0.000000 0.411059 0.500000
O O13 0.500000 0.158415 0.000000
#
# Coordination Sequence:
#
# PCOD9204206 Si02
#       5
#     8   8   8   8   8
#     4  11  22  39  67  99 132 179 224 268 336 407
#     4  10  20  40  67  95 130 168 217 285 339 378
#     4  10  22  43  66  92 126 181 229 267 334 405
#     4  10  21  41  63  91 133 170 217 279 327 393
#     4  10  21  41  69  93 133 173 217 286 331 386
#
# _framework density 21.526285999999999
#
# number of rings (size 3 to 8) (size 9 to 14) (size 15 to 20)
#    0.000    1.800    4.000    0.000    0.000    0.800 
#   10.800    8.000    0.000    0.000    0.000    0.000 
#    0.000    0.000    0.000    0.000    0.000    0.000 
#
# Total GULP energy -111803.917239 kJ/mol
# GULP energy per Si atom -5590.195862 kJ/mol
# Density = 2.147729 g / cm^3
# Si number density = 21.526286 Si / 1000 Ang^3
#
#
#
# Elastic Constant Matrix: (Units=GPa)
#
#
# Indices 1 2 3 4 5 6 
#
# 1 70.4858 33.0164 41.7999 0.0000 -16.5865 0.0000
# 2 33.0164 124.9499 43.4175 0.0000 -11.4490 0.0000
# 3 41.7999 43.4175 123.1730 0.0000 -17.1081 0.0000
# 4 0.0000 0.0000 0.0000 15.1340 0.0000 1.4238
# 5 -16.5865 -11.4490 -17.1081 0.0000 41.9047 0.0000
# 6 0.0000 0.0000 0.0000 1.4238 0.0000 28.4151
#
#
#
# Elastic Compliance Matrix: (Units=1/GPa)
#
#
# Indices 1 2 3 4 5 6 
#
# 1 0.019698 -0.003040 -0.004925 0.000000 0.004956 0.000000
# 2 -0.003040 0.009652 -0.002302 0.000000 0.000494 0.000000
# 3 -0.004925 -0.002302 0.010859 0.000000 0.001855 0.000000
# 4 0.000000 0.000000 0.000000 0.066389 0.000000 -0.003327
# 5 0.004956 0.000494 0.001855 0.000000 0.026717 0.000000
# 6 0.000000 0.000000 0.000000 -0.003327 0.000000 0.035359
#
#
# Mechanical properties :
#
#
# Convention : Reuss Voigt Hill
#
# Bulk Modulus (GPa) = 50.82457 61.67515 56.24986
# Shear Modulus (GPa) = 25.54075 30.44908 27.99491
#
# Velocity S-wave (km/s) = 3.44828 3.76507 3.61016
# Velocity P-wave (km/s) = 6.28617 6.90031 6.60039
#
# Compressibility (1/GPa) = 0.01967552
#
# Stress axis : x y z
#
# Youngs Moduli (GPa) = 50.76735 103.61064 92.08905
#
# Poissons Ratio (x) = 0.31493 0.45353
# Poissons Ratio (y) = 0.15431 0.21199
# Poissons Ratio (z) = 0.25002 0.23851
#
# Static dielectric constant tensor:
#      x y z
#    x 1.821870 0.000000 -0.043060 
#    y 0.000000 1.753290 0.000000 
#    z -0.043060 0.000000 1.893040 
# 
# From -- ./inp_files/68741.got.cif
#   From: 2010.05.17/outbox.cif.g08.bks.cpg/sg12_35_cif.got.tgz:68741.got - 2010.06.03 13:09:07.
