data_PCOD9204119
_publ_section_title
;
Structure prediction by ZEFSAII (Michael W. Deem and Ramdas Pophale) SiO2 
 PCOD9204119
Probable space group: C 2/M
;
_chemical_formula_sum "Si O2"
_cell_formula_units_Z 58
_cell_length_a 18.693010
_cell_length_b 12.955991
_cell_length_c 30.741139
_cell_angle_alpha 90.000000
_cell_angle_beta 155.498129
_cell_angle_gamma 90.000000
_cell_volume 3087.648879
_symmetry_space_group_name_H-M "C 2/M"
_symmetry_group_IT_number 12
_symmetry_cell_setting 'monoclinic'
loop_
_space_group_symop_operation_xyz
x,y,z
-x,y,-z
-x,-y,-z
x,-y,z
1/2+x,1/2+y,z
1/2-x,1/2+y,-z
1/2-x,1/2-y,-z
1/2+x,1/2-y,z
loop_
_atom_site_type_symbol
_atom_site_label
_atom_site_fract_x
_atom_site_fract_y
_atom_site_fract_z
Si Si1 0.000000 0.000000 0.500000
Si Si2 0.378462 0.723623 0.744131
Si Si3 0.464786 0.620458 0.316384
Si Si4 0.521229 0.690618 0.578065
Si Si5 0.832296 0.768929 0.880167
Si Si6 0.779335 0.616856 0.422572
Si Si7 0.524478 0.379269 0.908015
Si Si8 0.638274 0.881843 0.848432
O O1 0.973654 0.908074 0.522599
O O2 0.221555 0.783555 0.680109
O O3 0.302365 0.637513 0.669921
O O4 0.497925 0.674230 0.847152
O O5 0.484922 0.804374 0.774066
O O6 0.422906 0.500000 0.298634
O O7 0.506527 0.667320 0.386588
O O8 0.302131 0.680433 0.206308
O O9 0.627094 0.628360 0.373818
O O10 0.415414 0.792255 0.505810
O O11 0.734290 0.849711 0.857277
O O12 0.902058 0.824468 0.875648
O O13 0.000000 0.731671 0.000000
O O14 0.849034 0.500000 0.464186
O O15 0.480537 0.500000 0.880835
O O16 0.717606 0.372033 0.034014
O O17 0.578602 0.000000 0.813549
#
# Coordination Sequence:
#
# PCOD9204119 Si02
#       8
#     2   8   8   8   8   8   8   8
#     4  12  24  44  66  96 122 164 204 258 320 364
#     4  12  22  38  65  89 126 164 201 258 311 378
#     4  11  23  43  66  89 125 162 205 257 313 373
#     4  12  25  43  66  92 126 163 209 262 313 374
#     4  10  20  40  65  91 124 162 211 256 306 369
#     4  11  25  44  64  91 123 165 209 260 314 370
#     4  10  21  38  61  91 125 164 206 258 312 367
#     4  10  22  38  61  92 126 163 209 257 308 373
#
# _framework density 18.784519
#
# number of rings (size 3 to 8) (size 9 to 14) (size 15 to 20)
#    0.000    1.103    4.828    1.655    0.966    3.586 
#    0.000    0.000    0.000    0.000    0.000    0.000 
#    0.000    0.000    0.000    0.000    0.000    0.000 
#
# Total GULP energy -161795.510799 kJ/mol
# GULP energy per Si atom -5579.155545 kJ/mol
# Density = 1.874177 g / cm^3
# Si number density = 18.784519 Si / 1000 Ang^3
#
#
#
# Elastic Constant Matrix: (Units=GPa)
#
#
# Indices 1 2 3 4 5 6 
#
# 1 57.2931 13.8013 7.1662 0.0004 -14.7255 -0.0002
# 2 13.8013 134.7957 43.9158 0.0018 -0.2457 0.0000
# 3 7.1662 43.9158 41.4624 0.0071 -11.5601 0.0010
# 4 0.0004 0.0018 0.0071 19.5961 0.0007 -0.6054
# 5 -14.7255 -0.2457 -11.5601 0.0007 36.0707 -0.0002
# 6 -0.0002 0.0000 0.0010 -0.6054 -0.0002 27.2546
#
#
#
# Elastic Compliance Matrix: (Units=1/GPa)
#
#
# Indices 1 2 3 4 5 6 
#
# 1 0.020114 -0.002604 0.001719 -0.000001 0.008745 0.000000
# 2 -0.002604 0.012256 -0.014061 0.000004 -0.005486 0.000001
# 3 0.001719 -0.014061 0.042698 -0.000015 0.014290 -0.000002
# 4 -0.000001 0.000004 -0.000015 0.051066 -0.000006 0.001134
# 5 0.008745 -0.005486 0.014290 -0.000006 0.035836 0.000000
# 6 0.000000 0.000001 -0.000002 0.001134 0.000000 0.036716
#
#
# Mechanical properties :
#
#
# Convention : Reuss Voigt Hill
#
# Bulk Modulus (GPa) = 22.13472 40.36863 31.25167
# Shear Modulus (GPa) = 20.52248 27.82880 24.17564
#
# Velocity S-wave (km/s) = 3.30892 3.85317 3.59137
# Velocity P-wave (km/s) = 5.13884 6.42907 5.81982
#
# Compressibility (1/GPa) = 0.04517790
#
# Stress axis : x y z
#
# Youngs Moduli (GPa) = 49.71720 81.59149 23.42017
#
# Poissons Ratio (x) = 0.21243 -0.04027
# Poissons Ratio (y) = 0.12944 0.32931
# Poissons Ratio (z) = -0.08548 1.14725
#
# Static dielectric constant tensor:
#      x y z
#    x 1.635510 0.000000 -0.002530 
#    y 0.000000 1.618170 0.000000 
#    z -0.002530 0.000000 1.649500 
# 
# From -- ./inp_files/293253.got.cif
#   From: 2010.05.17/outbox.cif.g08.bks.cpg/sg12_147_cif.got.tgz:293253.got - 2010.06.03 13:09:07.
