data_PCOD9204947
_publ_section_title
;
Structure prediction by ZEFSAII (Michael W. Deem and Ramdas Pophale) SiO2 
 PCOD9204947
Probable space group: C 2/M
;
_chemical_formula_sum "Si O2"
_cell_formula_units_Z 64
_cell_length_a 9.320694
_cell_length_b 24.820114
_cell_length_c 20.581550
_cell_angle_alpha 90.000000
_cell_angle_beta 132.094245
_cell_angle_gamma 90.000000
_cell_volume 3533.127230
_symmetry_space_group_name_H-M "C 2/M"
_symmetry_group_IT_number 12
_symmetry_cell_setting 'monoclinic'
loop_
_space_group_symop_operation_xyz
x,y,z
-x,y,-z
-x,-y,-z
x,-y,z
1/2+x,1/2+y,z
1/2-x,1/2+y,-z
1/2-x,1/2-y,-z
1/2+x,1/2-y,z
loop_
_atom_site_type_symbol
_atom_site_label
_atom_site_fract_x
_atom_site_fract_y
_atom_site_fract_z
Si Si1 0.689788 0.765218 0.837236
Si Si2 0.967229 0.846614 0.244475
Si Si3 0.677974 0.188959 0.404840
Si Si4 0.293339 0.900157 0.939337
Si Si5 0.410886 0.205008 0.057520
Si Si6 0.932615 0.062292 0.909341
Si Si7 0.193920 0.636611 0.745471
Si Si8 0.497209 0.696856 0.392844
O O1 0.547174 0.715814 0.781532
O O2 0.599117 0.800769 0.867625
O O3 0.728105 0.805775 0.790447
O O4 0.891481 0.732677 0.906206
O O5 0.792048 0.878351 0.155260
O O6 0.163533 0.869043 0.272655
O O7 0.962856 0.841625 0.320611
O O8 0.526686 0.141480 0.344094
O O9 0.562063 0.243322 0.389494
O O10 0.826026 0.176981 0.508266
O O11 0.808855 0.200150 0.381176
O O12 0.121215 0.931973 0.921105
O O13 0.500000 0.929297 0.000000
O O14 0.343720 0.848253 0.000000
O O15 0.250000 0.250000 0.000000
O O16 0.763352 0.094057 0.820760
O O17 0.879475 0.000000 0.902216
O O18 0.000000 0.085026 0.000000
#
# Coordination Sequence:
#
# PCOD9204947 Si02
#       8
#     8   8   8   8   8   8   8   8
#     4  12  21  30  44  72 110 147 177 219 253 315
#     4  11  21  32  46  75 110 144 176 219 263 316
#     4  10  21  34  53  73 108 150 192 210 264 319
#     4  11  21  35  53  79 106 145 185 222 270 329
#     4  12  20  31  43  66 108 147 179 213 257 312
#     4  10  23  43  59  78 108 142 189 243 281 317
#     4  11  22  35  54  80 102 147 190 219 272 323
#     4  10  21  35  48  76 113 152 177 221 255 328
#
# _framework density 18.114263999999999
#
# number of rings (size 3 to 8) (size 9 to 14) (size 15 to 20)
#    0.000    1.125    5.000    2.625    1.750    2.750 
#    0.000    0.000    0.000    0.000    0.000    8.750 
#    0.000    0.000    0.000    0.000    0.000    0.000 
#
# Total GULP energy -178438.547575 kJ/mol
# GULP energy per Si atom -5576.204612 kJ/mol
# Density = 1.807303 g / cm^3
# Si number density = 18.114264 Si / 1000 Ang^3
#
#
#
# Elastic Constant Matrix: (Units=GPa)
#
#
# Indices 1 2 3 4 5 6 
#
# 1 96.2268 8.6145 56.8205 0.0000 -6.1854 0.0000
# 2 8.6145 30.4420 23.6547 0.0000 3.7168 0.0000
# 3 56.8205 23.6547 128.0339 0.0000 -3.9160 0.0000
# 4 0.0000 0.0000 0.0000 16.6066 0.0000 -1.2001
# 5 -6.1854 3.7168 -3.9160 0.0000 35.2705 0.0000
# 6 0.0000 0.0000 0.0000 -1.2001 0.0000 12.8950
#
#
#
# Elastic Compliance Matrix: (Units=1/GPa)
#
#
# Indices 1 2 3 4 5 6 
#
# 1 0.014209 0.000736 -0.006390 0.000000 0.001705 0.000000
# 2 0.000736 0.039237 -0.007725 0.000000 -0.004863 0.000000
# 3 -0.006390 -0.007725 0.012105 0.000000 0.001037 0.000000
# 4 0.000000 0.000000 0.000000 0.060625 0.000000 0.005642
# 5 0.001705 -0.004863 0.001037 0.000000 0.029279 0.000000
# 6 0.000000 0.000000 0.000000 0.005642 0.000000 0.078075
#
#
# Mechanical properties :
#
#
# Convention : Reuss Voigt Hill
#
# Bulk Modulus (GPa) = 25.77682 48.09802 36.93742
# Shear Modulus (GPa) = 18.30047 23.99529 21.14788
#
# Velocity S-wave (km/s) = 3.18194 3.64354 3.42053
# Velocity P-wave (km/s) = 5.26884 6.65663 6.00297
#
# Compressibility (1/GPa) = 0.03879455
#
# Stress axis : x y z
#
# Youngs Moduli (GPa) = 70.37915 25.48604 82.61076
#
# Poissons Ratio (x) = -0.01876 0.52785
# Poissons Ratio (y) = -0.05180 0.63814
# Poissons Ratio (z) = 0.44969 0.19687
#
# Static dielectric constant tensor:
#      x y z
#    x 1.704230 0.000000 -0.037260 
#    y 0.000000 1.588850 0.000000 
#    z -0.037260 0.000000 1.738760 
# 
# From -- ./inp_files/302346.got.cif
#   From: 2010.05.17/outbox.cif.g08.bks.cpg/sg12_152_cif.got.tgz:302346.got - 2010.06.03 13:09:07.
