data_PCOD9204079
_publ_section_title
;
Structure prediction by ZEFSAII (Michael W. Deem and Ramdas Pophale) SiO2 
 PCOD9204079
Probable space group: C 2/M
;
_chemical_formula_sum "Si O2"
_cell_formula_units_Z 40
_cell_length_a 9.209902
_cell_length_b 26.780175
_cell_length_c 7.562790
_cell_angle_alpha 90.000000
_cell_angle_beta 93.482951
_cell_angle_gamma 90.000000
_cell_volume 1861.862233
_symmetry_space_group_name_H-M "C 2/M"
_symmetry_group_IT_number 12
_symmetry_cell_setting 'monoclinic'
loop_
_space_group_symop_operation_xyz
x,y,z
-x,y,-z
-x,-y,-z
x,-y,z
1/2+x,1/2+y,z
1/2-x,1/2+y,-z
1/2-x,1/2-y,-z
1/2+x,1/2-y,z
loop_
_atom_site_type_symbol
_atom_site_label
_atom_site_fract_x
_atom_site_fract_y
_atom_site_fract_z
Si Si1 0.558873 0.724181 0.704185
Si Si2 0.046942 0.056005 0.799753
Si Si3 0.895930 0.336488 0.219581
Si Si4 0.380469 0.360280 0.646561
Si Si5 0.786083 0.642050 0.821843
O O1 0.500000 0.737179 0.500000
O O2 0.577036 0.777394 0.794082
O O3 0.440197 0.685320 0.773681
O O4 0.706880 0.691869 0.738826
O O5 0.180576 0.094615 0.783230
O O6 0.908761 0.083414 0.703525
O O7 0.076105 0.000000 0.738835
O O8 0.000000 0.054115 0.000000
O O9 0.788510 0.348798 0.373804
O O10 0.052184 0.362180 0.242761
O O11 0.814010 0.353431 0.034564
O O12 0.500000 0.354997 0.500000
#
# Coordination Sequence:
#
# PCOD9204079 Si02
#       5
#     8   8   8   8   8
#     4  10  22  37  57  86 125 171 204 235 292 361
#     4  10  20  40  65  85 114 156 203 249 300 365
#     4  11  21  37  59  89 125 160 202 247 298 352
#     4  10  22  38  59  87 120 159 201 245 294 356
#     4  10  22  38  60  91 120 157 204 256 298 346
#
# _framework density 21.483865999999999
#
# number of rings (size 3 to 8) (size 9 to 14) (size 15 to 20)
#    0.000    1.800    2.000    1.800    0.000   10.800 
#    0.000    3.000    0.000    1.200    0.000    0.000 
#    0.000    0.000    0.000    0.000    0.000    0.000 
#
# Total GULP energy -111419.115057 kJ/mol
# GULP energy per Si atom -5570.955753 kJ/mol
# Density = 2.143497 g / cm^3
# Si number density = 21.483866 Si / 1000 Ang^3
#
#
#
# Elastic Constant Matrix: (Units=GPa)
#
#
# Indices 1 2 3 4 5 6 
#
# 1 153.4216 46.3067 27.4732 0.0000 -19.6494 0.0000
# 2 46.3067 161.2440 6.5093 0.0000 -1.3946 0.0000
# 3 27.4732 6.5093 43.9532 0.0000 4.5513 0.0000
# 4 0.0000 0.0000 0.0000 6.7870 0.0000 -14.1850
# 5 -19.6494 -1.3946 4.5513 0.0000 40.2281 0.0000
# 6 0.0000 0.0000 0.0000 -14.1850 0.0000 -18.3563
#
#
#
# Elastic Compliance Matrix: (Units=1/GPa)
#
#
# Indices 1 2 3 4 5 6 
#
# 1 0.008850 -0.002269 -0.005702 0.000000 0.004889 0.000000
# 2 -0.002269 0.006825 0.000504 0.000000 -0.000929 0.000000
# 3 -0.005702 0.000504 0.026842 0.000000 -0.005805 0.000000
# 4 0.000000 0.000000 0.000000 0.056343 0.000000 -0.043539
# 5 0.004889 -0.000929 -0.005805 0.000000 0.027871 0.000000
# 6 0.000000 0.000000 0.000000 -0.043539 0.000000 -0.020832
#
#
# Mechanical properties :
#
#
# Convention : Reuss Voigt Hill
#
# Bulk Modulus (GPa) = 36.25509 57.68856 46.97183
# Shear Modulus (GPa) = 38.45326 24.28708 31.37017
#
# Velocity S-wave (km/s) = 4.23527 3.36591 3.82537
# Velocity P-wave (km/s) = 6.38974 6.48198 6.43603
#
# Compressibility (1/GPa) = 0.02758233
#
# Stress axis : x y z
#
# Youngs Moduli (GPa) = 112.99264 146.51858 37.25501
#
# Poissons Ratio (x) = 0.33247 0.21243
# Poissons Ratio (y) = 0.25640 -0.01877
# Poissons Ratio (z) = 0.64429 -0.07381
#
# Static dielectric constant tensor:
#      x y z
#    x 1.812290 0.000000 -0.007390 
#    y 0.000000 1.801460 0.000000 
#    z -0.007390 0.000000 2.002130 
# 
# From -- ./inp_files/40418.got.cif
#   From: 2010.05.17/outbox.cif.g08.bks.cpg/sg12_21_cif.got.tgz:40418.got - 2010.06.03 13:09:07.
