data_PCOD9204003
_publ_section_title
;
Structure prediction by ZEFSAII (Michael W. Deem and Ramdas Pophale) SiO2 
 PCOD9204003
Probable space group: C 2/M
;
_chemical_formula_sum "Si O2"
_cell_formula_units_Z 44
_cell_length_a 13.861330
_cell_length_b 18.196068
_cell_length_c 9.113557
_cell_angle_alpha 90.000000
_cell_angle_beta 125.290938
_cell_angle_gamma 90.000000
_cell_volume 1876.214015
_symmetry_space_group_name_H-M "C 2/M"
_symmetry_group_IT_number 12
_symmetry_cell_setting 'monoclinic'
loop_
_space_group_symop_operation_xyz
x,y,z
-x,y,-z
-x,-y,-z
x,-y,z
1/2+x,1/2+y,z
1/2-x,1/2+y,-z
1/2-x,1/2-y,-z
1/2+x,1/2-y,z
loop_
_atom_site_type_symbol
_atom_site_label
_atom_site_fract_x
_atom_site_fract_y
_atom_site_fract_z
Si Si1 0.745257 0.763889 0.168420
Si Si2 0.631882 0.920058 0.049192
Si Si3 0.216325 0.500000 0.545297
Si Si4 0.987586 0.389269 0.663164
Si Si5 0.392035 0.627824 0.805531
Si Si6 0.114847 0.235842 0.438164
O O1 0.664253 0.697990 0.159321
O O2 0.865759 0.762297 0.369681
O O3 0.750000 0.750000 0.000000
O O4 0.697269 0.846277 0.151739
O O5 0.603898 0.914735 0.850243
O O6 0.687122 0.000000 0.130016
O O7 0.500000 0.918104 0.000000
O O8 0.126367 0.436921 0.397616
O O9 0.298325 0.564916 0.690539
O O10 0.960734 0.305496 0.677401
O O11 0.000000 0.400490 0.500000
O O12 0.428857 0.662569 0.679925
O O13 0.500000 0.601800 0.000000
O O14 0.250000 0.250000 0.500000
#
# Coordination Sequence:
#
# PCOD9204003 Si02
#       6
#     8   8   4   8   8   8
#     4  11  22  39  62  96 130 168 208 258 322 383
#     4  11  24  36  59  92 131 158 201 252 323 378
#     4  12  24  40  67  92 131 160 223 264 322 372
#     4  12  23  39  64  96 126 159 202 263 326 375
#     4  11  24  43  66  89 126 172 222 263 307 380
#     4  10  20  40  63  87 127 167 212 258 309 378
#
# _framework density 23.451481999999999
#
# number of rings (size 3 to 8) (size 9 to 14) (size 15 to 20)
#    0.000    0.909    4.545    5.455    0.000    0.000 
#    0.000    0.000    0.000    0.000    0.000    3.182 
#    0.000    0.000    0.000    0.000    0.000    0.000 
#
# Total GULP energy -122584.632970 kJ/mol
# GULP energy per Si atom -5572.028771 kJ/mol
# Density = 2.339810 g / cm^3
# Si number density = 23.451482 Si / 1000 Ang^3
#
#
#
# Elastic Constant Matrix: (Units=GPa)
#
#
# Indices 1 2 3 4 5 6 
#
# 1 28.2348 28.7536 11.7931 0.0000 -7.6313 0.0000
# 2 28.7536 196.7253 17.5381 0.0000 15.8150 0.0000
# 3 11.7931 17.5381 103.8053 0.0000 7.9749 0.0000
# 4 0.0000 0.0000 0.0000 47.9667 0.0000 18.6616
# 5 -7.6313 15.8150 7.9749 0.0000 49.8590 0.0000
# 6 0.0000 0.0000 0.0000 18.6616 0.0000 7.9951
#
#
#
# Elastic Compliance Matrix: (Units=1/GPa)
#
#
# Indices 1 2 3 4 5 6 
#
# 1 0.047859 -0.007392 -0.004993 0.000000 0.010468 0.000000
# 2 -0.007392 0.006418 -0.000001 0.000000 -0.003167 0.000000
# 3 -0.004993 -0.000001 0.010387 0.000000 -0.002425 0.000000
# 4 0.000000 0.000000 0.000000 0.226862 0.000000 -0.529527
# 5 0.010468 -0.003167 -0.002425 0.000000 0.023051 0.000000
# 6 0.000000 0.000000 0.000000 -0.529527 0.000000 1.361063
#
#
# Mechanical properties :
#
#
# Convention : Reuss Voigt Hill
#
# Bulk Modulus (GPa) = 25.06659 49.43722 37.25191
# Shear Modulus (GPa) = 2.91765 39.20955 21.06360
#
# Velocity S-wave (km/s) = 1.11661 4.09338 3.00021
# Velocity P-wave (km/s) = 3.51772 6.59298 5.28402
#
# Compressibility (1/GPa) = 0.03989373
#
# Stress axis : x y z
#
# Youngs Moduli (GPa) = 20.89451 155.80389 96.27282
#
# Poissons Ratio (x) = 1.15165 0.48065
# Poissons Ratio (y) = 0.15445 0.00013
# Poissons Ratio (z) = 0.10432 0.00021
#
# Static dielectric constant tensor:
#      x y z
#    x 2.005920 0.000000 -0.116160 
#    y 0.000000 1.846560 0.000000 
#    z -0.116160 0.000000 1.983730 
# 
# From -- ./inp_files/76098.got.cif
#   From: 2010.05.17/outbox.cif.g08.bks.cpg/sg12_39_cif.got.tgz:76098.got - 2010.06.03 13:09:07.
