data_PCOD9204180
_publ_section_title
;
Structure prediction by ZEFSAII (Michael W. Deem and Ramdas Pophale) SiO2 
 PCOD9204180
Probable space group: C 2/M
;
_chemical_formula_sum "Si O2"
_cell_formula_units_Z 64
_cell_length_a 8.433078
_cell_length_b 29.701443
_cell_length_c 14.451462
_cell_angle_alpha 90.000000
_cell_angle_beta 60.237014
_cell_angle_gamma 90.000000
_cell_volume 3142.232867
_symmetry_space_group_name_H-M "C 2/M"
_symmetry_group_IT_number 12
_symmetry_cell_setting 'monoclinic'
loop_
_space_group_symop_operation_xyz
x,y,z
-x,y,-z
-x,-y,-z
x,-y,z
1/2+x,1/2+y,z
1/2-x,1/2+y,-z
1/2-x,1/2-y,-z
1/2+x,1/2-y,z
loop_
_atom_site_type_symbol
_atom_site_label
_atom_site_fract_x
_atom_site_fract_y
_atom_site_fract_z
Si Si1 0.819330 0.766511 0.079115
Si Si2 0.463242 0.810415 0.173712
Si Si3 0.270434 0.049238 0.127598
Si Si4 0.128187 0.580462 0.552089
Si Si5 0.655472 0.346339 0.392474
Si Si6 0.138642 0.594697 0.071169
Si Si7 0.454271 0.424507 0.340702
Si Si8 0.286084 0.052761 0.760995
O O1 0.643771 0.790782 0.171716
O O2 0.886453 0.724828 0.120939
O O3 0.750000 0.750000 0.000000
O O4 0.000000 0.795173 0.000000
O O5 0.295866 0.818778 0.290499
O O6 0.541692 0.856695 0.106902
O O7 0.470721 0.059835 0.107667
O O8 0.133015 0.050453 0.253079
O O9 0.257896 0.000000 0.087856
O O10 0.241585 0.086508 0.055524
O O11 0.214418 0.622872 0.580299
O O12 0.309117 0.556373 0.457513
O O13 0.000000 0.591419 0.500000
O O14 0.994377 0.555516 0.662007
O O15 0.500000 0.322777 0.500000
O O16 0.537381 0.379099 0.359802
O O17 0.232219 0.579726 0.138544
O O18 0.335594 0.422858 0.281550
O O19 0.234485 0.000000 0.783517
#
# Coordination Sequence:
#
# PCOD9204180 Si02
#       8
#     8   8   8   8   8   8   8   8
#     4   9  22  40  66  98 126 156 197 265 315 383
#     4  11  21  44  66  93 128 164 207 260 332 387
#     4  11  22  37  57  87 123 167 219 264 309 375
#     4   9  19  36  59  90 119 163 220 272 322 363
#     4  10  20  40  66  94 127 168 219 269 312 394
#     4  11  23  38  61  85 119 171 209 253 323 390
#     4  10  21  35  57  85 124 168 217 263 317 364
#     4  11  21  37  56  86 126 165 218 274 316 364
#
# _framework density 20.367681999999999
#
# number of rings (size 3 to 8) (size 9 to 14) (size 15 to 20)
#    0.000    1.750    2.500    1.875    5.250    3.250 
#    6.750    2.500    0.000   10.875    0.000    0.000 
#    0.000    0.000    0.000    0.000    0.000    0.000 
#
# Total GULP energy -178211.111057 kJ/mol
# GULP energy per Si atom -5569.097221 kJ/mol
# Density = 2.032132 g / cm^3
# Si number density = 20.367682 Si / 1000 Ang^3
#
#
#
# Elastic Constant Matrix: (Units=GPa)
#
#
# Indices 1 2 3 4 5 6 
#
# 1 76.9686 24.9935 22.3792 0.0000 -12.4851 0.0000
# 2 24.9935 62.5840 42.3537 0.0000 -8.7408 0.0000
# 3 22.3792 42.3537 78.9336 0.0000 -18.9096 0.0000
# 4 0.0000 0.0000 0.0000 40.8795 0.0000 96.5689
# 5 -12.4851 -8.7408 -18.9096 0.0000 44.3265 0.0000
# 6 0.0000 0.0000 0.0000 96.5689 0.0000 542.6861
#
#
#
# Elastic Compliance Matrix: (Units=1/GPa)
#
#
# Indices 1 2 3 4 5 6 
#
# 1 0.015397 -0.005120 -0.000915 0.000000 0.002937 0.000000
# 2 -0.005120 0.026823 -0.013387 0.000000 -0.001864 0.000000
# 3 -0.000915 -0.013387 0.021628 0.000000 0.006329 0.000000
# 4 0.000000 0.000000 0.000000 0.042202 0.000000 -0.007510
# 5 0.002937 -0.001864 0.006329 0.000000 0.025719 0.000000
# 6 0.000000 0.000000 0.000000 -0.007510 0.000000 0.003179
#
#
# Mechanical properties :
#
#
# Convention : Reuss Voigt Hill
#
# Bulk Modulus (GPa) = 39.99361 44.21545 42.10453
# Shear Modulus (GPa) = 27.45344 134.16240 80.80792
#
# Velocity S-wave (km/s) = 3.67535 8.12485 6.30561
# Velocity P-wave (km/s) = 6.13917 10.47728 8.58670
#
# Compressibility (1/GPa) = 0.02500400
#
# Stress axis : x y z
#
# Youngs Moduli (GPa) = 64.94689 37.28176 46.23711
#
# Poissons Ratio (x) = 0.19088 0.04229
# Poissons Ratio (y) = 0.33252 0.61899
# Poissons Ratio (z) = 0.05940 0.49910
#
# Static dielectric constant tensor:
#      x y z
#    x 1.774300 0.000000 -0.035660 
#    y 0.000000 1.726990 0.000000 
#    z -0.035660 0.000000 1.798710 
# 
# From -- ./inp_files/200914.got.cif
#   From: 2010.05.17/outbox.cif.g08.bks.cpg/sg12_101_cif.got.tgz:200914.got - 2010.06.03 13:09:07.
