data_PCOD9204179
_publ_section_title
;
Structure prediction by ZEFSAII (Michael W. Deem and Ramdas Pophale) SiO2 
 PCOD9204179
Probable space group: C 2/M
;
_chemical_formula_sum "Si O2"
_cell_formula_units_Z 50
_cell_length_a 16.434735
_cell_length_b 17.260384
_cell_length_c 9.382123
_cell_angle_alpha 90.000000
_cell_angle_beta 67.292563
_cell_angle_gamma 90.000000
_cell_volume 2455.132881
_symmetry_space_group_name_H-M "C 2/M"
_symmetry_group_IT_number 12
_symmetry_cell_setting 'monoclinic'
loop_
_space_group_symop_operation_xyz
x,y,z
-x,y,-z
-x,-y,-z
x,-y,z
1/2+x,1/2+y,z
1/2-x,1/2+y,-z
1/2-x,1/2-y,-z
1/2+x,1/2-y,z
loop_
_atom_site_type_symbol
_atom_site_label
_atom_site_fract_x
_atom_site_fract_y
_atom_site_fract_z
Si Si1 0.189718 0.915132 0.265169
Si Si2 0.616135 0.126495 0.755419
Si Si3 0.785248 0.677536 0.573917
Si Si4 0.833905 0.244862 0.840570
Si Si5 0.000000 0.500000 0.000000
Si Si6 0.114568 0.087791 0.632758
Si Si7 0.013722 0.221024 0.837447
O O1 0.291988 0.897717 0.232376
O O2 0.155638 0.846332 0.193784
O O3 0.138930 0.913597 0.449498
O O4 0.181750 0.000000 0.206108
O O5 0.640693 0.133118 0.570300
O O6 0.588419 0.214151 0.809081
O O7 0.543791 0.067759 0.864744
O O8 0.750000 0.750000 0.500000
O O9 0.817165 0.712029 0.702106
O O10 0.703839 0.618668 0.648207
O O11 0.927158 0.267242 0.845253
O O12 0.750000 0.250000 0.000000
O O13 0.044375 0.154685 0.709565
O O14 0.090838 0.000000 0.690783
O O15 0.000000 0.182898 0.000000
#
# Coordination Sequence:
#
# PCOD9204179 Si02
#       7
#     8   8   8   8   2   8   8
#     4  10  20  40  66  94 124 165 222 272 324 397
#     4  11  21  38  67  97 130 170 223 273 334 388
#     4  11  20  42  69  95 133 169 225 278 333 405
#     4  12  25  40  67  98 129 175 225 276 340 409
#     4  12  24  36  72 106 130 186 234 280 336 428
#     4  10  21  39  67  95 131 175 213 269 340 403
#     4  12  24  40  64  93 132 175 220 270 334 408
#
# _framework density 20.365497000000001
#
# number of rings (size 3 to 8) (size 9 to 14) (size 15 to 20)
#    0.000    0.960    6.400    1.920    1.120    3.520 
#    0.000    4.000    1.760    0.960    0.000    0.000 
#    0.000    0.000    0.000    0.000    0.000    0.000 
#
# Total GULP energy -139295.848799 kJ/mol
# GULP energy per Si atom -5571.833952 kJ/mol
# Density = 2.031914 g / cm^3
# Si number density = 20.365497 Si / 1000 Ang^3
#
#
#
# Elastic Constant Matrix: (Units=GPa)
#
#
# Indices 1 2 3 4 5 6 
#
# 1 38.8884 4.4533 52.2556 0.0000 -8.2236 0.0000
# 2 4.4533 113.1250 32.3929 0.0000 -19.4600 0.0000
# 3 52.2556 32.3929 97.8070 0.0000 -19.0519 0.0000
# 4 0.0000 0.0000 0.0000 36.7172 0.0000 -4.2148
# 5 -8.2236 -19.4600 -19.0519 0.0000 26.4675 0.0000
# 6 0.0000 0.0000 0.0000 -4.2148 0.0000 11.3773
#
#
#
# Elastic Compliance Matrix: (Units=1/GPa)
#
#
# Indices 1 2 3 4 5 6 
#
# 1 0.106931 0.013224 -0.061811 0.000000 -0.001546 0.000000
# 2 0.013224 0.012184 -0.009950 0.000000 0.005905 0.000000
# 3 -0.061811 -0.009950 0.048126 0.000000 0.008121 0.000000
# 4 0.000000 0.000000 0.000000 0.028445 0.000000 0.010538
# 5 -0.001546 0.005905 0.008121 0.000000 0.047489 0.000000
# 6 0.000000 0.000000 0.000000 0.010538 0.000000 0.091798
#
#
# Mechanical properties :
#
#
# Convention : Reuss Voigt Hill
#
# Bulk Modulus (GPa) = 19.93393 47.55822 33.74608
# Shear Modulus (GPa) = 10.66621 25.62697 18.14659
#
# Velocity S-wave (km/s) = 2.29102 3.55117 2.98828
# Velocity P-wave (km/s) = 4.09972 6.34173 5.33972
#
# Compressibility (1/GPa) = 0.05016572
#
# Stress axis : x y z
#
# Youngs Moduli (GPa) = 9.35181 82.07364 20.77893
#
# Poissons Ratio (x) = -1.08534 1.28437
# Poissons Ratio (y) = -0.12367 0.20676
# Poissons Ratio (z) = 0.57805 0.81666
#
# Static dielectric constant tensor:
#      x y z
#    x 1.769050 0.000000 -0.040960 
#    y 0.000000 1.722650 0.000000 
#    z -0.040960 0.000000 1.753060 
# 
# From -- ./inp_files/75767.got.cif
#   From: 2010.05.17/outbox.cif.g08.bks.cpg/sg12_38_cif.got.tgz:75767.got - 2010.06.03 13:09:07.
