data_PCOD9204425
_publ_section_title
;
Structure prediction by ZEFSAII (Michael W. Deem and Ramdas Pophale) SiO2 
 PCOD9204425
Probable space group: C 2/M
;
_chemical_formula_sum "Si O2"
_cell_formula_units_Z 40
_cell_length_a 23.815152
_cell_length_b 8.610843
_cell_length_c 17.929169
_cell_angle_alpha 90.000000
_cell_angle_beta 149.119666
_cell_angle_gamma 90.000000
_cell_volume 1887.058473
_symmetry_space_group_name_H-M "C 2/M"
_symmetry_group_IT_number 12
_symmetry_cell_setting 'monoclinic'
loop_
_space_group_symop_operation_xyz
x,y,z
-x,y,-z
-x,-y,-z
x,-y,z
1/2+x,1/2+y,z
1/2-x,1/2+y,-z
1/2-x,1/2-y,-z
1/2+x,1/2-y,z
loop_
_atom_site_type_symbol
_atom_site_label
_atom_site_fract_x
_atom_site_fract_y
_atom_site_fract_z
Si Si1 0.628844 0.319626 0.455244
Si Si2 0.798508 0.186515 0.899622
Si Si3 0.977598 0.318708 0.808280
Si Si4 0.047961 0.315285 0.637961
Si Si5 0.662366 0.317460 0.228619
O O1 0.659198 0.500000 0.494624
O O2 0.595810 0.274496 0.334163
O O3 0.524064 0.281351 0.386850
O O4 0.727921 0.218092 0.599991
O O5 0.675795 0.227090 0.784093
O O6 0.813235 0.225838 0.828902
O O7 0.810398 0.000000 0.920051
O O8 0.896385 0.268580 0.054607
O O9 0.964948 0.500000 0.779835
O O10 0.934019 0.274571 0.840560
O O11 0.037800 0.500000 0.643515
O O12 0.000000 0.293798 0.500000
O O13 0.636055 0.500000 0.200909
#
# Coordination Sequence:
#
# PCOD9204425 Si02
#       5
#     8   8   8   8   8
#     4  12  25  41  64  94 127 165 210 258 310 367
#     4  10  22  41  67  94 125 165 206 251 310 375
#     4  12  26  42  61  91 130 167 208 259 313 367
#     4  10  20  41  68  94 123 162 207 253 309 372
#     4  11  22  42  68  93 125 166 209 254 310 373
#
# _framework density 21.197012000000001
#
# number of rings (size 3 to 8) (size 9 to 14) (size 15 to 20)
#    0.000    1.000    2.000    5.400    0.000    6.000 
#    0.000    0.000    0.000    0.000    0.000    0.000 
#    0.000    0.000    0.000    0.000    0.000    0.000 
#
# Total GULP energy -111978.133258 kJ/mol
# GULP energy per Si atom -5598.906663 kJ/mol
# Density = 2.114877 g / cm^3
# Si number density = 21.197012 Si / 1000 Ang^3
#
#
#
# Elastic Constant Matrix: (Units=GPa)
#
#
# Indices 1 2 3 4 5 6 
#
# 1 53.4657 7.3827 -6.4534 0.0000 12.0338 0.0000
# 2 7.3827 24.7419 -5.5030 0.0000 1.9316 0.0000
# 3 -6.4534 -5.5030 69.5369 0.0000 12.8244 0.0000
# 4 0.0000 0.0000 0.0000 31.5656 0.0000 4.5335
# 5 12.0338 1.9316 12.8244 0.0000 37.5376 0.0000
# 6 0.0000 0.0000 0.0000 4.5335 0.0000 29.9683
#
#
#
# Elastic Compliance Matrix: (Units=1/GPa)
#
#
# Indices 1 2 3 4 5 6 
#
# 1 0.021499 -0.005151 0.002999 0.000000 -0.007652 0.000000
# 2 -0.005151 0.042798 0.003213 0.000000 -0.001649 0.000000
# 3 0.002999 0.003213 0.016138 0.000000 -0.006640 0.000000
# 4 0.000000 0.000000 0.000000 0.032384 0.000000 -0.004899
# 5 -0.007652 -0.001649 -0.006640 0.000000 0.031446 0.000000
# 6 0.000000 0.000000 0.000000 -0.004899 0.000000 0.034110
#
#
# Mechanical properties :
#
#
# Convention : Reuss Voigt Hill
#
# Bulk Modulus (GPa) = 12.11291 15.39966 13.75628
# Shear Modulus (GPa) = 24.53734 29.96884 27.25309
#
# Velocity S-wave (km/s) = 3.40602 3.76416 3.58956
# Velocity P-wave (km/s) = 4.60378 5.11593 4.86660
#
# Compressibility (1/GPa) = 0.08255657
#
# Stress axis : x y z
#
# Youngs Moduli (GPa) = 46.51385 23.36580 61.96546
#
# Poissons Ratio (x) = 0.12035 -0.18582
# Poissons Ratio (y) = 0.23958 -0.19909
# Poissons Ratio (z) = -0.13948 -0.07507
#
# Static dielectric constant tensor:
#      x y z
#    x 1.758380 0.000000 0.005140 
#    y 0.000000 1.711680 0.000000 
#    z 0.005140 0.000000 1.757970 
# 
# From -- ./inp_files/171874.got.cif
#   From: 2010.05.17/outbox.cif.g08.bks.cpg/sg12_86_cif.got.tgz:171874.got - 2010.06.03 13:09:07.
