data_PCOD9204060
_publ_section_title
;
Structure prediction by ZEFSAII (Michael W. Deem and Ramdas Pophale) SiO2 
 PCOD9204060
Probable space group: C 2/M
;
_chemical_formula_sum "Si O2"
_cell_formula_units_Z 36
_cell_length_a 20.784823
_cell_length_b 15.568888
_cell_length_c 8.576486
_cell_angle_alpha 90.000000
_cell_angle_beta 142.357163
_cell_angle_gamma 90.000000
_cell_volume 1694.992518
_symmetry_space_group_name_H-M "C 2/M"
_symmetry_group_IT_number 12
_symmetry_cell_setting 'monoclinic'
loop_
_space_group_symop_operation_xyz
x,y,z
-x,y,-z
-x,-y,-z
x,-y,z
1/2+x,1/2+y,z
1/2-x,1/2+y,-z
1/2-x,1/2-y,-z
1/2+x,1/2-y,z
loop_
_atom_site_type_symbol
_atom_site_label
_atom_site_fract_x
_atom_site_fract_y
_atom_site_fract_z
Si Si1 0.048833 0.398041 0.263961
Si Si2 0.923068 0.098612 0.132420
Si Si3 0.743794 0.284222 0.317458
Si Si4 0.138450 0.171485 0.676703
Si Si5 0.500000 0.827780 0.500000
O O1 0.061562 0.500000 0.278046
O O2 0.160388 0.352018 0.507238
O O3 0.989388 0.377011 0.314479
O O4 0.000000 0.370274 0.000000
O O5 0.855417 0.108403 0.164212
O O6 0.041755 0.130970 0.392581
O O7 0.922652 0.000000 0.081176
O O8 0.864865 0.166083 0.912785
O O9 0.750000 0.250000 0.500000
O O10 0.766376 0.203667 0.246096
O O11 0.096201 0.261021 0.667181
#
# Coordination Sequence:
#
# PCOD9204060 Si02
#       5
#     8   8   8   8   4
#     4  10  21  37  58  85 120 158 200 249 304 364
#     4  10  20  40  64  90 119 154 202 258 306 361
#     4  11  24  36  60  86 126 156 203 244 302 364
#     4   9  20  38  64  90 115 157 203 245 310 367
#     4   8  17  34  61  82 114 150 200 240 303 352
#
# _framework density 21.239031000000001
#
# number of rings (size 3 to 8) (size 9 to 14) (size 15 to 20)
#    0.000    2.444    0.000    3.000    9.333    0.000 
#    0.000    5.556    0.000    0.000    0.000    0.000 
#    0.000    0.000    0.000    0.000    0.000    0.000 
#
# Total GULP energy -100302.142388 kJ/mol
# GULP energy per Si atom -5572.341244 kJ/mol
# Density = 2.119069 g / cm^3
# Si number density = 21.239031 Si / 1000 Ang^3
#
#
#
# Elastic Constant Matrix: (Units=GPa)
#
#
# Indices 1 2 3 4 5 6 
#
# 1 55.3822 20.7727 7.2713 0.0000 -18.8700 0.0000
# 2 20.7727 83.1742 15.0594 0.0000 -3.4661 0.0000
# 3 7.2713 15.0594 72.2357 0.0000 -22.9149 0.0000
# 4 0.0000 0.0000 0.0000 29.9083 0.0000 -7.3857
# 5 -18.8700 -3.4661 -22.9149 0.0000 20.9584 0.0000
# 6 0.0000 0.0000 0.0000 -7.3857 0.0000 11.6485
#
#
#
# Elastic Compliance Matrix: (Units=1/GPa)
#
#
# Indices 1 2 3 4 5 6 
#
# 1 0.034279 -0.008941 0.011842 0.000000 0.042332 0.000000
# 2 -0.008941 0.014846 -0.006078 0.000000 -0.012240 0.000000
# 3 0.011842 -0.006078 0.026000 0.000000 0.038084 0.000000
# 4 0.000000 0.000000 0.000000 0.039642 0.000000 0.025135
# 5 0.042332 -0.012240 0.038084 0.000000 0.125443 0.000000
# 6 0.000000 0.000000 0.000000 0.025135 0.000000 0.101785
#
#
# Mechanical properties :
#
#
# Convention : Reuss Voigt Hill
#
# Bulk Modulus (GPa) = 14.54098 32.99987 23.77043
# Shear Modulus (GPa) = 13.46719 23.68230 18.57474
#
# Velocity S-wave (km/s) = 2.52082 3.34284 2.96050
# Velocity P-wave (km/s) = 3.91586 5.52001 4.78563
#
# Compressibility (1/GPa) = 0.06877117
#
# Stress axis : x y z
#
# Youngs Moduli (GPa) = 29.17261 67.35645 38.46184
#
# Poissons Ratio (x) = 0.60224 -0.45548
# Poissons Ratio (y) = 0.26084 0.23377
# Poissons Ratio (z) = -0.34547 0.40939
#
# Static dielectric constant tensor:
#      x y z
#    x 1.907160 0.000000 0.054380 
#    y 0.000000 1.746940 0.000000 
#    z 0.054380 0.000000 1.889130 
# 
# From -- ./inp_files/86443.got.cif
#   From: 2010.05.17/outbox.cif.g08.bks.cpg/sg12_44_cif.got.tgz:86443.got - 2010.06.03 13:09:07.
