data_PCOD9204962
_publ_section_title
;
Structure prediction by ZEFSAII (Michael W. Deem and Ramdas Pophale) SiO2 
 PCOD9204962
Probable space group: C 2/M
;
_chemical_formula_sum "Si O2"
_cell_formula_units_Z 56
_cell_length_a 14.902740
_cell_length_b 19.661575
_cell_length_c 9.728669
_cell_angle_alpha 90.000000
_cell_angle_beta 99.261850
_cell_angle_gamma 90.000000
_cell_volume 2813.447221
_symmetry_space_group_name_H-M "C 2/M"
_symmetry_group_IT_number 12
_symmetry_cell_setting 'monoclinic'
loop_
_space_group_symop_operation_xyz
x,y,z
-x,y,-z
-x,-y,-z
x,-y,z
1/2+x,1/2+y,z
1/2-x,1/2+y,-z
1/2-x,1/2-y,-z
1/2+x,1/2-y,z
loop_
_atom_site_type_symbol
_atom_site_label
_atom_site_fract_x
_atom_site_fract_y
_atom_site_fract_z
Si Si1 0.424872 0.000000 0.604300
Si Si2 0.702770 0.114311 0.307028
Si Si3 0.397450 0.360232 0.958814
Si Si4 0.166626 0.786652 0.554855
Si Si5 0.064146 0.500000 0.884840
Si Si6 0.122030 0.736927 0.843005
Si Si7 0.788163 0.606611 0.011209
Si Si8 0.919408 0.252077 0.732240
O O1 0.500000 0.000000 0.500000
O O2 0.357320 0.935340 0.611652
O O3 0.493571 0.000000 0.746754
O O4 0.798017 0.137634 0.399259
O O5 0.648051 0.184716 0.273892
O O6 0.715020 0.089903 0.152547
O O7 0.379520 0.309638 0.082734
O O8 0.500000 0.388330 0.000000
O O9 0.309548 0.407667 0.943964
O O10 0.395612 0.310372 0.826782
O O11 0.250000 0.750000 0.500000
O O12 0.152527 0.747832 0.694452
O O13 0.086177 0.777101 0.424413
O O14 0.131126 0.563592 0.903297
O O15 0.000000 0.500000 0.000000
O O16 0.181850 0.683930 0.943671
O O17 0.015942 0.718471 0.805196
#
# Coordination Sequence:
#
# PCOD9204962 Si02
#       8
#     4   8   8   8   4   8   8   8
#     4  12  28  44  60  90 125 163 209 249 306 373
#     4  11  21  38  60  82 121 167 202 249 300 366
#     4  10  21  36  59  91 117 157 206 255 312 369
#     4  10  21  34  53  85 120 156 200 246 307 368
#     4  12  26  40  63  92 119 164 210 251 295 370
#     4  11  20  33  60  86 119 161 193 253 315 366
#     4  12  21  38  63  86 123 163 212 251 307 362
#     4  10  21  34  56  90 123 152 202 252 312 372
#
# _framework density 19.904406999999999
#
# number of rings (size 3 to 8) (size 9 to 14) (size 15 to 20)
#    0.000    1.143    4.286    3.429    0.000    5.714 
#    0.000    0.357    0.000    0.000    0.000    3.000 
#    0.000    0.000    0.000    0.000    0.000    0.000 
#
# Total GULP energy -156125.852340 kJ/mol
# GULP energy per Si atom -5575.923298 kJ/mol
# Density = 1.985910 g / cm^3
# Si number density = 19.904407 Si / 1000 Ang^3
#
#
#
# Elastic Constant Matrix: (Units=GPa)
#
#
# Indices 1 2 3 4 5 6 
#
# 1 102.2319 16.3849 2.1084 0.0000 -3.5963 0.0000
# 2 16.3849 35.1998 -1.2321 0.0000 -2.1569 0.0000
# 3 2.1084 -1.2321 99.4845 0.0000 -15.8739 0.0000
# 4 0.0000 0.0000 0.0000 9.3533 0.0000 -4.5145
# 5 -3.5963 -2.1569 -15.8739 0.0000 38.5422 0.0000
# 6 0.0000 0.0000 0.0000 -4.5145 0.0000 25.9337
#
#
#
# Elastic Compliance Matrix: (Units=1/GPa)
#
#
# Indices 1 2 3 4 5 6 
#
# 1 0.010593 -0.004898 -0.000183 0.000000 0.000639 0.000000
# 2 -0.004898 0.030811 0.000736 0.000000 0.001570 0.000000
# 3 -0.000183 0.000736 0.010777 0.000000 0.004463 0.000000
# 4 0.000000 0.000000 0.000000 0.116721 0.000000 0.020318
# 5 0.000639 0.001570 0.004463 0.000000 0.027931 0.000000
# 6 0.000000 0.000000 0.000000 0.020318 0.000000 0.042097
#
#
# Mechanical properties :
#
#
# Convention : Reuss Voigt Hill
#
# Bulk Modulus (GPa) = 22.99362 30.15985 26.57674
# Shear Modulus (GPa) = 19.07544 29.40952 24.24248
#
# Velocity S-wave (km/s) = 3.09909 3.84805 3.49369
# Velocity P-wave (km/s) = 4.93790 5.91004 5.44570
#
# Compressibility (1/GPa) = 0.04349032
#
# Stress axis : x y z
#
# Youngs Moduli (GPa) = 94.40229 32.45568 92.79129
#
# Poissons Ratio (x) = 0.15897 0.01700
# Poissons Ratio (y) = 0.46239 -0.06829
# Poissons Ratio (z) = 0.01730 -0.02389
#
# Static dielectric constant tensor:
#      x y z
#    x 1.767870 0.000000 0.021590 
#    y 0.000000 1.798050 0.000000 
#    z 0.021590 0.000000 1.714960 
# 
# From -- ./inp_files/64115.got.cif
#   From: 2010.05.17/outbox.cif.g08.bks.cpg/sg12_33_cif.got.tgz:64115.got - 2010.06.03 13:09:07.
