data_PCOD9204958
_publ_section_title
;
Structure prediction by ZEFSAII (Michael W. Deem and Ramdas Pophale) SiO2 
 PCOD9204958
Probable space group: C 2/M
;
_chemical_formula_sum "Si O2"
_cell_formula_units_Z 60
_cell_length_a 29.548250
_cell_length_b 9.623634
_cell_length_c 12.241265
_cell_angle_alpha 90.000000
_cell_angle_beta 110.243151
_cell_angle_gamma 90.000000
_cell_volume 3265.936444
_symmetry_space_group_name_H-M "C 2/M"
_symmetry_group_IT_number 12
_symmetry_cell_setting 'monoclinic'
loop_
_space_group_symop_operation_xyz
x,y,z
-x,y,-z
-x,-y,-z
x,-y,z
1/2+x,1/2+y,z
1/2-x,1/2+y,-z
1/2-x,1/2-y,-z
1/2+x,1/2-y,z
loop_
_atom_site_type_symbol
_atom_site_label
_atom_site_fract_x
_atom_site_fract_y
_atom_site_fract_z
Si Si1 0.650088 0.838089 0.589943
Si Si2 0.906423 0.338054 0.677445
Si Si3 0.676652 0.731516 0.978633
Si Si4 0.643779 0.666029 0.184036
Si Si5 0.245781 0.163296 0.386453
Si Si6 0.506532 0.835614 0.635038
Si Si7 0.401086 0.337697 0.270589
Si Si8 0.260952 0.000000 0.034374
O O1 0.634111 0.821746 0.450978
O O2 0.706975 0.808935 0.647535
O O3 0.619547 0.736584 0.638614
O O4 0.641112 0.000000 0.612557
O O5 0.905719 0.500000 0.710777
O O6 0.894333 0.238623 0.767622
O O7 0.956995 0.310750 0.658788
O O8 0.639869 0.682177 0.854452
O O9 0.719830 0.620521 0.027158
O O10 0.647512 0.732288 0.067924
O O11 0.699907 0.877533 0.965145
O O12 0.636024 0.500000 0.170058
O O13 0.696333 0.689887 0.282888
O O14 0.250000 0.250000 0.500000
O O15 0.247905 0.000000 0.415773
O O16 0.500000 0.806087 0.500000
O O17 0.549752 0.742499 0.715903
O O18 0.518001 0.000000 0.653164
O O19 0.409985 0.500000 0.296093
#
# Coordination Sequence:
#
# PCOD9204958 Si02
#       8
#     8   8   8   8   8   8   8   4
#     4  10  21  37  59  86 123 165 207 254 313 373
#     4  10  21  40  63  90 119 163 214 257 310 380
#     4  11  25  44  64  99 125 173 213 264 309 375
#     4  11  23  39  60  87 132 171 205 250 317 385
#     4  10  21  34  53  83 118 161 199 242 299 367
#     4  10  21  42  67  91 122 165 214 266 324 382
#     4  12  25  39  63  97 129 156 210 271 318 380
#     4  10  24  44  68  86 130 168 220 256 306 364
#
# _framework density 18.371452999999999
#
# number of rings (size 3 to 8) (size 9 to 14) (size 15 to 20)
#    0.000    1.467    4.000    0.400    6.533    1.867 
#    0.000    0.667    0.000    3.200    0.000    0.000 
#    0.000    0.000    0.000    0.000    0.000    0.000 
#
# Total GULP energy -167042.505707 kJ/mol
# GULP energy per Si atom -5568.083524 kJ/mol
# Density = 1.832964 g / cm^3
# Si number density = 18.371453 Si / 1000 Ang^3
#
#
#
# Elastic Constant Matrix: (Units=GPa)
#
#
# Indices 1 2 3 4 5 6 
#
# 1 99.3369 48.8593 18.5137 0.0000 -10.0968 0.0000
# 2 48.8593 74.3033 15.6828 0.0000 -4.7985 0.0000
# 3 18.5137 15.6828 38.6602 0.0000 -12.7200 0.0000
# 4 0.0000 0.0000 0.0000 6.6630 0.0000 -5.1231
# 5 -10.0968 -4.7985 -12.7200 0.0000 11.6420 0.0000
# 6 0.0000 0.0000 0.0000 -5.1231 0.0000 34.6960
#
#
#
# Elastic Compliance Matrix: (Units=1/GPa)
#
#
# Indices 1 2 3 4 5 6 
#
# 1 0.015895 -0.009722 -0.000704 0.000000 0.009010 0.000000
# 2 -0.009722 0.020668 -0.005776 0.000000 -0.006224 0.000000
# 3 -0.000704 -0.005776 0.043032 0.000000 0.044025 0.000000
# 4 0.000000 0.000000 0.000000 0.169305 0.000000 0.024999
# 5 0.009010 -0.006224 0.044025 0.000000 0.139245 0.000000
# 6 0.000000 0.000000 0.000000 0.024999 0.000000 0.032513
#
#
# Mechanical properties :
#
#
# Convention : Reuss Voigt Hill
#
# Bulk Modulus (GPa) = 21.19048 42.04577 31.61812
# Shear Modulus (GPa) = 10.66566 19.21649 14.94108
#
# Velocity S-wave (km/s) = 2.41209 3.23770 2.85489
# Velocity P-wave (km/s) = 4.39512 6.07561 5.30236
#
# Compressibility (1/GPa) = 0.04719101
#
# Stress axis : x y z
#
# Youngs Moduli (GPa) = 62.91095 48.38299 23.23859
#
# Poissons Ratio (x) = 0.47038 0.01636
# Poissons Ratio (y) = 0.61161 0.13424
# Poissons Ratio (z) = 0.04429 0.27948
#
# Static dielectric constant tensor:
#      x y z
#    x 1.643150 0.000000 0.003700 
#    y 0.000000 1.610560 0.000000 
#    z 0.003700 0.000000 1.640780 
# 
# From -- ./inp_files/187644.got.cif
#   From: 2010.05.17/outbox.cif.g08.bks.cpg/sg12_94_cif.got.tgz:187644.got - 2010.06.03 13:09:07.
