data_PCOD9204389
_publ_section_title
;
Structure prediction by ZEFSAII (Michael W. Deem and Ramdas Pophale) SiO2 
 PCOD9204389
Probable space group: C 2/M
;
_chemical_formula_sum "Si O2"
_cell_formula_units_Z 42
_cell_length_a 11.258622
_cell_length_b 27.511712
_cell_length_c 5.472843
_cell_angle_alpha 90.000000
_cell_angle_beta 95.032306
_cell_angle_gamma 90.000000
_cell_volume 1688.645850
_symmetry_space_group_name_H-M "C 2/M"
_symmetry_group_IT_number 12
_symmetry_cell_setting 'monoclinic'
loop_
_space_group_symop_operation_xyz
x,y,z
-x,y,-z
-x,-y,-z
x,-y,z
1/2+x,1/2+y,z
1/2-x,1/2+y,-z
1/2-x,1/2-y,-z
1/2+x,1/2-y,z
loop_
_atom_site_type_symbol
_atom_site_label
_atom_site_fract_x
_atom_site_fract_y
_atom_site_fract_z
Si Si1 0.898063 0.447141 0.777115
Si Si2 0.161252 0.637628 0.544960
Si Si3 0.315287 0.419458 0.939784
Si Si4 0.901675 0.159447 0.296547
Si Si5 0.326143 0.759238 0.263608
Si Si6 0.500000 0.500000 0.000000
O O1 0.901557 0.500000 0.646430
O O2 0.916809 0.395018 0.651460
O O3 0.763807 0.443418 0.860201
O O4 0.000000 0.449464 0.000000
O O5 0.274118 0.655063 0.405185
O O6 0.124589 0.685828 0.690459
O O7 0.217692 0.597358 0.731135
O O8 0.379502 0.371094 0.050003
O O9 0.412146 0.457581 0.871950
O O10 0.923987 0.216558 0.261608
O O11 0.000000 0.139215 0.500000
O O12 0.250000 0.750000 0.500000
O O13 0.250000 0.750000 0.000000
#
# Coordination Sequence:
#
# PCOD9204389 Si02
#       6
#     8   8   8   8   8   2
#     4  10  23  44  66  94 136 187 237 298 365 426
#     4  10  22  40  67  95 133 181 230 297 356 435
#     4  11  22  41  63  95 140 170 238 287 352 437
#     4  10  21  40  62  95 135 183 220 288 361 435
#     4  10  20  41  66  94 134 183 235 293 362 429
#     4  12  24  36  64 106 126 188 228 292 356 430
#
# _framework density 24.871998999999999
#
# number of rings (size 3 to 8) (size 9 to 14) (size 15 to 20)
#    0.000    1.714    2.857    1.143    1.333    0.762 
#    3.429    4.286    0.000    0.000    0.000    0.000 
#    0.000    0.000    0.000    0.000    0.000    0.000 
#
# Total GULP energy -116939.997245 kJ/mol
# GULP energy per Si atom -5568.571297 kJ/mol
# Density = 2.481539 g / cm^3
# Si number density = 24.871999 Si / 1000 Ang^3
#
#
#
# Elastic Constant Matrix: (Units=GPa)
#
#
# Indices 1 2 3 4 5 6 
#
# 1 44.6930 9.2103 -0.1572 0.0000 7.4708 0.0000
# 2 9.2103 225.5344 36.6544 0.0000 19.1985 0.0000
# 3 -0.1572 36.6544 88.8118 0.0000 21.3154 0.0000
# 4 0.0000 0.0000 0.0000 45.3309 0.0000 7.7092
# 5 7.4708 19.1985 21.3154 0.0000 44.6755 0.0000
# 6 0.0000 0.0000 0.0000 7.7092 0.0000 20.4036
#
#
#
# Elastic Compliance Matrix: (Units=1/GPa)
#
#
# Indices 1 2 3 4 5 6 
#
# 1 0.023250 -0.000817 0.001386 0.000000 -0.004198 0.000000
# 2 -0.000817 0.004844 -0.001732 0.000000 -0.001118 0.000000
# 3 0.001386 -0.001732 0.013387 0.000000 -0.005875 0.000000
# 4 0.000000 0.000000 0.000000 0.023575 0.000000 -0.008907
# 5 -0.004198 -0.001118 -0.005875 0.000000 0.026369 0.000000
# 6 0.000000 0.000000 0.000000 -0.008907 0.000000 0.052376
#
#
# Mechanical properties :
#
#
# Convention : Reuss Voigt Hill
#
# Bulk Modulus (GPa) = 25.54027 50.05047 37.79537
# Shear Modulus (GPa) = 31.41101 42.97079 37.19090
#
# Velocity S-wave (km/s) = 3.55760 4.16104 3.87110
# Velocity P-wave (km/s) = 5.21213 6.57667 5.93376
#
# Compressibility (1/GPa) = 0.03915385
#
# Stress axis : x y z
#
# Youngs Moduli (GPa) = 43.01092 206.43968 74.69890
#
# Poissons Ratio (x) = 0.16874 -0.10354
# Poissons Ratio (y) = 0.03516 0.12940
# Poissons Ratio (z) = -0.05961 0.35760
#
# Static dielectric constant tensor:
#      x y z
#    x 1.892370 0.000000 0.007300 
#    y 0.000000 2.133900 0.000000 
#    z 0.007300 0.000000 2.065330 
# 
# From -- ./inp_files/8467.got.cif
#   From: 2010.05.17/outbox.cif.g08.bks.cpg/sg12_5_cif.got.tgz:8467.got - 2010.06.03 13:09:07.
