data_PCOD9204212
_publ_section_title
;
Structure prediction by ZEFSAII (Michael W. Deem and Ramdas Pophale) SiO2 
 PCOD9204212
Probable space group: C 2/M
;
_chemical_formula_sum "Si O2"
_cell_formula_units_Z 42
_cell_length_a 15.934358
_cell_length_b 15.949002
_cell_length_c 9.001698
_cell_angle_alpha 90.000000
_cell_angle_beta 51.928310
_cell_angle_gamma 90.000000
_cell_volume 1800.941337
_symmetry_space_group_name_H-M "C 2/M"
_symmetry_group_IT_number 12
_symmetry_cell_setting 'monoclinic'
loop_
_space_group_symop_operation_xyz
x,y,z
-x,y,-z
-x,-y,-z
x,-y,z
1/2+x,1/2+y,z
1/2-x,1/2+y,-z
1/2-x,1/2-y,-z
1/2+x,1/2-y,z
loop_
_atom_site_type_symbol
_atom_site_label
_atom_site_fract_x
_atom_site_fract_y
_atom_site_fract_z
Si Si1 0.378691 0.101751 0.694570
Si Si2 0.702864 0.698407 0.686663
Si Si3 0.152831 0.347762 0.929236
Si Si4 0.015226 0.908242 0.810228
Si Si5 0.886117 0.099220 0.697457
Si Si6 0.500000 0.000000 0.000000
O O1 0.500000 0.112040 0.500000
O O2 0.292047 0.146116 0.681444
O O3 0.359047 0.000000 0.726607
O O4 0.370765 0.141694 0.868606
O O5 0.750000 0.750000 0.500000
O O6 0.633212 0.759201 0.870351
O O7 0.622754 0.640349 0.682396
O O8 0.279925 0.355584 0.766485
O O9 0.090788 0.425185 0.922613
O O10 0.909820 0.878094 0.843201
O O11 0.033003 0.000000 0.724222
O O12 0.000000 0.915314 0.000000
O O13 0.000000 0.121274 0.500000
O O14 0.865375 0.000000 0.705463
#
# Coordination Sequence:
#
# PCOD9204212 Si02
#       6
#     8   8   8   8   8   2
#     4  11  26  50  77 108 155 216 267 321 400 473
#     4  12  28  43  71 112 153 193 255 324 383 464
#     4  12  26  49  75 109 153 204 259 325 389 471
#     4  10  22  42  69  96 133 181 233 299 368 441
#     4  10  20  40  68 100 136 185 238 298 371 446
#     4  12  28  48  84 108 152 206 274 318 404 480
#
# _framework density 23.321135999999999
#
# number of rings (size 3 to 8) (size 9 to 14) (size 15 to 20)
#    0.000    0.952    1.905    3.429    4.000    3.810 
#    1.714    0.000    0.000    0.000    0.000    0.000 
#    0.000    0.000    0.000    0.000    0.000    0.000 
#
# Total GULP energy -117069.361464 kJ/mol
# GULP energy per Si atom -5574.731498 kJ/mol
# Density = 2.326806 g / cm^3
# Si number density = 23.321136 Si / 1000 Ang^3
#
#
#
# Elastic Constant Matrix: (Units=GPa)
#
#
# Indices 1 2 3 4 5 6 
#
# 1 120.4909 38.4318 11.9648 0.0000 -18.4781 0.0000
# 2 38.4318 91.5828 28.1060 0.0000 -1.7584 0.0000
# 3 11.9648 28.1060 105.8210 0.0000 3.4898 0.0000
# 4 0.0000 0.0000 0.0000 70.2085 0.0000 59.6500
# 5 -18.4781 -1.7584 3.4898 0.0000 36.9040 0.0000
# 6 0.0000 0.0000 0.0000 59.6500 0.0000 313.6875
#
#
#
# Elastic Compliance Matrix: (Units=1/GPa)
#
#
# Indices 1 2 3 4 5 6 
#
# 1 0.010440 -0.004214 -0.000228 0.000000 0.005048 0.000000
# 2 -0.004214 0.013617 -0.003102 0.000000 -0.001168 0.000000
# 3 -0.000228 -0.003102 0.010340 0.000000 -0.001240 0.000000
# 4 0.000000 0.000000 0.000000 0.016988 0.000000 -0.003230
# 5 0.005048 -0.001168 -0.001240 0.000000 0.029687 0.000000
# 6 0.000000 0.000000 0.000000 -0.003230 0.000000 0.003802
#
#
# Mechanical properties :
#
#
# Convention : Reuss Voigt Hill
#
# Bulk Modulus (GPa) = 51.78545 52.76665 52.27605
# Shear Modulus (GPa) = 46.99309 100.11948 73.55628
#
# Velocity S-wave (km/s) = 4.49379 6.55927 5.62220
# Velocity P-wave (km/s) = 7.01278 8.94654 8.03802
#
# Compressibility (1/GPa) = 0.01931044
#
# Stress axis : x y z
#
# Youngs Moduli (GPa) = 95.78166 73.43722 96.70875
#
# Poissons Ratio (x) = 0.30950 0.02201
# Poissons Ratio (y) = 0.40367 0.29996
# Poissons Ratio (z) = 0.02180 0.22778
#
# Static dielectric constant tensor:
#      x y z
#    x 1.810040 0.000000 0.071540 
#    y 0.000000 1.974190 0.000000 
#    z 0.071540 0.000000 1.905840 
# 
# From -- ./inp_files/61595.got.cif
#   From: 2010.05.17/outbox.cif.g08.bks.cpg/sg12_31_cif.got.tgz:61595.got - 2010.06.03 13:09:07.
