data_PCOD9204846
_publ_section_title
;
Structure prediction by ZEFSAII (Michael W. Deem and Ramdas Pophale) SiO2 
 PCOD9204846
Probable space group: C 2/M
;
_chemical_formula_sum "Si O2"
_cell_formula_units_Z 64
_cell_length_a 25.064748
_cell_length_b 8.635809
_cell_length_c 19.145170
_cell_angle_alpha 90.000000
_cell_angle_beta 63.182797
_cell_angle_gamma 90.000000
_cell_volume 3698.364297
_symmetry_space_group_name_H-M "C 2/M"
_symmetry_group_IT_number 12
_symmetry_cell_setting 'monoclinic'
loop_
_space_group_symop_operation_xyz
x,y,z
-x,y,-z
-x,-y,-z
x,-y,z
1/2+x,1/2+y,z
1/2-x,1/2+y,-z
1/2-x,1/2-y,-z
1/2+x,1/2-y,z
loop_
_atom_site_type_symbol
_atom_site_label
_atom_site_fract_x
_atom_site_fract_y
_atom_site_fract_z
Si Si1 0.775059 0.819136 0.556299
Si Si2 0.759321 0.686299 0.715394
Si Si3 0.943795 0.821359 0.979461
Si Si4 0.416964 0.681264 0.492355
Si Si5 0.003840 0.684253 0.677761
Si Si6 0.970689 0.812715 0.186486
Si Si7 0.394455 0.812866 0.655392
Si Si8 0.363542 0.310084 0.147323
O O1 0.750000 0.750000 0.500000
O O2 0.751255 0.735898 0.639811
O O3 0.846820 0.803135 0.515240
O O4 0.760256 0.000000 0.569264
O O5 0.759718 0.500000 0.718027
O O6 0.825428 0.740338 0.699769
O O7 0.703041 0.740886 0.794020
O O8 0.890089 0.753734 0.057448
O O9 0.927739 0.000000 0.973437
O O10 0.972174 0.753229 0.892329
O O11 0.000000 0.825089 0.000000
O O12 0.432722 0.500000 0.482990
O O13 0.454793 0.768208 0.411679
O O14 0.422398 0.748674 0.567028
O O15 0.004979 0.500000 0.685227
O O16 0.025739 0.759404 0.736417
O O17 0.936787 0.732745 0.694499
O O18 0.910576 0.765398 0.180450
O O19 0.971974 0.000000 0.183353
O O20 0.394583 0.000000 0.650875
O O21 0.364302 0.500000 0.144630
#
# Coordination Sequence:
#
# PCOD9204846 Si02
#       8
#     8   8   8   8   8   8   8   8
#     4  10  21  34  47  66  96 128 155 188 232 280
#     4   9  17  31  51  71  91 120 159 200 234 273
#     4   7  11  23  44  70  97 121 146 185 235 280
#     4  10  21  35  51  70  90 119 162 204 238 273
#     4  11  22  33  47  68  96 128 159 195 238 287
#     4   9  17  29  47  73 100 122 150 192 239 283
#     4   9  19  35  50  66  92 126 162 197 239 282
#     4   8  14  26  49  76  96 117 152 194 234 281
#
# _framework density 17.304946999999999
#
# number of rings (size 3 to 8) (size 9 to 14) (size 15 to 20)
#    0.000    2.875    0.000    3.000    1.750    4.000 
#    0.000    0.000    0.000    4.875    0.000    0.000 
#    0.000    0.000    0.000    0.000    0.000    0.125 
#
# Total GULP energy -178276.021056 kJ/mol
# GULP energy per Si atom -5571.125658 kJ/mol
# Density = 1.726556 g / cm^3
# Si number density = 17.304947 Si / 1000 Ang^3
#
#
#
# Elastic Constant Matrix: (Units=GPa)
#
#
# Indices 1 2 3 4 5 6 
#
# 1 37.1121 13.5371 30.9033 0.0000 -2.1710 -0.0001
# 2 13.5371 6.4266 7.3500 0.0000 -2.0027 -0.0006
# 3 30.9033 7.3500 95.6757 0.0000 -22.8990 0.0000
# 4 0.0000 0.0000 0.0000 12.6965 0.0000 2.2473
# 5 -2.1710 -2.0027 -22.8990 0.0000 22.2996 0.0000
# 6 -0.0001 -0.0006 0.0000 2.2473 0.0000 16.5261
#
#
#
# Elastic Compliance Matrix: (Units=1/GPa)
#
#
# Indices 1 2 3 4 5 6 
#
# 1 0.253366 -0.486050 -0.065023 0.000004 -0.085756 -0.000017
# 2 -0.486050 1.103119 0.112217 -0.000009 0.166983 0.000038
# 3 -0.065023 0.112217 0.031464 -0.000001 0.036057 0.000004
# 4 0.000004 -0.000009 -0.000001 0.080704 -0.000001 -0.010974
# 5 -0.085756 0.166983 0.036057 -0.000001 0.088518 0.000006
# 6 -0.000017 0.000038 0.000004 -0.010974 0.000006 0.062003
#
#
# Mechanical properties :
#
#
# Convention : Reuss Voigt Hill
#
# Bulk Modulus (GPa) = 1.95988 26.97723 14.46855
# Shear Modulus (GPa) = 1.87479 16.13271 9.00375
#
# Velocity S-wave (km/s) = 1.04199 3.05661 2.28348
# Velocity P-wave (km/s) = 1.60707 5.29908 3.91554
#
# Compressibility (1/GPa) = 0.51023532
#
# Stress axis : x y z
#
# Youngs Moduli (GPa) = 3.94686 0.90652 31.78277
#
# Poissons Ratio (x) = 0.44061 2.06661
# Poissons Ratio (y) = 1.91837 -3.56656
# Poissons Ratio (z) = 0.25664 -0.10173
#
# Static dielectric constant tensor:
#      x y z
#    x 1.595360 0.000000 -0.028580 
#    y 0.000000 1.591330 0.000000 
#    z -0.028580 0.000000 1.595860 
# 
# From -- ./inp_files/323612.got.cif
#   From: 2010.05.17/outbox.cif.g08.bks.cpg/sg12_162_cif.got.tgz:323612.got - 2010.06.03 13:09:07.
