data_PCOD9204431
_publ_section_title
;
Structure prediction by ZEFSAII (Michael W. Deem and Ramdas Pophale) SiO2 
 PCOD9204431
Probable space group: C 2/M
;
_chemical_formula_sum "Si O2"
_cell_formula_units_Z 40
_cell_length_a 19.150236
_cell_length_b 8.917903
_cell_length_c 11.800448
_cell_angle_alpha 90.000000
_cell_angle_beta 104.658243
_cell_angle_gamma 90.000000
_cell_volume 1949.687430
_symmetry_space_group_name_H-M "C 2/M"
_symmetry_group_IT_number 12
_symmetry_cell_setting 'monoclinic'
loop_
_space_group_symop_operation_xyz
x,y,z
-x,y,-z
-x,-y,-z
x,-y,z
1/2+x,1/2+y,z
1/2-x,1/2+y,-z
1/2-x,1/2-y,-z
1/2+x,1/2-y,z
loop_
_atom_site_type_symbol
_atom_site_label
_atom_site_fract_x
_atom_site_fract_y
_atom_site_fract_z
Si Si1 0.114811 0.820801 0.222508
Si Si2 0.317170 0.177909 0.961255
Si Si3 0.828299 0.323155 0.528823
Si Si4 0.426251 0.672670 0.400440
Si Si5 0.550918 0.324739 0.858840
O O1 0.171028 0.749371 0.157875
O O2 0.126406 0.750778 0.350606
O O3 0.032565 0.790353 0.149144
O O4 0.123363 0.000000 0.231838
O O5 0.307919 0.000000 0.949440
O O6 0.250000 0.250000 0.000000
O O7 0.390228 0.221752 0.057778
O O8 0.824066 0.500000 0.542840
O O9 0.750000 0.250000 0.500000
O O10 0.866874 0.281990 0.427079
O O11 0.500000 0.697139 0.500000
O O12 0.403548 0.500000 0.412517
O O13 0.439822 0.688527 0.272901
O O14 0.564438 0.500000 0.895765
#
# Coordination Sequence:
#
# PCOD9204431 Si02
#       5
#     8   8   8   8   8
#     4  11  23  45  71  96 128 169 217 265 323 388
#     4  12  27  45  66  95 131 170 216 270 325 382
#     4  12  26  42  64  96 135 175 216 265 321 381
#     4  10  20  41  68  97 131 170 214 260 316 383
#     4  10  22  42  70  97 129 171 214 263 322 386
#
# _framework density 20.516110000000001
#
# number of rings (size 3 to 8) (size 9 to 14) (size 15 to 20)
#    0.000    1.000    2.000    4.800    2.800    5.200 
#    0.000    0.000    0.000    0.000    0.000    0.000 
#    0.000    0.000    0.000    0.000    0.000    0.000 
#
# Total GULP energy -111948.268055 kJ/mol
# GULP energy per Si atom -5597.413403 kJ/mol
# Density = 2.046941 g / cm^3
# Si number density = 20.516110 Si / 1000 Ang^3
#
#
#
# Elastic Constant Matrix: (Units=GPa)
#
#
# Indices 1 2 3 4 5 6 
#
# 1 102.9262 72.5544 12.9944 0.0000 -21.2326 0.0000
# 2 72.5544 127.1407 21.8444 0.0000 -8.1123 0.0000
# 3 12.9944 21.8444 38.2265 0.0000 -13.5280 0.0000
# 4 0.0000 0.0000 0.0000 37.6196 0.0000 -1.7384
# 5 -21.2326 -8.1123 -13.5280 0.0000 35.5149 0.0000
# 6 0.0000 0.0000 0.0000 -1.7384 0.0000 32.7168
#
#
#
# Elastic Compliance Matrix: (Units=1/GPa)
#
#
# Indices 1 2 3 4 5 6 
#
# 1 0.018960 -0.010736 0.003275 0.000000 0.010130 0.000000
# 2 -0.010736 0.014801 -0.006800 0.000000 -0.005628 0.000000
# 3 0.003275 -0.006800 0.033606 0.000000 0.013205 0.000000
# 4 0.000000 0.000000 0.000000 0.026647 0.000000 0.001416
# 5 0.010130 -0.005628 0.013205 0.000000 0.037958 0.000000
# 6 0.000000 0.000000 0.000000 0.001416 0.000000 0.030641
#
#
# Mechanical properties :
#
#
# Convention : Reuss Voigt Hill
#
# Bulk Modulus (GPa) = 25.74366 53.67554 39.70960
# Shear Modulus (GPa) = 24.49969 31.89694 28.19831
#
# Velocity S-wave (km/s) = 3.45942 3.94728 3.71138
# Velocity P-wave (km/s) = 5.34154 6.85523 6.14517
#
# Compressibility (1/GPa) = 0.03884452
#
# Stress axis : x y z
#
# Youngs Moduli (GPa) = 52.74237 67.56176 29.75673
#
# Poissons Ratio (x) = 0.72535 -0.09746
# Poissons Ratio (y) = 0.56625 0.20235
# Poissons Ratio (z) = -0.17273 0.45944
#
# Static dielectric constant tensor:
#      x y z
#    x 1.713280 0.000000 0.006510 
#    y 0.000000 1.693570 0.000000 
#    z 0.006510 0.000000 1.764710 
# 
# From -- ./inp_files/151663.got.cif
#   From: 2010.05.17/outbox.cif.g08.bks.cpg/sg12_76_cif.got.tgz:151663.got - 2010.06.03 13:09:07.
