data_PCOD9204859
_publ_section_title
;
Structure prediction by ZEFSAII (Michael W. Deem and Ramdas Pophale) SiO2 
 PCOD9204859
Probable space group: C 2/M
;
_chemical_formula_sum "Si O2"
_cell_formula_units_Z 52
_cell_length_a 22.340687
_cell_length_b 13.641266
_cell_length_c 30.396356
_cell_angle_alpha 90.000000
_cell_angle_beta 160.362652
_cell_angle_gamma 90.000000
_cell_volume 3113.126374
_symmetry_space_group_name_H-M "C 2/M"
_symmetry_group_IT_number 12
_symmetry_cell_setting 'monoclinic'
loop_
_space_group_symop_operation_xyz
x,y,z
-x,y,-z
-x,-y,-z
x,-y,z
1/2+x,1/2+y,z
1/2-x,1/2+y,-z
1/2-x,1/2-y,-z
1/2+x,1/2-y,z
loop_
_atom_site_type_symbol
_atom_site_label
_atom_site_fract_x
_atom_site_fract_y
_atom_site_fract_z
Si Si1 0.292841 0.616470 0.425157
Si Si2 0.062078 0.115362 0.694815
Si Si3 0.517827 0.117228 0.729398
Si Si4 0.249885 0.383346 0.537609
Si Si5 0.438142 0.116364 0.381292
Si Si6 0.000000 0.755438 0.500000
Si Si7 0.710109 0.299859 0.144187
O O1 0.282811 0.500000 0.408619
O O2 0.434328 0.625704 0.563632
O O3 0.367003 0.675932 0.435440
O O4 0.099093 0.648741 0.309506
O O5 0.226657 0.187937 0.804820
O O6 0.942458 0.149384 0.654107
O O7 0.104819 0.000000 0.728618
O O8 0.382553 0.133838 0.594899
O O9 0.701073 0.164760 0.840231
O O10 0.543228 0.000000 0.750416
O O11 0.267070 0.500000 0.553945
O O12 0.136390 0.351675 0.501113
O O13 0.400312 0.183645 0.396829
O O14 0.303566 0.138555 0.248168
O O15 0.439196 0.000000 0.391141
O O16 0.500000 0.311078 0.000000
#
# Coordination Sequence:
#
# PCOD9204859 Si02
#       7
#     8   8   8   8   8   4   8
#     4   9  18  32  51  78 104 128 164 207 253 298
#     4   9  17  31  50  75 103 128 159 210 262 298
#     4   8  16  30  49  74 101 125 158 208 257 294
#     4   7  13  27  48  71  96 122 153 200 260 305
#     4  10  21  34  48  76 107 131 163 204 252 303
#     4  12  20  30  52  78 106 138 158 200 252 302
#     4  11  21  32  52  77 100 134 171 203 246 299
#
# _framework density 16.703465999999999
#
# number of rings (size 3 to 8) (size 9 to 14) (size 15 to 20)
#    0.000    2.769    1.538    3.692    2.154    3.385 
#    0.000    0.000    0.000    0.923    0.000    0.000 
#    0.000    0.000    0.000    0.000    0.000    0.000 
#
# Total GULP energy -144783.381378 kJ/mol
# GULP energy per Si atom -5568.591591 kJ/mol
# Density = 1.666545 g / cm^3
# Si number density = 16.703466 Si / 1000 Ang^3
#
#
#
# Elastic Constant Matrix: (Units=GPa)
#
#
# Indices 1 2 3 4 5 6 
#
# 1 114.8247 51.6687 44.7426 0.0087 26.4497 -0.0017
# 2 51.6687 100.8576 20.3960 -0.0102 15.6930 0.0043
# 3 44.7426 20.3960 71.5463 0.0225 26.5360 -0.0031
# 4 0.0087 -0.0102 0.0225 14.1096 0.0014 5.1739
# 5 26.4497 15.6930 26.5360 0.0014 22.5520 0.0001
# 6 -0.0017 0.0043 -0.0031 5.1739 0.0001 36.5299
#
#
#
# Elastic Compliance Matrix: (Units=1/GPa)
#
#
# Indices 1 2 3 4 5 6 
#
# 1 0.014844 -0.005388 -0.004756 -0.000005 -0.008064 0.000002
# 2 -0.005388 0.013086 0.001193 0.000013 -0.004191 -0.000003
# 3 -0.004756 0.001193 0.026350 -0.000038 -0.026257 0.000007
# 4 -0.000005 0.000013 -0.000038 0.074756 0.000038 -0.010588
# 5 -0.008064 -0.004191 -0.026257 0.000038 0.087611 -0.000008
# 6 0.000002 -0.000003 0.000007 -0.010588 -0.000008 0.028874
#
#
# Mechanical properties :
#
#
# Convention : Reuss Voigt Hill
#
# Bulk Modulus (GPa) = 27.48897 57.87144 42.68021
# Shear Modulus (GPa) = 18.14556 25.99973 22.07265
#
# Velocity S-wave (km/s) = 3.29954 3.94959 3.63911
# Velocity P-wave (km/s) = 5.56854 7.45121 6.57759
#
# Compressibility (1/GPa) = 0.03637822
#
# Stress axis : x y z
#
# Youngs Moduli (GPa) = 67.36602 76.41755 37.95132
#
# Poissons Ratio (x) = 0.41174 0.18050
# Poissons Ratio (y) = 0.36297 -0.04529
# Poissons Ratio (z) = 0.32041 -0.09120
#
# Static dielectric constant tensor:
#      x y z
#    x 1.604390 0.000000 0.029100 
#    y 0.000000 1.613540 -0.000010 
#    z 0.029100 -0.000010 1.535700 
# 
# From -- ./inp_files/166843.got.cif
#   From: 2010.05.17/outbox.cif.g08.bks.cpg/sg12_84_cif.got.tgz:166843.got - 2010.06.03 13:09:07.
