data_PCOD9204217
_publ_section_title
;
Structure prediction by ZEFSAII (Michael W. Deem and Ramdas Pophale) SiO2 
 PCOD9204217
Probable space group: C 2/M
;
_chemical_formula_sum "Si O2"
_cell_formula_units_Z 44
_cell_length_a 9.254530
_cell_length_b 16.778414
_cell_length_c 24.086175
_cell_angle_alpha 90.000000
_cell_angle_beta 38.634193
_cell_angle_gamma 90.000000
_cell_volume 2335.061711
_symmetry_space_group_name_H-M "C 2/M"
_symmetry_group_IT_number 12
_symmetry_cell_setting 'monoclinic'
loop_
_space_group_symop_operation_xyz
x,y,z
-x,y,-z
-x,-y,-z
x,-y,z
1/2+x,1/2+y,z
1/2-x,1/2+y,-z
1/2-x,1/2-y,-z
1/2+x,1/2-y,z
loop_
_atom_site_type_symbol
_atom_site_label
_atom_site_fract_x
_atom_site_fract_y
_atom_site_fract_z
Si Si1 0.637252 0.359067 0.597772
Si Si2 0.984118 0.686637 0.881151
Si Si3 0.122057 0.588956 0.741183
Si Si4 0.403300 0.203425 0.716415
Si Si5 0.500000 0.770151 0.000000
Si Si6 0.538949 0.091883 0.401618
O O1 0.397820 0.401264 0.654904
O O2 0.570581 0.271967 0.641233
O O3 0.813203 0.362944 0.493561
O O4 0.770932 0.403691 0.607010
O O5 0.046525 0.609181 0.826655
O O6 0.169001 0.753136 0.805455
O O7 0.728108 0.716320 0.941447
O O8 0.014749 0.680403 0.938248
O O9 0.051926 0.500000 0.745896
O O10 0.014227 0.656945 0.734620
O O11 0.367095 0.138789 0.679353
O O12 0.481388 0.000000 0.407056
#
# Coordination Sequence:
#
# PCOD9204217 Si02
#       6
#     8   8   8   8   4   8
#     4  10  21  38  57  81 115 161 203 236 273 339
#     4  10  21  39  64  91 111 154 190 240 283 353
#     4  11  22  38  58  88 123 152 187 241 296 338
#     4  11  22  37  59  88 115 155 197 236 282 349
#     4  10  20  40  68  86 114 146 200 232 286 354
#     4  11  22  37  56  84 120 158 195 243 290 329
#
# _framework density 18.843185999999999
#
# number of rings (size 3 to 8) (size 9 to 14) (size 15 to 20)
#    0.000    1.455    1.818    5.455    2.545    2.182 
#    0.000    2.727    0.000    0.000    0.000    0.000 
#    0.000    0.000    0.000    0.000    0.000    0.000 
#
# Total GULP energy -122841.763117 kJ/mol
# GULP energy per Si atom -5583.716505 kJ/mol
# Density = 1.880030 g / cm^3
# Si number density = 18.843186 Si / 1000 Ang^3
#
#
#
# Elastic Constant Matrix: (Units=GPa)
#
#
# Indices 1 2 3 4 5 6 
#
# 1 67.3964 20.7747 34.3213 -0.0013 0.2833 -0.0010
# 2 20.7747 108.9340 33.2847 0.0016 1.5714 -0.0005
# 3 34.3213 33.2847 86.3368 0.0014 -0.6342 -0.0040
# 4 -0.0013 0.0016 0.0014 2.2088 0.0016 -7.5765
# 5 0.2833 1.5714 -0.6342 0.0016 39.1558 0.0015
# 6 -0.0010 -0.0005 -0.0040 -7.5765 0.0015 -0.6369
#
#
#
# Elastic Compliance Matrix: (Units=1/GPa)
#
#
# Indices 1 2 3 4 5 6 
#
# 1 0.018812 -0.001473 -0.006912 0.000002 -0.000189 -0.000004
# 2 -0.001473 0.010530 -0.003477 0.000001 -0.000468 0.000002
# 3 -0.006912 -0.003477 0.015674 -0.000007 0.000443 0.000001
# 4 0.000002 0.000001 -0.000007 0.010829 0.000004 -0.128830
# 5 -0.000189 -0.000468 0.000443 0.000004 0.025566 0.000007
# 6 -0.000004 0.000002 0.000001 -0.128830 0.000007 -0.037558
#
#
# Mechanical properties :
#
#
# Convention : Reuss Voigt Hill
#
# Bulk Modulus (GPa) = 46.96661 48.82540 47.89600
# Shear Modulus (GPa) = 66.95562 19.76465 43.36014
#
# Velocity S-wave (km/s) = 5.96743 3.24219 4.80219
# Velocity P-wave (km/s) = 8.51231 6.32324 7.49809
#
# Compressibility (1/GPa) = 0.02129172
#
# Stress axis : x y z
#
# Youngs Moduli (GPa) = 53.15670 94.96606 63.79945
#
# Poissons Ratio (x) = 0.13989 0.44098
# Poissons Ratio (y) = 0.07830 0.22186
# Poissons Ratio (z) = 0.36742 0.33024
#
# Static dielectric constant tensor:
#      x y z
#    x 1.659490 0.000000 0.024580 
#    y 0.000000 1.645450 0.000000 
#    z 0.024580 0.000000 1.655990 
# 
# From -- ./inp_files/333266.got.cif
#   From: 2010.05.17/outbox.cif.g08.bks.cpg/sg12_167_cif.got.tgz:333266.got - 2010.06.03 13:09:07.
