data_PCOD9204068
_publ_section_title
;
Structure prediction by ZEFSAII (Michael W. Deem and Ramdas Pophale) SiO2 
 PCOD9204068
Probable space group: C 2/M
;
_chemical_formula_sum "Si O2"
_cell_formula_units_Z 64
_cell_length_a 15.517074
_cell_length_b 17.643691
_cell_length_c 11.737071
_cell_angle_alpha 90.000000
_cell_angle_beta 83.092762
_cell_angle_gamma 90.000000
_cell_volume 3190.035170
_symmetry_space_group_name_H-M "C 2/M"
_symmetry_group_IT_number 12
_symmetry_cell_setting 'monoclinic'
loop_
_space_group_symop_operation_xyz
x,y,z
-x,y,-z
-x,-y,-z
x,-y,z
1/2+x,1/2+y,z
1/2-x,1/2+y,-z
1/2-x,1/2-y,-z
1/2+x,1/2-y,z
loop_
_atom_site_type_symbol
_atom_site_label
_atom_site_fract_x
_atom_site_fract_y
_atom_site_fract_z
Si Si1 0.712998 0.334513 0.517164
Si Si2 0.874911 0.589370 0.562623
Si Si3 0.916959 0.910383 0.097066
Si Si4 0.227093 0.908088 0.055445
Si Si5 0.081901 0.591761 0.910215
Si Si6 0.855117 0.909258 0.688832
Si Si7 0.026487 0.650784 0.674942
Si Si8 0.535222 0.328738 0.678611
O O1 0.750000 0.250000 0.500000
O O2 0.777415 0.381375 0.587814
O O3 0.708190 0.374337 0.395273
O O4 0.616555 0.335368 0.581808
O O5 0.878879 0.500000 0.543135
O O6 0.914291 0.630484 0.444153
O O7 0.935232 0.610934 0.659403
O O8 0.934950 0.860661 0.204380
O O9 0.908678 0.000000 0.128954
O O10 0.831379 0.884485 0.042071
O O11 0.000000 0.905146 0.000000
O O12 0.326603 0.882520 0.050248
O O13 0.177719 0.887802 0.180058
O O14 0.228045 0.000000 0.051058
O O15 0.083311 0.500000 0.905538
O O16 0.068739 0.621183 0.784233
O O17 0.000000 0.615221 0.000000
O O18 0.951175 0.876446 0.656469
O O19 0.855589 0.000000 0.679716
O O20 0.012099 0.740237 0.685720
#
# Coordination Sequence:
#
# PCOD9204068 Si02
#       8
#     8   8   8   8   8   8   8   8
#     4  12  25  42  61  95 141 170 208 270 339 393
#     4  11  23  42  70  93 118 172 225 266 318 389
#     4  10  20  40  64  92 130 171 223 277 325 396
#     4   9  19  38  66  94 122 164 215 271 327 380
#     4  10  21  39  64  93 126 164 214 273 321 377
#     4  11  23  41  68  96 126 171 222 268 322 397
#     4  11  23  42  62  90 129 168 214 266 323 391
#     4  12  25  39  65  93 135 179 207 264 341 397
#
# _framework density 20.062474000000002
#
# number of rings (size 3 to 8) (size 9 to 14) (size 15 to 20)
#    0.000    1.250    2.500    4.125    1.750    5.000 
#    0.000    1.875    0.000    0.000    0.000    0.000 
#    0.000    0.000    0.000    0.000    0.000    0.000 
#
# Total GULP energy -178908.666217 kJ/mol
# GULP energy per Si atom -5590.895819 kJ/mol
# Density = 2.001681 g / cm^3
# Si number density = 20.062474 Si / 1000 Ang^3
#
#
#
# Elastic Constant Matrix: (Units=GPa)
#
#
# Indices 1 2 3 4 5 6 
#
# 1 130.7156 28.6418 24.1612 0.0000 19.8205 0.0000
# 2 28.6418 101.5051 31.8404 0.0000 7.2349 0.0000
# 3 24.1612 31.8404 55.1348 0.0000 14.7229 0.0000
# 4 0.0000 0.0000 0.0000 -33.6847 0.0000 -14.9092
# 5 19.8205 7.2349 14.7229 0.0000 35.1330 0.0000
# 6 0.0000 0.0000 0.0000 -14.9092 0.0000 21.2327
#
#
#
# Elastic Compliance Matrix: (Units=1/GPa)
#
#
# Indices 1 2 3 4 5 6 
#
# 1 0.008960 -0.001643 -0.001935 0.000000 -0.003906 0.000000
# 2 -0.001643 0.012340 -0.006728 0.000000 0.001205 0.000000
# 3 -0.001935 -0.006728 0.025008 0.000000 -0.008003 0.000000
# 4 0.000000 0.000000 0.000000 -0.022648 0.000000 -0.015903
# 5 -0.003906 0.001205 -0.008003 0.000000 0.033772 0.000000
# 6 0.000000 0.000000 0.000000 -0.015903 0.000000 0.035930
#
#
# Mechanical properties :
#
#
# Convention : Reuss Voigt Hill
#
# Bulk Modulus (GPa) = 38.91652 50.73804 44.82728
# Shear Modulus (GPa) = 40.80335 18.05035 29.42685
#
# Velocity S-wave (km/s) = 4.51468 3.00277 3.83399
# Velocity P-wave (km/s) = 6.82760 6.11286 6.48009
#
# Compressibility (1/GPa) = 0.02569603
#
# Stress axis : x y z
#
# Youngs Moduli (GPa) = 111.60669 81.03780 39.98771
#
# Poissons Ratio (x) = 0.13315 0.07736
# Poissons Ratio (y) = 0.18337 0.26904
# Poissons Ratio (z) = 0.21592 0.54523
#
# Static dielectric constant tensor:
#      x y z
#    x 1.729980 0.000000 0.004070 
#    y 0.000000 1.672760 0.000000 
#    z 0.004070 0.000000 1.683050 
# 
# From -- ./inp_files/146138.got.cif
#   From: 2010.05.17/outbox.cif.g08.bks.cpg/sg12_74_cif.got.tgz:146138.got - 2010.06.03 13:09:07.
