data_PCOD9204941
_publ_section_title
;
Structure prediction by ZEFSAII (Michael W. Deem and Ramdas Pophale) SiO2 
 PCOD9204941
Probable space group: C 2/M
;
_chemical_formula_sum "Si O2"
_cell_formula_units_Z 42
_cell_length_a 14.881067
_cell_length_b 7.720817
_cell_length_c 15.929656
_cell_angle_alpha 90.000000
_cell_angle_beta 63.395474
_cell_angle_gamma 90.000000
_cell_volume 1636.435853
_symmetry_space_group_name_H-M "C 2/M"
_symmetry_group_IT_number 12
_symmetry_cell_setting 'monoclinic'
loop_
_space_group_symop_operation_xyz
x,y,z
-x,y,-z
-x,-y,-z
x,-y,z
1/2+x,1/2+y,z
1/2-x,1/2+y,-z
1/2-x,1/2-y,-z
1/2+x,1/2-y,z
loop_
_atom_site_type_symbol
_atom_site_label
_atom_site_fract_x
_atom_site_fract_y
_atom_site_fract_z
Si Si1 0.388661 0.293490 0.699609
Si Si2 0.752220 0.799128 0.903089
Si Si3 0.684523 0.794024 0.692567
Si Si4 0.500000 0.500000 0.500000
Si Si5 0.440013 0.690066 0.102332
Si Si6 0.600712 0.196801 0.553770
O O1 0.413833 0.500000 0.667758
O O2 0.356533 0.282492 0.810370
O O3 0.288156 0.234896 0.692666
O O4 0.488243 0.190041 0.640405
O O5 0.670026 0.684517 0.892116
O O6 0.722433 0.000000 0.903279
O O7 0.750000 0.750000 0.000000
O O8 0.588945 0.755534 0.792981
O O9 0.668444 0.738213 0.603578
O O10 0.691856 0.000000 0.687623
O O11 0.582315 0.345117 0.493406
O O12 0.487197 0.500000 0.093004
O O13 0.500000 0.780707 0.000000
O O14 0.626405 0.000000 0.516504
#
# Coordination Sequence:
#
# PCOD9204941 Si02
#       6
#     8   8   8   2   8   8
#     4   9  19  40  64  90 128 173 211 264 325 381
#     4  10  21  35  54  82 124 166 215 265 308 365
#     4   9  21  40  64  92 127 169 215 261 320 386
#     4  12  26  48  72 102 134 158 212 276 332 396
#     4  10  21  34  52  83 123 164 213 262 308 368
#     4  11  24  44  73  99 130 170 210 267 331 401
#
# _framework density 25.665535999999999
#
# number of rings (size 3 to 8) (size 9 to 14) (size 15 to 20)
#    0.000    2.095    0.952    2.571    4.000    5.333 
#    0.000    0.952    0.000    0.000    0.000    0.000 
#    0.000    0.000    0.000    0.000    0.000    0.000 
#
# Total GULP energy -117125.271067 kJ/mol
# GULP energy per Si atom -5577.393860 kJ/mol
# Density = 2.560712 g / cm^3
# Si number density = 25.665536 Si / 1000 Ang^3
#
#
#
# Elastic Constant Matrix: (Units=GPa)
#
#
# Indices 1 2 3 4 5 6 
#
# 1 68.2261 5.4735 20.0327 0.0000 10.3763 0.0000
# 2 5.4735 101.1656 39.3478 0.0001 -3.6017 0.0001
# 3 20.0327 39.3478 143.5024 0.0000 3.8677 0.0000
# 4 0.0000 0.0001 0.0000 -9.0787 0.0000 5.1335
# 5 10.3763 -3.6017 3.8677 0.0000 48.4181 0.0000
# 6 0.0000 0.0001 0.0000 5.1335 0.0000 22.4046
#
#
#
# Elastic Compliance Matrix: (Units=1/GPa)
#
#
# Indices 1 2 3 4 5 6 
#
# 1 0.015769 -0.000163 -0.002070 0.000000 -0.003226 0.000000
# 2 -0.000163 0.011122 -0.003057 0.000000 0.001106 0.000000
# 3 -0.002070 -0.003057 0.008107 0.000000 -0.000431 0.000000
# 4 0.000000 0.000000 0.000000 -0.097514 0.000000 0.022343
# 5 -0.003226 0.001106 -0.000431 0.000000 0.021462 0.000000
# 6 0.000000 0.000000 0.000000 0.022343 0.000000 0.039514
#
#
# Mechanical properties :
#
#
# Convention : Reuss Voigt Hill
#
# Bulk Modulus (GPa) = 40.95167 49.17803 45.06485
# Shear Modulus (GPa) = 291.07238 28.88480 159.97859
#
# Velocity S-wave (km/s) = 10.66096 3.35838 7.90363
# Velocity P-wave (km/s) = 12.94341 5.85158 10.04423
#
# Compressibility (1/GPa) = 0.02441903
#
# Stress axis : x y z
#
# Youngs Moduli (GPa) = 63.41729 89.91312 123.34743
#
# Poissons Ratio (x) = 0.01466 0.25528
# Poissons Ratio (y) = 0.01034 0.37703
# Poissons Ratio (z) = 0.13125 0.27483
#
# Static dielectric constant tensor:
#      x y z
#    x 1.492730 0.000000 -0.797700 
#    y 0.000000 2.022400 0.000000 
#    z -0.797700 0.000000 0.820380 
# 
# From -- ./inp_files/267078.got.cif
#   From: 2010.05.17/outbox.cif.g08.bks.cpg/sg12_134_cif.got.tgz:267078.got - 2010.06.03 13:09:07.
