data_PCOD9204915
_publ_section_title
;
Structure prediction by ZEFSAII (Michael W. Deem and Ramdas Pophale) SiO2 
 PCOD9204915
Probable space group: C 2/M
;
_chemical_formula_sum "Si O2"
_cell_formula_units_Z 64
_cell_length_a 25.942402
_cell_length_b 13.998424
_cell_length_c 10.185305
_cell_angle_alpha 90.000000
_cell_angle_beta 87.483117
_cell_angle_gamma 90.000000
_cell_volume 3695.253287
_symmetry_space_group_name_H-M "C 2/M"
_symmetry_group_IT_number 12
_symmetry_cell_setting 'monoclinic'
loop_
_space_group_symop_operation_xyz
x,y,z
-x,y,-z
-x,-y,-z
x,-y,z
1/2+x,1/2+y,z
1/2-x,1/2+y,-z
1/2-x,1/2-y,-z
1/2+x,1/2-y,z
loop_
_atom_site_type_symbol
_atom_site_label
_atom_site_fract_x
_atom_site_fract_y
_atom_site_fract_z
Si Si1 0.307492 0.613964 0.599261
Si Si2 0.542745 0.387903 0.101467
Si Si3 0.311078 0.887158 0.440695
Si Si4 0.195260 0.887362 0.876593
Si Si5 0.847607 0.799214 0.865684
Si Si6 0.866744 0.208551 0.348043
Si Si7 0.472945 0.390661 0.363123
Si Si8 0.811253 0.390382 0.754909
O O1 0.310722 0.500000 0.587559
O O2 0.246965 0.640280 0.597003
O O3 0.332033 0.647491 0.732851
O O4 0.337669 0.659444 0.474311
O O5 0.554861 0.500000 0.074912
O O6 0.595446 0.329719 0.095954
O O7 0.515467 0.380594 0.245533
O O8 0.500000 0.357966 0.000000
O O9 0.351411 0.819282 0.363007
O O10 0.314578 0.872648 0.597937
O O11 0.318200 0.000000 0.414618
O O12 0.155840 0.838279 0.780719
O O13 0.251832 0.880171 0.806308
O O14 0.183452 0.000000 0.894501
O O15 0.190698 0.834032 0.015657
O O16 0.842784 0.687876 0.831885
O O17 0.926590 0.182923 0.351125
O O18 0.500000 0.379859 0.500000
O O19 0.452035 0.500000 0.356683
O O20 0.826903 0.500000 0.777278
#
# Coordination Sequence:
#
# PCOD9204915 Si02
#       8
#     8   8   8   8   8   8   8   8
#     4  11  20  32  55  85 114 144 185 228 270 333
#     4  10  21  38  56  77 111 146 179 224 282 338
#     4  10  21  37  56  82 115 150 189 231 274 324
#     4  11  22  35  54  85 120 148 180 223 277 338
#     4  12  22  36  58  85 112 151 190 227 274 332
#     4  12  20  35  58  78 107 152 190 221 277 336
#     4  10  21  34  51  79 109 136 176 233 282 325
#     4  10  21  38  56  81 116 151 188 230 273 324
#
# _framework density 17.319517000000001
#
# number of rings (size 3 to 8) (size 9 to 14) (size 15 to 20)
#    0.000    1.250    2.500    5.250    0.000    2.000 
#    0.000    1.875    0.000    1.500    0.000    0.000 
#    0.000    0.000    0.000    0.000    0.000    0.000 
#
# Total GULP energy -178837.486769 kJ/mol
# GULP energy per Si atom -5588.671462 kJ/mol
# Density = 1.728010 g / cm^3
# Si number density = 17.319517 Si / 1000 Ang^3
#
#
#
# Elastic Constant Matrix: (Units=GPa)
#
#
# Indices 1 2 3 4 5 6 
#
# 1 60.4675 36.6081 -6.5777 0.0000 7.4273 0.0000
# 2 36.6081 85.0938 10.5883 0.0000 10.3978 0.0000
# 3 -6.5777 10.5883 65.1446 0.0000 14.4685 0.0000
# 4 0.0000 0.0000 0.0000 13.2661 0.0000 7.1084
# 5 7.4273 10.3978 14.4685 0.0000 16.9935 0.0000
# 6 0.0000 0.0000 0.0000 7.1084 0.0000 32.6711
#
#
#
# Elastic Compliance Matrix: (Units=1/GPa)
#
#
# Indices 1 2 3 4 5 6 
#
# 1 0.024597 -0.010157 0.006341 0.000000 -0.009935 0.000000
# 2 -0.010157 0.016905 -0.003036 0.000000 -0.003319 0.000000
# 3 0.006341 -0.003036 0.020578 0.000000 -0.018435 0.000000
# 4 0.000000 0.000000 0.000000 0.085328 0.000000 -0.018565
# 5 -0.009935 -0.003319 -0.018435 0.000000 0.080915 0.000000
# 6 0.000000 0.000000 0.000000 -0.018565 0.000000 0.034647
#
#
# Mechanical properties :
#
#
# Convention : Reuss Voigt Hill
#
# Bulk Modulus (GPa) = 20.67130 32.43813 26.55472
# Shear Modulus (GPa) = 17.07650 23.92527 20.50089
#
# Velocity S-wave (km/s) = 3.14342 3.72076 3.44421
# Velocity P-wave (km/s) = 5.01358 6.10153 5.58411
#
# Compressibility (1/GPa) = 0.04837624
#
# Stress axis : x y z
#
# Youngs Moduli (GPa) = 40.65528 59.15509 48.59453
#
# Poissons Ratio (x) = 0.60084 -0.30813
# Poissons Ratio (y) = 0.41293 0.14753
# Poissons Ratio (z) = -0.25779 0.17959
#
# Static dielectric constant tensor:
#      x y z
#    x 1.565890 0.000000 -0.002560 
#    y 0.000000 1.599640 0.000000 
#    z -0.002560 0.000000 1.581120 
# 
# From -- ./inp_files/96864.got.cif
#   From: 2010.05.17/outbox.cif.g08.bks.cpg/sg12_49_cif.got.tgz:96864.got - 2010.06.03 13:09:07.
