data_PCOD9204292
_publ_section_title
;
Structure prediction by ZEFSAII (Michael W. Deem and Ramdas Pophale) SiO2 
 PCOD9204292
Probable space group: C 2/M
;
_chemical_formula_sum "Si O2"
_cell_formula_units_Z 48
_cell_length_a 10.111189
_cell_length_b 29.069941
_cell_length_c 9.109232
_cell_angle_alpha 90.000000
_cell_angle_beta 89.278727
_cell_angle_gamma 90.000000
_cell_volume 2677.279601
_symmetry_space_group_name_H-M "C 2/M"
_symmetry_group_IT_number 12
_symmetry_cell_setting 'monoclinic'
loop_
_space_group_symop_operation_xyz
x,y,z
-x,y,-z
-x,-y,-z
x,-y,z
1/2+x,1/2+y,z
1/2-x,1/2+y,-z
1/2-x,1/2-y,-z
1/2+x,1/2-y,z
loop_
_atom_site_type_symbol
_atom_site_label
_atom_site_fract_x
_atom_site_fract_y
_atom_site_fract_z
Si Si1 0.024766 0.148389 0.324981
Si Si2 0.274162 0.689090 0.162252
Si Si3 0.596673 0.449734 0.357763
Si Si4 0.756641 0.297143 0.183804
Si Si5 0.591467 0.948192 0.642363
Si Si6 0.496812 0.860452 0.825923
O O1 0.903233 0.169277 0.237474
O O2 0.000000 0.148074 0.500000
O O3 0.053140 0.095964 0.274138
O O4 0.152826 0.178560 0.290127
O O5 0.255341 0.742520 0.203811
O O6 0.148968 0.657972 0.209118
O O7 0.282436 0.690609 0.984367
O O8 0.500000 0.451391 0.500000
O O9 0.585130 0.500000 0.284234
O O10 0.751865 0.443529 0.395887
O O11 0.900284 0.319232 0.206553
O O12 0.500000 0.946196 0.500000
O O13 0.544593 0.906423 0.744721
O O14 0.575068 0.000000 0.706431
O O15 0.500000 0.868840 0.000000
#
# Coordination Sequence:
#
# PCOD9204292 Si02
#       6
#     8   8   8   8   8   8
#     4  11  22  35  57  89 114 147 183 235 289 324
#     4  10  22  37  61  81 112 153 194 225 273 343
#     4   9  19  36  57  81 113 149 186 225 278 340
#     4  10  20  41  59  80 110 155 194 228 272 338
#     4  10  21  37  60  84 110 150 191 229 280 342
#     4  10  21  36  57  85 112 146 188 237 281 321
#
# _framework density 17.928647000000002
#
# number of rings (size 3 to 8) (size 9 to 14) (size 15 to 20)
#    0.000    2.000    1.667    1.500    4.667    3.667 
#    0.000    1.667    0.000    3.000    0.000    0.000 
#    0.000    0.000    0.000    0.000    0.000    0.000 
#
# Total GULP energy -133828.746131 kJ/mol
# GULP energy per Si atom -5576.197755 kJ/mol
# Density = 1.788784 g / cm^3
# Si number density = 17.928647 Si / 1000 Ang^3
#
#
#
# Elastic Constant Matrix: (Units=GPa)
#
#
# Indices 1 2 3 4 5 6 
#
# 1 91.5094 38.1217 28.4589 0.0000 -11.0682 0.0000
# 2 38.1217 134.5419 34.7640 0.0000 -12.3209 0.0000
# 3 28.4589 34.7640 17.3261 0.0000 -8.0652 0.0000
# 4 0.0000 0.0000 0.0000 7.9946 0.0000 -0.4801
# 5 -11.0682 -12.3209 -8.0652 0.0000 25.6248 0.0000
# 6 0.0000 0.0000 0.0000 -0.4801 0.0000 37.9098
#
#
#
# Elastic Compliance Matrix: (Units=1/GPa)
#
#
# Indices 1 2 3 4 5 6 
#
# 1 0.025841 0.007806 -0.059947 0.000000 -0.003953 0.000000
# 2 0.007806 0.017957 -0.050688 0.000000 -0.003948 0.000000
# 3 -0.059947 -0.050688 0.274739 0.000000 0.036207 0.000000
# 4 0.000000 0.000000 0.000000 0.125179 0.000000 0.001585
# 5 -0.003953 -0.003948 0.036207 0.000000 0.046815 0.000000
# 6 0.000000 0.000000 0.000000 0.001585 0.000000 0.026398
#
#
# Mechanical properties :
#
#
# Convention : Reuss Voigt Hill
#
# Bulk Modulus (GPa) = 8.85909 49.56294 29.21102
# Shear Modulus (GPa) = 6.57709 23.77471 15.17590
#
# Velocity S-wave (km/s) = 1.91741 3.64548 2.91256
# Velocity P-wave (km/s) = 3.13910 6.73973 5.25728
#
# Compressibility (1/GPa) = 0.11287846
#
# Stress axis : x y z
#
# Youngs Moduli (GPa) = 38.69810 55.68990 3.63981
#
# Poissons Ratio (x) = -0.43469 0.21820
# Poissons Ratio (y) = -0.30206 0.18450
# Poissons Ratio (z) = 2.31983 2.82281
#
# Static dielectric constant tensor:
#      x y z
#    x 1.600590 0.000000 -0.010070 
#    y 0.000000 1.624100 0.000000 
#    z -0.010070 0.000000 1.587690 
# 
# From -- ./inp_files/42167.got.cif
#   From: 2010.05.17/outbox.cif.g08.bks.cpg/sg12_22_cif.got.tgz:42167.got - 2010.06.03 13:09:07.
