data_PCOD9204159
_publ_section_title
;
Structure prediction by ZEFSAII (Michael W. Deem and Ramdas Pophale) SiO2 
 PCOD9204159
Probable space group: C 2/M
;
_chemical_formula_sum "Si O2"
_cell_formula_units_Z 40
_cell_length_a 18.867737
_cell_length_b 7.538557
_cell_length_c 20.750989
_cell_angle_alpha 90.000000
_cell_angle_beta 46.385285
_cell_angle_gamma 90.000000
_cell_volume 2136.890358
_symmetry_space_group_name_H-M "C 2/M"
_symmetry_group_IT_number 12
_symmetry_cell_setting 'monoclinic'
loop_
_space_group_symop_operation_xyz
x,y,z
-x,y,-z
-x,-y,-z
x,-y,z
1/2+x,1/2+y,z
1/2-x,1/2+y,-z
1/2-x,1/2-y,-z
1/2+x,1/2-y,z
loop_
_atom_site_type_symbol
_atom_site_label
_atom_site_fract_x
_atom_site_fract_y
_atom_site_fract_z
Si Si1 0.335530 0.000000 0.602056
Si Si2 0.331015 0.787387 0.286041
Si Si3 0.501953 0.709929 0.281169
Si Si4 0.972809 0.702952 0.085399
Si Si5 0.136869 0.210089 0.080910
Si Si6 0.497930 0.000000 0.609445
O O1 0.265751 0.827881 0.644967
O O2 0.403401 0.000000 0.622759
O O3 0.407620 0.000000 0.495832
O O4 0.406514 0.748622 0.297000
O O5 0.387499 0.725846 0.185309
O O6 0.314778 0.000000 0.293538
O O7 0.506313 0.500000 0.292158
O O8 0.593573 0.761420 0.177678
O O9 0.501041 0.829268 0.344820
O O10 0.942715 0.500000 0.090566
O O11 0.069458 0.703230 0.068819
O O12 0.000000 0.787973 0.000000
O O13 0.120771 0.000000 0.085246
O O14 0.250000 0.250000 0.000000
#
# Coordination Sequence:
#
# PCOD9204159 Si02
#       6
#     4   8   8   8   8   4
#     4  11  26  44  61  94 127 151 208 259 311 379
#     4  10  20  40  66  90 124 162 203 260 304 353
#     4  10  21  41  65  91 121 161 210 253 299 365
#     4   9  19  35  56  84 120 156 196 241 291 350
#     4  10  21  34  55  85 119 156 197 241 286 349
#     4  11  26  44  64  90 126 163 193 261 323 363
#
# _framework density 18.718789000000001
#
# number of rings (size 3 to 8) (size 9 to 14) (size 15 to 20)
#    0.000    2.000    2.000    0.600    4.200    4.400 
#    0.000    6.000    0.000    0.000    0.000    0.000 
#    0.000    0.000    0.000    0.000    0.000    0.000 
#
# Total GULP energy -111624.198998 kJ/mol
# GULP energy per Si atom -5581.209950 kJ/mol
# Density = 1.867618 g / cm^3
# Si number density = 18.718789 Si / 1000 Ang^3
#
#
#
# Elastic Constant Matrix: (Units=GPa)
#
#
# Indices 1 2 3 4 5 6 
#
# 1 86.3918 44.4233 102.3444 0.0000 -4.6447 0.0000
# 2 44.4233 113.3236 66.4482 -0.0002 4.3187 0.0001
# 3 102.3444 66.4482 158.6626 0.0001 4.2706 0.0000
# 4 0.0000 -0.0002 0.0001 36.6718 0.0000 -3.5572
# 5 -4.6447 4.3187 4.2706 0.0000 39.1341 0.0000
# 6 0.0000 0.0001 0.0000 -3.5572 0.0000 20.3345
#
#
#
# Elastic Compliance Matrix: (Units=1/GPa)
#
#
# Indices 1 2 3 4 5 6 
#
# 1 0.052846 -0.001264 -0.033830 0.000000 0.010103 0.000000
# 2 -0.001264 0.011749 -0.004078 0.000000 -0.001002 0.000000
# 3 -0.033830 -0.004078 0.030017 0.000000 -0.006841 0.000000
# 4 0.000000 0.000000 0.000000 0.027740 0.000000 0.004853
# 5 0.010103 -0.001002 -0.006841 0.000000 0.027609 0.000000
# 6 0.000000 0.000000 0.000000 0.004853 0.000000 0.050026
#
#
# Mechanical properties :
#
#
# Convention : Reuss Voigt Hill
#
# Bulk Modulus (GPa) = 61.47633 87.20110 74.33871
# Shear Modulus (GPa) = 17.62087 28.90554 23.26321
#
# Velocity S-wave (km/s) = 3.07147 3.93389 3.52912
# Velocity P-wave (km/s) = 6.74477 8.20487 7.51039
#
# Compressibility (1/GPa) = 0.01626642
#
# Stress axis : x y z
#
# Youngs Moduli (GPa) = 18.92308 85.11131 33.31464
#
# Poissons Ratio (x) = 0.10759 1.12704
# Poissons Ratio (y) = 0.02392 0.13587
# Poissons Ratio (z) = 0.64017 0.34711
#
# Static dielectric constant tensor:
#      x y z
#    x 1.609750 0.000000 0.006640 
#    y 0.000000 1.672180 0.000000 
#    z 0.006640 0.000000 1.656700 
# 
# From -- ./inp_files/273956.got.cif
#   From: 2010.05.17/outbox.cif.g08.bks.cpg/sg12_137_cif.got.tgz:273956.got - 2010.06.03 13:09:07.
