data_PCOD9204612
_publ_section_title
;
Structure prediction by ZEFSAII (Michael W. Deem and Ramdas Pophale) SiO2 
 PCOD9204612
Probable space group: C 2/M
;
_chemical_formula_sum "Si O2"
_cell_formula_units_Z 56
_cell_length_a 9.826749
_cell_length_b 23.198737
_cell_length_c 17.101302
_cell_angle_alpha 90.000000
_cell_angle_beta 143.160423
_cell_angle_gamma 90.000000
_cell_volume 2337.480665
_symmetry_space_group_name_H-M "C 2/M"
_symmetry_group_IT_number 12
_symmetry_cell_setting 'monoclinic'
loop_
_space_group_symop_operation_xyz
x,y,z
-x,y,-z
-x,-y,-z
x,-y,z
1/2+x,1/2+y,z
1/2-x,1/2+y,-z
1/2-x,1/2-y,-z
1/2+x,1/2-y,z
loop_
_atom_site_type_symbol
_atom_site_label
_atom_site_fract_x
_atom_site_fract_y
_atom_site_fract_z
Si Si1 0.767694 0.129461 0.620803
Si Si2 0.373304 0.896700 0.759928
Si Si3 0.267683 0.435476 0.145594
Si Si4 0.308705 0.329001 0.463452
Si Si5 0.021891 0.717311 0.921806
Si Si6 0.323238 0.186873 0.273716
Si Si7 0.267204 0.436654 0.846875
O O1 0.500000 0.103709 0.500000
O O2 0.838691 0.146706 0.565082
O O3 0.729148 0.183782 0.659089
O O4 0.995732 0.098918 0.762549
O O5 0.239268 0.930086 0.764048
O O6 0.243526 0.881143 0.621016
O O7 0.458130 0.835388 0.835249
O O8 0.583968 0.934235 0.831290
O O9 0.304139 0.500000 0.133195
O O10 0.000000 0.422458 0.000000
O O11 0.500000 0.297748 0.500000
O O12 0.075682 0.294847 0.367302
O O13 0.840241 0.767966 0.839043
O O14 0.000000 0.694475 0.000000
O O15 0.250000 0.750000 0.000000
O O16 0.284572 0.120925 0.226721
O O17 0.257724 0.500000 0.803335
O O18 0.500000 0.429901 0.000000
#
# Coordination Sequence:
#
# PCOD9204612 Si02
#       7
#     8   8   8   8   8   8   8
#     4  10  23  45  73  99 145 187 243 301 365 443
#     4  11  23  42  68  97 140 185 240 297 363 432
#     4  11  25  42  67 104 143 186 239 298 365 433
#     4  10  20  44  71  95 135 182 249 296 356 435
#     4  12  26  43  69 105 147 192 242 297 369 446
#     4  10  23  42  66 102 139 180 244 299 359 432
#     4  10  21  39  66  98 138 184 232 293 364 434
#
# _framework density 23.957418000000001
#
# number of rings (size 3 to 8) (size 9 to 14) (size 15 to 20)
#    0.000    1.429    1.429    3.857    6.000    0.857 
#    0.000   10.714    0.000    0.000    0.000    0.000 
#    0.000    0.000    0.000    0.000    0.000    0.000 
#
# Total GULP energy -156082.721898 kJ/mol
# GULP energy per Si atom -5574.382925 kJ/mol
# Density = 2.390289 g / cm^3
# Si number density = 23.957418 Si / 1000 Ang^3
#
#
#
# Elastic Constant Matrix: (Units=GPa)
#
#
# Indices 1 2 3 4 5 6 
#
# 1 169.3511 30.1813 47.2673 0.0029 11.3471 -0.0007
# 2 30.1813 126.6590 46.0757 0.0048 7.8136 0.0008
# 3 47.2673 46.0757 108.3900 0.0402 30.1092 0.0078
# 4 0.0029 0.0048 0.0402 -1.2777 0.0024 -1.2295
# 5 11.3471 7.8136 30.1092 0.0024 53.6005 -0.0022
# 6 -0.0007 0.0008 0.0078 -1.2295 -0.0022 22.2420
#
#
#
# Elastic Compliance Matrix: (Units=1/GPa)
#
#
# Indices 1 2 3 4 5 6 
#
# 1 0.006768 -0.000629 -0.002739 -0.000070 0.000197 -0.000003
# 2 -0.000629 0.009446 -0.004024 -0.000087 0.001016 -0.000004
# 3 -0.002739 -0.004024 0.013990 0.000391 -0.006692 0.000016
# 4 -0.000070 -0.000087 0.000391 -0.743121 -0.000161 -0.041080
# 5 0.000197 0.001016 -0.006692 -0.000161 0.022226 -0.000004
# 6 -0.000003 -0.000004 0.000016 -0.041080 -0.000004 0.042689
#
#
# Mechanical properties :
#
#
# Convention : Reuss Voigt Hill
#
# Bulk Modulus (GPa) = 64.84543 72.38320 68.61432
# Shear Modulus (GPa) = -7.96078 33.63802 12.83862
#
# Velocity S-wave (km/s) = -1.82486 3.75116 2.31745
# Velocity P-wave (km/s) = 4.76294 7.00289 5.98858
#
# Compressibility (1/GPa) = 0.01542129
#
# Stress axis : x y z
#
# Youngs Moduli (GPa) = 147.74982 105.86509 71.48136
#
# Poissons Ratio (x) = 0.06654 0.19580
# Poissons Ratio (y) = 0.09286 0.28761
# Poissons Ratio (z) = 0.40471 0.42596
#
# Static dielectric constant tensor:
#      x y z
#    x 2.471610 -0.000060 -0.046590 
#    y -0.000060 1.892340 0.000010 
#    z -0.046590 0.000010 2.099430 
# 
# From -- ./inp_files/259885.got.cif
#   From: 2010.05.17/outbox.cif.g08.bks.cpg/sg12_130_cif.got.tgz:259885.got - 2010.06.03 13:09:07.
