data_PCOD9204222
_publ_section_title
;
Structure prediction by ZEFSAII (Michael W. Deem and Ramdas Pophale) SiO2 
 PCOD9204222
Probable space group: C 2/M
;
_chemical_formula_sum "Si O2"
_cell_formula_units_Z 44
_cell_length_a 8.990007
_cell_length_b 17.318283
_cell_length_c 20.471017
_cell_angle_alpha 90.000000
_cell_angle_beta 46.773129
_cell_angle_gamma 90.000000
_cell_volume 2322.318395
_symmetry_space_group_name_H-M "C 2/M"
_symmetry_group_IT_number 12
_symmetry_cell_setting 'monoclinic'
loop_
_space_group_symop_operation_xyz
x,y,z
-x,y,-z
-x,-y,-z
x,-y,z
1/2+x,1/2+y,z
1/2-x,1/2+y,-z
1/2-x,1/2-y,-z
1/2+x,1/2-y,z
loop_
_atom_site_type_symbol
_atom_site_label
_atom_site_fract_x
_atom_site_fract_y
_atom_site_fract_z
Si Si1 0.039693 0.091483 0.728873
Si Si2 0.054767 0.803940 0.126071
Si Si3 0.955833 0.680203 0.585771
Si Si4 0.742453 0.590707 0.415193
Si Si5 0.000000 0.238311 0.000000
Si Si6 0.752290 0.317946 0.280156
O O1 0.257486 0.125495 0.641457
O O2 0.006863 0.123502 0.811767
O O3 0.864194 0.129567 0.737080
O O4 0.035623 0.000000 0.725554
O O5 0.295928 0.789208 0.057557
O O6 0.940228 0.729062 0.191898
O O7 0.992420 0.809402 0.069361
O O8 0.901397 0.751221 0.648979
O O9 0.000000 0.709285 0.500000
O O10 0.139667 0.632503 0.561716
O O11 0.500000 0.596811 0.500000
O O12 0.794712 0.500000 0.397106
O O13 0.803255 0.632247 0.329052
#
# Coordination Sequence:
#
# PCOD9204222 Si02
#       6
#     8   8   8   8   4   8
#     4  11  23  39  60  90 125 155 193 244 299 351
#     4  10  21  39  66  93 115 156 195 244 292 360
#     4  11  23  39  60  86 118 161 207 246 284 340
#     4  11  24  39  57  85 123 162 199 241 294 346
#     4  10  20  40  68  90 118 148 202 242 296 354
#     4  11  22  39  62  89 117 158 200 245 288 348
#
# _framework density 18.946583
#
# number of rings (size 3 to 8) (size 9 to 14) (size 15 to 20)
#    0.000    1.273    1.818    4.909    2.545    5.091 
#    0.000    0.909    0.000    0.000    0.000    0.000 
#    0.000    0.000    0.000    0.000    0.000    0.000 
#
# Total GULP energy -123019.611002 kJ/mol
# GULP energy per Si atom -5591.800500 kJ/mol
# Density = 1.890346 g / cm^3
# Si number density = 18.946583 Si / 1000 Ang^3
#
#
#
# Elastic Constant Matrix: (Units=GPa)
#
#
# Indices 1 2 3 4 5 6 
#
# 1 65.8738 6.7263 14.1334 0.0004 10.1912 0.0002
# 2 6.7263 104.3065 15.8963 0.0006 7.1375 0.0001
# 3 14.1334 15.8963 89.0690 0.0017 15.6002 -0.0001
# 4 0.0004 0.0006 0.0017 3.8926 0.0000 3.1980
# 5 10.1912 7.1375 15.6002 0.0000 36.7505 -0.0004
# 6 0.0002 0.0001 -0.0001 3.1980 -0.0004 15.0059
#
#
#
# Elastic Compliance Matrix: (Units=1/GPa)
#
#
# Indices 1 2 3 4 5 6 
#
# 1 0.016187 -0.000516 -0.001845 -0.000001 -0.003605 0.000000
# 2 -0.000516 0.009926 -0.001488 -0.000001 -0.001153 0.000000
# 3 -0.001845 -0.001488 0.012581 -0.000006 -0.004540 0.000001
# 4 -0.000001 -0.000001 -0.000006 0.311426 0.000002 -0.066370
# 5 -0.003605 -0.001153 -0.004540 0.000002 0.030361 0.000000
# 6 0.000000 0.000000 0.000001 -0.066370 0.000000 0.080785
#
#
# Mechanical properties :
#
#
# Convention : Reuss Voigt Hill
#
# Bulk Modulus (GPa) = 32.26183 36.97348 34.61766
# Shear Modulus (GPa) = 10.43199 25.96269 18.19734
#
# Velocity S-wave (km/s) = 2.34903 3.70579 3.10248
# Velocity P-wave (km/s) = 4.94186 6.15365 5.58075
#
# Compressibility (1/GPa) = 0.03099639
#
# Stress axis : x y z
#
# Youngs Moduli (GPa) = 61.77855 100.74519 79.48721
#
# Poissons Ratio (x) = 0.05198 0.14665
# Poissons Ratio (y) = 0.03187 0.11825
# Poissons Ratio (z) = 0.11398 0.14988
#
# Static dielectric constant tensor:
#      x y z
#    x 1.657780 0.000000 0.006580 
#    y 0.000000 1.619140 0.000000 
#    z 0.006580 0.000000 1.669280 
# 
# From -- ./inp_files/195396.got.cif
#   From: 2010.05.17/outbox.cif.g08.bks.cpg/sg12_98_cif.got.tgz:195396.got - 2010.06.03 13:09:07.
