data_PCOD9204892
_publ_section_title
;
Structure prediction by ZEFSAII (Michael W. Deem and Ramdas Pophale) SiO2 
 PCOD9204892
Probable space group: C 2/M
;
_chemical_formula_sum "Si O2"
_cell_formula_units_Z 40
_cell_length_a 14.474907
_cell_length_b 29.196235
_cell_length_c 4.965835
_cell_angle_alpha 90.000000
_cell_angle_beta 56.766163
_cell_angle_gamma 90.000000
_cell_volume 1755.375869
_symmetry_space_group_name_H-M "C 2/M"
_symmetry_group_IT_number 12
_symmetry_cell_setting 'monoclinic'
loop_
_space_group_symop_operation_xyz
x,y,z
-x,y,-z
-x,-y,-z
x,-y,z
1/2+x,1/2+y,z
1/2-x,1/2+y,-z
1/2-x,1/2-y,-z
1/2+x,1/2-y,z
loop_
_atom_site_type_symbol
_atom_site_label
_atom_site_fract_x
_atom_site_fract_y
_atom_site_fract_z
Si Si1 0.762392 0.646630 0.595574
Si Si2 0.424161 0.226949 0.366783
Si Si3 0.763899 0.947526 0.193022
Si Si4 0.631596 0.320031 0.326173
Si Si5 0.093234 0.946667 0.540851
O O1 0.857956 0.682699 0.378598
O O2 0.806898 0.596668 0.611040
O O3 0.679523 0.646316 0.475176
O O4 0.694087 0.667852 0.953802
O O5 0.500000 0.214287 0.500000
O O6 0.348405 0.268629 0.593148
O O7 0.500000 0.244247 0.000000
O O8 0.871876 0.937171 0.208301
O O9 0.728457 0.000000 0.309025
O O10 0.799258 0.945493 0.825892
O O11 0.500000 0.322172 0.500000
O O12 0.000000 0.923711 0.500000
O O13 0.060673 0.000000 0.614646
#
# Coordination Sequence:
#
# PCOD9204892 Si02
#       5
#     8   8   8   8   8
#     4  12  23  38  62  87 118 158 196 236 289 347
#     4  11  23  42  64  87 116 150 195 247 297 347
#     4  10  21  34  50  76 110 149 190 233 278 326
#     4  11  23  39  59  90 123 152 188 234 290 355
#     4   9  17  30  47  68 101 146 190 227 268 324
#
# _framework density 22.787144000000001
#
# number of rings (size 3 to 8) (size 9 to 14) (size 15 to 20)
#    0.000    1.400    0.000    7.200    0.000    7.200 
#    0.000    0.000    0.000    1.200    0.000    0.000 
#    0.000    0.000    0.000    0.000    0.000    0.000 
#
# Total GULP energy -111695.533116 kJ/mol
# GULP energy per Si atom -5584.776656 kJ/mol
# Density = 2.273528 g / cm^3
# Si number density = 22.787144 Si / 1000 Ang^3
#
#
#
# Elastic Constant Matrix: (Units=GPa)
#
#
# Indices 1 2 3 4 5 6 
#
# 1 50.1969 9.5826 20.7368 0.0000 26.0176 0.0000
# 2 9.5826 134.6269 1.7840 0.0000 -8.3248 0.0000
# 3 20.7368 1.7840 77.5655 0.0000 36.4190 0.0000
# 4 0.0000 0.0000 0.0000 23.2740 0.0000 8.7594
# 5 26.0176 -8.3248 36.4190 0.0000 32.4322 0.0000
# 6 0.0000 0.0000 0.0000 8.7594 0.0000 14.3597
#
#
#
# Elastic Compliance Matrix: (Units=1/GPa)
#
#
# Indices 1 2 3 4 5 6 
#
# 1 0.040622 -0.005926 0.011192 0.000000 -0.046677 0.000000
# 2 -0.005926 0.008610 -0.003984 0.000000 0.011438 0.000000
# 3 0.011192 -0.003984 0.031068 0.000000 -0.044888 0.000000
# 4 0.000000 0.000000 0.000000 0.055770 0.000000 -0.034020
# 5 -0.046677 0.011438 -0.044888 0.000000 0.121621 0.000000
# 6 0.000000 0.000000 0.000000 -0.034020 0.000000 0.090391
#
#
# Mechanical properties :
#
#
# Convention : Reuss Voigt Hill
#
# Bulk Modulus (GPa) = 12.06795 36.28847 24.17821
# Shear Modulus (GPa) = 13.39979 29.36555 21.38267
#
# Velocity S-wave (km/s) = 2.42759 3.59373 3.06660
# Velocity P-wave (km/s) = 3.62836 5.76015 4.81375
#
# Compressibility (1/GPa) = 0.08286412
#
# Stress axis : x y z
#
# Youngs Moduli (GPa) = 24.61691 116.14639 32.18748
#
# Poissons Ratio (x) = 0.68830 -0.36025
# Poissons Ratio (y) = 0.14588 0.12824
# Poissons Ratio (z) = -0.27552 0.46273
#
# Static dielectric constant tensor:
#      x y z
#    x 1.884030 0.000000 -0.002650 
#    y 0.000000 1.959520 0.000000 
#    z -0.002650 0.000000 1.813060 
# 
# From -- ./inp_files/12732.got.cif
#   From: 2010.05.17/outbox.cif.g08.bks.cpg/sg12_7_cif.got.tgz:12732.got - 2010.06.03 13:09:07.
