data_PCOD9204244
_publ_section_title
;
Structure prediction by ZEFSAII (Michael W. Deem and Ramdas Pophale) SiO2 
 PCOD9204244
Probable space group: C 2/M
;
_chemical_formula_sum "Si O2"
_cell_formula_units_Z 44
_cell_length_a 21.303984
_cell_length_b 10.405166
_cell_length_c 11.344279
_cell_angle_alpha 90.000000
_cell_angle_beta 133.851403
_cell_angle_gamma 90.000000
_cell_volume 1813.450522
_symmetry_space_group_name_H-M "C 2/M"
_symmetry_group_IT_number 12
_symmetry_cell_setting 'monoclinic'
loop_
_space_group_symop_operation_xyz
x,y,z
-x,y,-z
-x,-y,-z
x,-y,z
1/2+x,1/2+y,z
1/2-x,1/2+y,-z
1/2-x,1/2-y,-z
1/2+x,1/2-y,z
loop_
_atom_site_type_symbol
_atom_site_label
_atom_site_fract_x
_atom_site_fract_y
_atom_site_fract_z
Si Si1 0.209333 0.745860 0.244297
Si Si2 0.099242 0.000000 0.662472
Si Si3 0.997295 0.641437 0.365954
Si Si4 0.463702 0.847139 0.078997
Si Si5 0.397653 0.500000 0.814491
Si Si6 0.171550 0.263313 0.811890
Si Si7 0.298588 0.500000 0.450306
O O1 0.158133 0.873621 0.218573
O O2 0.293796 0.783092 0.276025
O O3 0.239839 0.631940 0.374463
O O4 0.138242 0.680756 0.065487
O O5 0.122631 0.127888 0.761143
O O6 0.000000 0.000000 0.500000
O O7 0.158537 0.000000 0.622884
O O8 0.039144 0.500000 0.427772
O O9 0.014361 0.705262 0.260998
O O10 0.893262 0.630097 0.226327
O O11 0.000000 0.703254 0.500000
O O12 0.477542 0.000000 0.103887
O O13 0.500000 0.802818 0.000000
O O14 0.376974 0.500000 0.646933
O O15 0.500000 0.500000 0.000000
O O16 0.250000 0.250000 0.000000
#
# Coordination Sequence:
#
# PCOD9204244 Si02
#       7
#     8   4   8   8   4   8   4
#     4  11  23  45  70 103 135 185 242 290 356 429
#     4  10  24  44  68  99 133 183 235 281 349 424
#     4  10  22  41  64  98 140 173 225 290 350 413
#     4  10  20  40  68  96 133 185 233 284 347 428
#     4  12  28  48  68 105 151 184 229 304 376 424
#     4  11  23  39  69  96 131 176 226 286 343 410
#     4  10  24  50  75  98 137 194 248 290 345 444
#
# _framework density 24.263135999999999
#
# number of rings (size 3 to 8) (size 9 to 14) (size 15 to 20)
#    0.000    1.455    2.727    1.636    2.545    1.455 
#   19.636    0.000    0.000    0.000    0.000    0.000 
#    0.000    0.000    0.000    0.000    0.000    0.000 
#
# Total GULP energy -122539.984990 kJ/mol
# GULP energy per Si atom -5569.999318 kJ/mol
# Density = 2.420791 g / cm^3
# Si number density = 24.263136 Si / 1000 Ang^3
#
#
#
# Elastic Constant Matrix: (Units=GPa)
#
#
# Indices 1 2 3 4 5 6 
#
# 1 59.2365 23.4750 -3.4730 0.0000 -11.8919 0.0000
# 2 23.4750 151.8692 43.5495 0.0000 10.5639 0.0000
# 3 -3.4730 43.5495 134.2885 0.0000 -21.0594 0.0000
# 4 0.0000 0.0000 0.0000 23.1013 0.0000 17.3437
# 5 -11.8919 10.5639 -21.0594 0.0000 49.8301 0.0000
# 6 0.0000 0.0000 0.0000 17.3437 0.0000 19.6081
#
#
#
# Elastic Compliance Matrix: (Units=1/GPa)
#
#
# Indices 1 2 3 4 5 6 
#
# 1 0.020283 -0.004520 0.003106 0.000000 0.007111 0.000000
# 2 -0.004520 0.008627 -0.003610 0.000000 -0.004433 0.000000
# 3 0.003106 -0.003610 0.009568 0.000000 0.005550 0.000000
# 4 0.000000 0.000000 0.000000 0.128857 0.000000 -0.113975
# 5 0.007111 -0.004433 0.005550 0.000000 0.025051 0.000000
# 6 0.000000 0.000000 0.000000 -0.113975 0.000000 0.151812
#
#
# Mechanical properties :
#
#
# Convention : Reuss Voigt Hill
#
# Bulk Modulus (GPa) = 35.17606 52.49969 43.83787
# Shear Modulus (GPa) = 13.74677 37.29742 25.52210
#
# Velocity S-wave (km/s) = 2.38286 3.92497 3.24680
# Velocity P-wave (km/s) = 4.70105 6.49809 5.67120
#
# Compressibility (1/GPa) = 0.02842843
#
# Stress axis : x y z
#
# Youngs Moduli (GPa) = 49.30347 115.91709 104.51495
#
# Poissons Ratio (x) = 0.52399 -0.32459
# Poissons Ratio (y) = 0.22287 0.37728
# Poissons Ratio (z) = -0.15312 0.41844
#
# Static dielectric constant tensor:
#      x y z
#    x 2.077400 0.000000 -0.077200 
#    y 0.000000 1.944340 0.000000 
#    z -0.077200 0.000000 2.082290 
# 
# From -- ./inp_files/175433.got.cif
#   From: 2010.05.17/outbox.cif.g08.bks.cpg/sg12_88_cif.got.tgz:175433.got - 2010.06.03 13:09:07.
