data_PCOD9204416
_publ_section_title
;
Structure prediction by ZEFSAII (Michael W. Deem and Ramdas Pophale) SiO2 
 PCOD9204416
Probable space group: C 2/M
;
_chemical_formula_sum "Si O2"
_cell_formula_units_Z 56
_cell_length_a 14.346878
_cell_length_b 22.441019
_cell_length_c 9.030218
_cell_angle_alpha 90.000000
_cell_angle_beta 68.069772
_cell_angle_gamma 90.000000
_cell_volume 2696.977814
_symmetry_space_group_name_H-M "C 2/M"
_symmetry_group_IT_number 12
_symmetry_cell_setting 'monoclinic'
loop_
_space_group_symop_operation_xyz
x,y,z
-x,y,-z
-x,-y,-z
x,-y,z
1/2+x,1/2+y,z
1/2-x,1/2+y,-z
1/2-x,1/2-y,-z
1/2+x,1/2-y,z
loop_
_atom_site_type_symbol
_atom_site_label
_atom_site_fract_x
_atom_site_fract_y
_atom_site_fract_z
Si Si1 0.803526 0.930191 0.972399
Si Si2 0.227209 0.748036 0.185377
Si Si3 0.999426 0.927554 0.323510
Si Si4 0.689728 0.366433 0.718502
Si Si5 0.082191 0.567877 0.079087
Si Si6 0.202031 0.690659 0.601620
Si Si7 0.976095 0.323824 0.681741
O O1 0.897762 0.908484 0.820334
O O2 0.822024 0.000000 0.977565
O O3 0.791586 0.905917 0.146553
O O4 0.696083 0.922903 0.957301
O O5 0.302827 0.698821 0.210759
O O6 0.247649 0.807693 0.266676
O O7 0.113305 0.724435 0.269098
O O8 0.250000 0.750000 0.000000
O O9 0.911360 0.890552 0.296202
O O10 0.000000 0.916074 0.500000
O O11 0.984978 0.000000 0.314482
O O12 0.767798 0.361021 0.533391
O O13 0.076346 0.500000 0.141483
O O14 0.061168 0.618574 0.209867
O O15 0.000000 0.573437 0.000000
O O16 0.250000 0.750000 0.500000
O O17 0.082505 0.696207 0.685559
O O18 0.000000 0.339677 0.500000
#
# Coordination Sequence:
#
# PCOD9204416 Si02
#       7
#     8   8   8   8   8   8   8
#     4  10  20  41  67  97 138 173 214 271 326 397
#     4  11  26  46  64  97 128 174 222 274 330 393
#     4  10  23  42  65  98 138 176 213 269 338 395
#     4  11  21  42  65  97 125 175 217 266 325 398
#     4  10  23  41  66  99 131 171 218 266 331 399
#     4  10  23  44  64  92 130 169 216 271 332 382
#     4  12  22  45  71  91 134 171 212 279 333 378
#
# _framework density 20.763983
#
# number of rings (size 3 to 8) (size 9 to 14) (size 15 to 20)
#    0.000    1.429    4.286    0.857    2.000    3.714 
#   15.429    2.857    0.000    0.000    0.000    0.000 
#    0.000    0.000    0.000    0.000    0.000    0.000 
#
# Total GULP energy -156144.823264 kJ/mol
# GULP energy per Si atom -5576.600831 kJ/mol
# Density = 2.071672 g / cm^3
# Si number density = 20.763983 Si / 1000 Ang^3
#
#
#
# Elastic Constant Matrix: (Units=GPa)
#
#
# Indices 1 2 3 4 5 6 
#
# 1 177.4503 55.0577 67.1464 0.0000 -10.1839 0.0000
# 2 55.0577 49.7152 38.1279 0.0000 -4.6107 0.0000
# 3 67.1464 38.1279 113.6614 0.0000 8.1650 0.0000
# 4 0.0000 0.0000 0.0000 37.9081 0.0000 7.2062
# 5 -10.1839 -4.6107 8.1650 0.0000 35.1216 0.0000
# 6 0.0000 0.0000 0.0000 7.2062 0.0000 37.0479
#
#
#
# Elastic Compliance Matrix: (Units=1/GPa)
#
#
# Indices 1 2 3 4 5 6 
#
# 1 0.009353 -0.007760 -0.003095 0.000000 0.002413 0.000000
# 2 -0.007760 0.034719 -0.007350 0.000000 0.004016 0.000000
# 3 -0.003095 -0.007350 0.013451 0.000000 -0.004990 0.000000
# 4 0.000000 0.000000 0.000000 0.027392 0.000000 -0.005328
# 5 0.002413 0.004016 -0.004990 0.000000 0.030859 0.000000
# 6 0.000000 0.000000 0.000000 -0.005328 0.000000 0.028028
#
#
# Mechanical properties :
#
#
# Convention : Reuss Voigt Hill
#
# Bulk Modulus (GPa) = 47.37097 73.49897 60.43497
# Shear Modulus (GPa) = 26.70201 34.04851 30.37526
#
# Velocity S-wave (km/s) = 3.58994 4.05382 3.82891
# Velocity P-wave (km/s) = 6.32828 7.57532 6.97971
#
# Compressibility (1/GPa) = 0.02110998
#
# Stress axis : x y z
#
# Youngs Moduli (GPa) = 106.91803 28.80303 74.34449
#
# Poissons Ratio (x) = 0.22352 0.23013
# Poissons Ratio (y) = 0.82971 0.54647
# Poissons Ratio (z) = 0.33096 0.21172
#
# Static dielectric constant tensor:
#      x y z
#    x 1.756100 0.000000 0.011440 
#    y 0.000000 1.820280 0.000000 
#    z 0.011440 0.000000 1.798060 
# 
# From -- ./inp_files/65741.got.cif
#   From: 2010.05.17/outbox.cif.g08.bks.cpg/sg12_33_cif.got.tgz:65741.got - 2010.06.03 13:09:07.
