data_PCOD9204768
_publ_section_title
;
Structure prediction by ZEFSAII (Michael W. Deem and Ramdas Pophale) SiO2 
 PCOD9204768
Probable space group: C 2/M
;
_chemical_formula_sum "Si O2"
_cell_formula_units_Z 56
_cell_length_a 28.237899
_cell_length_b 19.737228
_cell_length_c 11.974009
_cell_angle_alpha 90.000000
_cell_angle_beta 151.364903
_cell_angle_gamma 90.000000
_cell_volume 3198.171427
_symmetry_space_group_name_H-M "C 2/M"
_symmetry_group_IT_number 12
_symmetry_cell_setting 'monoclinic'
loop_
_space_group_symop_operation_xyz
x,y,z
-x,y,-z
-x,-y,-z
x,-y,z
1/2+x,1/2+y,z
1/2-x,1/2+y,-z
1/2-x,1/2-y,-z
1/2+x,1/2-y,z
loop_
_atom_site_type_symbol
_atom_site_label
_atom_site_fract_x
_atom_site_fract_y
_atom_site_fract_z
Si Si1 0.430121 0.706613 0.253720
Si Si2 0.969905 0.923086 0.809350
Si Si3 0.533216 0.922226 0.699135
Si Si4 0.146905 0.077009 0.997548
Si Si5 0.159220 0.653697 0.627758
Si Si6 0.613761 0.301563 0.491059
Si Si7 0.293722 0.169465 0.009568
O O1 0.500000 0.725496 0.500000
O O2 0.396794 0.628992 0.183804
O O3 0.501841 0.713708 0.297105
O O4 0.341612 0.759013 0.072796
O O5 0.897580 0.862500 0.620390
O O6 0.069573 0.920531 0.939809
O O7 0.929292 0.000000 0.710044
O O8 0.000000 0.914762 0.000000
O O9 0.500000 0.921747 0.500000
O O10 0.448645 0.881176 0.590208
O O11 0.639545 0.886175 0.915482
O O12 0.538067 0.000000 0.746073
O O13 0.154233 0.000000 0.973053
O O14 0.255693 0.106245 0.247465
O O15 0.155641 0.726109 0.557805
O O16 0.187995 0.662448 0.819733
O O17 0.681692 0.329806 0.733745
#
# Coordination Sequence:
#
# PCOD9204768 Si02
#       7
#     8   8   8   8   8   8   8
#     4  11  18  31  48  72 110 148 183 208 250 315
#     4   9  21  43  62  76 101 134 175 233 291 329
#     4   9  18  30  45  68 104 150 186 208 238 291
#     4  10  21  33  52  77 102 137 179 224 272 315
#     4  11  18  31  51  77 113 146 178 211 253 313
#     4  11  20  30  56  81  98 137 182 217 260 318
#     4  11  19  31  49  75 112 152 177 207 255 308
#
# _framework density 17.510006000000001
#
# number of rings (size 3 to 8) (size 9 to 14) (size 15 to 20)
#    0.000    1.714    4.286    2.143    0.000    1.429 
#    0.000    3.571    0.000    0.000    0.000    0.000 
#    0.000    5.714    0.000    0.000    0.000    0.000 
#
# Total GULP energy -155921.692553 kJ/mol
# GULP energy per Si atom -5568.631877 kJ/mol
# Density = 1.747015 g / cm^3
# Si number density = 17.510006 Si / 1000 Ang^3
#
#
#
# Elastic Constant Matrix: (Units=GPa)
#
#
# Indices 1 2 3 4 5 6 
#
# 1 23.3308 19.6769 18.3346 0.0000 -0.1003 0.0000
# 2 19.6769 138.1818 36.9419 0.0000 -1.8217 0.0000
# 3 18.3346 36.9419 47.6672 0.0000 10.8556 0.0000
# 4 0.0000 0.0000 0.0000 34.6958 0.0000 5.0910
# 5 -0.1003 -1.8217 10.8556 0.0000 22.8944 0.0000
# 6 0.0000 0.0000 0.0000 5.0910 0.0000 18.6286
#
#
#
# Elastic Compliance Matrix: (Units=1/GPa)
#
#
# Indices 1 2 3 4 5 6 
#
# 1 0.065456 -0.002084 -0.026445 0.000000 0.012660 0.000000
# 2 -0.002084 0.009643 -0.007673 0.000000 0.004396 0.000000
# 3 -0.026445 -0.007673 0.041773 0.000000 -0.020533 0.000000
# 4 0.000000 0.000000 0.000000 0.030026 0.000000 -0.008206
# 5 0.012660 0.004396 -0.020533 0.000000 0.053820 0.000000
# 6 0.000000 0.000000 0.000000 -0.008206 0.000000 0.055923
#
#
# Mechanical properties :
#
#
# Convention : Reuss Voigt Hill
#
# Bulk Modulus (GPa) = 22.48788 39.89852 31.19320
# Shear Modulus (GPa) = 14.54051 24.19218 19.36635
#
# Velocity S-wave (km/s) = 2.88481 3.72105 3.32929
# Velocity P-wave (km/s) = 4.89560 6.42629 5.71245
#
# Compressibility (1/GPa) = 0.04446840
#
# Stress axis : x y z
#
# Youngs Moduli (GPa) = 15.27751 103.70421 23.93895
#
# Poissons Ratio (x) = 0.21613 0.63306
# Poissons Ratio (y) = 0.03184 0.18368
# Poissons Ratio (z) = 0.40401 0.79569
#
# Static dielectric constant tensor:
#      x y z
#    x 1.610840 0.000000 0.045200 
#    y 0.000000 1.638210 0.000000 
#    z 0.045200 0.000000 1.609810 
# 
# From -- ./inp_files/184612.got.cif
#   From: 2010.05.17/outbox.cif.g08.bks.cpg/sg12_93_cif.got.tgz:184612.got - 2010.06.03 13:09:07.
