data_PCOD9204461
_publ_section_title
;
Structure prediction by ZEFSAII (Michael W. Deem and Ramdas Pophale) SiO2 
 PCOD9204461
Probable space group: C 2/M
;
_chemical_formula_sum "Si O2"
_cell_formula_units_Z 64
_cell_length_a 10.935947
_cell_length_b 31.240817
_cell_length_c 13.520497
_cell_angle_alpha 90.000000
_cell_angle_beta 44.507019
_cell_angle_gamma 90.000000
_cell_volume 3238.078473
_symmetry_space_group_name_H-M "C 2/M"
_symmetry_group_IT_number 12
_symmetry_cell_setting 'monoclinic'
loop_
_space_group_symop_operation_xyz
x,y,z
-x,y,-z
-x,-y,-z
x,-y,z
1/2+x,1/2+y,z
1/2-x,1/2+y,-z
1/2-x,1/2-y,-z
1/2+x,1/2-y,z
loop_
_atom_site_type_symbol
_atom_site_label
_atom_site_fract_x
_atom_site_fract_y
_atom_site_fract_z
Si Si1 0.673293 0.348447 0.932232
Si Si2 0.531181 0.113671 0.736529
Si Si3 0.914823 0.725116 0.444343
Si Si4 0.826005 0.625590 0.539454
Si Si5 0.338565 0.834162 0.161930
Si Si6 0.132621 0.450841 0.015765
Si Si7 0.760525 0.744512 0.874135
Si Si8 0.580204 0.618761 0.189514
O O1 0.659493 0.350291 0.058368
O O2 0.500000 0.372756 0.000000
O O3 0.849992 0.369468 0.794746
O O4 0.670553 0.300142 0.897732
O O5 0.661967 0.102783 0.574018
O O6 0.603459 0.152460 0.762382
O O7 0.471110 0.074796 0.839678
O O8 0.750000 0.750000 0.500000
O O9 0.857572 0.676082 0.498338
O O10 0.000000 0.740030 0.500000
O O11 0.049673 0.734513 0.278267
O O12 0.629733 0.618594 0.693833
O O13 0.000000 0.612115 0.500000
O O14 0.311643 0.785118 0.144853
O O15 0.160535 0.859586 0.240955
O O16 0.500000 0.850110 0.000000
O O17 0.168645 0.500000 0.021175
O O18 0.312484 0.425241 0.889010
O O19 0.000000 0.450379 0.000000
O O20 0.750000 0.750000 0.000000
#
# Coordination Sequence:
#
# PCOD9204461 Si02
#       8
#     8   8   8   8   8   8   8   8
#     4  11  22  36  58  83 118 171 222 268 311 370
#     4  11  21  42  65  92 131 168 214 268 328 389
#     4  11  27  44  58  86 129 180 234 286 346 392
#     4  11  25  44  64  86 130 183 223 260 326 398
#     4  12  21  38  59  93 126 162 217 274 331 371
#     4  10  20  41  73 105 135 159 198 267 340 407
#     4  12  24  39  60  87 124 170 227 288 324 378
#     4  11  21  40  65  92 126 167 213 260 326 397
#
# _framework density 19.764809
#
# number of rings (size 3 to 8) (size 9 to 14) (size 15 to 20)
#    0.000    0.875    6.250    1.875    3.500    0.500 
#    0.000    0.625    0.000   15.750    0.000    0.000 
#    0.000    0.000    0.000    0.000    0.000    0.000 
#
# Total GULP energy -178447.925400 kJ/mol
# GULP energy per Si atom -5576.497669 kJ/mol
# Density = 1.971982 g / cm^3
# Si number density = 19.764809 Si / 1000 Ang^3
#
#
#
# Elastic Constant Matrix: (Units=GPa)
#
#
# Indices 1 2 3 4 5 6 
#
# 1 82.6619 22.5054 28.4033 0.0000 -15.9629 0.0000
# 2 22.5054 116.6749 24.7248 0.0000 -3.4855 0.0000
# 3 28.4033 24.7248 128.5857 0.0000 -16.0576 0.0000
# 4 0.0000 0.0000 0.0000 11.3505 0.0000 -7.0951
# 5 -15.9629 -3.4855 -16.0576 0.0000 38.1500 0.0000
# 6 0.0000 0.0000 0.0000 -7.0951 0.0000 19.5425
#
#
#
# Elastic Compliance Matrix: (Units=1/GPa)
#
#
# Indices 1 2 3 4 5 6 
#
# 1 0.014374 -0.002172 -0.002144 0.000000 0.004914 0.000000
# 2 -0.002172 0.009263 -0.001382 0.000000 -0.000644 0.000000
# 3 -0.002144 -0.001382 0.008854 0.000000 0.002703 0.000000
# 4 0.000000 0.000000 0.000000 0.113967 0.000000 0.041377
# 5 0.004914 -0.000644 0.002703 0.000000 0.029347 0.000000
# 6 0.000000 0.000000 0.000000 0.041377 0.000000 0.066193
#
#
# Mechanical properties :
#
#
# Convention : Reuss Voigt Hill
#
# Bulk Modulus (GPa) = 47.40116 53.24329 50.32222
# Shear Modulus (GPa) = 19.19933 30.62786 24.91359
#
# Velocity S-wave (km/s) = 3.12009 3.94079 3.55421
# Velocity P-wave (km/s) = 6.08397 6.90676 6.50838
#
# Compressibility (1/GPa) = 0.02109653
#
# Stress axis : x y z
#
# Youngs Moduli (GPa) = 69.56880 107.95295 112.94591
#
# Poissons Ratio (x) = 0.23442 0.24215
# Poissons Ratio (y) = 0.15107 0.15608
# Poissons Ratio (z) = 0.14915 0.14918
#
# Static dielectric constant tensor:
#      x y z
#    x 1.838610 0.000000 -0.040600 
#    y 0.000000 1.697490 0.000000 
#    z -0.040600 0.000000 1.912860 
# 
# From -- ./inp_files/209841.got.cif
#   From: 2010.05.17/outbox.cif.g08.bks.cpg/sg12_105_cif.got.tgz:209841.got - 2010.06.03 13:09:07.
