data_PCOD9204341
_publ_section_title
;
Structure prediction by ZEFSAII (Michael W. Deem and Ramdas Pophale) SiO2 
 PCOD9204341
Probable space group: C 2/M
;
_chemical_formula_sum "Si O2"
_cell_formula_units_Z 56
_cell_length_a 24.310868
_cell_length_b 14.339189
_cell_length_c 20.251342
_cell_angle_alpha 90.000000
_cell_angle_beta 22.460000
_cell_angle_gamma 90.000000
_cell_volume 2697.030281
_symmetry_space_group_name_H-M "C 2/M"
_symmetry_group_IT_number 12
_symmetry_cell_setting 'monoclinic'
loop_
_space_group_symop_operation_xyz
x,y,z
-x,y,-z
-x,-y,-z
x,-y,z
1/2+x,1/2+y,z
1/2-x,1/2+y,-z
1/2-x,1/2-y,-z
1/2+x,1/2-y,z
loop_
_atom_site_type_symbol
_atom_site_label
_atom_site_fract_x
_atom_site_fract_y
_atom_site_fract_z
Si Si1 0.461323 0.605129 0.633300
Si Si2 0.920574 0.321434 0.378502
Si Si3 0.832537 0.604124 0.796086
Si Si4 0.633489 0.666603 0.123879
Si Si5 0.271508 0.221446 0.170194
Si Si6 0.253335 0.212163 0.337613
Si Si7 0.524343 0.893435 0.824571
O O1 0.507099 0.500000 0.571224
O O2 0.373130 0.612030 0.800237
O O3 0.352999 0.643609 0.698770
O O4 0.595025 0.672916 0.496707
O O5 0.775419 0.296841 0.579269
O O6 0.923458 0.381515 0.308884
O O7 0.032583 0.365608 0.307233
O O8 0.983954 0.221502 0.282977
O O9 0.855653 0.500000 0.744312
O O10 0.799205 0.684626 0.780351
O O11 0.692185 0.606193 0.999185
O O12 0.750000 0.750000 0.000000
O O13 0.316922 0.235698 0.195412
O O14 0.400636 0.180771 0.982130
O O15 0.345151 0.133398 0.271997
O O16 0.475255 0.000000 0.889372
#
# Coordination Sequence:
#
# PCOD9204341 Si02
#       7
#     8   8   8   8   8   8   8
#     4  11  21  35  61  91 123 164 209 258 316 379
#     4  10  20  41  64  90 125 170 210 264 322 368
#     4  11  20  36  65  97 125 160 216 268 316 373
#     4   9  15  32  55  87 121 152 197 254 313 357
#     4  12  23  41  63  94 130 171 206 266 321 377
#     4  11  25  41  62  87 137 169 209 255 323 384
#     4  12  25  42  67  97 129 172 218 260 318 389
#
# _framework density 20.763580000000001
#
# number of rings (size 3 to 8) (size 9 to 14) (size 15 to 20)
#    0.000    1.143    5.714    3.857    0.000    3.429 
#    0.000    2.143    0.000    2.571    0.000    0.000 
#    0.000    0.000    0.000    0.000    0.000    0.000 
#
# Total GULP energy -156271.194711 kJ/mol
# GULP energy per Si atom -5581.114097 kJ/mol
# Density = 2.071632 g / cm^3
# Si number density = 20.763580 Si / 1000 Ang^3
#
#
#
# Elastic Constant Matrix: (Units=GPa)
#
#
# Indices 1 2 3 4 5 6 
#
# 1 102.9022 27.5203 18.4292 0.0002 20.5092 -0.0001
# 2 27.5203 100.7049 5.8773 0.0002 15.4500 0.0000
# 3 18.4292 5.8773 33.6401 0.0003 10.5643 -0.0002
# 4 0.0002 0.0002 0.0003 14.0218 -0.0003 -4.6044
# 5 20.5092 15.4500 10.5643 -0.0003 27.1862 0.0001
# 6 -0.0001 0.0000 -0.0002 -4.6044 0.0001 15.1266
#
#
#
# Elastic Compliance Matrix: (Units=1/GPa)
#
#
# Indices 1 2 3 4 5 6 
#
# 1 0.012350 -0.002137 -0.004383 0.000000 -0.006399 0.000000
# 2 -0.002137 0.011248 0.000805 0.000000 -0.005093 0.000000
# 3 -0.004383 0.000805 0.035414 -0.000001 -0.010913 0.000000
# 4 0.000000 0.000000 -0.000001 0.079238 0.000001 0.024119
# 5 -0.006399 -0.005093 -0.010913 0.000001 0.048746 0.000000
# 6 0.000000 0.000000 0.000000 0.024119 0.000000 0.073451
#
#
# Mechanical properties :
#
#
# Convention : Reuss Voigt Hill
#
# Bulk Modulus (GPa) = 21.01635 37.87788 29.44712
# Shear Modulus (GPa) = 17.37699 23.62827 20.50263
#
# Velocity S-wave (km/s) = 2.89606 3.37704 3.14575
# Velocity P-wave (km/s) = 4.61807 5.78687 5.23519
#
# Compressibility (1/GPa) = 0.04758200
#
# Stress axis : x y z
#
# Youngs Moduli (GPa) = 80.97246 88.90098 28.23755
#
# Poissons Ratio (x) = 0.19002 0.12376
# Poissons Ratio (y) = 0.17307 -0.02273
# Poissons Ratio (z) = 0.35488 -0.07157
#
# Static dielectric constant tensor:
#      x y z
#    x 1.771820 0.000000 0.042160 
#    y 0.000000 1.726160 0.000000 
#    z 0.042160 0.000000 1.825320 
# 
# From -- ./inp_files/284499.got.cif
#   From: 2010.05.17/outbox.cif.g08.bks.cpg/sg12_143_cif.got.tgz:284499.got - 2010.06.03 13:09:07.
