data_PCOD9204701
_publ_section_title
;
Structure prediction by ZEFSAII (Michael W. Deem and Ramdas Pophale) SiO2 
 PCOD9204701
Probable space group: C 2/M
;
_chemical_formula_sum "Si O2"
_cell_formula_units_Z 34
_cell_length_a 9.760724
_cell_length_b 25.942900
_cell_length_c 9.788072
_cell_angle_alpha 90.000000
_cell_angle_beta 43.782594
_cell_angle_gamma 90.000000
_cell_volume 1714.968024
_symmetry_space_group_name_H-M "C 2/M"
_symmetry_group_IT_number 12
_symmetry_cell_setting 'monoclinic'
loop_
_space_group_symop_operation_xyz
x,y,z
-x,y,-z
-x,-y,-z
x,-y,z
1/2+x,1/2+y,z
1/2-x,1/2+y,-z
1/2-x,1/2-y,-z
1/2+x,1/2-y,z
loop_
_atom_site_type_symbol
_atom_site_label
_atom_site_fract_x
_atom_site_fract_y
_atom_site_fract_z
Si Si1 0.733981 0.912272 0.837478
Si Si2 0.812742 0.196357 0.294429
Si Si3 0.500000 0.500000 0.500000
Si Si4 0.183411 0.312578 0.695804
Si Si5 0.746891 0.660128 0.948507
O O1 0.760355 0.859310 0.731490
O O2 0.872361 0.955165 0.674333
O O3 0.500000 0.926239 0.000000
O O4 0.779940 0.895078 0.959745
O O5 0.751231 0.255375 0.308930
O O6 0.743913 0.181209 0.494253
O O7 0.734392 0.160713 0.228656
O O8 0.050246 0.192489 0.120101
O O9 0.945100 0.316184 0.869302
#
# Coordination Sequence:
#
# PCOD9204701 Si02
#       5
#     8   8   2   8   8
#     4  10  23  38  62  85 112 147 200 246 296 337
#     4  10  21  32  55  84 124 163 183 214 279 345
#     4  12  22  44  64  84 108 146 198 272 302 334
#     4  10  21  35  52  86 120 156 191 226 274 347
#     4  10  21  35  54  84 120 157 189 229 273 348
#
# _framework density 19.825443
#
# number of rings (size 3 to 8) (size 9 to 14) (size 15 to 20)
#    0.000    1.882    0.000    3.176   13.176    0.000 
#    0.000    0.000    0.000   11.294    0.000   32.941 
#    0.000    0.000    0.000    0.000    0.000    0.000 
#
# Total GULP energy -94722.075393 kJ/mol
# GULP energy per Si atom -5571.886788 kJ/mol
# Density = 1.978032 g / cm^3
# Si number density = 19.825443 Si / 1000 Ang^3
#
#
#
# Elastic Constant Matrix: (Units=GPa)
#
#
# Indices 1 2 3 4 5 6 
#
# 1 66.3449 39.3592 31.0306 0.0000 15.4885 0.0000
# 2 39.3592 91.4653 60.5075 0.0000 26.2954 0.0000
# 3 31.0306 60.5075 130.7536 0.0000 19.7571 0.0000
# 4 0.0000 0.0000 0.0000 70.5228 0.0000 3.9559
# 5 15.4885 26.2954 19.7571 0.0000 30.3829 0.0000
# 6 0.0000 0.0000 0.0000 3.9559 0.0000 0.9014
#
#
#
# Elastic Compliance Matrix: (Units=1/GPa)
#
#
# Indices 1 2 3 4 5 6 
#
# 1 0.020655 -0.007145 -0.001041 0.000000 -0.003669 0.000000
# 2 -0.007145 0.021437 -0.006622 0.000000 -0.010605 0.000000
# 3 -0.001041 -0.006622 0.011104 0.000000 -0.000959 0.000000
# 4 0.000000 0.000000 0.000000 0.018810 0.000000 -0.082546
# 5 -0.003669 -0.010605 -0.000959 0.000000 0.044585 0.000000
# 6 0.000000 0.000000 0.000000 -0.082546 0.000000 1.471577
#
#
# Mechanical properties :
#
#
# Convention : Reuss Voigt Hill
#
# Bulk Modulus (GPa) = 42.40837 61.15093 51.77965
# Shear Modulus (GPa) = 3.07570 30.87253 16.97412
#
# Velocity S-wave (km/s) = 1.24690 3.95044 2.92923
# Velocity P-wave (km/s) = 4.84875 7.19163 6.13310
#
# Compressibility (1/GPa) = 0.02358025
#
# Stress axis : x y z
#
# Youngs Moduli (GPa) = 48.41500 46.64785 90.05363
#
# Poissons Ratio (x) = 0.33328 0.09377
# Poissons Ratio (y) = 0.34590 0.59636
# Poissons Ratio (z) = 0.05041 0.30892
#
# Static dielectric constant tensor:
#      x y z
#    x 1.740820 0.000000 0.004630 
#    y 0.000000 1.657650 0.000000 
#    z 0.004630 0.000000 1.749800 
# 
# From -- ./inp_files/41347.got.cif
#   From: 2010.05.17/outbox.cif.g08.bks.cpg/sg12_21_cif.got.tgz:41347.got - 2010.06.03 13:09:07.
