data_PCOD9204675
_publ_section_title
;
Structure prediction by ZEFSAII (Michael W. Deem and Ramdas Pophale) SiO2 
 PCOD9204675
Probable space group: C 2/M
;
_chemical_formula_sum "Si O2"
_cell_formula_units_Z 34
_cell_length_a 17.319944
_cell_length_b 22.123809
_cell_length_c 16.712169
_cell_angle_alpha 90.000000
_cell_angle_beta 162.618165
_cell_angle_gamma 90.000000
_cell_volume 1913.066334
_symmetry_space_group_name_H-M "C 2/M"
_symmetry_group_IT_number 12
_symmetry_cell_setting 'monoclinic'
loop_
_space_group_symop_operation_xyz
x,y,z
-x,y,-z
-x,-y,-z
x,-y,z
1/2+x,1/2+y,z
1/2-x,1/2+y,-z
1/2-x,1/2-y,-z
1/2+x,1/2-y,z
loop_
_atom_site_type_symbol
_atom_site_label
_atom_site_fract_x
_atom_site_fract_y
_atom_site_fract_z
Si Si1 0.474701 0.171624 0.696614
Si Si2 0.000000 0.202170 0.500000
Si Si3 0.500000 0.500000 0.000000
Si Si4 0.697369 0.115157 0.769054
Si Si5 0.470793 0.688972 0.294586
Si Si6 0.000000 0.215281 0.000000
O O1 0.539741 0.121681 0.694635
O O2 0.483940 0.238031 0.663840
O O3 0.202643 0.162824 0.470893
O O4 0.699388 0.174789 0.984953
O O5 0.972040 0.168684 0.387912
O O6 0.255335 0.243122 0.741986
O O7 0.659781 0.553185 0.108852
O O8 0.500000 0.126198 0.500000
O O9 0.909457 0.169169 0.979597
#
# Coordination Sequence:
#
# PCOD9204675 Si02
#       6
#     8   4   2   8   8   4
#     4  10  21  33  51  75 108 139 188 220 266 316
#     4  12  20  34  50  77 112 145 190 212 270 320
#     4  10  26  36  60  82 104 148 194 230 270 336
#     4  11  22  38  55  77 109 146 186 228 271 323
#     4  10  21  32  49  78 105 146 181 224 256 332
#     4  11  20  29  54  74  98 158 174 217 257 316
#
# _framework density 17.772514000000001
#
# number of rings (size 3 to 8) (size 9 to 14) (size 15 to 20)
#    0.000    1.412    3.529    1.765   13.176    0.000 
#    0.000    0.000    0.000    0.000    0.000    0.000 
#    0.000    5.647    0.000    0.000    0.000    0.000 
#
# Total GULP energy -94642.949707 kJ/mol
# GULP energy per Si atom -5567.232336 kJ/mol
# Density = 1.773206 g / cm^3
# Si number density = 17.772514 Si / 1000 Ang^3
#
#
#
# Elastic Constant Matrix: (Units=GPa)
#
#
# Indices 1 2 3 4 5 6 
#
# 1 119.3600 20.9708 17.8351 0.0002 1.1001 0.0002
# 2 20.9708 39.8645 5.4066 -0.0001 10.5431 0.0000
# 3 17.8351 5.4066 66.4982 0.0010 14.4921 0.0022
# 4 0.0002 -0.0001 0.0010 0.1937 0.0000 9.7108
# 5 1.1001 10.5431 14.4921 0.0000 33.0583 0.0008
# 6 0.0002 0.0000 0.0022 9.7108 0.0008 18.8786
#
#
#
# Elastic Compliance Matrix: (Units=1/GPa)
#
#
# Indices 1 2 3 4 5 6 
#
# 1 0.009716 -0.005430 -0.002732 0.000000 0.002606 0.000000
# 2 -0.005430 0.030438 0.001169 0.000000 -0.010039 0.000000
# 3 -0.002732 0.001169 0.017400 0.000000 -0.007910 -0.000002
# 4 0.000000 0.000000 0.000000 -0.208274 -0.000002 0.107132
# 5 0.002606 -0.010039 -0.007910 -0.000002 0.036832 0.000001
# 6 0.000000 0.000000 -0.000002 0.107132 0.000001 -0.002137
#
#
# Mechanical properties :
#
#
# Convention : Reuss Voigt Hill
#
# Bulk Modulus (GPa) = 22.95265 34.90530 28.92898
# Shear Modulus (GPa) = -57.13237 22.52678 -17.30279
#
# Velocity S-wave (km/s) = -5.67594 3.56407 -3.12359
# Velocity P-wave (km/s) = 5.47835 6.05140 1.81758
#
# Compressibility (1/GPa) = 0.04356795
#
# Stress axis : x y z
#
# Youngs Moduli (GPa) = 102.91991 32.85367 57.47281
#
# Poissons Ratio (x) = 0.17839 0.15704
# Poissons Ratio (y) = 0.55885 -0.06721
# Poissons Ratio (z) = 0.28122 -0.03842
#
# Static dielectric constant tensor:
#      x y z
#    x 1.651140 0.000000 0.000550 
#    y 0.000000 1.574040 0.000000 
#    z 0.000550 0.000000 1.661760 
# 
# From -- ./inp_files/219005.got.cif
#   From: 2010.05.17/outbox.cif.g08.bks.cpg/sg12_110_cif.got.tgz:219005.got - 2010.06.03 13:09:07.
