data_PCOD9204218
_publ_section_title
;
Structure prediction by ZEFSAII (Michael W. Deem and Ramdas Pophale) SiO2 
 PCOD9204218
Probable space group: C 2/M
;
_chemical_formula_sum "Si O2"
_cell_formula_units_Z 38
_cell_length_a 14.892677
_cell_length_b 10.218913
_cell_length_c 14.037500
_cell_angle_alpha 90.000000
_cell_angle_beta 74.231135
_cell_angle_gamma 90.000000
_cell_volume 2055.925756
_symmetry_space_group_name_H-M "C 2/M"
_symmetry_group_IT_number 12
_symmetry_cell_setting 'monoclinic'
loop_
_space_group_symop_operation_xyz
x,y,z
-x,y,-z
-x,-y,-z
x,-y,z
1/2+x,1/2+y,z
1/2-x,1/2+y,-z
1/2-x,1/2-y,-z
1/2+x,1/2-y,z
loop_
_atom_site_type_symbol
_atom_site_label
_atom_site_fract_x
_atom_site_fract_y
_atom_site_fract_z
Si Si1 0.289196 0.348179 0.409103
Si Si2 0.718978 0.000000 0.874296
Si Si3 0.684103 0.000000 0.099998
Si Si4 0.977969 0.287506 0.336382
Si Si5 0.000000 0.500000 0.500000
Si Si6 0.034812 0.500000 0.819980
Si Si7 0.806186 0.740479 0.760521
O O1 0.266905 0.500000 0.436431
O O2 0.250000 0.250000 0.500000
O O3 0.399879 0.322617 0.371622
O O4 0.241484 0.309106 0.323020
O O5 0.762392 0.127438 0.812793
O O6 0.609368 0.000000 0.881619
O O7 0.732788 0.000000 0.983758
O O8 0.705916 0.126818 0.157399
O O9 0.572359 0.000000 0.117851
O O10 0.951041 0.374024 0.251804
O O11 0.979654 0.385879 0.425125
O O12 0.083762 0.240712 0.290841
#
# Coordination Sequence:
#
# PCOD9204218 Si02
#       7
#     8   4   4   8   2   4   8
#     4  12  27  42  66  95 131 170 217 261 321 385
#     4  12  22  39  67  97 125 159 226 265 316 381
#     4  10  22  43  65  92 124 175 209 264 322 378
#     4  10  22  40  63  90 129 169 207 259 323 375
#     4  10  20  40  68  86 124 170 220 250 320 388
#     4   9  19  37  65  91 121 162 213 262 307 377
#     4  11  24  42  65  92 132 168 206 268 321 378
#
# _framework density 18.483158
#
# number of rings (size 3 to 8) (size 9 to 14) (size 15 to 20)
#    0.000    1.263    3.158    2.842    8.842    0.000 
#    0.000    1.579    0.000    1.263    0.000    0.000 
#    0.000    0.000    0.000    0.000    0.000    0.000 
#
# Total GULP energy -105907.455748 kJ/mol
# GULP energy per Si atom -5574.076618 kJ/mol
# Density = 1.844109 g / cm^3
# Si number density = 18.483158 Si / 1000 Ang^3
#
#
#
# Elastic Constant Matrix: (Units=GPa)
#
#
# Indices 1 2 3 4 5 6 
#
# 1 78.3845 49.9796 46.0393 0.0000 16.8289 0.0000
# 2 49.9796 159.9020 70.4327 0.0000 1.6278 0.0000
# 3 46.0393 70.4327 108.6186 0.0000 25.1761 0.0000
# 4 0.0000 0.0000 0.0000 -26.9426 0.0000 58.1098
# 5 16.8289 1.6278 25.1761 0.0000 24.0420 0.0000
# 6 0.0000 0.0000 0.0000 58.1098 0.0000 -45.9628
#
#
#
# Elastic Compliance Matrix: (Units=1/GPa)
#
#
# Indices 1 2 3 4 5 6 
#
# 1 0.019749 -0.004842 -0.002777 0.000000 -0.010588 0.000000
# 2 -0.004842 0.010956 -0.007482 0.000000 0.010482 0.000000
# 3 -0.002777 -0.007482 0.019368 0.000000 -0.017831 0.000000
# 4 0.000000 0.000000 0.000000 0.021494 0.000000 0.027175
# 5 -0.010588 0.010482 -0.017831 0.000000 0.066968 0.000000
# 6 0.000000 0.000000 0.000000 0.027175 0.000000 0.012599
#
#
# Mechanical properties :
#
#
# Convention : Reuss Voigt Hill
#
# Bulk Modulus (GPa) = 50.32188 75.53426 62.92807
# Shear Modulus (GPa) = 26.60143 2.25755 14.42949
#
# Velocity S-wave (km/s) = 3.79783 1.10637 2.79710
# Velocity P-wave (km/s) = 6.82028 6.52590 6.67471
#
# Compressibility (1/GPa) = 0.01987207
#
# Stress axis : x y z
#
# Youngs Moduli (GPa) = 50.63475 91.27467 51.63164
#
# Poissons Ratio (x) = 0.44194 0.14339
# Poissons Ratio (y) = 0.24517 0.38628
# Poissons Ratio (z) = 0.14062 0.68287
#
# Static dielectric constant tensor:
#      x y z
#    x 1.644150 0.000000 -0.017330 
#    y 0.000000 1.605680 0.000000 
#    z -0.017330 0.000000 1.627840 
# 
# From -- ./inp_files/211312.got.cif
#   From: 2010.05.17/outbox.cif.g08.bks.cpg/sg12_106_cif.got.tgz:211312.got - 2010.06.03 13:09:07.
