data_PCOD9204330
_publ_section_title
;
Structure prediction by ZEFSAII (Michael W. Deem and Ramdas Pophale) SiO2 
 PCOD9204330
Probable space group: C 2/M
;
_chemical_formula_sum "Si O2"
_cell_formula_units_Z 44
_cell_length_a 11.144316
_cell_length_b 25.830122
_cell_length_c 11.672459
_cell_angle_alpha 90.000000
_cell_angle_beta 140.225827
_cell_angle_gamma 90.000000
_cell_volume 2149.619377
_symmetry_space_group_name_H-M "C 2/M"
_symmetry_group_IT_number 12
_symmetry_cell_setting 'monoclinic'
loop_
_space_group_symop_operation_xyz
x,y,z
-x,y,-z
-x,-y,-z
x,-y,z
1/2+x,1/2+y,z
1/2-x,1/2+y,-z
1/2-x,1/2-y,-z
1/2+x,1/2-y,z
loop_
_atom_site_type_symbol
_atom_site_label
_atom_site_fract_x
_atom_site_fract_y
_atom_site_fract_z
Si Si1 0.224127 0.379925 0.446166
Si Si2 0.470901 0.704026 0.341755
Si Si3 0.093554 0.681160 0.694925
Si Si4 0.997874 0.059300 0.786362
Si Si5 0.219788 0.389769 0.176139
Si Si6 0.500000 0.636316 0.000000
O O1 0.351487 0.329244 0.570506
O O2 0.300579 0.425163 0.582471
O O3 0.262647 0.393500 0.342759
O O4 0.011677 0.362924 0.309581
O O5 0.500000 0.708475 0.500000
O O6 0.447572 0.762229 0.282215
O O7 0.291542 0.667377 0.190853
O O8 0.000000 0.678448 0.500000
O O9 0.313574 0.670427 0.849107
O O10 0.156395 0.071063 0.807352
O O11 0.002295 0.000000 0.825668
O O12 0.025627 0.098856 0.910329
O O13 0.000000 0.396528 0.000000
#
# Coordination Sequence:
#
# PCOD9204330 Si02
#       6
#     8   8   8   8   8   4
#     4  10  20  41  63  92 129 165 212 265 313 375
#     4   8  18  34  61  91 127 173 201 251 313 377
#     4  11  21  39  63  93 134 171 209 253 316 380
#     4  11  24  44  66  88 123 168 215 271 321 370
#     4  10  21  39  62  95 133 158 213 266 309 380
#     4  12  25  42  64  98 126 164 219 262 310 386
#
# _framework density 20.468741000000001
#
# number of rings (size 3 to 8) (size 9 to 14) (size 15 to 20)
#    0.000    1.818    1.818    3.545    1.273    1.818 
#    0.000    9.091    0.000    0.000    0.000    0.000 
#    0.000    0.000    0.000    0.000    0.000    0.000 
#
# Total GULP energy -122903.169426 kJ/mol
# GULP energy per Si atom -5586.507701 kJ/mol
# Density = 2.042215 g / cm^3
# Si number density = 20.468741 Si / 1000 Ang^3
#
#
#
# Elastic Constant Matrix: (Units=GPa)
#
#
# Indices 1 2 3 4 5 6 
#
# 1 57.7607 -4.4099 16.2623 0.0000 8.9090 0.0000
# 2 -4.4099 58.9133 19.6492 0.0000 5.5474 0.0000
# 3 16.2623 19.6492 79.2654 0.0000 15.2731 0.0000
# 4 0.0000 0.0000 0.0000 4.7621 0.0000 -0.8600
# 5 8.9090 5.5474 15.2731 0.0000 43.8816 0.0000
# 6 0.0000 0.0000 0.0000 -0.8600 0.0000 8.4157
#
#
#
# Elastic Compliance Matrix: (Units=1/GPa)
#
#
# Indices 1 2 3 4 5 6 
#
# 1 0.019153 0.003084 -0.004148 0.000000 -0.002835 0.000000
# 2 0.003084 0.019027 -0.005108 0.000000 -0.001254 0.000000
# 3 -0.004148 -0.005108 0.015485 0.000000 -0.003902 0.000000
# 4 0.000000 0.000000 0.000000 0.213941 0.000000 0.021863
# 5 -0.002835 -0.001254 -0.003902 0.000000 0.024881 0.000000
# 6 0.000000 0.000000 0.000000 0.021863 0.000000 0.121060
#
#
# Mechanical properties :
#
#
# Convention : Reuss Voigt Hill
#
# Bulk Modulus (GPa) = 24.20035 28.77139 26.48587
# Shear Modulus (GPa) = 11.37234 22.37440 16.87337
#
# Velocity S-wave (km/s) = 2.35966 3.30979 2.87426
# Velocity P-wave (km/s) = 4.39008 5.35659 4.89724
#
# Compressibility (1/GPa) = 0.04132172
#
# Stress axis : x y z
#
# Youngs Moduli (GPa) = 52.21024 52.55814 64.57953
#
# Poissons Ratio (x) = -0.16209 0.26787
# Poissons Ratio (y) = -0.16102 0.32985
# Poissons Ratio (z) = 0.21656 0.26845
#
# Static dielectric constant tensor:
#      x y z
#    x 1.738680 0.000000 -0.006890 
#    y 0.000000 1.711820 0.000000 
#    z -0.006890 0.000000 1.741980 
# 
# From -- ./inp_files/136095.got.cif
#   From: 2010.05.17/outbox.cif.g08.bks.cpg/sg12_69_cif.got.tgz:136095.got - 2010.06.03 13:09:07.
