data_PCOD9204690
_publ_section_title
;
Structure prediction by ZEFSAII (Michael W. Deem and Ramdas Pophale) SiO2 
 PCOD9204690
Probable space group: C 2/M
;
_chemical_formula_sum "Si O2"
_cell_formula_units_Z 36
_cell_length_a 21.206602
_cell_length_b 14.746193
_cell_length_c 5.478690
_cell_angle_alpha 90.000000
_cell_angle_beta 90.072148
_cell_angle_gamma 90.000000
_cell_volume 1713.276203
_symmetry_space_group_name_H-M "C 2/M"
_symmetry_group_IT_number 12
_symmetry_cell_setting 'monoclinic'
loop_
_space_group_symop_operation_xyz
x,y,z
-x,y,-z
-x,-y,-z
x,-y,z
1/2+x,1/2+y,z
1/2-x,1/2+y,-z
1/2-x,1/2-y,-z
1/2+x,1/2-y,z
loop_
_atom_site_type_symbol
_atom_site_label
_atom_site_fract_x
_atom_site_fract_y
_atom_site_fract_z
Si Si1 0.500000 0.210283 0.500000
Si Si2 0.880718 0.254092 0.232513
Si Si3 0.568953 0.900146 0.123406
Si Si4 0.274575 0.351973 0.043297
Si Si5 0.210029 0.399768 0.551823
O O1 0.548442 0.265038 0.669530
O O2 0.450252 0.142240 0.622321
O O3 0.846683 0.166048 0.123978
O O4 0.833603 0.309735 0.413863
O O5 0.889758 0.329321 0.022113
O O6 0.596406 0.000000 0.127909
O O7 0.500000 0.905224 0.000000
O O8 0.240928 0.392701 0.283445
O O9 0.250000 0.250000 0.000000
O O10 0.258662 0.396692 0.782375
O O11 0.178408 0.500000 0.572236
#
# Coordination Sequence:
#
# PCOD9204690 Si02
#       5
#     4   8   8   8   8
#     4  10  21  32  52  80 115 152 196 222 287 342
#     4  10  21  35  55  81 117 153 191 235 285 346
#     4   9  18  31  45  72 112 151 189 223 265 334
#     4  10  22  39  60  84 118 153 197 245 290 336
#     4  11  23  39  61  88 116 155 198 241 292 343
#
# _framework density 21.012373
#
# number of rings (size 3 to 8) (size 9 to 14) (size 15 to 20)
#    0.000    2.000    0.000    4.333    9.333    2.667 
#    0.000    0.000    0.000    0.000    0.000    4.667 
#    0.000    0.000    0.000    0.000    0.000    0.000 
#
# Total GULP energy -100265.524918 kJ/mol
# GULP energy per Si atom -5570.306940 kJ/mol
# Density = 2.096455 g / cm^3
# Si number density = 21.012373 Si / 1000 Ang^3
#
#
#
# Elastic Constant Matrix: (Units=GPa)
#
#
# Indices 1 2 3 4 5 6 
#
# 1 97.2460 16.8482 37.4909 0.0000 27.4494 0.0000
# 2 16.8482 37.4171 11.4428 0.0000 10.4469 0.0000
# 3 37.4909 11.4428 115.0342 0.0000 7.7608 0.0000
# 4 0.0000 0.0000 0.0000 0.0355 0.0000 -15.0296
# 5 27.4494 10.4469 7.7608 0.0000 40.1748 0.0000
# 6 0.0000 0.0000 0.0000 -15.0296 0.0000 24.9407
#
#
#
# Elastic Compliance Matrix: (Units=1/GPa)
#
#
# Indices 1 2 3 4 5 6 
#
# 1 0.014726 -0.003056 -0.003921 0.000000 -0.008510 0.000000
# 2 -0.003056 0.030117 -0.001634 0.000000 -0.005428 0.000000
# 3 -0.003921 -0.001634 0.010055 0.000000 0.001162 0.000000
# 4 0.000000 0.000000 0.000000 -0.110845 0.000000 -0.066797
# 5 -0.008510 -0.005428 0.001162 0.000000 0.031892 0.000000
# 6 0.000000 0.000000 0.000000 -0.066797 0.000000 -0.000158
#
#
# Mechanical properties :
#
#
# Convention : Reuss Voigt Hill
#
# Bulk Modulus (GPa) = 26.54171 42.36234 34.45202
# Shear Modulus (GPa) = 897.83540 25.29123 461.56331
#
# Velocity S-wave (km/s) = 20.69339 3.47311 14.83710
# Velocity P-wave (km/s) = 24.15811 6.02393 17.60542
#
# Compressibility (1/GPa) = 0.03767655
#
# Stress axis : x y z
#
# Youngs Moduli (GPa) = 67.90502 33.20401 99.45069
#
# Poissons Ratio (x) = 0.10147 0.38999
# Poissons Ratio (y) = 0.20751 0.16247
# Poissons Ratio (z) = 0.26628 0.05424
#
# Static dielectric constant tensor:
#      x y z
#    x 2.062210 0.000000 0.129030 
#    y 0.000000 1.739780 0.000000 
#    z 0.129030 0.000000 1.941660 
# 
# From -- ./inp_files/19658.got.cif
#   From: 2010.05.17/outbox.cif.g08.bks.cpg/sg12_10_cif.got.tgz:19658.got - 2010.06.03 13:09:07.
