data_PCOD9204417
_publ_section_title
;
Structure prediction by ZEFSAII (Michael W. Deem and Ramdas Pophale) SiO2 
 PCOD9204417
Probable space group: C 2/M
;
_chemical_formula_sum "Si O2"
_cell_formula_units_Z 34
_cell_length_a 17.192365
_cell_length_b 14.822386
_cell_length_c 10.890412
_cell_angle_alpha 90.000000
_cell_angle_beta 148.427248
_cell_angle_gamma 90.000000
_cell_volume 1453.054014
_symmetry_space_group_name_H-M "C 2/M"
_symmetry_group_IT_number 12
_symmetry_cell_setting 'monoclinic'
loop_
_space_group_symop_operation_xyz
x,y,z
-x,y,-z
-x,-y,-z
x,-y,z
1/2+x,1/2+y,z
1/2-x,1/2+y,-z
1/2-x,1/2-y,-z
1/2+x,1/2-y,z
loop_
_atom_site_type_symbol
_atom_site_label
_atom_site_fract_x
_atom_site_fract_y
_atom_site_fract_z
Si Si1 0.486454 0.655892 0.691304
Si Si2 0.467466 0.167194 0.814792
Si Si3 0.144954 0.000000 0.049038
Si Si4 0.673823 0.000000 0.481044
Si Si5 0.000000 0.500000 0.500000
Si Si6 0.794150 0.896118 0.206447
O O1 0.434904 0.745561 0.689770
O O2 0.620664 0.668981 0.773504
O O3 0.360402 0.618443 0.431352
O O4 0.555620 0.586454 0.881154
O O5 0.348020 0.088987 0.629328
O O6 0.500000 0.189648 0.000000
O O7 0.622749 0.125802 0.977653
O O8 0.315374 0.000000 0.223695
O O9 0.177223 0.000000 0.237986
O O10 0.546528 0.000000 0.416606
O O11 0.827074 0.000000 0.217459
#
# Coordination Sequence:
#
# PCOD9204417 Si02
#       6
#     8   8   4   4   2   8
#     4  11  23  43  69 105 131 171 224 281 339 393
#     4  12  27  45  66  98 138 184 227 272 336 405
#     4  10  20  41  67  98 134 163 219 273 337 390
#     4  10  23  41  66  95 132 175 221 274 329 391
#     4   8  20  34  72  94 130 160 218 268 334 384
#     4  11  22  44  74  96 136 174 226 281 335 399
#
# _framework density 23.398992
#
# number of rings (size 3 to 8) (size 9 to 14) (size 15 to 20)
#    0.706    0.471    3.529    3.176    3.294    2.824 
#    0.000    0.588    0.000    0.000    0.000    0.000 
#    0.000    0.000    0.000    0.000    0.000    0.000 
#
# Total GULP energy -94833.606690 kJ/mol
# GULP energy per Si atom -5578.447452 kJ/mol
# Density = 2.334573 g / cm^3
# Si number density = 23.398992 Si / 1000 Ang^3
#
#
#
# Elastic Constant Matrix: (Units=GPa)
#
#
# Indices 1 2 3 4 5 6 
#
# 1 101.8951 23.3622 3.5982 0.0000 -22.1986 0.0000
# 2 23.3622 133.4413 52.0725 0.0000 -22.5903 0.0000
# 3 3.5982 52.0725 142.6056 0.0000 -27.6417 0.0000
# 4 0.0000 0.0000 0.0000 31.4820 0.0000 -7.9050
# 5 -22.1986 -22.5903 -27.6417 0.0000 41.2783 0.0000
# 6 0.0000 0.0000 0.0000 -7.9050 0.0000 20.6480
#
#
#
# Elastic Compliance Matrix: (Units=1/GPa)
#
#
# Indices 1 2 3 4 5 6 
#
# 1 0.011493 -0.001521 0.001496 0.000000 0.006351 0.000000
# 2 -0.001521 0.009286 -0.002903 0.000000 0.002320 0.000000
# 3 0.001496 -0.002903 0.009058 0.000000 0.005282 0.000000
# 4 0.000000 0.000000 0.000000 0.035142 0.000000 0.013454
# 5 0.006351 0.002320 0.005282 0.000000 0.032448 0.000000
# 6 0.000000 0.000000 0.000000 0.013454 0.000000 0.053582
#
#
# Mechanical properties :
#
#
# Convention : Reuss Voigt Hill
#
# Bulk Modulus (GPa) = 41.69649 59.55642 50.62645
# Shear Modulus (GPa) = 30.32914 38.60894 34.46904
#
# Velocity S-wave (km/s) = 3.60415 4.06646 3.84226
# Velocity P-wave (km/s) = 5.93113 6.89608 6.43173
#
# Compressibility (1/GPa) = 0.02398284
#
# Stress axis : x y z
#
# Youngs Moduli (GPa) = 87.00635 107.69292 110.39597
#
# Poissons Ratio (x) = 0.16381 -0.16519
# Poissons Ratio (y) = 0.13234 0.32043
# Poissons Ratio (z) = -0.13019 0.31259
#
# Static dielectric constant tensor:
#      x y z
#    x 1.908390 0.000000 0.024840 
#    y 0.000000 1.838450 0.000000 
#    z 0.024840 0.000000 1.860370 
# 
# From -- ./inp_files/167498.got.cif
#   From: 2010.05.17/outbox.cif.g08.bks.cpg/sg12_84_cif.got.tgz:167498.got - 2010.06.03 13:09:07.
