data_PCOD9204916
_publ_section_title
;
Structure prediction by ZEFSAII (Michael W. Deem and Ramdas Pophale) SiO2 
 PCOD9204916
Probable space group: C 2/M
;
_chemical_formula_sum "Si O2"
_cell_formula_units_Z 64
_cell_length_a 14.497988
_cell_length_b 26.538200
_cell_length_c 15.032879
_cell_angle_alpha 90.000000
_cell_angle_beta 140.738596
_cell_angle_gamma 90.000000
_cell_volume 3660.400697
_symmetry_space_group_name_H-M "C 2/M"
_symmetry_group_IT_number 12
_symmetry_cell_setting 'monoclinic'
loop_
_space_group_symop_operation_xyz
x,y,z
-x,y,-z
-x,-y,-z
x,-y,z
1/2+x,1/2+y,z
1/2-x,1/2+y,-z
1/2-x,1/2-y,-z
1/2+x,1/2-y,z
loop_
_atom_site_type_symbol
_atom_site_label
_atom_site_fract_x
_atom_site_fract_y
_atom_site_fract_z
Si Si1 0.781534 0.792119 0.164081
Si Si2 0.581484 0.943362 0.154019
Si Si3 0.300761 0.182696 0.414984
Si Si4 0.905824 0.942782 0.340312
Si Si5 0.134715 0.321237 0.733794
Si Si6 0.268184 0.799662 0.665361
Si Si7 0.068115 0.852200 0.377972
Si Si8 0.070394 0.650160 0.868865
O O1 0.797500 0.731664 0.180460
O O2 0.740995 0.805912 0.235419
O O3 0.941089 0.812898 0.261121
O O4 0.670999 0.819521 0.014151
O O5 0.744904 0.926374 0.251231
O O6 0.491997 0.902756 0.142973
O O7 0.590156 0.000000 0.200166
O O8 0.500000 0.946995 0.000000
O O9 0.292836 0.164829 0.306338
O O10 0.464823 0.182372 0.576599
O O11 0.258589 0.241696 0.380241
O O12 0.192320 0.151379 0.396226
O O13 0.000000 0.944415 0.500000
O O14 0.986425 0.904763 0.334279
O O15 0.893063 0.000000 0.295170
O O16 0.143578 0.355969 0.827134
O O17 0.146109 0.833283 0.526407
O O18 0.426195 0.815877 0.750220
#
# Coordination Sequence:
#
# PCOD9204916 Si02
#       8
#     8   8   8   8   8   8   8   8
#     4  11  22  32  50  82 112 133 172 223 267 312
#     4  10  21  38  56  78 111 143 172 211 267 335
#     4  10  21  36  53  74 102 145 191 214 253 312
#     4  10  21  34  51  80 110 132 167 224 278 314
#     4  10  21  37  51  74 108 142 180 227 256 305
#     4  11  20  33  53  76 106 141 177 213 258 324
#     4  12  19  33  56  75  99 144 184 213 257 324
#     4  12  21  34  54  80 107 142 177 217 270 315
#
# _framework density 17.484425000000002
#
# number of rings (size 3 to 8) (size 9 to 14) (size 15 to 20)
#    0.000    1.250    2.500    6.000    0.000    0.000 
#    0.000    1.875    0.000    0.750    0.000    1.750 
#    0.000    5.000    0.000    0.000    0.000    0.000 
#
# Total GULP energy -178578.571079 kJ/mol
# GULP energy per Si atom -5580.580346 kJ/mol
# Density = 1.744463 g / cm^3
# Si number density = 17.484425 Si / 1000 Ang^3
#
#
#
# Elastic Constant Matrix: (Units=GPa)
#
#
# Indices 1 2 3 4 5 6 
#
# 1 103.1285 52.3030 25.6411 0.0000 -19.0653 0.0000
# 2 52.3030 82.4071 20.0099 0.0000 -15.0058 0.0000
# 3 25.6411 20.0099 80.6220 0.0000 3.3419 0.0000
# 4 0.0000 0.0000 0.0000 13.5219 0.0000 6.8397
# 5 -19.0653 -15.0058 3.3419 0.0000 27.2174 0.0000
# 6 0.0000 0.0000 0.0000 6.8397 0.0000 25.5867
#
#
#
# Elastic Compliance Matrix: (Units=1/GPa)
#
#
# Indices 1 2 3 4 5 6 
#
# 1 0.015901 -0.007969 -0.003376 0.000000 0.007160 0.000000
# 2 -0.007969 0.018660 -0.002304 0.000000 0.004989 0.000000
# 3 -0.003376 -0.002304 0.014272 0.000000 -0.005388 0.000000
# 4 0.000000 0.000000 0.000000 0.085517 0.000000 -0.022860
# 5 0.007160 0.004989 -0.005388 0.000000 0.045168 0.000000
# 6 0.000000 0.000000 0.000000 -0.022860 0.000000 0.045194
#
#
# Mechanical properties :
#
#
# Convention : Reuss Voigt Hill
#
# Bulk Modulus (GPa) = 46.43286 51.34062 48.88674
# Shear Modulus (GPa) = 19.29090 24.47877 21.88483
#
# Velocity S-wave (km/s) = 3.32523 3.74576 3.54174
# Velocity P-wave (km/s) = 6.43096 6.93794 6.68925
#
# Compressibility (1/GPa) = 0.02153647
#
# Stress axis : x y z
#
# Youngs Moduli (GPa) = 62.88860 53.58927 70.06513
#
# Poissons Ratio (x) = 0.42704 0.23655
# Poissons Ratio (y) = 0.50115 0.16142
# Poissons Ratio (z) = 0.21232 0.12346
#
# Static dielectric constant tensor:
#      x y z
#    x 1.616750 0.000000 -0.016120 
#    y 0.000000 1.618590 0.000000 
#    z -0.016120 0.000000 1.555480 
# 
# From -- ./inp_files/218961.got.cif
#   From: 2010.05.17/outbox.cif.g08.bks.cpg/sg12_110_cif.got.tgz:218961.got - 2010.06.03 13:09:07.
