data_PCOD9204991
_publ_section_title
;
Structure prediction by ZEFSAII (Michael W. Deem and Ramdas Pophale) SiO2 
 PCOD9204991
Probable space group: C 2/M
;
_chemical_formula_sum "Si O2"
_cell_formula_units_Z 36
_cell_length_a 18.439942
_cell_length_b 10.465861
_cell_length_c 14.121911
_cell_angle_alpha 90.000000
_cell_angle_beta 41.279474
_cell_angle_gamma 90.000000
_cell_volume 1798.025532
_symmetry_space_group_name_H-M "C 2/M"
_symmetry_group_IT_number 12
_symmetry_cell_setting 'monoclinic'
loop_
_space_group_symop_operation_xyz
x,y,z
-x,y,-z
-x,-y,-z
x,-y,z
1/2+x,1/2+y,z
1/2-x,1/2+y,-z
1/2-x,1/2-y,-z
1/2+x,1/2-y,z
loop_
_atom_site_type_symbol
_atom_site_label
_atom_site_fract_x
_atom_site_fract_y
_atom_site_fract_z
Si Si1 0.186407 0.642034 0.443611
Si Si2 0.000000 0.248221 0.500000
Si Si3 0.639594 0.854817 0.715477
Si Si4 0.102762 0.351675 0.082734
Si Si5 0.847289 0.856292 0.806121
O O1 0.229957 0.500000 0.383112
O O2 0.078002 0.667367 0.489486
O O3 0.276030 0.749351 0.331609
O O4 0.154349 0.649544 0.586180
O O5 0.921421 0.163426 0.642190
O O6 0.511123 0.827495 0.859618
O O7 0.665205 0.000000 0.721463
O O8 0.095090 0.500000 0.124184
O O9 0.116778 0.251140 0.153912
O O10 0.217163 0.341271 0.913951
O O11 0.862809 0.000000 0.829439
#
# Coordination Sequence:
#
# PCOD9204991 Si02
#       5
#     8   4   8   8   8
#     4  10  21  35  56  83 111 148 188 229 279 330
#     4  12  22  36  54  86 122 148 178 230 284 338
#     4   9  18  36  58  81 108 144 188 233 276 330
#     4   9  18  37  59  81 109 148 191 229 275 331
#     4  10  21  34  55  84 115 148 186 230 276 329
#
# _framework density 20.021963
#
# number of rings (size 3 to 8) (size 9 to 14) (size 15 to 20)
#    0.000    2.222    2.222    0.667    0.000    3.556 
#    0.000    1.111    0.000    5.333    0.000    0.000 
#    0.000    0.000    0.000    0.000    0.000    0.000 
#
# Total GULP energy -100463.414513 kJ/mol
# GULP energy per Si atom -5581.300806 kJ/mol
# Density = 1.997639 g / cm^3
# Si number density = 20.021963 Si / 1000 Ang^3
#
#
#
# Elastic Constant Matrix: (Units=GPa)
#
#
# Indices 1 2 3 4 5 6 
#
# 1 80.8973 62.3160 26.7398 0.0000 -26.8890 0.0000
# 2 62.3160 114.3416 49.7424 0.0000 -26.7201 0.0000
# 3 26.7398 49.7424 111.9974 0.0000 -26.7634 0.0000
# 4 0.0000 0.0000 0.0000 19.0444 0.0000 -9.6236
# 5 -26.8890 -26.7201 -26.7634 0.0000 30.6260 0.0000
# 6 0.0000 0.0000 0.0000 -9.6236 0.0000 18.1178
#
#
#
# Elastic Compliance Matrix: (Units=1/GPa)
#
#
# Indices 1 2 3 4 5 6 
#
# 1 0.025058 -0.011416 0.002483 0.000000 0.014210 0.000000
# 2 -0.011416 0.017225 -0.004713 0.000000 0.000887 0.000000
# 3 0.002483 -0.004713 0.012598 0.000000 0.009078 0.000000
# 4 0.000000 0.000000 0.000000 0.071774 0.000000 0.038124
# 5 0.014210 0.000887 0.009078 0.000000 0.053835 0.000000
# 6 0.000000 0.000000 0.000000 0.038124 0.000000 0.075445
#
#
# Mechanical properties :
#
#
# Convention : Reuss Voigt Hill
#
# Bulk Modulus (GPa) = 36.24478 64.98141 50.61310
# Shear Modulus (GPa) = 17.09859 24.78684 20.94271
#
# Velocity S-wave (km/s) = 2.92548 3.52231 3.23768
# Velocity P-wave (km/s) = 5.43627 7.00484 6.26980
#
# Compressibility (1/GPa) = 0.02759018
#
# Stress axis : x y z
#
# Youngs Moduli (GPa) = 39.90801 58.05582 79.37588
#
# Poissons Ratio (x) = 0.66276 -0.19712
# Poissons Ratio (y) = 0.45559 0.37408
# Poissons Ratio (z) = -0.09911 0.27360
#
# Static dielectric constant tensor:
#      x y z
#    x 1.700690 0.000000 0.002240 
#    y 0.000000 1.693520 0.000000 
#    z 0.002240 0.000000 1.722280 
# 
# From -- ./inp_files/230774.got.cif
#   From: 2010.05.17/outbox.cif.g08.bks.cpg/sg12_116_cif.got.tgz:230774.got - 2010.06.03 13:09:07.
