data_PCOD9204810
_publ_section_title
;
Structure prediction by ZEFSAII (Michael W. Deem and Ramdas Pophale) SiO2 
 PCOD9204810
Probable space group: C 2/M
;
_chemical_formula_sum "Si O2"
_cell_formula_units_Z 64
_cell_length_a 28.663719
_cell_length_b 22.778849
_cell_length_c 5.274415
_cell_angle_alpha 90.000000
_cell_angle_beta 68.519456
_cell_angle_gamma 90.000000
_cell_volume 3204.605516
_symmetry_space_group_name_H-M "C 2/M"
_symmetry_group_IT_number 12
_symmetry_cell_setting 'monoclinic'
loop_
_space_group_symop_operation_xyz
x,y,z
-x,y,-z
-x,-y,-z
x,-y,z
1/2+x,1/2+y,z
1/2-x,1/2+y,-z
1/2-x,1/2-y,-z
1/2+x,1/2-y,z
loop_
_atom_site_type_symbol
_atom_site_label
_atom_site_fract_x
_atom_site_fract_y
_atom_site_fract_z
Si Si1 0.031739 0.177791 0.689531
Si Si2 0.031125 0.319386 0.685805
Si Si3 0.357811 0.338965 0.352683
Si Si4 0.168615 0.431883 0.748093
Si Si5 0.779586 0.931788 0.747073
Si Si6 0.362643 0.867664 0.693235
Si Si7 0.285307 0.337883 0.104096
Si Si8 0.701583 0.762624 0.324689
O O1 0.036820 0.248623 0.676004
O O2 0.087701 0.154312 0.635307
O O3 0.000000 0.161155 0.500000
O O4 0.000000 0.161414 0.000000
O O5 0.084506 0.348500 0.530245
O O6 0.000000 0.335210 0.500000
O O7 0.000000 0.335629 0.000000
O O8 0.321677 0.389842 0.538651
O O9 0.342327 0.343192 0.087296
O O10 0.339565 0.271358 0.427849
O O11 0.154620 0.500000 0.786832
O O12 0.227236 0.426976 0.704477
O O13 0.160059 0.407926 0.483815
O O14 0.138381 0.397709 0.029672
O O15 0.793966 0.000000 0.733177
O O16 0.770208 0.901727 0.038952
O O17 0.328442 0.809624 0.783148
O O18 0.245321 0.303291 0.363104
O O19 0.281283 0.292584 0.878874
#
# Coordination Sequence:
#
# PCOD9204810 Si02
#       8
#     8   8   8   8   8   8   8   8
#     4  10  23  39  61  90 127 160 202 256 314 377
#     4  10  21  38  59  91 122 157 203 257 314 374
#     4  11  22  37  62  88 127 166 204 257 314 375
#     4  11  25  42  62  90 125 168 215 254 301 365
#     4  10  23  40  59  88 124 169 215 252 298 369
#     4  12  22  39  66  88 123 167 207 257 315 369
#     4  10  21  36  56  89 130 160 201 251 312 381
#     4  10  21  33  55  93 127 162 195 248 314 388
#
# _framework density 19.971257000000001
#
# number of rings (size 3 to 8) (size 9 to 14) (size 15 to 20)
#    0.000    1.500    2.500    2.250    5.250    1.500 
#    0.000    0.000    0.000    8.250    0.000    0.000 
#    0.000    0.000    0.000    0.000    0.000    0.000 
#
# Total GULP energy -178281.040830 kJ/mol
# GULP energy per Si atom -5571.282526 kJ/mol
# Density = 1.992580 g / cm^3
# Si number density = 19.971257 Si / 1000 Ang^3
#
#
#
# Elastic Constant Matrix: (Units=GPa)
#
#
# Indices 1 2 3 4 5 6 
#
# 1 124.5792 18.7705 26.0835 0.0000 -3.2706 0.0000
# 2 18.7705 92.6565 18.6862 0.0000 -4.5298 0.0000
# 3 26.0835 18.6862 85.0458 0.0000 1.9108 0.0000
# 4 0.0000 0.0000 0.0000 17.4763 0.0000 2.6028
# 5 -3.2706 -4.5298 1.9108 0.0000 32.2484 0.0000
# 6 0.0000 0.0000 0.0000 2.6028 0.0000 29.1641
#
#
#
# Elastic Compliance Matrix: (Units=1/GPa)
#
#
# Indices 1 2 3 4 5 6 
#
# 1 0.008745 -0.001240 -0.002429 0.000000 0.000857 0.000000
# 2 -0.001240 0.011567 -0.002198 0.000000 0.001629 0.000000
# 3 -0.002429 -0.002198 0.013016 0.000000 -0.001326 0.000000
# 4 0.000000 0.000000 0.000000 0.057991 0.000000 -0.005176
# 5 0.000857 0.001629 -0.001326 0.000000 0.031404 0.000000
# 6 0.000000 0.000000 0.000000 -0.005176 0.000000 0.034751
#
#
# Mechanical properties :
#
#
# Convention : Reuss Voigt Hill
#
# Bulk Modulus (GPa) = 46.30803 47.70688 47.00746
# Shear Modulus (GPa) = 28.34402 31.69383 30.01892
#
# Velocity S-wave (km/s) = 3.77137 3.98800 3.88120
# Velocity P-wave (km/s) = 6.49630 6.71902 6.60860
#
# Compressibility (1/GPa) = 0.02159453
#
# Stress axis : x y z
#
# Youngs Moduli (GPa) = 114.35286 86.45583 76.82851
#
# Poissons Ratio (x) = 0.10719 0.18661
# Poissons Ratio (y) = 0.14178 0.16885
# Poissons Ratio (z) = 0.27775 0.19001
#
# Static dielectric constant tensor:
#      x y z
#    x 1.709050 0.000000 -0.033170 
#    y 0.000000 1.682160 0.000000 
#    z -0.033170 0.000000 1.868260 
# 
# From -- ./inp_files/26054.got.cif
#   From: 2010.05.17/outbox.cif.g08.bks.cpg/sg12_14_cif.got.tgz:26054.got - 2010.06.03 13:09:07.
