data_PCOD9204030
_publ_section_title
;
Structure prediction by ZEFSAII (Michael W. Deem and Ramdas Pophale) SiO2 
 PCOD9204030
Probable space group: C 2/M
;
_chemical_formula_sum "Si O2"
_cell_formula_units_Z 50
_cell_length_a 10.366195
_cell_length_b 15.210514
_cell_length_c 15.379000
_cell_angle_alpha 90.000000
_cell_angle_beta 105.891002
_cell_angle_gamma 90.000000
_cell_volume 2332.217525
_symmetry_space_group_name_H-M "C 2/M"
_symmetry_group_IT_number 12
_symmetry_cell_setting 'monoclinic'
loop_
_space_group_symop_operation_xyz
x,y,z
-x,y,-z
-x,-y,-z
x,-y,z
1/2+x,1/2+y,z
1/2-x,1/2+y,-z
1/2-x,1/2-y,-z
1/2+x,1/2-y,z
loop_
_atom_site_type_symbol
_atom_site_label
_atom_site_fract_x
_atom_site_fract_y
_atom_site_fract_z
Si Si1 0.000000 0.500000 0.500000
Si Si2 0.089948 0.634562 0.648008
Si Si3 0.075513 0.893949 0.928339
Si Si4 0.365190 0.102755 0.932769
Si Si5 0.346486 0.864402 0.725074
Si Si6 0.446067 0.343925 0.393875
Si Si7 0.619477 0.345683 0.263340
O O1 0.091229 0.576948 0.562444
O O2 0.072015 0.737709 0.621187
O O3 0.230233 0.620785 0.722896
O O4 0.963833 0.603895 0.682687
O O5 0.225601 0.858191 0.942027
O O6 0.984417 0.871646 0.829373
O O7 0.083971 0.000000 0.935211
O O8 0.000000 0.861624 0.000000
O O9 0.362242 0.105809 0.827436
O O10 0.363611 0.000000 0.957975
O O11 0.500000 0.141542 0.000000
O O12 0.199441 0.883139 0.658375
O O13 0.365794 0.759439 0.732057
O O14 0.500000 0.362415 0.500000
O O15 0.555557 0.373151 0.343345
#
# Coordination Sequence:
#
# PCOD9204030 Si02
#       7
#     2   8   8   8   8   8   8
#     4  12  24  40  52  94 128 160 202 238 300 368
#     4  10  24  36  59  86 124 159 197 244 295 356
#     4  10  22  41  63  87 119 156 198 246 304 362
#     4  10  22  41  63  87 119 156 198 246 304 362
#     4  10  22  40  61  90 119 157 204 248 298 354
#     4  10  20  40  64  84 118 160 205 250 297 343
#     4  10  22  40  61  90 119 157 204 248 298 354
#
# _framework density 21.438822999999999
#
# number of rings (size 3 to 8) (size 9 to 14) (size 15 to 20)
#    0.000    1.920    2.400    0.000    6.720    2.560 
#    0.000    1.600    0.000    1.920    0.000    0.000 
#    0.000    0.000    0.000    0.000    0.000    0.000 
#
# Total GULP energy -139376.279365 kJ/mol
# GULP energy per Si atom -5575.051175 kJ/mol
# Density = 2.139003 g / cm^3
# Si number density = 21.438823 Si / 1000 Ang^3
#
#
#
# Elastic Constant Matrix: (Units=GPa)
#
#
# Indices 1 2 3 4 5 6 
#
# 1 136.0627 8.8975 61.3438 0.0000 29.5786 0.0000
# 2 8.8975 26.1788 -2.7991 0.0000 9.7339 0.0000
# 3 61.3438 -2.7991 143.5287 0.0000 17.4976 0.0000
# 4 0.0000 0.0000 0.0000 28.9093 0.0000 8.5204
# 5 29.5786 9.7339 17.4976 0.0000 36.2239 0.0000
# 6 0.0000 0.0000 0.0000 8.5204 0.0000 28.6720
#
#
#
# Elastic Compliance Matrix: (Units=1/GPa)
#
#
# Indices 1 2 3 4 5 6 
#
# 1 0.010530 -0.001621 -0.003758 0.000000 -0.006347 0.000000
# 2 -0.001621 0.043452 0.002978 0.000000 -0.011791 0.000000
# 3 -0.003758 0.002978 0.008878 0.000000 -0.002020 0.000000
# 4 0.000000 0.000000 0.000000 0.037911 0.000000 -0.011266
# 5 -0.006347 -0.011791 -0.002020 0.000000 0.036933 0.000000
# 6 0.000000 0.000000 0.000000 -0.011266 0.000000 0.038225
#
#
# Mechanical properties :
#
#
# Convention : Reuss Voigt Hill
#
# Bulk Modulus (GPa) = 17.22440 48.96161 33.09300
# Shear Modulus (GPa) = 24.98950 34.64959 29.81955
#
# Velocity S-wave (km/s) = 3.41782 4.02457 3.73354
# Velocity P-wave (km/s) = 4.86076 6.66960 5.83569
#
# Compressibility (1/GPa) = 0.05805717
#
# Stress axis : x y z
#
# Youngs Moduli (GPa) = 94.96935 23.01380 112.64087
#
# Poissons Ratio (x) = 0.03730 0.42333
# Poissons Ratio (y) = 0.15390 -0.33539
# Poissons Ratio (z) = 0.35691 -0.06852
#
# Static dielectric constant tensor:
#      x y z
#    x 1.811350 0.000000 0.003150 
#    y 0.000000 1.785560 0.000000 
#    z 0.003150 0.000000 1.771850 
# 
# From -- ./inp_files/256678.got.cif
#   From: 2010.05.17/outbox.cif.g08.bks.cpg/sg12_129_cif.got.tgz:256678.got - 2010.06.03 13:09:07.
