data_PCOD9204348
_publ_section_title
;
Structure prediction by ZEFSAII (Michael W. Deem and Ramdas Pophale) SiO2 
 PCOD9204348
Probable space group: C 2/M
;
_chemical_formula_sum "Si O2"
_cell_formula_units_Z 56
_cell_length_a 11.035901
_cell_length_b 31.132238
_cell_length_c 9.223173
_cell_angle_alpha 90.000000
_cell_angle_beta 133.551986
_cell_angle_gamma 90.000000
_cell_volume 2296.605618
_symmetry_space_group_name_H-M "C 2/M"
_symmetry_group_IT_number 12
_symmetry_cell_setting 'monoclinic'
loop_
_space_group_symop_operation_xyz
x,y,z
-x,y,-z
-x,-y,-z
x,-y,z
1/2+x,1/2+y,z
1/2-x,1/2+y,-z
1/2-x,1/2-y,-z
1/2+x,1/2-y,z
loop_
_atom_site_type_symbol
_atom_site_label
_atom_site_fract_x
_atom_site_fract_y
_atom_site_fract_z
Si Si1 0.010033 0.403022 0.854457
Si Si2 0.313587 0.307787 0.787997
Si Si3 0.253989 0.783073 0.679556
Si Si4 0.367321 0.187236 0.061020
Si Si5 0.778925 0.547831 0.198922
Si Si6 0.839655 0.866371 0.544149
Si Si7 0.046700 0.048806 0.275122
O O1 0.169128 0.385576 0.340748
O O2 0.123901 0.361733 0.985286
O O3 0.089202 0.423563 0.776710
O O4 0.000000 0.428314 0.000000
O O5 0.235028 0.267482 0.636297
O O6 0.200266 0.314467 0.833955
O O7 0.325849 0.349589 0.698277
O O8 0.500000 0.297245 0.000000
O O9 0.445534 0.794543 0.794941
O O10 0.139668 0.820249 0.518145
O O11 0.252112 0.787209 0.853699
O O12 0.849034 0.500000 0.256618
O O13 0.706621 0.555338 0.300096
O O14 0.615293 0.548492 0.960822
O O15 0.962298 0.907402 0.639238
O O16 0.059642 0.000000 0.349769
#
# Coordination Sequence:
#
# PCOD9204348 Si02
#       7
#     8   8   8   8   8   8   8
#     4  11  22  42  65  86 131 176 216 267 323 391
#     4  12  25  38  66  97 130 172 221 275 327 390
#     4  10  21  43  61  88 128 176 215 265 324 384
#     4  10  20  41  65  83 127 170 211 263 329 373
#     4   9  20  39  67  95 129 170 212 265 332 396
#     4  11  24  41  64 102 128 171 225 272 325 392
#     4   9  20  41  66  98 134 166 209 273 331 386
#
# _framework density 24.38381
#
# number of rings (size 3 to 8) (size 9 to 14) (size 15 to 20)
#    0.000    1.714    4.286    2.571    4.000    6.000 
#    0.000    4.286    0.000    1.714    0.000    0.000 
#    0.000    0.000    0.000    0.000    0.000    0.000 
#
# Total GULP energy -156430.751616 kJ/mol
# GULP energy per Si atom -5586.812558 kJ/mol
# Density = 2.432831 g / cm^3
# Si number density = 24.383810 Si / 1000 Ang^3
#
#
#
# Elastic Constant Matrix: (Units=GPa)
#
#
# Indices 1 2 3 4 5 6 
#
# 1 89.3144 -2.3592 18.4863 0.0000 -15.6015 0.0000
# 2 -2.3592 138.7432 29.6901 0.0000 1.4356 0.0000
# 3 18.4863 29.6901 78.1328 0.0000 -5.2165 0.0000
# 4 0.0000 0.0000 0.0000 9.0080 0.0000 8.4469
# 5 -15.6015 1.4356 -5.2165 0.0000 26.8351 0.0000
# 6 0.0000 0.0000 0.0000 8.4469 0.0000 5.8484
#
#
#
# Elastic Compliance Matrix: (Units=1/GPa)
#
#
# Indices 1 2 3 4 5 6 
#
# 1 0.013038 0.000773 -0.002913 0.000000 0.006972 0.000000
# 2 0.000773 0.007919 -0.003232 0.000000 -0.000603 0.000000
# 3 -0.002913 -0.003232 0.014807 0.000000 0.001358 0.000000
# 4 0.000000 0.000000 0.000000 -0.313289 0.000000 0.452487
# 5 0.006972 -0.000603 0.001358 0.000000 0.041614 0.000000
# 6 0.000000 0.000000 0.000000 0.452487 0.000000 -0.482546
#
#
# Mechanical properties :
#
#
# Convention : Reuss Voigt Hill
#
# Bulk Modulus (GPa) = 39.97008 44.20275 42.08641
# Shear Modulus (GPa) = -7.14926 25.69652 9.27363
#
# Velocity S-wave (km/s) = -1.71416 3.24981 1.95229
# Velocity P-wave (km/s) = 3.53693 5.67881 4.73069
#
# Compressibility (1/GPa) = 0.02501872
#
# Stress axis : x y z
#
# Youngs Moduli (GPa) = 76.70093 126.28514 67.53677
#
# Poissons Ratio (x) = -0.09761 0.19673
# Poissons Ratio (y) = -0.05928 0.21829
# Poissons Ratio (z) = 0.22342 0.40817
#
# Static dielectric constant tensor:
#      x y z
#    x 1.975000 0.000000 -0.070310 
#    y 0.000000 1.972580 0.000000 
#    z -0.070310 0.000000 1.978260 
# 
# From -- ./inp_files/54776.got.cif
#   From: 2010.05.17/outbox.cif.g08.bks.cpg/sg12_28_cif.got.tgz:54776.got - 2010.06.03 13:09:07.
