data_PCOD9204964
_publ_section_title
;
Structure prediction by ZEFSAII (Michael W. Deem and Ramdas Pophale) SiO2 
 PCOD9204964
Probable space group: C 2/M
;
_chemical_formula_sum "Si O2"
_cell_formula_units_Z 58
_cell_length_a 20.465473
_cell_length_b 21.226911
_cell_length_c 11.788221
_cell_angle_alpha 90.000000
_cell_angle_beta 141.434266
_cell_angle_gamma 90.000000
_cell_volume 3192.508612
_symmetry_space_group_name_H-M "C 2/M"
_symmetry_group_IT_number 12
_symmetry_cell_setting 'monoclinic'
loop_
_space_group_symop_operation_xyz
x,y,z
-x,y,-z
-x,-y,-z
x,-y,z
1/2+x,1/2+y,z
1/2-x,1/2+y,-z
1/2-x,1/2-y,-z
1/2+x,1/2-y,z
loop_
_atom_site_type_symbol
_atom_site_label
_atom_site_fract_x
_atom_site_fract_y
_atom_site_fract_z
Si Si1 0.624005 0.572086 0.698404
Si Si2 0.609881 0.209303 0.211712
Si Si3 0.708267 0.386016 0.578837
Si Si4 0.500000 0.500000 0.000000
Si Si5 0.245918 0.189362 0.261506
Si Si6 0.209934 0.934855 0.333571
Si Si7 0.338163 0.696479 0.099305
Si Si8 0.572718 0.739023 0.410297
O O1 0.500000 0.579799 0.500000
O O2 0.635991 0.500000 0.761143
O O3 0.688120 0.577641 0.667887
O O4 0.660168 0.631677 0.824666
O O5 0.679869 0.148322 0.280265
O O6 0.675830 0.267186 0.248932
O O7 0.591361 0.222886 0.318854
O O8 0.500000 0.205427 0.000000
O O9 0.695124 0.425663 0.447473
O O10 0.623182 0.329797 0.462448
O O11 0.593477 0.446340 0.127347
O O12 0.262650 0.123956 0.347136
O O13 0.356030 0.226242 0.399008
O O14 0.183344 0.179183 0.060908
O O15 0.270000 0.000000 0.394527
O O16 0.451179 0.728955 0.268210
O O17 0.250000 0.750000 0.000000
#
# Coordination Sequence:
#
# PCOD9204964 Si02
#       8
#     8   8   8   2   8   8   8   8
#     4  11  25  43  62  90 131 174 212 260 319 383
#     4  11  20  33  61  95 120 155 201 253 326 369
#     4  11  20  39  61  86 124 162 198 254 315 375
#     4   8  24  28  52  88 124 150 196 236 292 386
#     4  11  22  37  59  88 123 158 196 257 320 368
#     4  10  21  34  53  87 120 153 195 243 312 374
#     4  12  26  40  65  92 123 167 217 262 310 380
#     4  11  21  37  62  89 127 154 202 265 317 381
#
# _framework density 18.167529999999999
#
# number of rings (size 3 to 8) (size 9 to 14) (size 15 to 20)
#    0.414    0.690    5.517    2.897    2.897    0.552 
#    2.483    0.000    0.000    4.138    0.000    1.931 
#    0.000    0.000    0.000    0.000    0.000    0.000 
#
# Total GULP energy -161470.046357 kJ/mol
# GULP energy per Si atom -5567.932633 kJ/mol
# Density = 1.812618 g / cm^3
# Si number density = 18.167530 Si / 1000 Ang^3
#
#
#
# Elastic Constant Matrix: (Units=GPa)
#
#
# Indices 1 2 3 4 5 6 
#
# 1 55.3081 29.9042 15.7944 0.0000 9.0981 0.0000
# 2 29.9042 114.3197 31.0900 0.0000 14.3821 0.0000
# 3 15.7944 31.0900 79.6497 0.0000 25.2326 0.0000
# 4 0.0000 0.0000 0.0000 8.4260 0.0000 4.3962
# 5 9.0981 14.3821 25.2326 0.0000 26.7931 0.0000
# 6 0.0000 0.0000 0.0000 4.3962 0.0000 13.5573
#
#
#
# Elastic Compliance Matrix: (Units=1/GPa)
#
#
# Indices 1 2 3 4 5 6 
#
# 1 0.021662 -0.004875 -0.001270 0.000000 -0.003542 0.000000
# 2 -0.004875 0.010989 -0.002820 0.000000 -0.001588 0.000000
# 3 -0.001270 -0.002820 0.018943 0.000000 -0.015895 0.000000
# 4 0.000000 0.000000 0.000000 0.142847 0.000000 -0.046320
# 5 -0.003542 -0.001588 -0.015895 0.000000 0.054347 0.000000
# 6 0.000000 0.000000 0.000000 -0.046320 0.000000 0.088781
#
#
# Mechanical properties :
#
#
# Convention : Reuss Voigt Hill
#
# Bulk Modulus (GPa) = 29.70575 44.76163 37.23369
# Shear Modulus (GPa) = 13.63434 21.25455 17.44445
#
# Velocity S-wave (km/s) = 2.74246 3.42412 3.10207
# Velocity P-wave (km/s) = 5.13952 6.35016 5.77664
#
# Compressibility (1/GPa) = 0.03366351
#
# Stress axis : x y z
#
# Youngs Moduli (GPa) = 46.16376 90.99752 52.79048
#
# Poissons Ratio (x) = 0.44364 0.06706
# Poissons Ratio (y) = 0.22506 0.14885
# Poissons Ratio (z) = 0.05864 0.25658
#
# Static dielectric constant tensor:
#      x y z
#    x 1.650320 0.000000 -0.026530 
#    y 0.000000 1.672760 0.000000 
#    z -0.026530 0.000000 1.631940 
# 
# From -- ./inp_files/159795.got.cif
#   From: 2010.05.17/outbox.cif.g08.bks.cpg/sg12_80_cif.got.tgz:159795.got - 2010.06.03 13:09:07.
