data_PCOD9204555
_publ_section_title
;
Structure prediction by ZEFSAII (Michael W. Deem and Ramdas Pophale) SiO2 
 PCOD9204555
Probable space group: C 2/M
;
_chemical_formula_sum "Si O2"
_cell_formula_units_Z 38
_cell_length_a 12.406765
_cell_length_b 19.760347
_cell_length_c 12.902168
_cell_angle_alpha 90.000000
_cell_angle_beta 144.806593
_cell_angle_gamma 90.000000
_cell_volume 1823.027771
_symmetry_space_group_name_H-M "C 2/M"
_symmetry_group_IT_number 12
_symmetry_cell_setting 'monoclinic'
loop_
_space_group_symop_operation_xyz
x,y,z
-x,y,-z
-x,-y,-z
x,-y,z
1/2+x,1/2+y,z
1/2-x,1/2+y,-z
1/2-x,1/2-y,-z
1/2+x,1/2-y,z
loop_
_atom_site_type_symbol
_atom_site_label
_atom_site_fract_x
_atom_site_fract_y
_atom_site_fract_z
Si Si1 0.000000 0.281078 0.000000
Si Si2 0.500000 0.500000 0.000000
Si Si3 0.073395 0.879187 0.448472
Si Si4 0.419265 0.000000 0.233413
Si Si5 0.609733 0.767517 0.686938
Si Si6 0.013441 0.358235 0.807029
Si Si7 0.645131 0.500000 0.351970
O O1 0.173060 0.236003 0.170990
O O2 0.929311 0.326655 0.038996
O O3 0.729053 0.500000 0.149364
O O4 0.561036 0.500000 0.171472
O O5 0.289118 0.859153 0.632061
O O6 0.071216 0.933739 0.355627
O O7 0.000000 0.908648 0.500000
O O8 0.964941 0.808384 0.349062
O O9 0.420509 0.933587 0.163109
O O10 0.623959 0.000000 0.454719
O O11 0.500000 0.793681 0.500000
O O12 0.580117 0.812511 0.764152
#
# Coordination Sequence:
#
# PCOD9204555 Si02
#       7
#     4   2   8   4   8   8   4
#     4  12  24  42  68 103 131 168 226 278 328 392
#     4  12  26  44  66  96 132 180 220 258 342 394
#     4  10  20  42  69  94 130 175 221 270 331 382
#     4  10  27  47  67  96 133 179 223 269 326 396
#     4  11  24  43  67  98 134 175 220 271 331 393
#     4  11  24  45  68  97 137 173 221 278 327 390
#     4  10  24  43  68  96 136 171 221 278 321 400
#
# _framework density 20.844442999999998
#
# number of rings (size 3 to 8) (size 9 to 14) (size 15 to 20)
#    0.000    1.263    4.211    1.895    2.947    4.632 
#    0.000    0.000    0.000    0.000    0.000    0.000 
#    0.000    0.000    0.000    0.000    0.000    0.000 
#
# Total GULP energy -105912.242386 kJ/mol
# GULP energy per Si atom -5574.328547 kJ/mol
# Density = 2.079700 g / cm^3
# Si number density = 20.844443 Si / 1000 Ang^3
#
#
#
# Elastic Constant Matrix: (Units=GPa)
#
#
# Indices 1 2 3 4 5 6 
#
# 1 129.2995 49.8574 41.4522 0.0000 -12.0911 0.0000
# 2 49.8574 55.4656 33.3586 0.0000 -11.9927 0.0000
# 3 41.4522 33.3586 82.8423 0.0000 -20.0875 0.0000
# 4 0.0000 0.0000 0.0000 -30.5026 0.0000 2.7771
# 5 -12.0911 -11.9927 -20.0875 0.0000 56.4299 0.0000
# 6 0.0000 0.0000 0.0000 2.7771 0.0000 -6.7895
#
#
#
# Elastic Compliance Matrix: (Units=1/GPa)
#
#
# Indices 1 2 3 4 5 6 
#
# 1 0.012141 -0.009602 -0.002268 0.000000 -0.000247 0.000000
# 2 -0.009602 0.031554 -0.007414 0.000000 0.002009 0.000000
# 3 -0.002268 -0.007414 0.017174 0.000000 0.004052 0.000000
# 4 0.000000 0.000000 0.000000 -0.034052 0.000000 -0.013928
# 5 -0.000247 0.002009 0.004052 0.000000 0.019538 0.000000
# 6 0.000000 0.000000 0.000000 -0.013928 0.000000 -0.152983
#
#
# Mechanical properties :
#
#
# Convention : Reuss Voigt Hill
#
# Bulk Modulus (GPa) = 44.84361 57.43819 51.14090
# Shear Modulus (GPa) = -82.47300 13.35684 -34.55808
#
# Velocity S-wave (km/s) = -6.29697 2.53412 -4.07615
# Velocity P-wave (km/s) = 5.59544 6.01480 1.56027
#
# Compressibility (1/GPa) = 0.02229972
#
# Stress axis : x y z
#
# Youngs Moduli (GPa) = 82.36774 31.69152 58.22767
#
# Poissons Ratio (x) = 0.30431 0.13206
# Poissons Ratio (y) = 0.79093 0.43170
# Poissons Ratio (z) = 0.18682 0.23496
#
# Static dielectric constant tensor:
#      x y z
#    x 1.583980 0.000000 0.147240 
#    y 0.000000 1.737460 0.000000 
#    z 0.147240 0.000000 1.663580 
# 
# From -- ./inp_files/134220.got.cif
#   From: 2010.05.17/outbox.cif.g08.bks.cpg/sg12_68_cif.got.tgz:134220.got - 2010.06.03 13:09:07.
