data_PCOD9204813
_publ_section_title
;
Structure prediction by ZEFSAII (Michael W. Deem and Ramdas Pophale) SiO2 
 PCOD9204813
Probable space group: C 2/M
;
_chemical_formula_sum "Si O2"
_cell_formula_units_Z 52
_cell_length_a 5.380244
_cell_length_b 25.448169
_cell_length_c 21.220136
_cell_angle_alpha 90.000000
_cell_angle_beta 69.806372
_cell_angle_gamma 90.000000
_cell_volume 2726.813847
_symmetry_space_group_name_H-M "C 2/M"
_symmetry_group_IT_number 12
_symmetry_cell_setting 'monoclinic'
loop_
_space_group_symop_operation_xyz
x,y,z
-x,y,-z
-x,-y,-z
x,-y,z
1/2+x,1/2+y,z
1/2-x,1/2+y,-z
1/2-x,1/2-y,-z
1/2+x,1/2-y,z
loop_
_atom_site_type_symbol
_atom_site_label
_atom_site_fract_x
_atom_site_fract_y
_atom_site_fract_z
Si Si1 0.898764 0.265295 0.809436
Si Si2 0.193972 0.000000 0.041814
Si Si3 0.720165 0.563714 0.343057
Si Si4 0.611142 0.936274 0.423047
Si Si5 0.019127 0.103851 0.877672
Si Si6 0.747040 0.703169 0.051260
Si Si7 0.892928 0.616354 0.197909
O O1 0.170833 0.233725 0.777089
O O2 0.005363 0.323817 0.807749
O O3 0.755845 0.235493 0.882006
O O4 0.128152 0.053467 0.083259
O O5 0.500000 0.000000 0.000000
O O6 0.000000 0.000000 0.000000
O O7 0.731508 0.500000 0.334266
O O8 0.416677 0.578337 0.385269
O O9 0.810241 0.591729 0.271347
O O10 0.917596 0.578507 0.382672
O O11 0.500000 0.917517 0.500000
O O12 0.607265 0.000000 0.425347
O O13 0.972216 0.157896 0.921457
O O14 0.858985 0.114262 0.826557
O O15 0.329886 0.089939 0.847816
O O16 0.750000 0.750000 0.000000
O O17 0.000000 0.672178 0.000000
#
# Coordination Sequence:
#
# PCOD9204813 Si02
#       7
#     8   4   8   8   8   8   8
#     4  12  22  40  56  86 114 142 178 250 311 360
#     4  12  28  48  60  82 114 150 207 246 297 372
#     4  10  21  33  56  87 118 164 199 227 271 348
#     4   9  17  33  55  86 124 157 194 240 282 317
#     4  12  26  42  62  83 113 158 189 254 306 350
#     4  12  21  36  61  85 104 136 187 246 316 374
#     4  12  23  41  59  86 119 153 198 236 293 361
#
# _framework density 19.069873999999999
#
# number of rings (size 3 to 8) (size 9 to 14) (size 15 to 20)
#    0.000    0.769    4.615    2.769    2.154    3.692 
#    0.000    0.000    0.000    0.000    0.000    0.000 
#    0.000   12.308    0.000    0.000    0.000    0.000 
#
# Total GULP energy -144908.374506 kJ/mol
# GULP energy per Si atom -5573.399019 kJ/mol
# Density = 1.902647 g / cm^3
# Si number density = 19.069874 Si / 1000 Ang^3
#
#
#
# Elastic Constant Matrix: (Units=GPa)
#
#
# Indices 1 2 3 4 5 6 
#
# 1 127.8276 6.9733 34.2763 0.0000 -4.8226 0.0000
# 2 6.9733 76.3160 38.1911 0.0000 -0.5514 0.0000
# 3 34.2763 38.1911 86.5335 0.0000 -8.4824 0.0000
# 4 0.0000 0.0000 0.0000 17.9753 0.0000 1.0666
# 5 -4.8226 -0.5514 -8.4824 0.0000 31.3277 0.0000
# 6 0.0000 0.0000 0.0000 1.0666 0.0000 21.1362
#
#
#
# Elastic Compliance Matrix: (Units=1/GPa)
#
#
# Indices 1 2 3 4 5 6 
#
# 1 0.008842 0.001197 -0.004001 0.000000 0.000299 0.000000
# 2 0.001197 0.017075 -0.008179 0.000000 -0.001730 0.000000
# 3 -0.004001 -0.008179 0.017131 0.000000 0.003879 0.000000
# 4 0.000000 0.000000 0.000000 0.055799 0.000000 -0.002816
# 5 0.000299 -0.001730 0.003879 0.000000 0.032986 0.000000
# 6 0.000000 0.000000 0.000000 -0.002816 0.000000 0.047454
#
#
# Mechanical properties :
#
#
# Convention : Reuss Voigt Hill
#
# Bulk Modulus (GPa) = 47.43841 49.95095 48.69468
# Shear Modulus (GPa) = 24.00589 28.17028 26.08809
#
# Velocity S-wave (km/s) = 3.55186 3.84762 3.70270
# Velocity P-wave (km/s) = 6.46151 6.78155 6.62346
#
# Compressibility (1/GPa) = 0.02107997
#
# Stress axis : x y z
#
# Youngs Moduli (GPa) = 113.09774 58.56570 58.37294
#
# Poissons Ratio (x) = -0.07008 0.23356
# Poissons Ratio (y) = -0.13532 0.47746
# Poissons Ratio (z) = 0.45252 0.47903
#
# Static dielectric constant tensor:
#      x y z
#    x 1.909930 0.000000 -0.008320 
#    y 0.000000 1.644930 0.000000 
#    z -0.008320 0.000000 1.664520 
# 
# From -- ./inp_files/298069.got.cif
#   From: 2010.05.17/outbox.cif.g08.bks.cpg/sg12_150_cif.got.tgz:298069.got - 2010.06.03 13:09:07.
