data_PCOD9204466
_publ_section_title
;
Structure prediction by ZEFSAII (Michael W. Deem and Ramdas Pophale) SiO2 
 PCOD9204466
Probable space group: C 2/M
;
_chemical_formula_sum "Si O2"
_cell_formula_units_Z 52
_cell_length_a 9.712344
_cell_length_b 22.585072
_cell_length_c 18.750452
_cell_angle_alpha 90.000000
_cell_angle_beta 137.669811
_cell_angle_gamma 90.000000
_cell_volume 2769.693824
_symmetry_space_group_name_H-M "C 2/M"
_symmetry_group_IT_number 12
_symmetry_cell_setting 'monoclinic'
loop_
_space_group_symop_operation_xyz
x,y,z
-x,y,-z
-x,-y,-z
x,-y,z
1/2+x,1/2+y,z
1/2-x,1/2+y,-z
1/2-x,1/2-y,-z
1/2+x,1/2-y,z
loop_
_atom_site_type_symbol
_atom_site_label
_atom_site_fract_x
_atom_site_fract_y
_atom_site_fract_z
Si Si1 0.493601 0.000000 0.770252
Si Si2 0.596292 0.000000 0.115862
Si Si3 0.136180 0.128427 0.437252
Si Si4 0.790565 0.305921 0.717784
Si Si5 0.192590 0.367615 0.126229
Si Si6 0.985440 0.620689 0.309327
Si Si7 0.484357 0.500000 0.407981
Si Si8 0.353155 0.332248 0.720308
O O1 0.528272 0.942174 0.736022
O O2 0.568920 0.000000 0.881567
O O3 0.254222 0.000000 0.697228
O O4 0.709269 0.063841 0.158371
O O5 0.500000 0.000000 0.000000
O O6 0.323823 0.129829 0.563705
O O7 0.189074 0.151520 0.378652
O O8 0.933230 0.164842 0.384017
O O9 0.079313 0.059348 0.413737
O O10 0.838237 0.327454 0.815775
O O11 0.963241 0.332194 0.732292
O O12 0.793561 0.235857 0.710301
O O13 0.407702 0.346299 0.176100
O O14 0.000000 0.362669 0.000000
O O15 0.784643 0.630843 0.278420
O O16 0.500000 0.500000 0.500000
#
# Coordination Sequence:
#
# PCOD9204466 Si02
#       8
#     4   4   8   8   8   8   4   8
#     4  12  20  36  63  94 124 159 201 263 309 364
#     4  10  20  41  74  95 112 154 213 253 313 388
#     4  11  22  38  61  86 125 174 210 247 295 371
#     4  11  22  40  62  86 124 167 213 247 294 377
#     4  10  22  44  71  90 116 160 209 258 318 382
#     4  12  22  36  60  91 127 161 204 260 308 351
#     4  12  18  37  61  91 114 162 227 246 287 379
#     4  11  26  39  55  93 128 162 208 256 310 359
#
# _framework density 18.774639000000001
#
# number of rings (size 3 to 8) (size 9 to 14) (size 15 to 20)
#    0.000    0.923    4.615    3.692    0.000    5.538 
#    0.000    2.308    0.000    1.846    0.000    0.000 
#    0.000    0.000    0.000    0.000    0.000    0.000 
#
# Total GULP energy -145109.878551 kJ/mol
# GULP energy per Si atom -5581.149175 kJ/mol
# Density = 1.873191 g / cm^3
# Si number density = 18.774639 Si / 1000 Ang^3
#
#
#
# Elastic Constant Matrix: (Units=GPa)
#
#
# Indices 1 2 3 4 5 6 
#
# 1 122.1404 39.6638 52.8631 -0.0001 -9.2769 0.0001
# 2 39.6638 140.3790 41.6386 0.0000 -5.1289 0.0000
# 3 52.8631 41.6386 106.0132 -0.0002 -14.6710 0.0000
# 4 -0.0001 0.0000 -0.0002 20.7948 -0.0001 -29.4357
# 5 -9.2769 -5.1289 -14.6710 -0.0001 20.1048 0.0000
# 6 0.0001 0.0000 0.0000 -29.4357 0.0000 23.2850
#
#
#
# Elastic Compliance Matrix: (Units=1/GPa)
#
#
# Indices 1 2 3 4 5 6 
#
# 1 0.010791 -0.001651 -0.004563 0.000000 0.001229 0.000000
# 2 -0.001651 0.008317 -0.002509 0.000000 -0.000471 0.000000
# 3 -0.004563 -0.002509 0.013696 0.000000 0.007249 0.000000
# 4 0.000000 0.000000 0.000000 -0.060915 0.000000 -0.077006
# 5 0.001229 -0.000471 0.007249 0.000000 0.055476 0.000000
# 6 0.000000 0.000000 0.000000 -0.077006 0.000000 -0.054401
#
#
# Mechanical properties :
#
#
# Convention : Reuss Voigt Hill
#
# Bulk Modulus (GPa) = 65.10127 70.76262 67.93194
# Shear Modulus (GPa) = -1118.53012 28.46140 -545.03436
#
# Velocity S-wave (km/s) = -24.43481 3.89774 -17.05678
# Velocity P-wave (km/s) = 27.59220 7.61767 18.75234
#
# Compressibility (1/GPa) = 0.01536068
#
# Stress axis : x y z
#
# Youngs Moduli (GPa) = 92.66565 120.23718 73.01158
#
# Poissons Ratio (x) = 0.19849 0.33313
# Poissons Ratio (y) = 0.15298 0.18315
# Poissons Ratio (z) = 0.42280 0.30162
#
# Static dielectric constant tensor:
#      x y z
#    x 1.816190 0.000000 -0.284240 
#    y 0.000000 1.740000 0.000000 
#    z -0.284240 0.000000 2.116700 
# 
# From -- ./inp_files/258447.got.cif
#   From: 2010.05.17/outbox.cif.g08.bks.cpg/sg12_130_cif.got.tgz:258447.got - 2010.06.03 13:09:07.
