data_PCOD9204095
_publ_section_title
;
Structure prediction by ZEFSAII (Michael W. Deem and Ramdas Pophale) SiO2 
 PCOD9204095
Probable space group: C 2/M
;
_chemical_formula_sum "Si O2"
_cell_formula_units_Z 64
_cell_length_a 19.793510
_cell_length_b 9.070415
_cell_length_c 31.673337
_cell_angle_alpha 90.000000
_cell_angle_beta 35.674203
_cell_angle_gamma 90.000000
_cell_volume 3316.218043
_symmetry_space_group_name_H-M "C 2/M"
_symmetry_group_IT_number 12
_symmetry_cell_setting 'monoclinic'
loop_
_space_group_symop_operation_xyz
x,y,z
-x,y,-z
-x,-y,-z
x,-y,z
1/2+x,1/2+y,z
1/2-x,1/2+y,-z
1/2-x,1/2-y,-z
1/2+x,1/2-y,z
loop_
_atom_site_type_symbol
_atom_site_label
_atom_site_fract_x
_atom_site_fract_y
_atom_site_fract_z
Si Si1 0.695815 0.676415 0.985880
Si Si2 0.278022 0.174787 0.254753
Si Si3 0.830896 0.674372 0.324244
Si Si4 0.005611 0.823948 0.386270
Si Si5 0.605468 0.824055 0.478264
Si Si6 0.771903 0.674387 0.117977
Si Si7 0.575169 0.674835 0.892503
Si Si8 0.979389 0.825627 0.717950
O O1 0.713384 0.500000 0.978020
O O2 0.746933 0.746436 0.917171
O O3 0.750000 0.750000 0.000000
O O4 0.557877 0.705846 0.051962
O O5 0.328792 0.202467 0.275301
O O6 0.141217 0.207960 0.325930
O O7 0.344288 0.268552 0.186360
O O8 0.289159 0.000000 0.238739
O O9 0.818518 0.500000 0.336720
O O10 0.722382 0.754642 0.400928
O O11 0.946805 0.733742 0.286588
O O12 0.985593 0.785789 0.347532
O O13 0.927410 0.739250 0.459347
O O14 0.989368 0.000000 0.399638
O O15 0.500000 0.785920 0.500000
O O16 0.615943 0.000000 0.474615
O O17 0.788902 0.500000 0.103088
O O18 0.879012 0.744024 0.088917
O O19 0.657110 0.695462 0.204820
O O20 0.587238 0.500000 0.892598
O O21 0.002492 0.000000 0.711917
#
# Coordination Sequence:
#
# PCOD9204095 Si02
#       8
#     8   8   8   8   8   8   8   8
#     4  11  26  45  64  95 132 169 211 258 313 370
#     4  10  21  39  63  92 122 159 211 258 307 368
#     4  11  24  40  62  91 123 163 206 254 312 372
#     4  10  20  40  65  88 120 161 204 255 305 363
#     4  11  23  38  60  91 123 159 204 256 311 368
#     4  11  23  43  69  95 126 168 211 257 313 372
#     4  11  24  41  65  95 128 166 210 259 310 369
#     4  10  23  42  63  90 126 161 201 254 311 367
#
# _framework density 19.299092000000002
#
# number of rings (size 3 to 8) (size 9 to 14) (size 15 to 20)
#    0.000    1.375    2.500    2.250    1.750    7.500 
#    0.000    0.000    0.000    0.000    0.000    0.000 
#    0.000    0.000    0.000    0.000    0.000    0.000 
#
# Total GULP energy -178942.505460 kJ/mol
# GULP energy per Si atom -5591.953296 kJ/mol
# Density = 1.925517 g / cm^3
# Si number density = 19.299092 Si / 1000 Ang^3
#
#
#
# Elastic Constant Matrix: (Units=GPa)
#
#
# Indices 1 2 3 4 5 6 
#
# 1 110.6547 52.5791 14.9452 0.0004 6.0532 -0.0028
# 2 52.5791 56.7158 34.6144 0.0018 4.9490 -0.0016
# 3 14.9452 34.6144 62.8197 -0.0001 13.1616 -0.0004
# 4 0.0004 0.0018 -0.0001 34.1519 0.0001 0.3342
# 5 6.0532 4.9490 13.1616 0.0001 26.8906 0.0001
# 6 -0.0028 -0.0016 -0.0004 0.3342 0.0001 38.2064
#
#
#
# Elastic Compliance Matrix: (Units=1/GPa)
#
#
# Indices 1 2 3 4 5 6 
#
# 1 0.018679 -0.022272 0.008748 0.000001 -0.004387 0.000001
# 2 -0.022272 0.053279 -0.025689 -0.000003 0.007781 0.000000
# 3 0.008748 -0.025689 0.030547 0.000001 -0.012192 0.000000
# 4 0.000001 -0.000003 0.000001 0.029283 0.000000 -0.000256
# 5 -0.004387 0.007781 -0.012192 0.000000 0.042711 0.000000
# 6 0.000001 0.000000 0.000000 -0.000256 0.000000 0.026176
#
#
# Mechanical properties :
#
#
# Convention : Reuss Voigt Hill
#
# Bulk Modulus (GPa) = 41.53281 48.27418 44.90349
# Shear Modulus (GPa) = 17.41388 28.38653 22.90020
#
# Velocity S-wave (km/s) = 3.00712 3.83936 3.44844
# Velocity P-wave (km/s) = 5.79865 6.68747 6.25886
#
# Compressibility (1/GPa) = 0.02407735
#
# Stress axis : x y z
#
# Youngs Moduli (GPa) = 53.53709 18.76915 32.73661
#
# Poissons Ratio (x) = 0.41803 -0.28637
# Poissons Ratio (y) = 1.19239 0.84097
# Poissons Ratio (z) = -0.46833 0.48216
#
# Static dielectric constant tensor:
#      x y z
#    x 1.661570 0.000000 -0.002540 
#    y 0.000000 1.641960 0.000000 
#    z -0.002540 0.000000 1.653950 
# 
# From -- ./inp_files/378090.got.cif
#   From: 2010.05.17/outbox.cif.g08.bks.cpg/sg12_190_cif.got.tgz:378090.got - 2010.06.03 13:09:07.
