data_PCOD9204462
_publ_section_title
;
Structure prediction by ZEFSAII (Michael W. Deem and Ramdas Pophale) SiO2 
 PCOD9204462
Probable space group: C 2/M
;
_chemical_formula_sum "Si O2"
_cell_formula_units_Z 60
_cell_length_a 14.669056
_cell_length_b 20.473654
_cell_length_c 9.677900
_cell_angle_alpha 90.000000
_cell_angle_beta 121.362353
_cell_angle_gamma 90.000000
_cell_volume 2481.887457
_symmetry_space_group_name_H-M "C 2/M"
_symmetry_group_IT_number 12
_symmetry_cell_setting 'monoclinic'
loop_
_space_group_symop_operation_xyz
x,y,z
-x,y,-z
-x,-y,-z
x,-y,z
1/2+x,1/2+y,z
1/2-x,1/2+y,-z
1/2-x,1/2-y,-z
1/2+x,1/2-y,z
loop_
_atom_site_type_symbol
_atom_site_label
_atom_site_fract_x
_atom_site_fract_y
_atom_site_fract_z
Si Si1 0.403867 0.258134 0.732835
Si Si2 0.835609 0.381766 0.221477
Si Si3 0.627172 0.115720 0.234628
Si Si4 0.797144 0.135659 0.143149
Si Si5 0.657997 0.242898 0.629545
Si Si6 0.972347 0.500000 0.194471
Si Si7 0.000112 0.894705 0.158596
Si Si8 0.269902 0.426694 0.587008
O O1 0.429999 0.186016 0.809233
O O2 0.392788 0.258839 0.558118
O O3 0.284512 0.271094 0.699485
O O4 0.482795 0.316143 0.835189
O O5 0.892063 0.321210 0.340954
O O6 0.760155 0.411886 0.279781
O O7 0.768088 0.348203 0.046449
O O8 0.905217 0.441421 0.221684
O O9 0.708664 0.104325 0.173357
O O10 0.546308 0.057206 0.182305
O O11 0.703171 0.117963 0.430609
O O12 0.842684 0.196246 0.266440
O O13 0.893844 0.092145 0.161683
O O14 0.103838 0.919373 0.321821
O O15 0.000000 0.919053 0.000000
O O16 0.235430 0.500000 0.525170
#
# Coordination Sequence:
#
# PCOD9204462 Si02
#       8
#     8   8   8   8   8   4   8   8
#     4  10  20  41  74 103 149 186 234 303 366 422
#     4  12  24  45  73 105 145 189 243 298 361 431
#     4  11  26  50  71 104 146 192 246 306 363 430
#     4  11  26  44  72 106 145 192 238 300 368 436
#     4  10  20  42  70 105 144 189 236 300 358 423
#     4  12  30  50  76 104 146 196 250 302 364 442
#     4  12  24  45  74 112 146 189 239 299 376 445
#     4  12  24  48  73 103 144 186 243 302 360 432
#
# _framework density 24.175148
#
# number of rings (size 3 to 8) (size 9 to 14) (size 15 to 20)
#    0.000    0.800    5.333    2.000    1.867    6.133 
#    2.400    0.667    0.000    0.000    0.000    0.000 
#    0.000    0.000    0.000    0.000    0.000    0.000 
#
# Total GULP energy -167497.307635 kJ/mol
# GULP energy per Si atom -5583.243588 kJ/mol
# Density = 2.412012 g / cm^3
# Si number density = 24.175148 Si / 1000 Ang^3
#
#
#
# Elastic Constant Matrix: (Units=GPa)
#
#
# Indices 1 2 3 4 5 6 
#
# 1 102.6647 11.5587 37.7004 0.0000 -27.0640 0.0000
# 2 11.5587 110.3601 11.5967 0.0000 -4.6582 0.0000
# 3 37.7004 11.5967 126.9509 0.0000 -16.0060 0.0000
# 4 0.0000 0.0000 0.0000 -23.5243 0.0000 -15.8677
# 5 -27.0640 -4.6582 -16.0060 0.0000 21.8888 0.0000
# 6 0.0000 0.0000 0.0000 -15.8677 0.0000 28.8638
#
#
#
# Elastic Compliance Matrix: (Units=1/GPa)
#
#
# Indices 1 2 3 4 5 6 
#
# 1 0.015099 -0.000628 -0.002302 0.000000 0.016852 0.000000
# 2 -0.000628 0.009218 -0.000558 0.000000 0.000777 0.000000
# 3 -0.002302 -0.000558 0.009074 0.000000 0.003671 0.000000
# 4 0.000000 0.000000 0.000000 -0.031010 0.000000 -0.017048
# 5 0.016852 0.000777 0.003671 0.000000 0.069371 0.000000
# 6 0.000000 0.000000 0.000000 -0.017048 0.000000 0.025274
#
#
# Mechanical properties :
#
#
# Convention : Reuss Voigt Hill
#
# Bulk Modulus (GPa) = 37.85509 51.29862 44.57686
# Shear Modulus (GPa) = 44.32359 24.05366 34.18862
#
# Velocity S-wave (km/s) = 4.28651 3.15774 3.76467
# Velocity P-wave (km/s) = 6.33968 5.87884 6.11360
#
# Compressibility (1/GPa) = 0.02641652
#
# Stress axis : x y z
#
# Youngs Moduli (GPa) = 66.23042 108.47828 110.20036
#
# Poissons Ratio (x) = 0.06815 0.25366
# Poissons Ratio (y) = 0.04161 0.06144
# Poissons Ratio (z) = 0.15245 0.06048
#
# Static dielectric constant tensor:
#      x y z
#    x 1.938260 0.000000 0.003060 
#    y 0.000000 1.944690 0.000000 
#    z 0.003060 0.000000 1.958380 
# 
# From -- ./inp_files/77593.got.cif
#   From: 2010.05.17/outbox.cif.g08.bks.cpg/sg12_39_cif.got.tgz:77593.got - 2010.06.03 13:09:07.
