data_PCOD9204924
_publ_section_title
;
Structure prediction by ZEFSAII (Michael W. Deem and Ramdas Pophale) SiO2 
 PCOD9204924
Probable space group: C 2/M
;
_chemical_formula_sum "Si O2"
_cell_formula_units_Z 56
_cell_length_a 11.977886
_cell_length_b 14.681172
_cell_length_c 26.687098
_cell_angle_alpha 90.000000
_cell_angle_beta 40.588485
_cell_angle_gamma 90.000000
_cell_volume 3053.308849
_symmetry_space_group_name_H-M "C 2/M"
_symmetry_group_IT_number 12
_symmetry_cell_setting 'monoclinic'
loop_
_space_group_symop_operation_xyz
x,y,z
-x,y,-z
-x,-y,-z
x,-y,z
1/2+x,1/2+y,z
1/2-x,1/2+y,-z
1/2-x,1/2-y,-z
1/2+x,1/2-y,z
loop_
_atom_site_type_symbol
_atom_site_label
_atom_site_fract_x
_atom_site_fract_y
_atom_site_fract_z
Si Si1 0.222335 0.394659 0.675569
Si Si2 0.332508 0.105349 0.830458
Si Si3 0.213960 0.000000 0.604783
Si Si4 0.992778 0.776332 0.063020
Si Si5 0.948860 0.837835 0.391429
Si Si6 0.327594 0.893705 0.953105
Si Si7 0.003879 0.500000 0.581511
Si Si8 0.211520 0.643190 0.566285
O O1 0.241936 0.500000 0.685274
O O2 0.350281 0.334641 0.665173
O O3 0.267663 0.388038 0.601617
O O4 0.022709 0.370217 0.747604
O O5 0.337607 0.106335 0.889284
O O6 0.187377 0.175851 0.862657
O O7 0.294533 0.000000 0.828385
O O8 0.099254 0.912317 0.633314
O O9 0.316826 0.000000 0.621412
O O10 0.361434 0.000000 0.511014
O O11 0.032935 0.677173 0.072447
O O12 0.144380 0.846174 0.027768
O O13 0.000000 0.768787 0.000000
O O14 0.853409 0.746014 0.409386
O O15 0.861075 0.866837 0.474267
O O16 0.339838 0.000000 0.965112
O O17 0.052784 0.585530 0.598811
#
# Coordination Sequence:
#
# PCOD9204924 Si02
#       8
#     8   8   4   8   8   8   4   8
#     4  11  21  35  53  76 103 135 177 219 264 308
#     4   9  19  33  51  75 102 136 168 206 253 305
#     4   9  18  33  51  71  97 126 161 208 264 322
#     4   9  17  31  53  80 105 134 171 206 249 292
#     4  10  21  34  52  76  98 132 172 220 271 316
#     4   9  17  31  53  79 107 137 170 208 244 294
#     4   9  18  33  51  71  97 128 159 208 267 318
#     4  10  21  34  52  75 101 130 171 222 270 313
#
# _framework density 18.340758999999998
#
# number of rings (size 3 to 8) (size 9 to 14) (size 15 to 20)
#    0.000    2.429    1.429    0.857    2.000    3.714 
#    0.000    0.000    0.000    0.000    0.000    0.000 
#    0.000    0.000    0.000    0.000    0.000    0.000 
#
# Total GULP energy -156076.087018 kJ/mol
# GULP energy per Si atom -5574.145965 kJ/mol
# Density = 1.829901 g / cm^3
# Si number density = 18.340759 Si / 1000 Ang^3
#
#
#
# Elastic Constant Matrix: (Units=GPa)
#
#
# Indices 1 2 3 4 5 6 
#
# 1 89.7222 43.4194 5.6500 0.0000 -23.4302 0.0000
# 2 43.4194 101.6106 15.2120 0.0000 -16.6357 0.0000
# 3 5.6500 15.2120 29.3918 0.0000 -18.7762 0.0000
# 4 0.0000 0.0000 0.0000 26.3536 0.0000 -10.7958
# 5 -23.4302 -16.6357 -18.7762 0.0000 21.1515 0.0000
# 6 0.0000 0.0000 0.0000 -10.7958 0.0000 27.6029
#
#
#
# Elastic Compliance Matrix: (Units=1/GPa)
#
#
# Indices 1 2 3 4 5 6 
#
# 1 0.026060 -0.007514 0.031288 0.000000 0.050732 0.000000
# 2 -0.007514 0.013465 -0.009416 0.000000 -0.006092 0.000000
# 3 0.031288 -0.009416 0.116171 0.000000 0.130379 0.000000
# 4 0.000000 0.000000 0.000000 0.045185 0.000000 0.017672
# 5 0.050732 -0.006092 0.130379 0.000000 0.214422 0.000000
# 6 0.000000 0.000000 0.000000 0.017672 0.000000 0.043140
#
#
# Mechanical properties :
#
#
# Convention : Reuss Voigt Hill
#
# Bulk Modulus (GPa) = 5.42263 38.80969 22.11616
# Shear Modulus (GPa) = 10.17924 25.45114 17.81519
#
# Velocity S-wave (km/s) = 2.35841 3.72920 3.12002
# Velocity P-wave (km/s) = 3.22167 6.30467 5.00640
#
# Compressibility (1/GPa) = 0.18441224
#
# Stress axis : x y z
#
# Youngs Moduli (GPa) = 38.37339 74.26929 8.60799
#
# Poissons Ratio (x) = 0.55805 -0.26933
# Poissons Ratio (y) = 0.28833 0.08105
# Poissons Ratio (z) = -1.20065 0.69933
#
# Static dielectric constant tensor:
#      x y z
#    x 1.619030 0.000000 -0.007850 
#    y 0.000000 1.614920 0.000000 
#    z -0.007850 0.000000 1.646390 
# 
# From -- ./inp_files/358195.got.cif
#   From: 2010.05.17/outbox.cif.g08.bks.cpg/sg12_180_cif.got.tgz:358195.got - 2010.06.03 13:09:07.
