data_PCOD9204257
_publ_section_title
;
Structure prediction by ZEFSAII (Michael W. Deem and Ramdas Pophale) SiO2 
 PCOD9204257
Probable space group: C 2/M
;
_chemical_formula_sum "Si O2"
_cell_formula_units_Z 20
_cell_length_a 10.746496
_cell_length_b 15.667552
_cell_length_c 4.816098
_cell_angle_alpha 90.000000
_cell_angle_beta 112.336770
_cell_angle_gamma 90.000000
_cell_volume 750.048100
_symmetry_space_group_name_H-M "C 2/M"
_symmetry_group_IT_number 12
_symmetry_cell_setting 'monoclinic'
loop_
_space_group_symop_operation_xyz
x,y,z
-x,y,-z
-x,-y,-z
x,-y,z
1/2+x,1/2+y,z
1/2-x,1/2+y,-z
1/2-x,1/2-y,-z
1/2+x,1/2-y,z
loop_
_atom_site_type_symbol
_atom_site_label
_atom_site_fract_x
_atom_site_fract_y
_atom_site_fract_z
Si Si1 0.361896 0.793293 0.794787
Si Si2 0.835744 0.403166 0.305725
Si Si3 0.599732 0.500000 0.331759
O O1 0.250000 0.750000 0.500000
O O2 0.421882 0.866215 0.637299
O O3 0.693347 0.839505 0.974809
O O4 0.500000 0.744230 0.000000
O O5 0.867657 0.500000 0.234642
O O6 0.698394 0.420782 0.368371
O O7 0.500000 0.500000 0.500000
O O8 0.500000 0.500000 0.000000
#
# Coordination Sequence:
#
# PCOD9204257 Si02
#       3
#     8   8   4
#     4  12  26  47  74 109 156 213 255 316 389 466
#     4  10  24  44  75 114 147 192 271 322 383 457
#     4  10  20  40  69 108 151 186 241 316 391 448
#
# _framework density 26.664954000000002
#
# number of rings (size 3 to 8) (size 9 to 14) (size 15 to 20)
#    1.200    0.000    0.000    6.000    0.000    6.400 
#    0.000    8.000    0.000    0.000    0.000    0.000 
#    0.000    0.000    0.000    0.000    0.000    0.000 
#
# Total GULP energy -55741.865273 kJ/mol
# GULP energy per Si atom -5574.186527 kJ/mol
# Density = 2.660426 g / cm^3
# Si number density = 26.664954 Si / 1000 Ang^3
#
#
#
# Elastic Constant Matrix: (Units=GPa)
#
#
# Indices 1 2 3 4 5 6 
#
# 1 104.1133 10.5698 72.3226 0.0000 -32.1787 0.0000
# 2 10.5698 134.4619 57.1562 0.0000 4.1822 0.0000
# 3 72.3226 57.1562 217.7175 0.0000 -12.7586 0.0000
# 4 0.0000 0.0000 0.0000 52.3631 0.0000 3.3315
# 5 -32.1787 4.1822 -12.7586 0.0000 79.9660 0.0000
# 6 0.0000 0.0000 0.0000 3.3315 0.0000 25.0099
#
#
#
# Elastic Compliance Matrix: (Units=1/GPa)
#
#
# Indices 1 2 3 4 5 6 
#
# 1 0.014295 0.000693 -0.004639 0.000000 0.004976 0.000000
# 2 0.000693 0.008455 -0.002483 0.000000 -0.000559 0.000000
# 3 -0.004639 -0.002483 0.006747 0.000000 -0.000660 0.000000
# 4 0.000000 0.000000 0.000000 0.019261 0.000000 -0.002566
# 5 0.004976 -0.000559 -0.000660 0.000000 0.014432 0.000000
# 6 0.000000 0.000000 0.000000 -0.002566 0.000000 0.040326
#
#
# Mechanical properties :
#
#
# Convention : Reuss Voigt Hill
#
# Bulk Modulus (GPa) = 60.09377 81.82110 70.95744
# Shear Modulus (GPa) = 41.01071 52.55074 46.78073
#
# Velocity S-wave (km/s) = 3.92599 4.44416 4.19309
# Velocity P-wave (km/s) = 6.56786 7.55550 7.07892
#
# Compressibility (1/GPa) = 0.01664066
#
# Stress axis : x y z
#
# Youngs Moduli (GPa) = 69.95470 118.26848 148.20866
#
# Poissons Ratio (x) = -0.08201 0.68755
# Poissons Ratio (y) = -0.04851 0.36798
# Poissons Ratio (z) = 0.32452 0.29364
#
# Static dielectric constant tensor:
#      x y z
#    x 2.535690 0.000000 0.021310 
#    y 0.000000 2.225040 0.000000 
#    z 0.021310 0.000000 2.062120 
# 
# From -- ./inp_files/5090.got.cif
#   From: 2010.05.17/outbox.cif.g08.bks.cpg/sg12_3_cif.got.tgz:5090.got - 2010.06.03 13:09:07.
