data_PCOD9204507
_publ_section_title
;
Structure prediction by ZEFSAII (Michael W. Deem and Ramdas Pophale) SiO2 
 PCOD9204507
Probable space group: C 2/M
;
_chemical_formula_sum "Si O2"
_cell_formula_units_Z 40
_cell_length_a 17.056517
_cell_length_b 10.185039
_cell_length_c 12.538886
_cell_angle_alpha 90.000000
_cell_angle_beta 66.692231
_cell_angle_gamma 90.000000
_cell_volume 2000.508694
_symmetry_space_group_name_H-M "C 2/M"
_symmetry_group_IT_number 12
_symmetry_cell_setting 'monoclinic'
loop_
_space_group_symop_operation_xyz
x,y,z
-x,y,-z
-x,-y,-z
x,-y,z
1/2+x,1/2+y,z
1/2-x,1/2+y,-z
1/2-x,1/2-y,-z
1/2+x,1/2-y,z
loop_
_atom_site_type_symbol
_atom_site_label
_atom_site_fract_x
_atom_site_fract_y
_atom_site_fract_z
Si Si1 0.766195 0.000000 0.203946
Si Si2 0.204717 0.000000 0.233039
Si Si3 0.649688 0.229741 0.559559
Si Si4 0.500000 0.713429 0.000000
Si Si5 0.659561 0.784872 0.790298
Si Si6 0.397741 0.000000 0.571747
Si Si7 0.909128 0.000000 0.493886
Si Si8 0.889261 0.000000 0.939641
O O1 0.807816 0.866902 0.229632
O O2 0.664583 0.000000 0.288942
O O3 0.804255 0.000000 0.062006
O O4 0.265534 0.872816 0.201407
O O5 0.157347 0.000000 0.372262
O O6 0.141500 0.000000 0.165778
O O7 0.750000 0.250000 0.500000
O O8 0.634789 0.173250 0.684612
O O9 0.604116 0.368678 0.566856
O O10 0.627820 0.130331 0.478052
O O11 0.425481 0.793275 0.095245
O O12 0.550603 0.621839 0.058036
O O13 0.500000 0.000000 0.500000
O O14 0.000000 0.000000 0.500000
#
# Coordination Sequence:
#
# PCOD9204507 Si02
#       8
#     4   4   8   4   8   4   4   4
#     4  10  20  42  65  85 120 168 205 238 311 374
#     4  12  24  41  61  98 130 156 206 265 312 357
#     4  12  22  42  66  89 123 170 203 250 315 373
#     4   9  22  43  64  92 118 168 214 248 310 372
#     4  11  23  41  67  91 124 163 211 252 307 374
#     4  12  24  41  60  94 129 158 202 254 311 373
#     4  12  26  39  63 100 125 159 214 259 303 364
#     4   9  22  42  67  89 122 164 213 260 298 368
#
# _framework density 19.994913
#
# number of rings (size 3 to 8) (size 9 to 14) (size 15 to 20)
#    0.000    1.000    4.000    3.000    2.800    3.600 
#    3.600    0.000    0.000    0.000    0.000    0.000 
#    0.000    0.000    0.000    0.000    0.000    0.000 
#
# Total GULP energy -111629.819707 kJ/mol
# GULP energy per Si atom -5581.490985 kJ/mol
# Density = 1.994940 g / cm^3
# Si number density = 19.994913 Si / 1000 Ang^3
#
#
#
# Elastic Constant Matrix: (Units=GPa)
#
#
# Indices 1 2 3 4 5 6 
#
# 1 121.8415 25.7133 18.9845 0.0000 -10.1551 0.0000
# 2 25.7133 83.7204 -13.3014 0.0000 4.4942 0.0000
# 3 18.9845 -13.3014 58.8612 0.0000 -6.1250 0.0000
# 4 0.0000 0.0000 0.0000 20.6930 0.0000 0.6796
# 5 -10.1551 4.4942 -6.1250 0.0000 48.0928 0.0000
# 6 0.0000 0.0000 0.0000 0.6796 0.0000 26.8259
#
#
#
# Elastic Compliance Matrix: (Units=1/GPa)
#
#
# Indices 1 2 3 4 5 6 
#
# 1 0.009735 -0.003693 -0.003774 0.000000 0.001920 0.000000
# 2 -0.003693 0.013821 0.004154 0.000000 -0.001542 0.000000
# 3 -0.003774 0.004154 0.019277 0.000000 0.001270 0.000000
# 4 0.000000 0.000000 0.000000 0.048366 0.000000 -0.001225
# 5 0.001920 -0.001542 0.001270 0.000000 0.021504 0.000000
# 6 0.000000 0.000000 0.000000 -0.001225 0.000000 0.037308
#
#
# Mechanical properties :
#
#
# Convention : Reuss Voigt Hill
#
# Bulk Modulus (GPa) = 27.61892 36.35731 31.98812
# Shear Modulus (GPa) = 29.63711 34.65748 32.14730
#
# Velocity S-wave (km/s) = 3.85415 4.16783 4.01406
# Velocity P-wave (km/s) = 5.80077 6.43302 6.12506
#
# Compressibility (1/GPa) = 0.03620706
#
# Stress axis : x y z
#
# Youngs Moduli (GPa) = 102.72429 72.35166 51.87450
#
# Poissons Ratio (x) = 0.26717 0.19580
# Poissons Ratio (y) = 0.37932 -0.21548
# Poissons Ratio (z) = 0.38772 -0.30054
#
# Static dielectric constant tensor:
#      x y z
#    x 1.748280 0.000000 0.049090 
#    y 0.000000 1.715460 0.000000 
#    z 0.049090 0.000000 1.789420 
# 
# From -- ./inp_files/140901.got.cif
#   From: 2010.05.17/outbox.cif.g08.bks.cpg/sg12_71_cif.got.tgz:140901.got - 2010.06.03 13:09:07.
