data_PCOD9204756
_publ_section_title
;
Structure prediction by ZEFSAII (Michael W. Deem and Ramdas Pophale) SiO2 
 PCOD9204756
Probable space group: C 2/M
;
_chemical_formula_sum "Si O2"
_cell_formula_units_Z 64
_cell_length_a 27.332518
_cell_length_b 17.463451
_cell_length_c 10.721535
_cell_angle_alpha 90.000000
_cell_angle_beta 146.917333
_cell_angle_gamma 90.000000
_cell_volume 2793.436545
_symmetry_space_group_name_H-M "C 2/M"
_symmetry_group_IT_number 12
_symmetry_cell_setting 'monoclinic'
loop_
_space_group_symop_operation_xyz
x,y,z
-x,y,-z
-x,-y,-z
x,-y,z
1/2+x,1/2+y,z
1/2-x,1/2+y,-z
1/2-x,1/2-y,-z
1/2+x,1/2-y,z
loop_
_atom_site_type_symbol
_atom_site_label
_atom_site_fract_x
_atom_site_fract_y
_atom_site_fract_z
Si Si1 0.048517 0.089005 0.270126
Si Si2 0.200260 0.710960 0.556884
Si Si3 0.277180 0.913459 0.036483
Si Si4 0.128259 0.160685 0.217585
Si Si5 0.106085 0.413587 0.247653
Si Si6 0.617859 0.090272 0.000334
Si Si7 0.645099 0.695440 0.665881
Si Si8 0.948484 0.352647 0.513026
O O1 0.119532 0.096113 0.307019
O O2 0.093108 0.126932 0.485362
O O3 0.023095 0.000000 0.230083
O O4 0.964647 0.143808 0.053121
O O5 0.148857 0.764356 0.345546
O O6 0.291862 0.671166 0.709637
O O7 0.132605 0.640437 0.416995
O O8 0.205814 0.761953 0.690852
O O9 0.316268 0.903366 0.977595
O O10 0.356979 0.900492 0.304211
O O11 0.242325 0.000000 0.971188
O O12 0.205062 0.846047 0.896578
O O13 0.134085 0.500000 0.332869
O O14 0.150982 0.388540 0.210489
O O15 0.000000 0.411809 0.000000
O O16 0.527252 0.136599 0.780957
O O17 0.594020 0.000000 0.958262
O O18 0.579829 0.764075 0.564454
O O19 0.000000 0.380759 0.500000
#
# Coordination Sequence:
#
# PCOD9204756 Si02
#       8
#     8   8   8   8   8   8   8   8
#     4  10  21  37  58  82 112 157 205 240 276 333
#     4  10  22  34  54  84 119 153 187 231 282 343
#     4  10  21  38  60  84 111 142 191 248 294 345
#     4   9  20  34  53  81 112 152 192 236 275 321
#     4  10  21  33  50  79 119 157 183 218 273 346
#     4   9  19  34  58  85 108 145 189 233 285 343
#     4  11  23  37  58  88 113 154 188 241 295 350
#     4  10  21  38  62  85 111 145 189 248 300 354
#
# _framework density 22.910847
#
# number of rings (size 3 to 8) (size 9 to 14) (size 15 to 20)
#    0.000    2.125    0.000    2.625   10.500    3.500 
#    0.000    0.625    0.000    3.000    0.000    0.000 
#    0.000    0.000    0.000    0.000    0.000    0.000 
#
# Total GULP energy -178445.607994 kJ/mol
# GULP energy per Si atom -5576.425250 kJ/mol
# Density = 2.285870 g / cm^3
# Si number density = 22.910847 Si / 1000 Ang^3
#
#
#
# Elastic Constant Matrix: (Units=GPa)
#
#
# Indices 1 2 3 4 5 6 
#
# 1 20.5750 -4.3549 1.1024 0.0000 6.6499 0.0000
# 2 -4.3549 110.2188 49.4015 0.0000 2.3228 0.0000
# 3 1.1024 49.4015 77.6184 0.0000 6.5986 0.0000
# 4 0.0000 0.0000 0.0000 36.5708 0.0000 2.2392
# 5 6.6499 2.3228 6.5986 0.0000 22.5318 0.0000
# 6 0.0000 0.0000 0.0000 2.2392 0.0000 25.7552
#
#
#
# Elastic Compliance Matrix: (Units=1/GPa)
#
#
# Indices 1 2 3 4 5 6 
#
# 1 0.054509 0.003118 -0.001398 0.000000 -0.015999 0.000000
# 2 0.003118 0.012898 -0.008268 0.000000 0.000172 0.000000
# 3 -0.001398 -0.008268 0.018519 0.000000 -0.004158 0.000000
# 4 0.000000 0.000000 0.000000 0.027491 0.000000 -0.002390
# 5 -0.015999 0.000172 -0.004158 0.000000 0.050304 0.000000
# 6 0.000000 0.000000 0.000000 -0.002390 0.000000 0.039035
#
#
# Mechanical properties :
#
#
# Convention : Reuss Voigt Hill
#
# Bulk Modulus (GPa) = 13.73091 33.41224 23.57157
# Shear Modulus (GPa) = 20.82210 27.78911 24.30560
#
# Velocity S-wave (km/s) = 3.01795 3.48648 3.26064
# Velocity P-wave (km/s) = 4.26031 5.55182 4.94838
#
# Compressibility (1/GPa) = 0.07282840
#
# Stress axis : x y z
#
# Youngs Moduli (GPa) = 18.34575 77.52922 53.99744
#
# Poissons Ratio (x) = -0.24171 0.07551
# Poissons Ratio (y) = -0.05720 0.44646
# Poissons Ratio (z) = 0.02565 0.64103
#
# Static dielectric constant tensor:
#      x y z
#    x 1.978030 0.000000 0.036710 
#    y 0.000000 1.832650 0.000000 
#    z 0.036710 0.000000 1.853610 
# 
# From -- ./inp_files/190090.got.cif
#   From: 2010.05.17/outbox.cif.g08.bks.cpg/sg12_96_cif.got.tgz:190090.got - 2010.06.03 13:09:07.
