data_PCOD9204853
_publ_section_title
;
Structure prediction by ZEFSAII (Michael W. Deem and Ramdas Pophale) SiO2 
 PCOD9204853
Probable space group: C 2/M
;
_chemical_formula_sum "Si O2"
_cell_formula_units_Z 56
_cell_length_a 22.209349
_cell_length_b 24.349678
_cell_length_c 18.291736
_cell_angle_alpha 90.000000
_cell_angle_beta 161.754172
_cell_angle_gamma 90.000000
_cell_volume 3097.131369
_symmetry_space_group_name_H-M "C 2/M"
_symmetry_group_IT_number 12
_symmetry_cell_setting 'monoclinic'
loop_
_space_group_symop_operation_xyz
x,y,z
-x,y,-z
-x,-y,-z
x,-y,z
1/2+x,1/2+y,z
1/2-x,1/2+y,-z
1/2-x,1/2-y,-z
1/2+x,1/2-y,z
loop_
_atom_site_type_symbol
_atom_site_label
_atom_site_fract_x
_atom_site_fract_y
_atom_site_fract_z
Si Si1 0.296370 0.000000 0.892257
Si Si2 0.616500 0.560270 0.996686
Si Si3 0.787857 0.685615 0.537634
Si Si4 0.359761 0.354182 0.785175
Si Si5 0.616132 0.898364 0.909530
Si Si6 0.460547 0.402667 0.662970
Si Si7 0.853960 0.000000 0.440573
Si Si8 0.461926 0.936868 0.574008
O O1 0.279050 0.000000 0.784637
O O2 0.076252 0.000000 0.668782
O O3 0.389359 0.945015 0.034011
O O4 0.583440 0.500000 0.988531
O O5 0.842346 0.568877 0.245640
O O6 0.508075 0.603381 0.920203
O O7 0.525702 0.564698 0.810841
O O8 0.750000 0.750000 0.500000
O O9 0.732856 0.675782 0.389729
O O10 0.652791 0.649948 0.436597
O O11 0.997100 0.656986 0.789351
O O12 0.191875 0.391426 0.625611
O O13 0.500000 0.320300 0.000000
O O14 0.518287 0.924878 0.723955
O O15 0.839741 0.887479 0.147598
O O16 0.340810 0.444858 0.474377
O O17 0.395770 0.000000 0.491513
#
# Coordination Sequence:
#
# PCOD9204853 Si02
#       8
#     4   8   8   8   8   8   4   8
#     4   9  16  29  53  85 116 140 166 212 276 333
#     4   9  16  28  48  72 100 134 162 186 230 298
#     4  10  22  38  55  73  93 134 189 220 247 305
#     4  10  21  34  48  69  97 126 159 207 255 284
#     4   9  17  32  53  76 106 137 167 209 258 311
#     4   9  17  32  53  76 106 137 167 209 258 311
#     4   9  16  29  53  85 116 140 166 212 276 333
#     4   9  16  28  48  72 100 134 162 186 230 298
#
# _framework density 18.081249
#
# number of rings (size 3 to 8) (size 9 to 14) (size 15 to 20)
#    0.000    2.714    1.429    0.429    0.000    2.857 
#    0.000    4.286    0.000    0.000    0.000    0.000 
#    0.000    0.000    0.000    0.000    0.000    0.000 
#
# Total GULP energy -156024.081343 kJ/mol
# GULP energy per Si atom -5572.288619 kJ/mol
# Density = 1.804009 g / cm^3
# Si number density = 18.081249 Si / 1000 Ang^3
#
#
#
# Elastic Constant Matrix: (Units=GPa)
#
#
# Indices 1 2 3 4 5 6 
#
# 1 50.0347 23.4400 21.4586 0.0000 -5.7727 0.0001
# 2 23.4400 103.8263 20.8577 -0.0003 9.4502 0.0000
# 3 21.4586 20.8577 48.4869 -0.0004 -3.5658 0.0001
# 4 0.0000 -0.0003 -0.0004 14.5309 -0.0001 -0.9027
# 5 -5.7727 9.4502 -3.5658 -0.0001 29.8455 0.0000
# 6 0.0001 0.0000 0.0001 -0.9027 0.0000 6.5092
#
#
#
# Elastic Compliance Matrix: (Units=1/GPa)
#
#
# Indices 1 2 3 4 5 6 
#
# 1 0.026878 -0.004668 -0.009479 0.000000 0.005544 0.000000
# 2 -0.004668 0.011827 -0.003393 0.000000 -0.005053 0.000000
# 3 -0.009479 -0.003393 0.026456 0.000001 0.002402 0.000000
# 4 0.000000 0.000000 0.000001 0.069417 0.000000 0.009627
# 5 0.005544 -0.005053 0.002402 0.000000 0.036465 0.000000
# 6 0.000000 0.000000 0.000000 0.009627 0.000000 0.154963
#
#
# Mechanical properties :
#
#
# Convention : Reuss Voigt Hill
#
# Bulk Modulus (GPa) = 33.24587 37.09560 35.17074
# Shear Modulus (GPa) = 13.47291 19.28324 16.37808
#
# Velocity S-wave (km/s) = 2.73267 3.26924 3.01292
# Velocity P-wave (km/s) = 5.32762 5.90010 5.62115
#
# Compressibility (1/GPa) = 0.03007892
#
# Stress axis : x y z
#
# Youngs Moduli (GPa) = 37.20463 84.55210 37.79901
#
# Poissons Ratio (x) = 0.39472 0.35832
# Poissons Ratio (y) = 0.17369 0.12826
# Poissons Ratio (z) = 0.35268 0.28690
#
# Static dielectric constant tensor:
#      x y z
#    x 1.664780 0.000000 -0.020870 
#    y 0.000000 1.582010 0.000000 
#    z -0.020870 0.000000 1.664290 
# 
# From -- ./inp_files/286374.got.cif
#   From: 2010.05.17/outbox.cif.g08.bks.cpg/sg12_144_cif.got.tgz:286374.got - 2010.06.03 13:09:07.
