data_PCOD9204609
_publ_section_title
;
Structure prediction by ZEFSAII (Michael W. Deem and Ramdas Pophale) SiO2 
 PCOD9204609
Probable space group: C 2/M
;
_chemical_formula_sum "Si O2"
_cell_formula_units_Z 28
_cell_length_a 18.454419
_cell_length_b 7.675871
_cell_length_c 14.873806
_cell_angle_alpha 90.000000
_cell_angle_beta 135.238582
_cell_angle_gamma 90.000000
_cell_volume 1483.608072
_symmetry_space_group_name_H-M "C 2/M"
_symmetry_group_IT_number 12
_symmetry_cell_setting 'monoclinic'
loop_
_space_group_symop_operation_xyz
x,y,z
-x,y,-z
-x,-y,-z
x,-y,z
1/2+x,1/2+y,z
1/2-x,1/2+y,-z
1/2-x,1/2-y,-z
1/2+x,1/2-y,z
loop_
_atom_site_type_symbol
_atom_site_label
_atom_site_fract_x
_atom_site_fract_y
_atom_site_fract_z
Si Si1 0.361377 0.298683 0.638205
Si Si2 0.886550 0.500000 0.357794
Si Si3 0.097920 0.500000 0.019298
Si Si4 0.479980 0.000000 0.252084
Si Si5 0.229769 0.697329 0.259099
O O1 0.384235 0.500000 0.641315
O O2 0.250000 0.250000 0.500000
O O3 0.347731 0.263609 0.732528
O O4 0.446509 0.168511 0.675523
O O5 0.822034 0.331427 0.331412
O O6 0.000000 0.500000 0.500000
O O7 0.899732 0.500000 0.262069
O O8 0.167429 0.664498 0.111879
O O9 0.000000 0.500000 0.000000
O O10 0.067672 0.500000 0.889539
O O11 0.263207 0.500000 0.314941
#
# Coordination Sequence:
#
# PCOD9204609 Si02
#       5
#     8   4   4   4   8
#     4  12  21  37  66  96 124 169 219 267 320 378
#     4  12  26  42  65  97 134 173 211 266 333 385
#     4  10  20  44  69  91 130 169 217 279 303 372
#     4  12  24  42  64  96 133 166 221 268 313 386
#     4  10  22  42  66  91 130 169 215 264 321 375
#
# _framework density 18.872907999999999
#
# number of rings (size 3 to 8) (size 9 to 14) (size 15 to 20)
#    0.857    0.000    7.143    1.714    0.000    2.857 
#    2.571    2.143    0.000    0.000    0.000    0.000 
#    0.000    0.000    0.000    0.000    0.000    0.000 
#
# Total GULP energy -78138.121251 kJ/mol
# GULP energy per Si atom -5581.294375 kJ/mol
# Density = 1.882995 g / cm^3
# Si number density = 18.872908 Si / 1000 Ang^3
#
#
#
# Elastic Constant Matrix: (Units=GPa)
#
#
# Indices 1 2 3 4 5 6 
#
# 1 62.1725 21.2958 -25.0458 0.0000 2.8184 0.0000
# 2 21.2958 162.1049 6.5511 0.0000 20.0182 0.0000
# 3 -25.0458 6.5511 57.7509 0.0000 -2.6931 0.0000
# 4 0.0000 0.0000 0.0000 19.3561 0.0000 0.2828
# 5 2.8184 20.0182 -2.6931 0.0000 33.4584 0.0000
# 6 0.0000 0.0000 0.0000 0.2828 0.0000 25.6757
#
#
#
# Elastic Compliance Matrix: (Units=1/GPa)
#
#
# Indices 1 2 3 4 5 6 
#
# 1 0.020992 -0.003259 0.009518 0.000000 0.000948 0.000000
# 2 -0.003259 0.007219 -0.002430 0.000000 -0.004240 0.000000
# 3 0.009518 -0.002430 0.021832 0.000000 0.002410 0.000000
# 4 0.000000 0.000000 0.000000 0.051672 0.000000 -0.000569
# 5 0.000948 -0.004240 0.002410 0.000000 0.032539 0.000000
# 6 0.000000 0.000000 0.000000 -0.000569 0.000000 0.038954
#
#
# Mechanical properties :
#
#
# Convention : Reuss Voigt Hill
#
# Bulk Modulus (GPa) = 17.33134 31.95895 24.64515
# Shear Modulus (GPa) = 27.05879 34.31319 30.68599
#
# Velocity S-wave (km/s) = 3.79058 4.26857 4.03665
# Velocity P-wave (km/s) = 5.32552 6.42376 5.90025
#
# Compressibility (1/GPa) = 0.05769893
#
# Stress axis : x y z
#
# Youngs Moduli (GPa) = 47.63725 138.52610 45.80523
#
# Poissons Ratio (x) = 0.45152 -0.43597
# Poissons Ratio (y) = 0.15527 0.11132
# Poissons Ratio (z) = -0.45341 0.33665
#
# Static dielectric constant tensor:
#      x y z
#    x 1.630590 0.000000 -0.034480 
#    y 0.000000 1.675390 0.000000 
#    z -0.034480 0.000000 1.691040 
# 
# From -- ./inp_files/162212.got.cif
#   From: 2010.05.17/outbox.cif.g08.bks.cpg/sg12_82_cif.got.tgz:162212.got - 2010.06.03 13:09:07.
