data_PCOD9204323
_publ_section_title
;
Structure prediction by ZEFSAII (Michael W. Deem and Ramdas Pophale) SiO2 
 PCOD9204323
Probable space group: C 2/M
;
_chemical_formula_sum "Si O2"
_cell_formula_units_Z 60
_cell_length_a 12.671579
_cell_length_b 22.393835
_cell_length_c 10.878094
_cell_angle_alpha 90.000000
_cell_angle_beta 100.620167
_cell_angle_gamma 90.000000
_cell_volume 3033.949413
_symmetry_space_group_name_H-M "C 2/M"
_symmetry_group_IT_number 12
_symmetry_cell_setting 'monoclinic'
loop_
_space_group_symop_operation_xyz
x,y,z
-x,y,-z
-x,-y,-z
x,-y,z
1/2+x,1/2+y,z
1/2-x,1/2+y,-z
1/2-x,1/2-y,-z
1/2+x,1/2-y,z
loop_
_atom_site_type_symbol
_atom_site_label
_atom_site_fract_x
_atom_site_fract_y
_atom_site_fract_z
Si Si1 0.191691 0.846572 0.610364
Si Si2 0.946065 0.570714 0.303131
Si Si3 0.344568 0.171271 0.431386
Si Si4 0.787105 0.570593 0.035079
Si Si5 0.500000 0.728617 0.500000
Si Si6 0.728121 0.254128 0.798234
Si Si7 0.124198 0.178666 0.000207
Si Si8 0.332550 0.070960 0.767613
O O1 0.235948 0.842497 0.481853
O O2 0.073580 0.817798 0.592797
O O3 0.264881 0.803287 0.709332
O O4 0.221741 0.908705 0.679366
O O5 0.948164 0.500000 0.333439
O O6 0.901106 0.609986 0.405093
O O7 0.869169 0.577527 0.166282
O O8 0.064385 0.592135 0.287599
O O9 0.411345 0.221781 0.521475
O O10 0.326937 0.203732 0.296738
O O11 0.757098 0.500000 0.024478
O O12 0.688387 0.616323 0.025548
O O13 0.837912 0.587089 0.913038
O O14 0.651049 0.288969 0.876585
O O15 0.823905 0.223997 0.891306
O O16 0.000000 0.170411 0.000000
O O17 0.339218 0.000000 0.766238
#
# Coordination Sequence:
#
# PCOD9204323 Si02
#       8
#     8   8   8   8   4   8   8   8
#     4  11  23  41  62  86 121 160 203 245 292 353
#     4  10  21  38  63  92 122 155 194 249 305 350
#     4  11  22  39  60  88 120 159 203 244 290 353
#     4  10  20  41  63  90 122 154 199 245 300 362
#     4  10  22  38  58  82 114 160 196 240 292 344
#     4  10  22  41  55  89 122 159 195 242 296 358
#     4  11  23  39  61  91 121 154 196 250 301 357
#     4  10  21  39  64  89 119 157 199 248 300 355
#
# _framework density 19.776204
#
# number of rings (size 3 to 8) (size 9 to 14) (size 15 to 20)
#    0.000    1.600    2.667    2.800    0.000    7.733 
#    0.000    2.000    0.000    0.000    0.000    0.000 
#    0.000    0.000    0.000    0.000    0.000    0.000 
#
# Total GULP energy -167113.745845 kJ/mol
# GULP energy per Si atom -5570.458195 kJ/mol
# Density = 1.973119 g / cm^3
# Si number density = 19.776204 Si / 1000 Ang^3
#
#
#
# Elastic Constant Matrix: (Units=GPa)
#
#
# Indices 1 2 3 4 5 6 
#
# 1 70.4073 27.7873 35.7581 0.0000 6.9388 0.0000
# 2 27.7873 48.1991 27.5583 0.0000 -2.3961 0.0000
# 3 35.7581 27.5583 85.5166 0.0000 7.3567 0.0000
# 4 0.0000 0.0000 0.0000 136.2140 0.0000 -48.9965
# 5 6.9388 -2.3961 7.3567 0.0000 11.8599 0.0000
# 6 0.0000 0.0000 0.0000 -48.9965 0.0000 59.0403
#
#
#
# Elastic Compliance Matrix: (Units=1/GPa)
#
#
# Indices 1 2 3 4 5 6 
#
# 1 0.021963 -0.010544 -0.004751 0.000000 -0.012033 0.000000
# 2 -0.010544 0.031876 -0.007340 0.000000 0.017161 0.000000
# 3 -0.004751 -0.007340 0.016832 0.000000 -0.009144 0.000000
# 4 0.000000 0.000000 0.000000 0.010465 0.000000 0.008685
# 5 -0.012033 0.017161 -0.009144 0.000000 0.100498 0.000000
# 6 0.000000 0.000000 0.000000 0.008685 0.000000 0.024145
#
#
# Mechanical properties :
#
#
# Convention : Reuss Voigt Hill
#
# Bulk Modulus (GPa) = 39.36659 42.92559 41.14609
# Shear Modulus (GPa) = 19.26677 48.95747 34.11212
#
# Velocity S-wave (km/s) = 3.12467 4.98091 4.15771
# Velocity P-wave (km/s) = 5.74172 7.40487 6.62569
#
# Compressibility (1/GPa) = 0.02540225
#
# Stress axis : x y z
#
# Youngs Moduli (GPa) = 45.53121 31.37205 59.41070
#
# Poissons Ratio (x) = 0.33078 0.28224
# Poissons Ratio (y) = 0.48007 0.43605
# Poissons Ratio (z) = 0.21630 0.23026
#
# Static dielectric constant tensor:
#      x y z
#    x 1.687550 0.000000 0.016190 
#    y 0.000000 1.756740 0.000000 
#    z 0.016190 0.000000 1.748670 
# 
# From -- ./inp_files/133920.got.cif
#   From: 2010.05.17/outbox.cif.g08.bks.cpg/sg12_67_cif.got.tgz:133920.got - 2010.06.03 13:09:07.
