data_PCOD9204858
_publ_section_title
;
Structure prediction by ZEFSAII (Michael W. Deem and Ramdas Pophale) SiO2 
 PCOD9204858
Probable space group: C 2/M
;
_chemical_formula_sum "Si O2"
_cell_formula_units_Z 56
_cell_length_a 25.216958
_cell_length_b 8.901213
_cell_length_c 16.984534
_cell_angle_alpha 90.000000
_cell_angle_beta 123.362769
_cell_angle_gamma 90.000000
_cell_volume 3184.115504
_symmetry_space_group_name_H-M "C 2/M"
_symmetry_group_IT_number 12
_symmetry_cell_setting 'monoclinic'
loop_
_space_group_symop_operation_xyz
x,y,z
-x,y,-z
-x,-y,-z
x,-y,z
1/2+x,1/2+y,z
1/2-x,1/2+y,-z
1/2-x,1/2-y,-z
1/2+x,1/2-y,z
loop_
_atom_site_type_symbol
_atom_site_label
_atom_site_fract_x
_atom_site_fract_y
_atom_site_fract_z
Si Si1 0.898377 0.817488 0.417037
Si Si2 0.514455 0.179289 0.211647
Si Si3 0.730108 0.324578 0.065174
Si Si4 0.082513 0.175469 0.989569
Si Si5 0.379035 0.180750 0.817347
Si Si6 0.261925 0.318586 0.254913
Si Si7 0.500924 0.681547 0.371710
O O1 0.825816 0.767056 0.350671
O O2 0.939462 0.774512 0.373587
O O3 0.938084 0.770820 0.526234
O O4 0.898338 0.000000 0.418254
O O5 0.583320 0.219032 0.231154
O O6 0.502422 0.250877 0.286529
O O7 0.510000 0.000000 0.213752
O O8 0.463983 0.238481 0.106816
O O9 0.747080 0.500000 0.079196
O O10 0.654266 0.312426 0.015089
O O11 0.761059 0.243406 0.165498
O O12 0.750000 0.250000 0.000000
O O13 0.085807 0.245203 0.079412
O O14 0.065257 0.000000 0.979393
O O15 0.305106 0.226937 0.760570
O O16 0.381653 0.000000 0.829334
O O17 0.262752 0.500000 0.252609
O O18 0.500935 0.500000 0.366324
#
# Coordination Sequence:
#
# PCOD9204858 Si02
#       7
#     8   8   8   8   8   8   8
#     4   8  16  33  57  78  99 129 168 212 260 307
#     4  11  22  34  50  75 106 138 171 210 259 307
#     4  10  21  34  48  73 106 135 167 207 249 300
#     4  10  21  35  52  74 101 136 176 213 250 296
#     4   9  19  35  52  73 104 138 172 210 254 306
#     4   9  17  33  56  75  96 134 174 209 253 302
#     4   9  18  34  54  78 103 129 167 215 258 304
#
# _framework density 17.587301
#
# number of rings (size 3 to 8) (size 9 to 14) (size 15 to 20)
#    0.000    2.571    0.000    2.571    2.000    4.571 
#    0.000    2.857    0.000    0.000    0.000    0.000 
#    0.000    0.000    0.000    0.000    0.000    0.000 
#
# Total GULP energy -156180.110858 kJ/mol
# GULP energy per Si atom -5577.861102 kJ/mol
# Density = 1.754727 g / cm^3
# Si number density = 17.587301 Si / 1000 Ang^3
#
#
#
# Elastic Constant Matrix: (Units=GPa)
#
#
# Indices 1 2 3 4 5 6 
#
# 1 60.8927 25.4294 58.9100 0.0000 -0.2563 0.0000
# 2 25.4294 24.2033 21.0376 0.0000 -0.7131 0.0000
# 3 58.9100 21.0376 91.9551 0.0000 10.5679 0.0000
# 4 0.0000 0.0000 0.0000 24.3106 0.0000 -5.3668
# 5 -0.2563 -0.7131 10.5679 0.0000 29.6930 0.0000
# 6 0.0000 0.0000 0.0000 -5.3668 0.0000 21.9453
#
#
#
# Elastic Compliance Matrix: (Units=1/GPa)
#
#
# Indices 1 2 3 4 5 6 
#
# 1 0.067308 -0.039507 -0.035491 0.000000 0.012264 0.000000
# 2 -0.039507 0.075694 0.008157 0.000000 -0.001426 0.000000
# 3 -0.035491 0.008157 0.033113 0.000000 -0.011895 0.000000
# 4 0.000000 0.000000 0.000000 0.043482 0.000000 0.010634
# 5 0.012264 -0.001426 -0.011895 0.000000 0.037983 0.000000
# 6 0.000000 0.000000 0.000000 0.010634 0.000000 0.048168
#
#
# Mechanical properties :
#
#
# Convention : Reuss Voigt Hill
#
# Bulk Modulus (GPa) = 23.56778 43.08948 33.32863
# Shear Modulus (GPa) = 11.02355 19.96807 15.49581
#
# Velocity S-wave (km/s) = 2.50629 3.37318 2.97152
# Velocity P-wave (km/s) = 4.66957 6.30275 5.54660
#
# Compressibility (1/GPa) = 0.04243081
#
# Stress axis : x y z
#
# Youngs Moduli (GPa) = 14.85712 13.21115 30.19993
#
# Poissons Ratio (x) = 0.52194 1.07182
# Poissons Ratio (y) = 0.58697 -0.24633
# Poissons Ratio (z) = 0.52729 -0.10776
#
# Static dielectric constant tensor:
#      x y z
#    x 1.619030 0.000000 0.024530 
#    y 0.000000 1.589810 0.000000 
#    z 0.024530 0.000000 1.564220 
# 
# From -- ./inp_files/238990.got.cif
#   From: 2010.05.17/outbox.cif.g08.bks.cpg/sg12_120_cif.got.tgz:238990.got - 2010.06.03 13:09:07.
