data_PCOD9204437
_publ_section_title
;
Structure prediction by ZEFSAII (Michael W. Deem and Ramdas Pophale) SiO2 
 PCOD9204437
Probable space group: C 2/M
;
_chemical_formula_sum "Si O2"
_cell_formula_units_Z 34
_cell_length_a 27.904448
_cell_length_b 10.311180
_cell_length_c 4.856275
_cell_angle_alpha 90.000000
_cell_angle_beta 74.917187
_cell_angle_gamma 90.000000
_cell_volume 1349.149799
_symmetry_space_group_name_H-M "C 2/M"
_symmetry_group_IT_number 12
_symmetry_cell_setting 'monoclinic'
loop_
_space_group_symop_operation_xyz
x,y,z
-x,y,-z
-x,-y,-z
x,-y,z
1/2+x,1/2+y,z
1/2-x,1/2+y,-z
1/2-x,1/2-y,-z
1/2+x,1/2-y,z
loop_
_atom_site_type_symbol
_atom_site_label
_atom_site_fract_x
_atom_site_fract_y
_atom_site_fract_z
Si Si1 0.195761 0.246883 0.953266
Si Si2 0.858211 0.146778 0.433813
Si Si3 0.500000 0.500000 0.000000
Si Si4 0.460384 0.236583 0.257560
Si Si5 0.149450 0.500000 0.771080
Si Si6 0.419383 0.000000 0.634745
O O1 0.159283 0.213050 0.259418
O O2 0.181578 0.378277 0.818428
O O3 0.250000 0.250000 0.000000
O O4 0.185697 0.145990 0.723491
O O5 0.905243 0.222508 0.235820
O O6 0.873301 0.000000 0.471801
O O7 0.515464 0.380705 0.760152
O O8 0.447588 0.133121 0.514223
O O9 0.500000 0.168486 0.000000
O O10 0.099373 0.500000 0.027318
O O11 0.130415 0.500000 0.486601
#
# Coordination Sequence:
#
# PCOD9204437 Si02
#       6
#     8   8   2   8   4   4
#     4  12  27  46  69 100 138 179 232 285 347 407
#     4  12  24  46  70 101 136 180 227 285 343 410
#     4   8  20  38  72  96 144 166 248 266 352 396
#     4  10  20  41  69 102 135 181 221 284 339 407
#     4  12  24  44  71 100 138 180 223 292 344 402
#     4  12  23  44  68 101 144 177 230 278 349 410
#
# _framework density 25.201053000000002
#
# number of rings (size 3 to 8) (size 9 to 14) (size 15 to 20)
#    0.706    0.000    5.882    1.765    3.294    0.000 
#    0.000    5.882    0.000    8.471    0.000    0.000 
#    0.000    0.000    0.000    0.000    0.000    0.000 
#
# Total GULP energy -94732.966909 kJ/mol
# GULP energy per Si atom -5572.527465 kJ/mol
# Density = 2.514369 g / cm^3
# Si number density = 25.201053 Si / 1000 Ang^3
#
#
#
# Elastic Constant Matrix: (Units=GPa)
#
#
# Indices 1 2 3 4 5 6 
#
# 1 100.8977 10.6618 22.2381 0.0000 15.6430 0.0000
# 2 10.6618 170.4468 13.6170 0.0000 -8.5758 0.0000
# 3 22.2381 13.6170 70.4236 0.0000 14.9226 0.0000
# 4 0.0000 0.0000 0.0000 -54.6679 0.0000 -39.2421
# 5 15.6430 -8.5758 14.9226 0.0000 41.2621 0.0000
# 6 0.0000 0.0000 0.0000 -39.2421 0.0000 8.8092
#
#
#
# Elastic Compliance Matrix: (Units=1/GPa)
#
#
# Indices 1 2 3 4 5 6 
#
# 1 0.011090 -0.000651 -0.002660 0.000000 -0.003377 0.000000
# 2 -0.000651 0.006122 -0.001408 0.000000 0.002028 0.000000
# 3 -0.002660 -0.001408 0.016419 0.000000 -0.005222 0.000000
# 4 0.000000 0.000000 0.000000 -0.004358 0.000000 -0.019412
# 5 -0.003377 0.002028 -0.005222 0.000000 0.027826 0.000000
# 6 0.000000 0.000000 0.000000 -0.019412 0.000000 0.027043
#
#
# Mechanical properties :
#
#
# Convention : Reuss Voigt Hill
#
# Bulk Modulus (GPa) = 41.33635 48.31132 44.82383
# Shear Modulus (GPa) = 49.19104 18.76409 33.97757
#
# Velocity S-wave (km/s) = 4.42287 2.73165 3.67585
# Velocity P-wave (km/s) = 6.52079 5.40011 5.98673
#
# Compressibility (1/GPa) = 0.02419178
#
# Stress axis : x y z
#
# Youngs Moduli (GPa) = 90.17292 163.33981 60.90649
#
# Poissons Ratio (x) = 0.10635 0.16203
# Poissons Ratio (y) = 0.05871 0.08576
# Poissons Ratio (z) = 0.23989 0.22998
#
# Static dielectric constant tensor:
#      x y z
#    x 2.036500 0.000000 0.024270 
#    y 0.000000 2.036940 0.000000 
#    z 0.024270 0.000000 1.992240 
# 
# From -- ./inp_files/27253.got.cif
#   From: 2010.05.17/outbox.cif.g08.bks.cpg/sg12_14_cif.got.tgz:27253.got - 2010.06.03 13:09:07.
