data_PCOD9204581
_publ_section_title
;
Structure prediction by ZEFSAII (Michael W. Deem and Ramdas Pophale) SiO2 
 PCOD9204581
Probable space group: C 2/M
;
_chemical_formula_sum "Si O2"
_cell_formula_units_Z 36
_cell_length_a 15.140203
_cell_length_b 19.126209
_cell_length_c 11.765061
_cell_angle_alpha 90.000000
_cell_angle_beta 155.463782
_cell_angle_gamma 90.000000
_cell_volume 1414.762792
_symmetry_space_group_name_H-M "C 2/M"
_symmetry_group_IT_number 12
_symmetry_cell_setting 'monoclinic'
loop_
_space_group_symop_operation_xyz
x,y,z
-x,y,-z
-x,-y,-z
x,-y,z
1/2+x,1/2+y,z
1/2-x,1/2+y,-z
1/2-x,1/2-y,-z
1/2+x,1/2-y,z
loop_
_atom_site_type_symbol
_atom_site_label
_atom_site_fract_x
_atom_site_fract_y
_atom_site_fract_z
Si Si1 0.330602 0.153553 0.202390
Si Si2 0.239915 0.000000 0.142586
Si Si3 0.184213 0.605683 0.303223
Si Si4 0.266193 0.000000 0.439723
Si Si5 0.500000 0.641834 0.500000
Si Si6 0.576972 0.223140 0.922445
O O1 0.500000 0.158571 0.500000
O O2 0.423987 0.197446 0.207827
O O3 0.291257 0.071975 0.138573
O O4 0.112172 0.194621 0.976795
O O5 0.673099 0.000000 0.623483
O O6 0.987150 0.000000 0.859713
O O7 0.169959 0.565367 0.405433
O O8 0.407125 0.599186 0.498456
O O9 0.124792 0.686933 0.256518
O O10 0.000000 0.580951 0.000000
O O11 0.704648 0.686842 0.776405
#
# Coordination Sequence:
#
# PCOD9204581 Si02
#       6
#     8   4   8   4   4   8
#     4  11  22  42  68 100 144 181 229 280 341 414
#     4  11  25  42  66  99 143 187 222 275 344 417
#     4  10  22  41  71 100 135 178 227 290 345 400
#     4  11  23  45  62 102 143 178 234 272 344 423
#     4  10  20  43  66 101 134 170 234 284 346 399
#     4  10  22  41  69 103 134 179 230 285 338 404
#
# _framework density 25.445961
#
# number of rings (size 3 to 8) (size 9 to 14) (size 15 to 20)
#    0.000    1.556    1.111    3.333    0.000    1.333 
#   12.000    7.778    0.000    0.000    0.000    0.000 
#    0.000    0.000    0.000    0.000    0.000    0.000 
#
# Total GULP energy -100722.734864 kJ/mol
# GULP energy per Si atom -5595.707492 kJ/mol
# Density = 2.538805 g / cm^3
# Si number density = 25.445961 Si / 1000 Ang^3
#
#
#
# Elastic Constant Matrix: (Units=GPa)
#
#
# Indices 1 2 3 4 5 6 
#
# 1 142.5174 34.9267 37.0854 0.0000 5.0361 0.0000
# 2 34.9267 167.0156 32.6341 0.0000 5.7770 0.0000
# 3 37.0854 32.6341 81.7169 0.0000 -8.3560 -0.0001
# 4 0.0000 0.0000 0.0000 -8.8205 0.0000 35.0912
# 5 5.0361 5.7770 -8.3560 0.0000 54.1233 0.0000
# 6 0.0000 0.0000 -0.0001 35.0912 0.0000 32.1556
#
#
#
# Elastic Compliance Matrix: (Units=1/GPa)
#
#
# Indices 1 2 3 4 5 6 
#
# 1 0.008200 -0.001001 -0.003443 0.000000 -0.001188 0.000000
# 2 -0.001001 0.006683 -0.002315 0.000000 -0.000978 0.000000
# 3 -0.003443 -0.002315 0.015019 0.000000 0.002886 0.000000
# 4 0.000000 0.000000 0.000000 -0.021224 0.000000 0.023162
# 5 -0.001188 -0.000978 0.002886 0.000000 0.019137 0.000000
# 6 0.000000 0.000000 0.000000 0.023162 0.000000 0.005822
#
#
# Mechanical properties :
#
#
# Convention : Reuss Voigt Hill
#
# Bulk Modulus (GPa) = 61.03120 66.72691 63.87905
# Shear Modulus (GPa) = 95.02950 34.59858 64.81404
#
# Velocity S-wave (km/s) = 6.11774 3.69140 5.05238
# Velocity P-wave (km/s) = 8.59878 6.66697 7.69374
#
# Compressibility (1/GPa) = 0.01638506
#
# Stress axis : x y z
#
# Youngs Moduli (GPa) = 121.95273 149.63684 66.58063
#
# Poissons Ratio (x) = 0.14978 0.22924
# Poissons Ratio (y) = 0.12207 0.15410
# Poissons Ratio (z) = 0.41989 0.34634
#
# Static dielectric constant tensor:
#      x y z
#    x 2.082720 0.000000 0.013970 
#    y 0.000000 2.026800 0.000000 
#    z 0.013970 0.000000 2.006400 
# 
# From -- ./inp_files/227495.got.cif
#   From: 2010.05.17/outbox.cif.g08.bks.cpg/sg12_114_cif.got.tgz:227495.got - 2010.06.03 13:09:07.
