data_PCOD9204665
_publ_section_title
;
Structure prediction by ZEFSAII (Michael W. Deem and Ramdas Pophale) SiO2 
 PCOD9204665
Probable space group: C 2/M
;
_chemical_formula_sum "Si O2"
_cell_formula_units_Z 36
_cell_length_a 21.993370
_cell_length_b 14.552688
_cell_length_c 5.513400
_cell_angle_alpha 90.000000
_cell_angle_beta 113.819496
_cell_angle_gamma 90.000000
_cell_volume 1614.326009
_symmetry_space_group_name_H-M "C 2/M"
_symmetry_group_IT_number 12
_symmetry_cell_setting 'monoclinic'
loop_
_space_group_symop_operation_xyz
x,y,z
-x,y,-z
-x,-y,-z
x,-y,z
1/2+x,1/2+y,z
1/2-x,1/2+y,-z
1/2-x,1/2-y,-z
1/2+x,1/2-y,z
loop_
_atom_site_type_symbol
_atom_site_label
_atom_site_fract_x
_atom_site_fract_y
_atom_site_fract_z
Si Si1 0.909335 0.396511 0.993197
Si Si2 0.572996 0.714552 0.229524
Si Si3 0.737570 0.862931 0.191263
Si Si4 0.705538 0.351387 0.214728
Si Si5 0.500000 0.783464 0.500000
O O1 0.924964 0.500000 0.946487
O O2 0.964085 0.351041 0.254317
O O3 0.905999 0.321234 0.776236
O O4 0.836634 0.394081 0.994376
O O5 0.630133 0.657623 0.192032
O O6 0.557463 0.716369 0.488815
O O7 0.500000 0.696532 0.000000
O O8 0.734288 0.752277 0.222518
O O9 0.757027 0.895439 0.493601
O O10 0.784232 0.889861 0.040025
#
# Coordination Sequence:
#
# PCOD9204665 Si02
#       5
#     8   8   8   8   4
#     4  10  21  34  47  68 100 138 175 206 239 289
#     4   9  20  32  49  71 101 133 166 204 250 295
#     4   9  19  31  51  71  92 128 166 206 253 288
#     4   9  18  32  51  71  96 122 164 209 253 296
#     4  10  21  32  46  70  96 140 175 202 242 286
#
# _framework density 22.300329999999999
#
# number of rings (size 3 to 8) (size 9 to 14) (size 15 to 20)
#    0.000    2.667    0.000    0.333   18.667    4.889 
#    0.000    0.000    0.000    0.000    0.000    0.000 
#    0.000    5.333    0.000    0.000    0.000    0.000 
#
# Total GULP energy -100206.119312 kJ/mol
# GULP energy per Si atom -5567.006628 kJ/mol
# Density = 2.224957 g / cm^3
# Si number density = 22.300330 Si / 1000 Ang^3
#
#
#
# Elastic Constant Matrix: (Units=GPa)
#
#
# Indices 1 2 3 4 5 6 
#
# 1 169.8983 8.0805 29.6969 0.0000 -8.0755 0.0000
# 2 8.0805 40.3981 7.3395 0.0000 1.6787 0.0000
# 3 29.6969 7.3395 52.0154 0.0000 -5.5552 0.0000
# 4 0.0000 0.0000 0.0000 -10.0165 0.0000 -6.2783
# 5 -8.0755 1.6787 -5.5552 0.0000 32.2887 0.0000
# 6 0.0000 0.0000 0.0000 -6.2783 0.0000 -15.1514
#
#
#
# Elastic Compliance Matrix: (Units=1/GPa)
#
#
# Indices 1 2 3 4 5 6 
#
# 1 0.006591 -0.000719 -0.003547 0.000000 0.001076 0.000000
# 2 -0.000719 0.025607 -0.003427 0.000000 -0.002101 0.000000
# 3 -0.003547 -0.003427 0.022063 0.000000 0.003087 0.000000
# 4 0.000000 0.000000 0.000000 -0.134863 0.000000 0.055883
# 5 0.001076 -0.002101 0.003087 0.000000 0.031880 0.000000
# 6 0.000000 0.000000 0.000000 0.055883 0.000000 -0.089157
#
#
# Mechanical properties :
#
#
# Convention : Reuss Voigt Hill
#
# Bulk Modulus (GPa) = 25.72260 39.17172 32.44716
# Shear Modulus (GPa) = -45.64799 15.90383 -14.87208
#
# Velocity S-wave (km/s) = -4.52925 2.67341 -2.58524
# Velocity P-wave (km/s) = 3.97397 5.20895 2.38125
#
# Compressibility (1/GPa) = 0.03887631
#
# Stress axis : x y z
#
# Youngs Moduli (GPa) = 151.71918 39.05127 45.32411
#
# Poissons Ratio (x) = 0.02807 0.16075
# Poissons Ratio (y) = 0.10904 0.15534
# Poissons Ratio (z) = 0.53811 0.13384
#
# Static dielectric constant tensor:
#      x y z
#    x 1.925120 0.000000 -0.072640 
#    y 0.000000 1.742580 0.000000 
#    z -0.072640 0.000000 1.914050 
# 
# From -- ./inp_files/15575.got.cif
#   From: 2010.05.17/outbox.cif.g08.bks.cpg/sg12_8_cif.got.tgz:15575.got - 2010.06.03 13:09:07.
