data_PCOD9204969
_publ_section_title
;
Structure prediction by ZEFSAII (Michael W. Deem and Ramdas Pophale) SiO2 
 PCOD9204969
Probable space group: C 2/M
;
_chemical_formula_sum "Si O2"
_cell_formula_units_Z 64
_cell_length_a 9.162678
_cell_length_b 29.177054
_cell_length_c 18.290316
_cell_angle_alpha 90.000000
_cell_angle_beta 136.522958
_cell_angle_gamma 90.000000
_cell_volume 3364.448038
_symmetry_space_group_name_H-M "C 2/M"
_symmetry_group_IT_number 12
_symmetry_cell_setting 'monoclinic'
loop_
_space_group_symop_operation_xyz
x,y,z
-x,y,-z
-x,-y,-z
x,-y,z
1/2+x,1/2+y,z
1/2-x,1/2+y,-z
1/2-x,1/2-y,-z
1/2+x,1/2-y,z
loop_
_atom_site_type_symbol
_atom_site_label
_atom_site_fract_x
_atom_site_fract_y
_atom_site_fract_z
Si Si1 0.444326 0.311545 0.303829
Si Si2 0.944260 0.408287 0.681747
Si Si3 0.853527 0.912558 0.287948
Si Si4 0.317847 0.053004 0.486444
Si Si5 0.772694 0.739816 0.340969
Si Si6 0.732698 0.052881 0.092094
Si Si7 0.400780 0.554923 0.883239
Si Si8 0.314310 0.811613 0.560665
O O1 0.336899 0.360217 0.255197
O O2 0.573865 0.293371 0.281428
O O3 0.283560 0.273134 0.275062
O O4 0.621285 0.317327 0.433477
O O5 0.793211 0.418608 0.695149
O O6 0.895986 0.442187 0.597302
O O7 0.883224 0.358135 0.626918
O O8 0.185829 0.416525 0.793754
O O9 0.793104 0.944408 0.198600
O O10 0.096312 0.921901 0.396715
O O11 0.500000 0.072854 0.500000
O O12 0.286431 0.000000 0.454818
O O13 0.756021 0.774409 0.404127
O O14 0.983205 0.709021 0.408325
O O15 0.923635 0.071016 0.111772
O O16 0.713210 0.000000 0.060416
O O17 0.500000 0.074593 0.000000
O O18 0.355922 0.500000 0.856056
O O19 0.500000 0.559845 0.000000
#
# Coordination Sequence:
#
# PCOD9204969 Si02
#       8
#     8   8   8   8   8   8   8   8
#     4  11  20  34  53  82 118 158 200 243 284 351
#     4  12  24  36  58  89 123 158 198 242 294 353
#     4  12  24  36  58  89 123 158 198 242 294 353
#     4  11  25  41  55  78 119 164 202 236 290 359
#     4  10  21  34  54  78 115 160 199 242 298 337
#     4  10  22  42  66  90 116 150 198 250 299 349
#     4  10  22  42  66  90 116 150 198 250 299 349
#     4  11  20  34  53  82 118 158 200 243 284 351
#
# _framework density 19.022437
#
# number of rings (size 3 to 8) (size 9 to 14) (size 15 to 20)
#    0.000    1.125    2.500    5.625    3.500    5.500 
#    0.000    0.000    0.000    0.000    0.000    5.250 
#    0.000    0.000    0.000    0.000    0.000    0.000 
#
# Total GULP energy -178719.203025 kJ/mol
# GULP energy per Si atom -5584.975095 kJ/mol
# Density = 1.897914 g / cm^3
# Si number density = 19.022437 Si / 1000 Ang^3
#
#
#
# Elastic Constant Matrix: (Units=GPa)
#
#
# Indices 1 2 3 4 5 6 
#
# 1 182.2899 23.4933 39.3772 0.0000 17.2848 0.0000
# 2 23.4933 28.8030 8.5677 0.0000 -1.0088 0.0000
# 3 39.3772 8.5677 73.7638 0.0000 11.8338 0.0000
# 4 0.0000 0.0000 0.0000 6.2082 0.0000 -6.6789
# 5 17.2848 -1.0088 11.8338 0.0000 21.8485 0.0000
# 6 0.0000 0.0000 0.0000 -6.6789 0.0000 -0.5142
#
#
#
# Elastic Compliance Matrix: (Units=1/GPa)
#
#
# Indices 1 2 3 4 5 6 
#
# 1 0.007124 -0.005236 -0.002466 0.000000 -0.004542 0.000000
# 2 -0.005236 0.040182 -0.003104 0.000000 0.007679 0.000000
# 3 -0.002466 -0.003104 0.016366 0.000000 -0.007057 0.000000
# 4 0.000000 0.000000 0.000000 0.010757 0.000000 -0.139727
# 5 -0.004542 0.007679 -0.007057 0.000000 0.053540 0.000000
# 6 0.000000 0.000000 0.000000 -0.139727 0.000000 -0.129881
#
#
# Mechanical properties :
#
#
# Convention : Reuss Voigt Hill
#
# Bulk Modulus (GPa) = 23.77596 47.52589 35.65092
# Shear Modulus (GPa) = 148.28111 19.73641 84.00876
#
# Velocity S-wave (km/s) = 8.83854 3.22457 6.65273
# Velocity P-wave (km/s) = 10.80212 6.23716 8.82009
#
# Compressibility (1/GPa) = 0.04205929
#
# Stress axis : x y z
#
# Youngs Moduli (GPa) = 140.37062 24.88689 61.10283
#
# Poissons Ratio (x) = 0.13031 0.15069
# Poissons Ratio (y) = 0.73501 0.18965
# Poissons Ratio (z) = 0.34617 0.07724
#
# Static dielectric constant tensor:
#      x y z
#    x 1.675070 0.000000 0.013220 
#    y 0.000000 1.692580 0.000000 
#    z 0.013220 0.000000 1.634690 
# 
# From -- ./inp_files/260412.got.cif
#   From: 2010.05.17/outbox.cif.g08.bks.cpg/sg12_131_cif.got.tgz:260412.got - 2010.06.03 13:09:07.
