data_PCOD9204084
_publ_section_title
;
Structure prediction by ZEFSAII (Michael W. Deem and Ramdas Pophale) SiO2 
 PCOD9204084
Probable space group: C 2/M
;
_chemical_formula_sum "Si O2"
_cell_formula_units_Z 36
_cell_length_a 9.833990
_cell_length_b 27.452468
_cell_length_c 10.633546
_cell_angle_alpha 90.000000
_cell_angle_beta 39.041527
_cell_angle_gamma 90.000000
_cell_volume 1808.212612
_symmetry_space_group_name_H-M "C 2/M"
_symmetry_group_IT_number 12
_symmetry_cell_setting 'monoclinic'
loop_
_space_group_symop_operation_xyz
x,y,z
-x,y,-z
-x,-y,-z
x,-y,z
1/2+x,1/2+y,z
1/2-x,1/2+y,-z
1/2-x,1/2-y,-z
1/2+x,1/2-y,z
loop_
_atom_site_type_symbol
_atom_site_label
_atom_site_fract_x
_atom_site_fract_y
_atom_site_fract_z
Si Si1 0.329553 0.942310 0.436259
Si Si2 0.249214 0.809534 0.143050
Si Si3 0.000000 0.883571 0.500000
Si Si4 0.249259 0.798090 0.848037
Si Si5 0.244001 0.097868 0.775394
O O1 0.582979 0.927798 0.257064
O O2 0.256275 0.925582 0.628763
O O3 0.184318 0.915177 0.437165
O O4 0.306925 0.000000 0.439434
O O5 0.150227 0.755359 0.241417
O O6 0.111418 0.849416 0.315043
O O7 0.500000 0.813428 0.000000
O O8 0.256108 0.813969 0.988028
O O9 0.310718 0.845108 0.724022
O O10 0.000000 0.788817 0.000000
O O11 0.000000 0.095034 0.000000
#
# Coordination Sequence:
#
# PCOD9204084 Si02
#       5
#     8   8   4   8   8
#     4  11  25  40  57  85 116 149 197 250 288 330
#     4  10  21  37  57  86 121 152 185 228 279 344
#     4  12  23  38  60  84 118 160 191 226 292 352
#     4   9  18  36  59  85 118 148 183 233 280 335
#     4  10  20  40  65  86 112 150 193 238 290 342
#
# _framework density 19.909164000000001
#
# number of rings (size 3 to 8) (size 9 to 14) (size 15 to 20)
#    0.000    1.778    0.000    5.667    0.000    3.556 
#    0.000   12.222    0.000    5.333    0.000    0.000 
#    0.000    0.000    0.000    0.000    0.000    0.000 
#
# Total GULP energy -100440.456439 kJ/mol
# GULP energy per Si atom -5580.025358 kJ/mol
# Density = 1.986385 g / cm^3
# Si number density = 19.909164 Si / 1000 Ang^3
#
#
#
# Elastic Constant Matrix: (Units=GPa)
#
#
# Indices 1 2 3 4 5 6 
#
# 1 139.7950 44.0636 40.4538 0.0000 -25.6236 0.0000
# 2 44.0636 180.6544 50.7630 0.0000 -7.0555 0.0000
# 3 40.4538 50.7630 97.3623 0.0000 -17.2043 0.0000
# 4 0.0000 0.0000 0.0000 41.2650 0.0000 9.5584
# 5 -25.6236 -7.0555 -17.2043 0.0000 9.2481 0.0000
# 6 0.0000 0.0000 0.0000 9.5584 0.0000 38.0503
#
#
#
# Elastic Compliance Matrix: (Units=1/GPa)
#
#
# Indices 1 2 3 4 5 6 
#
# 1 0.015961 -0.002979 0.003477 0.000000 0.048420 0.000000
# 2 -0.002979 0.007067 -0.004398 0.000000 -0.011045 0.000000
# 3 0.003477 -0.004398 0.018217 0.000000 0.040170 0.000000
# 4 0.000000 0.000000 0.000000 0.025731 0.000000 -0.006464
# 5 0.048420 -0.011045 0.040170 0.000000 0.308589 0.000000
# 6 0.000000 0.000000 0.000000 -0.006464 0.000000 0.027905
#
#
# Mechanical properties :
#
#
# Convention : Reuss Voigt Hill
#
# Bulk Modulus (GPa) = 29.89984 76.48583 53.19284
# Shear Modulus (GPa) = 11.83661 36.54810 24.19235
#
# Velocity S-wave (km/s) = 2.44095 4.28920 3.48966
# Velocity P-wave (km/s) = 4.79531 7.93918 6.55841
#
# Compressibility (1/GPa) = 0.03344499
#
# Stress axis : x y z
#
# Youngs Moduli (GPa) = 62.65218 141.51056 54.89267
#
# Poissons Ratio (x) = 0.42159 -0.19089
# Poissons Ratio (y) = 0.18665 0.24144
# Poissons Ratio (z) = -0.21787 0.62241
#
# Static dielectric constant tensor:
#      x y z
#    x 1.675370 0.000000 0.007990 
#    y 0.000000 1.745720 0.000000 
#    z 0.007990 0.000000 1.694940 
# 
# From -- ./inp_files/123336.got.cif
#   From: 2010.05.17/outbox.cif.g08.bks.cpg/sg12_62_cif.got.tgz:123336.got - 2010.06.03 13:09:07.
