data_PCOD9204657
_publ_section_title
;
Structure prediction by ZEFSAII (Michael W. Deem and Ramdas Pophale) SiO2 
 PCOD9204657
Probable space group: C 2/M
;
_chemical_formula_sum "Si O2"
_cell_formula_units_Z 64
_cell_length_a 21.977717
_cell_length_b 24.383037
_cell_length_c 9.561212
_cell_angle_alpha 90.000000
_cell_angle_beta 45.318427
_cell_angle_gamma 90.000000
_cell_volume 3643.079048
_symmetry_space_group_name_H-M "C 2/M"
_symmetry_group_IT_number 12
_symmetry_cell_setting 'monoclinic'
loop_
_space_group_symop_operation_xyz
x,y,z
-x,y,-z
-x,-y,-z
x,-y,z
1/2+x,1/2+y,z
1/2-x,1/2+y,-z
1/2-x,1/2-y,-z
1/2+x,1/2-y,z
loop_
_atom_site_type_symbol
_atom_site_label
_atom_site_fract_x
_atom_site_fract_y
_atom_site_fract_z
Si Si1 0.235617 0.647724 0.560850
Si Si2 0.906861 0.832965 0.127153
Si Si3 0.196794 0.791346 0.284301
Si Si4 0.899218 0.730950 0.339161
Si Si5 0.031369 0.440241 0.290633
Si Si6 0.415648 0.936668 0.220093
Si Si7 0.456702 0.821056 0.724516
Si Si8 0.841575 0.785893 0.954257
O O1 0.325459 0.639178 0.334797
O O2 0.255471 0.668811 0.685158
O O3 0.184821 0.696569 0.563906
O O4 0.168780 0.598226 0.668137
O O5 0.912933 0.772724 0.190277
O O6 0.887798 0.822260 0.995416
O O7 0.000000 0.859279 0.000000
O O8 0.115943 0.769359 0.501456
O O9 0.174339 0.814439 0.168695
O O10 0.253931 0.737461 0.160697
O O11 0.974478 0.690668 0.263805
O O12 0.071962 0.500000 0.191865
O O13 0.080306 0.382445 0.193771
O O14 0.000000 0.441850 0.500000
O O15 0.947557 0.435766 0.328459
O O16 0.401700 0.000000 0.202090
O O17 0.500000 0.916850 0.000000
O O18 0.500000 0.820409 0.500000
O O19 0.392811 0.770270 0.838923
#
# Coordination Sequence:
#
# PCOD9204657 Si02
#       8
#     8   8   8   8   8   8   8   8
#     4  11  21  36  52  73 107 139 174 215 271 314
#     4  11  21  33  51  74 104 138 177 215 256 315
#     4  10  21  32  45  67 104 136 175 217 256 304
#     4  11  18  32  46  70 100 140 175 213 256 315
#     4   9  19  34  49  73 105 138 179 223 264 312
#     4  10  22  38  58  82 106 135 178 223 263 316
#     4  11  20  29  49  72 100 143 178 216 267 314
#     4  11  20  31  46  71 101 136 181 216 250 315
#
# _framework density 17.567557000000001
#
# number of rings (size 3 to 8) (size 9 to 14) (size 15 to 20)
#    0.000    1.500    6.250    0.750    1.750    0.500 
#    0.000    0.000    0.000    0.375    0.000    0.000 
#    0.000    1.000    0.000    0.000    0.000    0.000 
#
# Total GULP energy -178391.053235 kJ/mol
# GULP energy per Si atom -5574.720414 kJ/mol
# Density = 1.752757 g / cm^3
# Si number density = 17.567557 Si / 1000 Ang^3
#
#
#
# Elastic Constant Matrix: (Units=GPa)
#
#
# Indices 1 2 3 4 5 6 
#
# 1 114.3113 24.3732 52.5256 0.0000 21.2532 0.0000
# 2 24.3732 56.9094 29.5926 0.0000 -0.1250 0.0000
# 3 52.5256 29.5926 76.7452 0.0000 4.9889 0.0000
# 4 0.0000 0.0000 0.0000 14.1069 0.0000 -4.7287
# 5 21.2532 -0.1250 4.9889 0.0000 39.9268 0.0000
# 6 0.0000 0.0000 0.0000 -4.7287 0.0000 24.2369
#
#
#
# Elastic Compliance Matrix: (Units=1/GPa)
#
#
# Indices 1 2 3 4 5 6 
#
# 1 0.014334 -0.001592 -0.008771 0.000000 -0.006539 0.000000
# 2 -0.001592 0.022207 -0.007594 0.000000 0.001866 0.000000
# 3 -0.008771 -0.007594 0.021837 0.000000 0.001917 0.000000
# 4 0.000000 0.000000 0.000000 0.075848 0.000000 0.014798
# 5 -0.006539 0.001866 0.001917 0.000000 0.028293 0.000000
# 6 0.000000 0.000000 0.000000 0.014798 0.000000 0.044147
#
#
# Mechanical properties :
#
#
# Convention : Reuss Voigt Hill
#
# Bulk Modulus (GPa) = 44.51977 51.21653 47.86815
# Shear Modulus (GPa) = 19.99459 25.08574 22.54016
#
# Velocity S-wave (km/s) = 3.37731 3.78293 3.58586
# Velocity P-wave (km/s) = 6.37224 6.94968 6.66721
#
# Compressibility (1/GPa) = 0.02246193
#
# Stress axis : x y z
#
# Youngs Moduli (GPa) = 69.76648 45.03109 45.79385
#
# Poissons Ratio (x) = 0.07170 0.40166
# Poissons Ratio (y) = 0.11108 0.34778
# Poissons Ratio (z) = 0.61193 0.34199
#
# Static dielectric constant tensor:
#      x y z
#    x 1.636660 0.000000 0.010440 
#    y 0.000000 1.611500 0.000000 
#    z 0.010440 0.000000 1.644560 
# 
# From -- ./inp_files/90660.got.cif
#   From: 2010.05.17/outbox.cif.g08.bks.cpg/sg12_46_cif.got.tgz:90660.got - 2010.06.03 13:09:07.
