data_PCOD9204418
_publ_section_title
;
Structure prediction by ZEFSAII (Michael W. Deem and Ramdas Pophale) SiO2 
 PCOD9204418
Probable space group: C 2/M
;
_chemical_formula_sum "Si O2"
_cell_formula_units_Z 44
_cell_length_a 8.511074
_cell_length_b 24.787013
_cell_length_c 11.780335
_cell_angle_alpha 90.000000
_cell_angle_beta 61.694364
_cell_angle_gamma 90.000000
_cell_volume 2188.070882
_symmetry_space_group_name_H-M "C 2/M"
_symmetry_group_IT_number 12
_symmetry_cell_setting 'monoclinic'
loop_
_space_group_symop_operation_xyz
x,y,z
-x,y,-z
-x,-y,-z
x,-y,z
1/2+x,1/2+y,z
1/2-x,1/2+y,-z
1/2-x,1/2-y,-z
1/2+x,1/2-y,z
loop_
_atom_site_type_symbol
_atom_site_label
_atom_site_fract_x
_atom_site_fract_y
_atom_site_fract_z
Si Si1 0.785674 0.000000 0.064741
Si Si2 0.036591 0.693392 0.173397
Si Si3 0.988490 0.500000 0.642717
Si Si4 0.349284 0.308495 0.783231
Si Si5 0.390991 0.117137 0.417892
Si Si6 0.500000 0.657239 0.500000
Si Si7 0.168553 0.885762 0.024859
O O1 0.695589 0.000000 0.220986
O O2 0.741827 0.944657 0.013675
O O3 0.000000 0.000000 0.000000
O O4 0.086629 0.755228 0.175828
O O5 0.862709 0.692022 0.155486
O O6 0.978675 0.662802 0.308643
O O7 0.196532 0.659127 0.067124
O O8 0.000000 0.500000 0.500000
O O9 0.076930 0.557165 0.643163
O O10 0.430622 0.308514 0.629883
O O11 0.396126 0.363967 0.831526
O O12 0.500000 0.119520 0.500000
O O13 0.176692 0.126353 0.486987
O O14 0.000000 0.886621 0.000000
#
# Coordination Sequence:
#
# PCOD9204418 Si02
#       7
#     4   8   4   8   8   4   8
#     4  10  22  40  67 102 132 173 228 276 335 403
#     4  11  23  41  64  94 130 172 219 273 335 395
#     4  10  20  41  68 102 134 177 223 280 339 408
#     4  11  25  41  64  95 132 171 219 276 330 402
#     4  10  23  39  69  94 137 174 217 275 334 403
#     4  10  26  43  62 102 132 171 230 270 340 408
#     4  11  23  41  67  94 130 170 221 272 331 401
#
# _framework density 20.109038999999999
#
# number of rings (size 3 to 8) (size 9 to 14) (size 15 to 20)
#    0.000    1.455    1.818    2.182    6.364    3.273 
#    0.000    5.455    0.000    0.000    0.000    0.000 
#    0.000    0.000    0.000    0.000    0.000    0.000 
#
# Total GULP energy -122699.974812 kJ/mol
# GULP energy per Si atom -5577.271582 kJ/mol
# Density = 2.006327 g / cm^3
# Si number density = 20.109039 Si / 1000 Ang^3
#
#
#
# Elastic Constant Matrix: (Units=GPa)
#
#
# Indices 1 2 3 4 5 6 
#
# 1 94.6590 26.4978 16.0821 0.0000 1.2406 0.0000
# 2 26.4978 120.8469 39.4572 0.0000 7.9275 0.0000
# 3 16.0821 39.4572 97.3743 0.0000 -5.9085 0.0000
# 4 0.0000 0.0000 0.0000 36.6576 0.0000 -2.3165
# 5 1.2406 7.9275 -5.9085 0.0000 33.6879 0.0000
# 6 0.0000 0.0000 0.0000 -2.3165 0.0000 16.6238
#
#
#
# Elastic Compliance Matrix: (Units=1/GPa)
#
#
# Indices 1 2 3 4 5 6 
#
# 1 0.011339 -0.002152 -0.001006 0.000000 -0.000088 0.000000
# 2 -0.002152 0.010245 -0.003980 0.000000 -0.003030 0.000000
# 3 -0.001006 -0.003980 0.012238 0.000000 0.003120 0.000000
# 4 0.000000 0.000000 0.000000 0.027522 0.000000 0.003835
# 5 -0.000088 -0.003030 0.003120 0.000000 0.030948 0.000000
# 6 0.000000 0.000000 0.000000 0.003835 0.000000 0.060689
#
#
# Mechanical properties :
#
#
# Convention : Reuss Voigt Hill
#
# Bulk Modulus (GPa) = 51.16165 52.99494 52.07830
# Shear Modulus (GPa) = 28.77350 32.78338 30.77844
#
# Velocity S-wave (km/s) = 3.78679 4.04205 3.91650
# Velocity P-wave (km/s) = 6.67960 6.94228 6.81221
#
# Compressibility (1/GPa) = 0.01954589
#
# Stress axis : x y z
#
# Youngs Moduli (GPa) = 88.19353 97.60900 81.71430
#
# Poissons Ratio (x) = 0.21006 0.08220
# Poissons Ratio (y) = 0.18979 0.32521
# Poissons Ratio (z) = 0.08872 0.38846
#
# Static dielectric constant tensor:
#      x y z
#    x 1.703860 0.000000 0.021970 
#    y 0.000000 1.740560 0.000000 
#    z 0.021970 0.000000 1.778960 
# 
# From -- ./inp_files/122395.got.cif
#   From: 2010.05.17/outbox.cif.g08.bks.cpg/sg12_62_cif.got.tgz:122395.got - 2010.06.03 13:09:07.
