data_PCOD9204746
_publ_section_title
;
Structure prediction by ZEFSAII (Michael W. Deem and Ramdas Pophale) SiO2 
 PCOD9204746
Probable space group: C 2/M
;
_chemical_formula_sum "Si O2"
_cell_formula_units_Z 64
_cell_length_a 18.290122
_cell_length_b 21.913448
_cell_length_c 18.447399
_cell_angle_alpha 90.000000
_cell_angle_beta 30.135765
_cell_angle_gamma 90.000000
_cell_volume 3712.017562
_symmetry_space_group_name_H-M "C 2/M"
_symmetry_group_IT_number 12
_symmetry_cell_setting 'monoclinic'
loop_
_space_group_symop_operation_xyz
x,y,z
-x,y,-z
-x,-y,-z
x,-y,z
1/2+x,1/2+y,z
1/2-x,1/2+y,-z
1/2-x,1/2-y,-z
1/2+x,1/2-y,z
loop_
_atom_site_type_symbol
_atom_site_label
_atom_site_fract_x
_atom_site_fract_y
_atom_site_fract_z
Si Si1 0.844866 0.729263 0.626965
Si Si2 0.637091 0.214540 0.920490
Si Si3 0.045512 0.834012 0.092104
Si Si4 0.389872 0.932066 0.441503
Si Si5 0.761065 0.434961 0.857167
Si Si6 0.250391 0.396246 0.288852
Si Si7 0.637012 0.720710 0.154407
Si Si8 0.861796 0.293967 0.444263
O O1 0.728131 0.764474 0.772908
O O2 0.845344 0.660806 0.658482
O O3 0.823381 0.717560 0.561051
O O4 0.000000 0.760391 0.500000
O O5 0.758745 0.190415 0.873659
O O6 0.500000 0.180520 0.000000
O O7 0.571939 0.273332 0.020453
O O8 0.040839 0.819895 0.181864
O O9 0.900957 0.867490 0.188393
O O10 0.180905 0.878617 0.962319
O O11 0.564793 0.930925 0.288649
O O12 0.332780 0.927407 0.573463
O O13 0.344952 0.866745 0.444592
O O14 0.343967 0.000000 0.453169
O O15 0.714950 0.500000 0.929385
O O16 0.720198 0.434589 0.807438
O O17 0.525731 0.769435 0.285958
O O18 0.750000 0.750000 0.000000
O O19 0.750000 0.250000 0.500000
#
# Coordination Sequence:
#
# PCOD9204746 Si02
#       8
#     8   8   8   8   8   8   8   8
#     4  11  19  32  50  72 103 137 175 221 266 312
#     4  11  19  33  50  72  98 134 175 217 271 316
#     4  11  21  34  47  71 105 140 175 218 270 315
#     4  10  21  35  51  72 104 141 185 224 261 309
#     4  11  21  33  49  72 103 144 189 220 250 308
#     4  11  19  30  49  71 101 140 183 219 251 302
#     4  10  21  33  50  70 102 140 172 219 271 328
#     4  11  22  35  53  79 106 142 183 223 275 323
#
# _framework density 17.241296999999999
#
# number of rings (size 3 to 8) (size 9 to 14) (size 15 to 20)
#    0.000    1.250    3.750    5.625    1.750    2.500 
#    0.000    0.000    0.000    0.000    0.000    0.000 
#    0.000    2.000    0.000    1.625    0.000    0.375 
#
# Total GULP energy -178191.586434 kJ/mol
# GULP energy per Si atom -5568.487076 kJ/mol
# Density = 1.720206 g / cm^3
# Si number density = 17.241297 Si / 1000 Ang^3
#
#
#
# Elastic Constant Matrix: (Units=GPa)
#
#
# Indices 1 2 3 4 5 6 
#
# 1 67.7322 29.4313 17.6715 -0.0023 -4.2624 0.0017
# 2 29.4313 61.8979 7.9550 -0.0015 1.3875 0.0020
# 3 17.6715 7.9550 72.2412 -0.0015 2.5708 0.0043
# 4 -0.0023 -0.0015 -0.0015 15.4081 0.0030 -2.1369
# 5 -4.2624 1.3875 2.5708 0.0030 27.7248 -0.0025
# 6 0.0017 0.0020 0.0043 -2.1369 -0.0025 13.9680
#
#
#
# Elastic Compliance Matrix: (Units=1/GPa)
#
#
# Indices 1 2 3 4 5 6 
#
# 1 0.020009 -0.009083 -0.004033 0.000001 0.003905 0.000001
# 2 -0.009083 0.020523 0.000048 0.000001 -0.002428 -0.000002
# 3 -0.004033 0.000048 0.014895 0.000001 -0.002004 -0.000004
# 4 0.000001 0.000001 0.000001 0.066308 -0.000006 0.010144
# 5 0.003905 -0.002428 -0.002004 -0.000006 0.036976 0.000006
# 6 0.000001 -0.000002 -0.000004 0.010144 0.000006 0.073144
#
#
# Mechanical properties :
#
#
# Convention : Reuss Voigt Hill
#
# Bulk Modulus (GPa) = 34.14049 34.66523 34.40286
# Shear Modulus (GPa) = 18.67382 21.20774 19.94078
#
# Velocity S-wave (km/s) = 3.29460 3.51102 3.40453
# Velocity P-wave (km/s) = 5.85808 6.04863 5.95412
#
# Compressibility (1/GPa) = 0.02929074
#
# Stress axis : x y z
#
# Youngs Moduli (GPa) = 49.97792 48.72668 67.13619
#
# Poissons Ratio (x) = 0.44258 0.27078
# Poissons Ratio (y) = 0.45395 -0.00325
# Poissons Ratio (z) = 0.20157 -0.00236
#
# Static dielectric constant tensor:
#      x y z
#    x 1.653040 0.000000 -0.018910 
#    y 0.000000 1.647390 0.000000 
#    z -0.018910 0.000000 1.667670 
# 
# From -- ./inp_files/91103.got.cif
#   From: 2010.05.17/outbox.cif.g08.bks.cpg/sg12_46_cif.got.tgz:91103.got - 2010.06.03 13:09:07.
