data_PCOD9204812
_publ_section_title
;
Structure prediction by ZEFSAII (Michael W. Deem and Ramdas Pophale) SiO2 
 PCOD9204812
Probable space group: C 2/M
;
_chemical_formula_sum "Si O2"
_cell_formula_units_Z 48
_cell_length_a 10.401410
_cell_length_b 22.813686
_cell_length_c 14.409272
_cell_angle_alpha 90.000000
_cell_angle_beta 45.648337
_cell_angle_gamma 90.000000
_cell_volume 2444.971678
_symmetry_space_group_name_H-M "C 2/M"
_symmetry_group_IT_number 12
_symmetry_cell_setting 'monoclinic'
loop_
_space_group_symop_operation_xyz
x,y,z
-x,y,-z
-x,-y,-z
x,-y,z
1/2+x,1/2+y,z
1/2-x,1/2+y,-z
1/2-x,1/2-y,-z
1/2+x,1/2-y,z
loop_
_atom_site_type_symbol
_atom_site_label
_atom_site_fract_x
_atom_site_fract_y
_atom_site_fract_z
Si Si1 0.902948 0.500000 0.901648
Si Si2 0.785605 0.000000 0.817380
Si Si3 0.156410 0.807646 0.591583
Si Si4 0.500000 0.192283 0.500000
Si Si5 0.500000 0.195530 0.000000
Si Si6 0.855638 0.734895 0.766603
Si Si7 0.100907 0.100210 0.366538
Si Si8 0.017617 0.627320 0.179571
O O1 0.092027 0.500000 0.862980
O O2 0.906544 0.561738 0.847351
O O3 0.748248 0.500000 0.056879
O O4 0.878213 0.941568 0.732515
O O5 0.250000 0.750000 0.500000
O O6 0.329095 0.841252 0.544042
O O7 0.006249 0.778941 0.733550
O O8 0.036380 0.847810 0.587290
O O9 0.401962 0.228185 0.633244
O O10 0.335258 0.236376 0.116101
O O11 0.554596 0.153576 0.058140
O O12 0.895416 0.672374 0.792335
O O13 0.299506 0.122736 0.294307
O O14 0.000000 0.067042 0.500000
#
# Coordination Sequence:
#
# PCOD9204812 Si02
#       8
#     4   4   8   4   4   8   8   8
#     4   9  20  38  60  83 119 158 203 251 315 358
#     4   9  19  36  56  88 115 154 198 255 311 365
#     4  10  21  33  56  83 122 162 195 241 304 370
#     4  10  22  40  56  83 120 165 204 238 304 368
#     4  12  22  39  58  97 130 156 200 250 316 374
#     4  11  23  37  60  89 126 163 201 253 306 374
#     4  11  20  34  58  89 122 153 199 254 310 368
#     4  11  22  39  62  90 122 161 203 256 308 368
#
# _framework density 19.632128999999999
#
# number of rings (size 3 to 8) (size 9 to 14) (size 15 to 20)
#    0.000    1.500    1.667    5.750    7.000    0.000 
#    0.000    0.000    0.000    2.500    0.000    0.000 
#    0.000    0.000    0.000    0.000    0.000    0.000 
#
# Total GULP energy -133715.103673 kJ/mol
# GULP energy per Si atom -5571.462653 kJ/mol
# Density = 1.958745 g / cm^3
# Si number density = 19.632129 Si / 1000 Ang^3
#
#
#
# Elastic Constant Matrix: (Units=GPa)
#
#
# Indices 1 2 3 4 5 6 
#
# 1 47.3185 34.5581 27.5312 0.0000 -9.3006 0.0000
# 2 34.5581 122.7004 42.5087 0.0000 -0.5112 0.0000
# 3 27.5312 42.5087 122.7688 0.0000 -10.5316 0.0000
# 4 0.0000 0.0000 0.0000 15.8979 0.0000 6.3098
# 5 -9.3006 -0.5112 -10.5316 0.0000 28.9050 0.0000
# 6 0.0000 0.0000 0.0000 6.3098 0.0000 12.0248
#
#
#
# Elastic Compliance Matrix: (Units=1/GPa)
#
#
# Indices 1 2 3 4 5 6 
#
# 1 0.030085 -0.007212 -0.003541 0.000000 0.008263 0.000000
# 2 -0.007212 0.011020 -0.002457 0.000000 -0.003021 0.000000
# 3 -0.003541 -0.002457 0.010001 0.000000 0.002461 0.000000
# 4 0.000000 0.000000 0.000000 0.079448 0.000000 -0.041689
# 5 0.008263 -0.003021 0.002461 0.000000 0.038098 0.000000
# 6 0.000000 0.000000 0.000000 -0.041689 0.000000 0.105037
#
#
# Mechanical properties :
#
#
# Convention : Reuss Voigt Hill
#
# Bulk Modulus (GPa) = 40.50934 55.77598 48.14266
# Shear Modulus (GPa) = 16.21595 23.91151 20.06373
#
# Velocity S-wave (km/s) = 2.87712 3.49374 3.20032
# Velocity P-wave (km/s) = 5.63171 6.68933 6.18318
#
# Compressibility (1/GPa) = 0.02468567
#
# Stress axis : x y z
#
# Youngs Moduli (GPa) = 33.23941 90.74388 99.98582
#
# Poissons Ratio (x) = 0.65447 0.35400
# Poissons Ratio (y) = 0.23973 0.24571
# Poissons Ratio (z) = 0.11769 0.22300
#
# Static dielectric constant tensor:
#      x y z
#    x 1.795180 0.000000 0.029880 
#    y 0.000000 1.723670 0.000000 
#    z 0.029880 0.000000 1.753930 
# 
# From -- ./inp_files/207979.got.cif
#   From: 2010.05.17/outbox.cif.g08.bks.cpg/sg12_104_cif.got.tgz:207979.got - 2010.06.03 13:09:07.
