data_PCOD9204818
_publ_section_title
;
Structure prediction by ZEFSAII (Michael W. Deem and Ramdas Pophale) SiO2 
 PCOD9204818
Probable space group: C 2/M
;
_chemical_formula_sum "Si O2"
_cell_formula_units_Z 40
_cell_length_a 11.680147
_cell_length_b 18.866042
_cell_length_c 13.849400
_cell_angle_alpha 90.000000
_cell_angle_beta 138.003714
_cell_angle_gamma 90.000000
_cell_volume 2041.924556
_symmetry_space_group_name_H-M "C 2/M"
_symmetry_group_IT_number 12
_symmetry_cell_setting 'monoclinic'
loop_
_space_group_symop_operation_xyz
x,y,z
-x,y,-z
-x,-y,-z
x,-y,z
1/2+x,1/2+y,z
1/2-x,1/2+y,-z
1/2-x,1/2-y,-z
1/2+x,1/2-y,z
loop_
_atom_site_type_symbol
_atom_site_label
_atom_site_fract_x
_atom_site_fract_y
_atom_site_fract_z
Si Si1 0.105372 0.199825 0.365633
Si Si2 0.868756 0.118497 0.343068
Si Si3 0.884432 0.584091 0.523387
Si Si4 0.330744 0.924008 0.960772
Si Si5 0.486831 0.836147 0.779219
O O1 0.250000 0.250000 0.500000
O O2 0.206174 0.128200 0.399828
O O3 0.016975 0.251227 0.232911
O O4 0.973413 0.185241 0.368871
O O5 0.819242 0.081621 0.211360
O O6 0.693536 0.139045 0.285849
O O7 0.000000 0.082324 0.500000
O O8 0.856112 0.500000 0.525789
O O9 0.981862 0.622891 0.673538
O O10 0.000000 0.589975 0.500000
O O11 0.323804 0.000000 0.006997
O O12 0.500000 0.922894 0.000000
O O13 0.360198 0.863423 0.057330
#
# Coordination Sequence:
#
# PCOD9204818 Si02
#       5
#     8   8   8   8   8
#     4  10  21  33  57  84 117 149 195 248 286 341
#     4  11  20  36  57  92 113 147 197 245 302 341
#     4  10  21  35  56  85 118 159 200 235 288 355
#     4   9  20  37  56  84 121 153 187 239 302 361
#     4  10  21  37  61  83 119 158 195 243 295 351
#
# _framework density 19.589364
#
# number of rings (size 3 to 8) (size 9 to 14) (size 15 to 20)
#    0.000    2.000    4.000    0.600    5.600    2.800 
#    0.000    0.000    0.000    0.000    0.000    4.200 
#    0.000    0.000    0.000    0.000    0.000    0.200 
#
# Total GULP energy -111342.554973 kJ/mol
# GULP energy per Si atom -5567.127749 kJ/mol
# Density = 1.954478 g / cm^3
# Si number density = 19.589364 Si / 1000 Ang^3
#
#
#
# Elastic Constant Matrix: (Units=GPa)
#
#
# Indices 1 2 3 4 5 6 
#
# 1 73.4005 20.4691 14.0862 0.0000 -7.5744 0.0000
# 2 20.4691 103.7405 42.7877 0.0000 -15.0543 0.0000
# 3 14.0862 42.7877 119.9581 0.0001 -16.4203 0.0001
# 4 0.0000 0.0000 0.0001 23.0241 0.0000 -3.8322
# 5 -7.5744 -15.0543 -16.4203 0.0000 21.7460 0.0000
# 6 0.0000 0.0000 0.0001 -3.8322 0.0000 16.8188
#
#
#
# Elastic Compliance Matrix: (Units=1/GPa)
#
#
# Indices 1 2 3 4 5 6 
#
# 1 0.014669 -0.002228 -0.000490 0.000000 0.003197 0.000000
# 2 -0.002228 0.012223 -0.003397 0.000000 0.005120 0.000000
# 3 -0.000490 -0.003397 0.010328 0.000000 0.005276 0.000000
# 4 0.000000 0.000000 0.000000 0.045145 0.000000 0.010286
# 5 0.003197 0.005120 0.005276 0.000000 0.054628 0.000000
# 6 0.000000 0.000000 0.000000 0.010286 0.000000 0.061801
#
#
# Mechanical properties :
#
#
# Convention : Reuss Voigt Hill
#
# Bulk Modulus (GPa) = 40.01807 50.19834 45.10820
# Shear Modulus (GPa) = 22.79409 26.96819 24.88114
#
# Velocity S-wave (km/s) = 3.41485 3.71438 3.56776
# Velocity P-wave (km/s) = 6.00176 6.63901 6.32841
#
# Compressibility (1/GPa) = 0.02498871
#
# Stress axis : x y z
#
# Youngs Moduli (GPa) = 68.16984 81.81021 96.82629
#
# Poissons Ratio (x) = 0.18230 0.04746
# Poissons Ratio (y) = 0.15191 0.32896
# Poissons Ratio (z) = 0.03341 0.27794
#
# Static dielectric constant tensor:
#      x y z
#    x 1.668280 0.000000 -0.008880 
#    y 0.000000 1.763300 0.000000 
#    z -0.008880 0.000000 1.771280 
# 
# From -- ./inp_files/206405.got.cif
#   From: 2010.05.17/outbox.cif.g08.bks.cpg/sg12_104_cif.got.tgz:206405.got - 2010.06.03 13:09:07.
