data_PCOD9204260
_publ_section_title
;
Structure prediction by ZEFSAII (Michael W. Deem and Ramdas Pophale) SiO2 
 PCOD9204260
Probable space group: C 2/M
;
_chemical_formula_sum "Si O2"
_cell_formula_units_Z 64
_cell_length_a 16.876686
_cell_length_b 19.862661
_cell_length_c 14.477776
_cell_angle_alpha 90.000000
_cell_angle_beta 40.162909
_cell_angle_gamma 90.000000
_cell_volume 3130.122417
_symmetry_space_group_name_H-M "C 2/M"
_symmetry_group_IT_number 12
_symmetry_cell_setting 'monoclinic'
loop_
_space_group_symop_operation_xyz
x,y,z
-x,y,-z
-x,-y,-z
x,-y,z
1/2+x,1/2+y,z
1/2-x,1/2+y,-z
1/2-x,1/2-y,-z
1/2+x,1/2-y,z
loop_
_atom_site_type_symbol
_atom_site_label
_atom_site_fract_x
_atom_site_fract_y
_atom_site_fract_z
Si Si1 0.726862 0.313821 0.585606
Si Si2 0.969270 0.922591 0.277188
Si Si3 0.116406 0.079410 0.333034
Si Si4 0.654039 0.426553 0.953159
Si Si5 0.070418 0.577743 0.534842
Si Si6 0.887637 0.573122 0.871167
Si Si7 0.644004 0.296992 0.858902
Si Si8 0.135036 0.655064 0.927994
O O1 0.750000 0.250000 0.500000
O O2 0.633396 0.366156 0.621471
O O3 0.836125 0.362294 0.524485
O O4 0.671405 0.283780 0.728767
O O5 0.068539 0.913829 0.270279
O O6 0.029272 0.914733 0.121917
O O7 0.924355 0.000000 0.324780
O O8 0.250613 0.114053 0.219383
O O9 0.000000 0.103315 0.500000
O O10 0.132229 0.000000 0.339559
O O11 0.648725 0.500000 0.912218
O O12 0.754798 0.428662 0.943253
O O13 0.693849 0.368031 0.849384
O O14 0.120683 0.500000 0.486403
O O15 0.000000 0.588166 0.500000
O O16 0.978091 0.579777 0.704142
O O17 0.911150 0.500000 0.895489
O O18 0.889058 0.628947 0.947668
O O19 0.680067 0.232281 0.885950
O O20 0.500000 0.304324 0.000000
O O21 0.000000 0.650675 0.000000
#
# Coordination Sequence:
#
# PCOD9204260 Si02
#       8
#     8   8   8   8   8   8   8   8
#     4  12  27  44  66  96 140 178 218 277 343 414
#     4  10  21  41  69  98 126 169 223 277 338 399
#     4  10  22  42  67  97 133 175 228 282 334 398
#     4  10  20  40  69  96 125 159 217 284 333 387
#     4  10  23  45  71 100 134 174 225 283 342 409
#     4  10  21  40  68  97 125 167 218 271 335 396
#     4  11  25  43  60  95 130 172 224 269 328 402
#     4  11  25  41  65  94 141 179 230 281 330 407
#
# _framework density 20.446484999999999
#
# number of rings (size 3 to 8) (size 9 to 14) (size 15 to 20)
#    0.000    1.500    2.500    1.500    5.250    3.750 
#    4.500    2.500    0.000    0.000    0.000    0.000 
#    0.000    0.000    0.000    0.000    0.000    0.000 
#
# Total GULP energy -178512.127216 kJ/mol
# GULP energy per Si atom -5578.503975 kJ/mol
# Density = 2.039995 g / cm^3
# Si number density = 20.446485 Si / 1000 Ang^3
#
#
#
# Elastic Constant Matrix: (Units=GPa)
#
#
# Indices 1 2 3 4 5 6 
#
# 1 66.0715 57.2772 31.5580 0.0002 0.8617 -0.0002
# 2 57.2772 149.5380 58.2691 0.0000 7.6119 -0.0002
# 3 31.5580 58.2691 106.1428 0.0001 12.9935 -0.0003
# 4 0.0002 0.0000 0.0001 1.4080 -0.0002 -7.5324
# 5 0.8617 7.6119 12.9935 -0.0002 38.0760 0.0003
# 6 -0.0002 -0.0002 -0.0003 -7.5324 0.0003 29.2316
#
#
#
# Elastic Compliance Matrix: (Units=1/GPa)
#
#
# Indices 1 2 3 4 5 6 
#
# 1 0.023345 -0.007943 -0.002828 0.000007 0.002025 0.000002
# 2 -0.007943 0.011210 -0.003694 -0.000003 -0.000801 -0.000001
# 3 -0.002828 -0.003694 0.012724 0.000001 -0.003539 0.000000
# 4 0.000007 -0.000003 0.000001 -1.876446 -0.000004 -0.483525
# 5 0.002025 -0.000801 -0.003539 -0.000004 0.027585 -0.000001
# 6 0.000002 -0.000001 0.000000 -0.483525 -0.000001 -0.090386
#
#
# Mechanical properties :
#
#
# Convention : Reuss Voigt Hill
#
# Bulk Modulus (GPa) = 54.50330 68.44009 61.47170
# Shear Modulus (GPa) = -2.69263 25.38633 11.34685
#
# Velocity S-wave (km/s) = -1.14881 3.52746 2.35830
# Velocity P-wave (km/s) = 4.99547 7.08068 6.12743
#
# Compressibility (1/GPa) = 0.01834751
#
# Stress axis : x y z
#
# Youngs Moduli (GPa) = 42.83520 89.20712 78.59435
#
# Poissons Ratio (x) = 0.70856 0.22230
# Poissons Ratio (y) = 0.34023 0.29035
# Poissons Ratio (z) = 0.12116 0.32956
#
# Static dielectric constant tensor:
#      x y z
#    x 1.721350 0.000000 -0.010150 
#    y 0.000000 1.783790 0.000000 
#    z -0.010150 0.000000 1.792060 
# 
# From -- ./inp_files/226819.got.cif
#   From: 2010.05.17/outbox.cif.g08.bks.cpg/sg12_114_cif.got.tgz:226819.got - 2010.06.03 13:09:07.
