data_PCOD9204775
_publ_section_title
;
Structure prediction by ZEFSAII (Michael W. Deem and Ramdas Pophale) SiO2 
 PCOD9204775
Probable space group: C 2/M
;
_chemical_formula_sum "Si O2"
_cell_formula_units_Z 44
_cell_length_a 17.645713
_cell_length_b 24.189839
_cell_length_c 8.500276
_cell_angle_alpha 90.000000
_cell_angle_beta 138.514206
_cell_angle_gamma 90.000000
_cell_volume 2403.521704
_symmetry_space_group_name_H-M "C 2/M"
_symmetry_group_IT_number 12
_symmetry_cell_setting 'monoclinic'
loop_
_space_group_symop_operation_xyz
x,y,z
-x,y,-z
-x,-y,-z
x,-y,z
1/2+x,1/2+y,z
1/2-x,1/2+y,-z
1/2-x,1/2-y,-z
1/2+x,1/2-y,z
loop_
_atom_site_type_symbol
_atom_site_label
_atom_site_fract_x
_atom_site_fract_y
_atom_site_fract_z
Si Si1 0.714498 0.192996 0.359706
Si Si2 0.000000 0.682161 0.500000
Si Si3 0.589523 0.743823 0.927018
Si Si4 0.267051 0.148803 0.273775
Si Si5 0.438459 0.656087 0.569591
Si Si6 0.439230 0.564163 0.075673
O O1 0.750000 0.250000 0.500000
O O2 0.712484 0.152992 0.506319
O O3 0.805852 0.169845 0.375602
O O4 0.607312 0.211585 0.090539
O O5 0.052176 0.721513 0.716899
O O6 0.107769 0.647216 0.606746
O O7 0.491870 0.696986 0.785501
O O8 0.703641 0.704954 0.109118
O O9 0.178188 0.099455 0.103010
O O10 0.500000 0.668081 0.500000
O O11 0.473791 0.594589 0.671021
O O12 0.420340 0.500000 0.081517
O O13 0.500000 0.568612 0.000000
#
# Coordination Sequence:
#
# PCOD9204775 Si02
#       6
#     8   4   8   8   8   8
#     4  10  21  34  51  79 117 157 188 222 270 337
#     4  12  22  34  53  86 119 160 186 220 280 346
#     4  10  21  33  52  81 118 160 183 222 270 338
#     4  10  22  36  55  84 114 150 196 232 280 342
#     4  11  22  34  55  85 118 147 190 234 281 336
#     4  10  21  41  65  83 105 143 193 251 300 334
#
# _framework density 18.306470000000001
#
# number of rings (size 3 to 8) (size 9 to 14) (size 15 to 20)
#    0.000    1.636    2.727    2.727    5.091    4.000 
#    0.000    0.455    0.000    0.000    0.000    1.273 
#    0.000    0.000    0.000    0.000    0.000    0.000 
#
# Total GULP energy -122587.204836 kJ/mol
# GULP energy per Si atom -5572.145674 kJ/mol
# Density = 1.826480 g / cm^3
# Si number density = 18.306470 Si / 1000 Ang^3
#
#
#
# Elastic Constant Matrix: (Units=GPa)
#
#
# Indices 1 2 3 4 5 6 
#
# 1 102.8687 48.3591 39.1206 0.0000 29.1046 0.0000
# 2 48.3591 110.4729 40.2319 0.0000 9.8236 0.0000
# 3 39.1206 40.2319 97.9078 0.0000 -2.8287 0.0000
# 4 0.0000 0.0000 0.0000 16.7089 0.0000 -4.2631
# 5 29.1046 9.8236 -2.8287 0.0000 36.3760 0.0000
# 6 0.0000 0.0000 0.0000 -4.2631 0.0000 12.9761
#
#
#
# Elastic Compliance Matrix: (Units=1/GPa)
#
#
# Indices 1 2 3 4 5 6 
#
# 1 0.017811 -0.004547 -0.005637 0.000000 -0.013461 0.000000
# 2 -0.004547 0.012196 -0.003192 0.000000 0.000096 0.000000
# 3 -0.005637 -0.003192 0.013964 0.000000 0.006458 0.000000
# 4 0.000000 0.000000 0.000000 0.065324 0.000000 0.021461
# 5 -0.013461 0.000096 0.006458 0.000000 0.038737 0.000000
# 6 0.000000 0.000000 0.000000 0.021461 0.000000 0.084115
#
#
# Mechanical properties :
#
#
# Convention : Reuss Voigt Hill
#
# Bulk Modulus (GPa) = 58.07391 62.96361 60.51876
# Shear Modulus (GPa) = 18.89358 25.44805 22.17081
#
# Velocity S-wave (km/s) = 3.21607 3.73247 3.48385
# Velocity P-wave (km/s) = 6.75151 7.28313 7.02235
#
# Compressibility (1/GPa) = 0.01721944
#
# Stress axis : x y z
#
# Youngs Moduli (GPa) = 56.14531 81.99213 71.61037
#
# Poissons Ratio (x) = 0.37279 0.40369
# Poissons Ratio (y) = 0.25528 0.22859
# Poissons Ratio (z) = 0.31650 0.26173
#
# Static dielectric constant tensor:
#      x y z
#    x 1.734740 0.000000 -0.013230 
#    y 0.000000 1.614920 0.000000 
#    z -0.013230 0.000000 1.681450 
# 
# From -- ./inp_files/79204.got.cif
#   From: 2010.05.17/outbox.cif.g08.bks.cpg/sg12_40_cif.got.tgz:79204.got - 2010.06.03 13:09:07.
