data_PCOD9204245
_publ_section_title
;
Structure prediction by ZEFSAII (Michael W. Deem and Ramdas Pophale) SiO2 
 PCOD9204245
Probable space group: C 2/M
;
_chemical_formula_sum "Si O2"
_cell_formula_units_Z 44
_cell_length_a 18.539799
_cell_length_b 15.436982
_cell_length_c 11.019357
_cell_angle_alpha 90.000000
_cell_angle_beta 47.955602
_cell_angle_gamma 90.000000
_cell_volume 2342.037694
_symmetry_space_group_name_H-M "C 2/M"
_symmetry_group_IT_number 12
_symmetry_cell_setting 'monoclinic'
loop_
_space_group_symop_operation_xyz
x,y,z
-x,y,-z
-x,-y,-z
x,-y,z
1/2+x,1/2+y,z
1/2-x,1/2+y,-z
1/2-x,1/2-y,-z
1/2+x,1/2-y,z
loop_
_atom_site_type_symbol
_atom_site_label
_atom_site_fract_x
_atom_site_fract_y
_atom_site_fract_z
Si Si1 0.461378 0.398900 0.914985
Si Si2 0.152972 0.854308 0.566254
Si Si3 0.677962 0.165618 0.432824
Si Si4 0.428149 0.000000 0.347070
Si Si5 0.341059 0.000000 0.950126
Si Si6 0.748088 0.335092 0.921005
Si Si7 0.774547 0.500000 0.302625
O O1 0.438204 0.500000 0.959407
O O2 0.548361 0.389444 0.721528
O O3 0.500000 0.363308 0.000000
O O4 0.363999 0.354096 0.982154
O O5 0.221410 0.855034 0.609082
O O6 0.144127 0.756901 0.526870
O O7 0.209038 0.916240 0.408924
O O8 0.697809 0.174956 0.268533
O O9 0.606244 0.086141 0.542801
O O10 0.542572 0.000000 0.195116
O O11 0.365869 0.000000 0.292255
O O12 0.295809 0.915594 0.937289
O O13 0.310841 0.000000 0.124955
O O14 0.750000 0.250000 0.000000
#
# Coordination Sequence:
#
# PCOD9204245 Si02
#       7
#     8   8   8   4   4   8   4
#     4  11  22  41  72  99 124 168 223 269 319 382
#     4  10  20  40  68  97 121 156 220 269 312 367
#     4  10  22  41  64  94 125 167 214 262 312 374
#     4  10  24  42  68  88 121 173 223 262 304 374
#     4  12  26  45  60  91 133 170 214 258 330 392
#     4  12  26  43  63  95 137 171 206 264 330 388
#     4  10  21  43  68  92 123 164 209 272 315 376
#
# _framework density 18.787057999999998
#
# number of rings (size 3 to 8) (size 9 to 14) (size 15 to 20)
#    0.000    1.273    3.636    1.909    2.545    1.455 
#    0.000    3.636    0.000    0.000    0.000    0.000 
#    0.000    0.000    0.000    0.000    0.000    0.000 
#
# Total GULP energy -122975.939843 kJ/mol
# GULP energy per Si atom -5589.815447 kJ/mol
# Density = 1.874430 g / cm^3
# Si number density = 18.787058 Si / 1000 Ang^3
#
#
#
# Elastic Constant Matrix: (Units=GPa)
#
#
# Indices 1 2 3 4 5 6 
#
# 1 112.1927 66.4046 84.5675 0.0000 -4.9503 0.0000
# 2 66.4046 136.4961 54.6437 0.0000 2.6231 0.0000
# 3 84.5675 54.6437 140.0134 0.0000 10.6289 0.0000
# 4 0.0000 0.0000 0.0000 18.4884 0.0000 -1.9721
# 5 -4.9503 2.6231 10.6289 0.0000 41.2054 0.0000
# 6 0.0000 0.0000 0.0000 -1.9721 0.0000 22.2573
#
#
#
# Elastic Compliance Matrix: (Units=1/GPa)
#
#
# Indices 1 2 3 4 5 6 
#
# 1 0.020631 -0.005909 -0.010579 0.000000 0.005584 0.000000
# 2 -0.005909 0.010380 -0.000385 0.000000 -0.001271 0.000000
# 3 -0.010579 -0.000385 0.014052 0.000000 -0.004871 0.000000
# 4 0.000000 0.000000 0.000000 0.054604 0.000000 0.004838
# 5 0.005584 -0.001271 -0.004871 0.000000 0.026277 0.000000
# 6 0.000000 0.000000 0.000000 0.004838 0.000000 0.045358
#
#
# Mechanical properties :
#
#
# Convention : Reuss Voigt Hill
#
# Bulk Modulus (GPa) = 88.36934 88.88152 88.62543
# Shear Modulus (GPa) = 23.94409 28.59598 26.27003
#
# Velocity S-wave (km/s) = 3.57389 3.90566 3.74345
# Velocity P-wave (km/s) = 8.01060 8.23113 8.12161
#
# Compressibility (1/GPa) = 0.01131614
#
# Stress axis : x y z
#
# Youngs Moduli (GPa) = 48.47059 96.34206 71.16516
#
# Poissons Ratio (x) = 0.56930 0.75284
# Poissons Ratio (y) = 0.28642 0.02742
# Poissons Ratio (z) = 0.51276 0.03712
#
# Static dielectric constant tensor:
#      x y z
#    x 1.636820 0.000000 0.009480 
#    y 0.000000 1.629730 0.000000 
#    z 0.009480 0.000000 1.622060 
# 
# From -- ./inp_files/155859.got.cif
#   From: 2010.05.17/outbox.cif.g08.bks.cpg/sg12_78_cif.got.tgz:155859.got - 2010.06.03 13:09:07.
