data_PCOD9204760
_publ_section_title
;
Structure prediction by ZEFSAII (Michael W. Deem and Ramdas Pophale) SiO2 
 PCOD9204760
Probable space group: C 2/M
;
_chemical_formula_sum "Si O2"
_cell_formula_units_Z 56
_cell_length_a 18.895652
_cell_length_b 29.179891
_cell_length_c 8.808285
_cell_angle_alpha 90.000000
_cell_angle_beta 137.597773
_cell_angle_gamma 90.000000
_cell_volume 3274.990832
_symmetry_space_group_name_H-M "C 2/M"
_symmetry_group_IT_number 12
_symmetry_cell_setting 'monoclinic'
loop_
_space_group_symop_operation_xyz
x,y,z
-x,y,-z
-x,-y,-z
x,-y,z
1/2+x,1/2+y,z
1/2-x,1/2+y,-z
1/2-x,1/2-y,-z
1/2+x,1/2-y,z
loop_
_atom_site_type_symbol
_atom_site_label
_atom_site_fract_x
_atom_site_fract_y
_atom_site_fract_z
Si Si1 0.374173 0.597216 0.614395
Si Si2 0.278757 0.686763 0.948897
Si Si3 0.218999 0.812764 0.680989
Si Si4 0.424481 0.231266 0.515716
Si Si5 0.578176 0.238512 0.996396
Si Si6 0.128577 0.000000 0.531952
Si Si7 0.873880 0.000000 0.121754
Si Si8 0.875741 0.904002 0.978160
O O1 0.314879 0.638064 0.434113
O O2 0.340089 0.547211 0.500044
O O3 0.359893 0.599779 0.772680
O O4 0.500012 0.601729 0.788708
O O5 0.275214 0.690640 0.125636
O O6 0.362364 0.721770 0.004319
O O7 0.167002 0.700157 0.698691
O O8 0.313254 0.636046 0.961024
O O9 0.131382 0.775342 0.499488
O O10 0.330059 0.794160 0.796165
O O11 0.500000 0.247031 0.500000
O O12 0.502635 0.210483 0.763083
O O13 0.500000 0.257361 0.000000
O O14 0.161722 0.000000 0.760142
O O15 0.001232 0.000000 0.326124
O O16 0.842795 0.953872 0.985881
#
# Coordination Sequence:
#
# PCOD9204760 Si02
#       8
#     8   8   8   8   8   4   4   8
#     4  10  21  33  52  78 113 137 176 218 268 313
#     4  11  22  35  55  79 105 143 187 214 266 320
#     4  11  22  36  54  80 103 145 185 217 263 323
#     4  11  20  38  55  73 108 145 179 226 263 306
#     4  11  24  36  54  77 109 141 181 227 268 306
#     4   9  17  33  53  75 103 143 169 215 263 322
#     4   9  17  33  53  75 105 139 177 207 268 322
#     4  10  21  33  51  80 109 141 172 221 264 318
#
# _framework density 17.099284999999998
#
# number of rings (size 3 to 8) (size 9 to 14) (size 15 to 20)
#    0.000    1.571    2.857    3.000    6.000    4.000 
#    0.000    0.000    0.000    0.000    0.000    2.000 
#    0.000    0.000    0.000    0.000    0.000    0.000 
#
# Total GULP energy -156263.389238 kJ/mol
# GULP energy per Si atom -5580.835330 kJ/mol
# Density = 1.706037 g / cm^3
# Si number density = 17.099285 Si / 1000 Ang^3
#
#
#
# Elastic Constant Matrix: (Units=GPa)
#
#
# Indices 1 2 3 4 5 6 
#
# 1 61.2578 24.2582 26.7490 0.0000 10.7438 0.0000
# 2 24.2582 118.6688 32.2531 0.0000 7.2123 0.0000
# 3 26.7490 32.2531 74.6613 0.0000 7.2855 0.0000
# 4 0.0000 0.0000 0.0000 26.9066 0.0000 -8.1433
# 5 10.7438 7.2123 7.2855 0.0000 17.4276 0.0000
# 6 0.0000 0.0000 0.0000 -8.1433 0.0000 18.7642
#
#
#
# Elastic Compliance Matrix: (Units=1/GPa)
#
#
# Indices 1 2 3 4 5 6 
#
# 1 0.021455 -0.002218 -0.005763 0.000000 -0.009900 0.000000
# 2 -0.002218 0.009868 -0.003339 0.000000 -0.001320 0.000000
# 3 -0.005763 -0.003339 0.017118 0.000000 -0.002221 0.000000
# 4 0.000000 0.000000 0.000000 0.042785 0.000000 0.018568
# 5 -0.009900 -0.001320 -0.002221 0.000000 0.064958 0.000000
# 6 0.000000 0.000000 0.000000 0.018568 0.000000 0.061351
#
#
# Mechanical properties :
#
#
# Convention : Reuss Voigt Hill
#
# Bulk Modulus (GPa) = 38.75798 46.78983 42.77390
# Shear Modulus (GPa) = 20.09834 24.04153 22.06993
#
# Velocity S-wave (km/s) = 3.43212 3.75373 3.59652
# Velocity P-wave (km/s) = 6.19851 6.79782 6.50507
#
# Compressibility (1/GPa) = 0.02580114
#
# Stress axis : x y z
#
# Youngs Moduli (GPa) = 46.60822 101.33666 58.41869
#
# Poissons Ratio (x) = 0.22476 0.33665
# Poissons Ratio (y) = 0.10338 0.19509
# Poissons Ratio (z) = 0.26859 0.33841
#
# Static dielectric constant tensor:
#      x y z
#    x 1.595330 0.000000 -0.024140 
#    y 0.000000 1.558530 0.000000 
#    z -0.024140 0.000000 1.598170 
# 
# From -- ./inp_files/80046.got.cif
#   From: 2010.05.17/outbox.cif.g08.bks.cpg/sg12_41_cif.got.tgz:80046.got - 2010.06.03 13:09:07.
