data_PCOD9204647
_publ_section_title
;
Structure prediction by ZEFSAII (Michael W. Deem and Ramdas Pophale) SiO2 
 PCOD9204647
Probable space group: C 2/M
;
_chemical_formula_sum "Si O2"
_cell_formula_units_Z 58
_cell_length_a 23.099793
_cell_length_b 9.154661
_cell_length_c 15.660573
_cell_angle_alpha 90.000000
_cell_angle_beta 93.290758
_cell_angle_gamma 90.000000
_cell_volume 3306.292708
_symmetry_space_group_name_H-M "C 2/M"
_symmetry_group_IT_number 12
_symmetry_cell_setting 'monoclinic'
loop_
_space_group_symop_operation_xyz
x,y,z
-x,y,-z
-x,-y,-z
x,-y,z
1/2+x,1/2+y,z
1/2-x,1/2+y,-z
1/2-x,1/2-y,-z
1/2+x,1/2-y,z
loop_
_atom_site_type_symbol
_atom_site_label
_atom_site_fract_x
_atom_site_fract_y
_atom_site_fract_z
Si Si1 0.786969 0.676928 0.165697
Si Si2 0.393398 0.166518 0.288060
Si Si3 0.500000 0.000000 0.000000
Si Si4 0.162467 0.325031 0.156253
Si Si5 0.513512 0.324366 0.597086
Si Si6 0.929683 0.165684 0.742665
Si Si7 0.358512 0.667525 0.022165
Si Si8 0.969092 0.747344 0.131570
O O1 0.784303 0.500000 0.156404
O O2 0.830203 0.711312 0.248212
O O3 0.724882 0.749786 0.173610
O O4 0.815402 0.749003 0.083519
O O5 0.426599 0.262440 0.360257
O O6 0.432706 0.175741 0.205996
O O7 0.390681 0.000000 0.317461
O O8 0.504344 0.125889 0.926474
O O9 0.166044 0.500000 0.151303
O O10 0.119519 0.272595 0.227103
O O11 0.139287 0.258915 0.064743
O O12 0.500000 0.275410 0.500000
O O13 0.516884 0.500000 0.598433
O O14 0.461933 0.285267 0.658778
O O15 0.980131 0.164200 0.818678
O O16 0.907404 0.000000 0.730472
O O17 0.339768 0.500000 0.005314
O O18 0.421266 0.667596 0.072334
#
# Coordination Sequence:
#
# PCOD9204647 Si02
#       8
#     8   8   2   8   8   8   8   8
#     4  10  21  38  57  76 105 142 189 233 272 317
#     4   9  18  34  55  81 108 137 175 220 267 319
#     4  12  20  28  46  72 106 144 178 228 256 314
#     4  12  25  36  51  74 106 146 188 230 277 318
#     4   9  19  36  60  89 115 140 169 210 271 338
#     4  10  21  37  55  77 110 144 180 223 274 336
#     4  11  22  36  54  75 105 142 192 237 275 318
#     4  10  21  31  52  74 107 142 183 220 276 318
#
# _framework density 17.542304999999999
#
# number of rings (size 3 to 8) (size 9 to 14) (size 15 to 20)
#    0.000    1.793    0.690    3.724    4.828    4.690 
#    0.000    2.069    0.000    0.828    0.000    0.000 
#    0.000    0.000    0.000    0.000    0.000    0.000 
#
# Total GULP energy -161594.492947 kJ/mol
# GULP energy per Si atom -5572.223895 kJ/mol
# Density = 1.750238 g / cm^3
# Si number density = 17.542305 Si / 1000 Ang^3
#
#
#
# Elastic Constant Matrix: (Units=GPa)
#
#
# Indices 1 2 3 4 5 6 
#
# 1 80.3796 43.7726 47.6824 0.0000 -2.9086 0.0000
# 2 43.7726 102.5023 43.4303 0.0000 -5.0925 0.0000
# 3 47.6824 43.4303 119.5559 0.0000 1.7831 0.0000
# 4 0.0000 0.0000 0.0000 -15.6856 0.0000 41.5646
# 5 -2.9086 -5.0925 1.7831 0.0000 13.6972 0.0000
# 6 0.0000 0.0000 0.0000 41.5646 0.0000 -46.3680
#
#
#
# Elastic Compliance Matrix: (Units=1/GPa)
#
#
# Indices 1 2 3 4 5 6 
#
# 1 0.018857 -0.005576 -0.005535 0.000000 0.002652 0.000000
# 2 -0.005576 0.013509 -0.002746 0.000000 0.004196 0.000000
# 3 -0.005535 -0.002746 0.011625 0.000000 -0.003710 0.000000
# 4 0.000000 0.000000 0.000000 0.046354 0.000000 0.041552
# 5 0.002652 0.004196 -0.003710 0.000000 0.075613 0.000000
# 6 0.000000 0.000000 0.000000 0.041552 0.000000 0.015681
#
#
# Mechanical properties :
#
#
# Convention : Reuss Voigt Hill
#
# Bulk Modulus (GPa) = 61.43616 63.57872 62.50744
# Shear Modulus (GPa) = 23.28000 1.49889 12.38945
#
# Velocity S-wave (km/s) = 3.64686 0.92536 2.66044
# Velocity P-wave (km/s) = 7.26846 6.12074 6.71915
#
# Compressibility (1/GPa) = 0.01627706
#
# Stress axis : x y z
#
# Youngs Moduli (GPa) = 53.03203 74.02508 86.02486
#
# Poissons Ratio (x) = 0.41274 0.47611
# Poissons Ratio (y) = 0.29569 0.23623
# Poissons Ratio (z) = 0.29351 0.20328
#
# Static dielectric constant tensor:
#      x y z
#    x 1.621760 0.000000 0.013360 
#    y 0.000000 1.595730 0.000000 
#    z 0.013360 0.000000 1.582250 
# 
# From -- ./inp_files/237616.got.cif
#   From: 2010.05.17/outbox.cif.g08.bks.cpg/sg12_119_cif.got.tgz:237616.got - 2010.06.03 13:09:07.
