data_PCOD9204354
_publ_section_title
;
Structure prediction by ZEFSAII (Michael W. Deem and Ramdas Pophale) SiO2 
 PCOD9204354
Probable space group: C 2/M
;
_chemical_formula_sum "Si O2"
_cell_formula_units_Z 64
_cell_length_a 33.295196
_cell_length_b 8.401113
_cell_length_c 15.729987
_cell_angle_alpha 90.000000
_cell_angle_beta 133.484739
_cell_angle_gamma 90.000000
_cell_volume 3192.410395
_symmetry_space_group_name_H-M "C 2/M"
_symmetry_group_IT_number 12
_symmetry_cell_setting 'monoclinic'
loop_
_space_group_symop_operation_xyz
x,y,z
-x,y,-z
-x,-y,-z
x,-y,z
1/2+x,1/2+y,z
1/2-x,1/2+y,-z
1/2-x,1/2-y,-z
1/2+x,1/2-y,z
loop_
_atom_site_type_symbol
_atom_site_label
_atom_site_fract_x
_atom_site_fract_y
_atom_site_fract_z
Si Si1 0.956239 0.308621 0.732907
Si Si2 0.652991 0.313209 0.107438
Si Si3 0.564626 0.191294 0.112871
Si Si4 0.294628 0.818471 0.127481
Si Si5 0.913072 0.815860 0.314281
Si Si6 0.895243 0.809729 0.477452
Si Si7 0.268430 0.687169 0.261647
Si Si8 0.575296 0.810521 0.853282
O O1 0.958457 0.500000 0.739696
O O2 0.926987 0.255954 0.777163
O O3 0.926113 0.259029 0.603135
O O4 0.019922 0.253272 0.820595
O O5 0.663319 0.500000 0.121408
O O6 0.605330 0.271768 0.105743
O O7 0.709244 0.222480 0.216897
O O8 0.628554 0.261187 0.979190
O O9 0.572516 0.000000 0.117191
O O10 0.500000 0.221982 0.000000
O O11 0.347246 0.703504 0.206020
O O12 0.268167 0.804037 0.181137
O O13 0.311146 0.000000 0.131722
O O14 0.250000 0.750000 0.000000
O O15 0.919382 0.752059 0.420544
O O16 0.934308 0.731081 0.260104
O O17 0.930569 0.000000 0.337745
O O18 0.829026 0.779925 0.389763
O O19 0.902166 0.000000 0.485492
O O20 0.269328 0.500000 0.238488
O O21 0.580146 0.000000 0.868192
#
# Coordination Sequence:
#
# PCOD9204354 Si02
#       8
#     8   8   8   8   8   8   8   8
#     4  10  22  39  63  88 114 153 197 241 291 350
#     4  12  24  37  59  93 123 151 191 246 298 348
#     4  10  20  41  65  87 119 155 191 234 293 358
#     4  11  20  32  51  77 110 150 193 242 291 343
#     4  10  21  37  54  80 115 156 199 241 289 342
#     4   9  21  40  61  83 116 157 198 242 290 342
#     4  10  21  39  59  81 113 157 196 235 290 349
#     4  11  22  38  58  86 120 158 198 242 295 352
#
# _framework density 20.047547000000002
#
# number of rings (size 3 to 8) (size 9 to 14) (size 15 to 20)
#    0.000    1.625    1.250    4.875    0.000    5.250 
#    0.000    3.125    0.000    0.000    0.000    0.000 
#    0.000    0.000    0.000    0.000    0.000    0.000 
#
# Total GULP energy -178532.550033 kJ/mol
# GULP energy per Si atom -5579.142189 kJ/mol
# Density = 2.000192 g / cm^3
# Si number density = 20.047547 Si / 1000 Ang^3
#
#
#
# Elastic Constant Matrix: (Units=GPa)
#
#
# Indices 1 2 3 4 5 6 
#
# 1 76.3151 10.3831 17.6354 0.0000 -5.0019 0.0000
# 2 10.3831 47.6980 10.4131 0.0000 1.3979 0.0000
# 3 17.6354 10.4131 66.6200 0.0000 -19.1936 0.0000
# 4 0.0000 0.0000 0.0000 25.9862 0.0000 -2.8924
# 5 -5.0019 1.3979 -19.1936 0.0000 27.7546 0.0000
# 6 0.0000 0.0000 0.0000 -2.8924 0.0000 28.8210
#
#
#
# Elastic Compliance Matrix: (Units=1/GPa)
#
#
# Indices 1 2 3 4 5 6 
#
# 1 0.014212 -0.002393 -0.003266 0.000000 0.000423 0.000000
# 2 -0.002393 0.022527 -0.004169 0.000000 -0.004449 0.000000
# 3 -0.003266 -0.004169 0.020503 0.000000 0.013800 0.000000
# 4 0.000000 0.000000 0.000000 0.038917 0.000000 0.003906
# 5 0.000423 -0.004449 0.013800 0.000000 0.045874 0.000000
# 6 0.000000 0.000000 0.000000 0.003906 0.000000 0.035089
#
#
# Mechanical properties :
#
#
# Convention : Reuss Voigt Hill
#
# Bulk Modulus (GPa) = 26.60711 29.72179 28.16445
# Shear Modulus (GPa) = 23.88851 26.65913 25.27382
#
# Velocity S-wave (km/s) = 3.45569 3.65059 3.55448
# Velocity P-wave (km/s) = 5.40585 5.71200 5.56103
#
# Compressibility (1/GPa) = 0.03758393
#
# Stress axis : x y z
#
# Youngs Moduli (GPa) = 70.36489 44.39151 48.77405
#
# Poissons Ratio (x) = 0.10623 0.15930
# Poissons Ratio (y) = 0.16838 0.20336
# Poissons Ratio (z) = 0.22982 0.18509
#
# Static dielectric constant tensor:
#      x y z
#    x 1.783830 0.000000 -0.026760 
#    y 0.000000 1.681340 0.000000 
#    z -0.026760 0.000000 1.668460 
# 
# From -- ./inp_files/249921.got.cif
#   From: 2010.05.17/outbox.cif.g08.bks.cpg/sg12_125_cif.got.tgz:249921.got - 2010.06.03 13:09:07.
