data_PCOD9204296
_publ_section_title
;
Structure prediction by ZEFSAII (Michael W. Deem and Ramdas Pophale) SiO2 
 PCOD9204296
Probable space group: C 2/M
;
_chemical_formula_sum "Si O2"
_cell_formula_units_Z 64
_cell_length_a 14.649940
_cell_length_b 30.043126
_cell_length_c 10.750785
_cell_angle_alpha 90.000000
_cell_angle_beta 137.569904
_cell_angle_gamma 90.000000
_cell_volume 3192.460518
_symmetry_space_group_name_H-M "C 2/M"
_symmetry_group_IT_number 12
_symmetry_cell_setting 'monoclinic'
loop_
_space_group_symop_operation_xyz
x,y,z
-x,y,-z
-x,-y,-z
x,-y,z
1/2+x,1/2+y,z
1/2-x,1/2+y,-z
1/2-x,1/2-y,-z
1/2+x,1/2-y,z
loop_
_atom_site_type_symbol
_atom_site_label
_atom_site_fract_x
_atom_site_fract_y
_atom_site_fract_z
Si Si1 0.595801 0.873020 0.977055
Si Si2 0.866269 0.222525 0.319285
Si Si3 0.590214 0.624396 0.709876
Si Si4 0.636764 0.713447 0.407891
Si Si5 0.227537 0.450209 0.684298
Si Si6 0.081013 0.731248 0.951522
Si Si7 0.944886 0.550011 0.252541
Si Si8 0.428847 0.374458 0.796663
O O1 0.752951 0.886263 0.154713
O O2 0.500000 0.875155 0.000000
O O3 0.590144 0.821263 0.928611
O O4 0.544543 0.909225 0.829168
O O5 0.909472 0.178512 0.287880
O O6 0.000000 0.249014 0.500000
O O7 0.173992 0.200898 0.587606
O O8 0.736206 0.246177 0.132318
O O9 0.500000 0.610326 0.500000
O O10 0.528252 0.611436 0.781925
O O11 0.750000 0.750000 0.500000
O O12 0.500131 0.740722 0.231655
O O13 0.642369 0.670044 0.327587
O O14 0.287263 0.500000 0.737742
O O15 0.179275 0.441725 0.777172
O O16 0.325451 0.413636 0.725951
O O17 0.085713 0.450958 0.468510
O O18 0.000000 0.735776 0.000000
O O19 0.926323 0.500000 0.180013
O O20 0.500000 0.363582 0.000000
#
# Coordination Sequence:
#
# PCOD9204296 Si02
#       8
#     8   8   8   8   8   8   8   8
#     4  10  22  36  65  94 124 170 226 267 320 395
#     4  10  20  41  60  84 120 180 208 260 345 389
#     4  10  21  42  63  90 132 174 215 258 343 398
#     4  12  24  39  62  91 131 172 224 276 330 391
#     4   9  21  41  69  98 130 171 213 270 345 402
#     4  10  21  37  58  88 123 164 223 270 321 389
#     4   9  19  40  66  96 134 165 209 277 335 390
#     4  12  25  40  69  96 130 176 224 278 329 402
#
# _framework density 20.047232999999999
#
# number of rings (size 3 to 8) (size 9 to 14) (size 15 to 20)
#    0.000    1.750    3.750    1.875    3.500    1.000 
#    0.000    1.875    0.000    0.750    0.000    0.000 
#    0.000    0.000    0.000    0.000    0.000    0.000 
#
# Total GULP energy -178350.556082 kJ/mol
# GULP energy per Si atom -5573.454878 kJ/mol
# Density = 2.000160 g / cm^3
# Si number density = 20.047233 Si / 1000 Ang^3
#
#
#
# Elastic Constant Matrix: (Units=GPa)
#
#
# Indices 1 2 3 4 5 6 
#
# 1 96.3415 53.4683 26.6784 0.0000 -2.7269 0.0000
# 2 53.4683 106.5627 28.5028 0.0000 -4.3020 0.0000
# 3 26.6784 28.5028 85.0231 0.0000 -0.3726 0.0000
# 4 0.0000 0.0000 0.0000 23.2385 0.0000 5.1295
# 5 -2.7269 -4.3020 -0.3726 0.0000 37.6687 0.0000
# 6 0.0000 0.0000 0.0000 5.1295 0.0000 30.8383
#
#
#
# Elastic Compliance Matrix: (Units=1/GPa)
#
#
# Indices 1 2 3 4 5 6 
#
# 1 0.014810 -0.006786 -0.002371 0.000000 0.000274 0.000000
# 2 -0.006786 0.013467 -0.002381 0.000000 0.001023 0.000000
# 3 -0.002371 -0.002381 0.013302 0.000000 -0.000312 0.000000
# 4 0.000000 0.000000 0.000000 0.044672 0.000000 -0.007431
# 5 0.000274 0.001023 -0.000312 0.000000 0.026681 0.000000
# 6 0.000000 0.000000 0.000000 -0.007431 0.000000 0.033663
#
#
# Mechanical properties :
#
#
# Convention : Reuss Voigt Hill
#
# Bulk Modulus (GPa) = 54.04253 56.13627 55.08940
# Shear Modulus (GPa) = 28.43508 30.30095 29.36802
#
# Velocity S-wave (km/s) = 3.77026 3.89199 3.83161
# Velocity P-wave (km/s) = 6.78006 6.94691 6.86399
#
# Compressibility (1/GPa) = 0.01850395
#
# Stress axis : x y z
#
# Youngs Moduli (GPa) = 67.52153 74.25505 75.17496
#
# Poissons Ratio (x) = 0.50388 0.17824
# Poissons Ratio (y) = 0.45819 0.17899
# Poissons Ratio (z) = 0.16010 0.17680
#
# Static dielectric constant tensor:
#      x y z
#    x 1.880250 0.000000 0.056260 
#    y 0.000000 1.675870 0.000000 
#    z 0.056260 0.000000 1.761020 
# 
# From -- ./inp_files/149815.got.cif
#   From: 2010.05.17/outbox.cif.g08.bks.cpg/sg12_75_cif.got.tgz:149815.got - 2010.06.03 13:09:07.
