data_PCOD9204139
_publ_section_title
;
Structure prediction by ZEFSAII (Michael W. Deem and Ramdas Pophale) SiO2 
 PCOD9204139
Probable space group: C 2/M
;
_chemical_formula_sum "Si O2"
_cell_formula_units_Z 46
_cell_length_a 19.711577
_cell_length_b 14.282632
_cell_length_c 17.029346
_cell_angle_alpha 90.000000
_cell_angle_beta 154.009757
_cell_angle_gamma 90.000000
_cell_volume 2100.960473
_symmetry_space_group_name_H-M "C 2/M"
_symmetry_group_IT_number 12
_symmetry_cell_setting 'monoclinic'
loop_
_space_group_symop_operation_xyz
x,y,z
-x,y,-z
-x,-y,-z
x,-y,z
1/2+x,1/2+y,z
1/2-x,1/2+y,-z
1/2-x,1/2-y,-z
1/2+x,1/2-y,z
loop_
_atom_site_type_symbol
_atom_site_label
_atom_site_fract_x
_atom_site_fract_y
_atom_site_fract_z
Si Si1 0.000000 0.000000 0.000000
Si Si2 0.219428 0.169072 0.283680
Si Si3 0.000000 0.237841 0.500000
Si Si4 0.203575 0.106276 0.014701
Si Si5 0.472968 0.215565 0.102578
Si Si6 0.666065 0.608181 0.787511
Si Si7 0.442206 0.110113 0.652965
O O1 0.875525 0.081802 0.845440
O O2 0.352433 0.198975 0.362664
O O3 0.306259 0.142289 0.454755
O O4 0.106479 0.256502 0.181865
O O5 0.962747 0.171898 0.386965
O O6 0.388659 0.119889 0.212444
O O7 0.163348 0.000000 0.999839
O O8 0.109740 0.186281 0.960519
O O9 0.166670 0.114691 0.883106
O O10 0.548667 0.170837 0.259064
O O11 0.334331 0.145777 0.935737
O O12 0.646086 0.500000 0.745795
O O13 0.426721 0.000000 0.656010
#
# Coordination Sequence:
#
# PCOD9204139 Si02
#       7
#     2   8   4   8   8   8   8
#     4  12  28  46  60  92 134 174 224 262 320 400
#     4  12  26  44  62  91 130 176 223 269 323 389
#     4  12  25  45  64  86 128 184 221 262 321 394
#     4   9  19  35  65  97 127 162 210 266 335 386
#     4  11  21  39  67  97 128 163 215 279 330 379
#     4  10  21  41  65  97 130 169 214 262 322 395
#     4  10  20  40  65  96 127 166 211 273 336 384
#
# _framework density 21.894749000000001
#
# number of rings (size 3 to 8) (size 9 to 14) (size 15 to 20)
#    0.000    1.391    0.870    7.565    1.217    0.348 
#    3.130    6.087    0.000    0.000    0.000    0.000 
#    0.000    0.000    0.000    0.000    0.000    0.000 
#
# Total GULP energy -128579.103541 kJ/mol
# GULP energy per Si atom -5590.395806 kJ/mol
# Density = 2.184492 g / cm^3
# Si number density = 21.894749 Si / 1000 Ang^3
#
#
#
# Elastic Constant Matrix: (Units=GPa)
#
#
# Indices 1 2 3 4 5 6 
#
# 1 41.5284 24.5666 15.6873 0.0004 9.9018 0.0000
# 2 24.5666 93.3173 32.5133 0.0008 -4.9538 0.0002
# 3 15.6873 32.5133 117.0855 0.0016 -24.4870 0.0004
# 4 0.0004 0.0008 0.0016 12.2859 0.0008 -11.7627
# 5 9.9018 -4.9538 -24.4870 0.0008 32.2401 0.0002
# 6 0.0000 0.0002 0.0004 -11.7627 0.0002 4.7074
#
#
#
# Elastic Compliance Matrix: (Units=1/GPa)
#
#
# Indices 1 2 3 4 5 6 
#
# 1 0.034981 -0.008027 -0.005900 -0.000002 -0.016458 -0.000003
# 2 -0.008027 0.013724 -0.002115 0.000001 0.002968 0.000001
# 3 -0.005900 -0.002115 0.012161 0.000002 0.010724 0.000004
# 4 -0.000002 0.000001 0.000002 -0.058458 0.000005 -0.146072
# 5 -0.016458 0.002968 0.010724 0.000005 0.044673 0.000009
# 6 -0.000003 0.000001 0.000004 -0.146072 0.000009 -0.152569
#
#
# Mechanical properties :
#
#
# Convention : Reuss Voigt Hill
#
# Bulk Modulus (GPa) = 34.74305 44.16285 39.45295
# Shear Modulus (GPa) = -78.35712 21.79097 -28.28308
#
# Velocity S-wave (km/s) = -5.98880 3.15820 -3.59803
# Velocity P-wave (km/s) = 5.64964 5.78906 0.89299
#
# Compressibility (1/GPa) = 0.02878273
#
# Stress axis : x y z
#
# Youngs Moduli (GPa) = 28.58671 72.86656 82.22870
#
# Poissons Ratio (x) = 0.58492 0.48513
# Poissons Ratio (y) = 0.22947 0.17389
# Poissons Ratio (z) = 0.16866 0.15409
#
# Static dielectric constant tensor:
#      x y z
#    x 1.858480 0.000000 -0.011260 
#    y 0.000000 1.756980 0.000000 
#    z -0.011260 0.000000 1.780190 
# 
# From -- ./inp_files/325738.got.cif
#   From: 2010.05.17/outbox.cif.g08.bks.cpg/sg12_163_cif.got.tgz:325738.got - 2010.06.03 13:09:07.
