data_PCOD9204566
_publ_section_title
;
Structure prediction by ZEFSAII (Michael W. Deem and Ramdas Pophale) SiO2 
 PCOD9204566
Probable space group: C 2/M
;
_chemical_formula_sum "Si O2"
_cell_formula_units_Z 54
_cell_length_a 17.315786
_cell_length_b 25.729100
_cell_length_c 6.234959
_cell_angle_alpha 90.000000
_cell_angle_beta 61.515638
_cell_angle_gamma 90.000000
_cell_volume 2441.536660
_symmetry_space_group_name_H-M "C 2/M"
_symmetry_group_IT_number 12
_symmetry_cell_setting 'monoclinic'
loop_
_space_group_symop_operation_xyz
x,y,z
-x,y,-z
-x,-y,-z
x,-y,z
1/2+x,1/2+y,z
1/2-x,1/2+y,-z
1/2-x,1/2-y,-z
1/2+x,1/2-y,z
loop_
_atom_site_type_symbol
_atom_site_label
_atom_site_fract_x
_atom_site_fract_y
_atom_site_fract_z
Si Si1 0.500000 0.000000 0.500000
Si Si2 0.580330 0.915234 0.062027
Si Si3 0.500000 0.321721 0.000000
Si Si4 0.276987 0.441335 0.665748
Si Si5 0.633915 0.366398 0.139904
Si Si6 0.601434 0.175878 0.346028
Si Si7 0.357915 0.282849 0.512070
Si Si8 0.243080 0.647525 0.403892
O O1 0.452084 0.045857 0.709479
O O2 0.606072 0.858695 0.126519
O O3 0.500000 0.912790 0.000000
O O4 0.672789 0.937054 0.852076
O O5 0.447735 0.359726 0.909481
O O6 0.568868 0.286023 0.774482
O O7 0.300786 0.500000 0.585236
O O8 0.333490 0.418966 0.789884
O O9 0.287265 0.402466 0.452494
O O10 0.615689 0.326795 0.354555
O O11 0.714802 0.346714 0.886437
O O12 0.500000 0.188257 0.500000
O O13 0.647554 0.230566 0.341907
O O14 0.640556 0.141358 0.490135
O O15 0.268554 0.304940 0.524092
#
# Coordination Sequence:
#
# PCOD9204566 Si02
#       8
#     2   8   4   8   8   8   8   8
#     4  12  26  48  68  90 136 190 230 288 336 382
#     4  12  26  44  65  96 135 180 232 284 331 386
#     4  10  20  42  73  98 134 177 212 270 340 414
#     4  11  24  42  66  92 129 173 226 278 330 397
#     4  10  21  43  66  99 130 176 217 272 339 405
#     4  12  23  42  62  99 136 176 225 277 323 396
#     4  10  23  43  68  98 136 176 221 268 339 407
#     4  10  23  43  64  95 134 179 219 278 337 395
#
# _framework density 22.117218999999999
#
# number of rings (size 3 to 8) (size 9 to 14) (size 15 to 20)
#    0.000    1.185    2.963    2.889    0.000    1.185 
#   16.000    0.370    0.000   11.556    0.000    0.000 
#    0.000    0.000    0.000    0.000    0.000    0.000 
#
# Total GULP energy -150389.557630 kJ/mol
# GULP energy per Si atom -5569.983616 kJ/mol
# Density = 2.206688 g / cm^3
# Si number density = 22.117219 Si / 1000 Ang^3
#
#
#
# Elastic Constant Matrix: (Units=GPa)
#
#
# Indices 1 2 3 4 5 6 
#
# 1 114.9958 24.2252 -1.0506 0.0000 34.0216 0.0000
# 2 24.2252 129.9893 16.9932 0.0000 17.4432 0.0000
# 3 -1.0506 16.9932 70.6499 0.0000 -1.6588 0.0000
# 4 0.0000 0.0000 0.0000 22.7862 0.0000 -0.3471
# 5 34.0216 17.4432 -1.6588 0.0000 27.3650 0.0000
# 6 0.0000 0.0000 0.0000 -0.3471 0.0000 8.5047
#
#
#
# Elastic Compliance Matrix: (Units=1/GPa)
#
#
# Indices 1 2 3 4 5 6 
#
# 1 0.013767 -0.000275 -0.000127 0.000000 -0.016948 0.000000
# 2 -0.000275 0.008758 -0.002237 0.000000 -0.005377 0.000000
# 3 -0.000127 -0.002237 0.014749 0.000000 0.002478 0.000000
# 4 0.000000 0.000000 0.000000 0.043914 0.000000 0.001792
# 5 -0.016948 -0.005377 0.002478 0.000000 0.061191 0.000000
# 6 0.000000 0.000000 0.000000 0.001792 0.000000 0.117655
#
#
# Mechanical properties :
#
#
# Convention : Reuss Voigt Hill
#
# Bulk Modulus (GPa) = 31.25384 43.99672 37.62528
# Shear Modulus (GPa) = 18.11751 30.09567 24.10659
#
# Velocity S-wave (km/s) = 2.86520 3.69282 3.30502
# Velocity P-wave (km/s) = 5.01074 6.17400 5.62253
#
# Compressibility (1/GPa) = 0.03199606
#
# Stress axis : x y z
#
# Youngs Moduli (GPa) = 72.63838 114.18069 67.80298
#
# Poissons Ratio (x) = 0.03137 0.00862
# Poissons Ratio (y) = 0.01996 0.15167
# Poissons Ratio (z) = 0.00923 0.25541
#
# Static dielectric constant tensor:
#      x y z
#    x 1.906140 0.000000 -0.024910 
#    y 0.000000 1.805410 0.000000 
#    z -0.024910 0.000000 1.837440 
# 
# From -- ./inp_files/17668.got.cif
#   From: 2010.05.17/outbox.cif.g08.bks.cpg/sg12_9_cif.got.tgz:17668.got - 2010.06.03 13:09:07.
