data_PCOD9204448
_publ_section_title
;
Structure prediction by ZEFSAII (Michael W. Deem and Ramdas Pophale) SiO2 
 PCOD9204448
Probable space group: C 2/M
;
_chemical_formula_sum "Si O2"
_cell_formula_units_Z 40
_cell_length_a 9.293015
_cell_length_b 17.013496
_cell_length_c 12.025456
_cell_angle_alpha 90.000000
_cell_angle_beta 105.442570
_cell_angle_gamma 90.000000
_cell_volume 1832.663622
_symmetry_space_group_name_H-M "C 2/M"
_symmetry_group_IT_number 12
_symmetry_cell_setting 'monoclinic'
loop_
_space_group_symop_operation_xyz
x,y,z
-x,y,-z
-x,-y,-z
x,-y,z
1/2+x,1/2+y,z
1/2-x,1/2+y,-z
1/2-x,1/2-y,-z
1/2+x,1/2-y,z
loop_
_atom_site_type_symbol
_atom_site_label
_atom_site_fract_x
_atom_site_fract_y
_atom_site_fract_z
Si Si1 0.342132 0.830770 0.530173
Si Si2 0.753844 0.095568 0.275109
Si Si3 0.826158 0.331302 0.979359
Si Si4 0.635194 0.406561 0.106108
Si Si5 0.410999 0.593168 0.657975
O O1 0.500000 0.826170 0.500000
O O2 0.250000 0.750000 0.500000
O O3 0.353871 0.861162 0.659373
O O4 0.229586 0.890887 0.447370
O O5 0.734137 0.128980 0.146538
O O6 0.923978 0.118542 0.345925
O O7 0.736774 0.000000 0.272896
O O8 0.750000 0.250000 0.000000
O O9 0.786773 0.388050 0.073806
O O10 0.000000 0.319739 0.000000
O O11 0.618979 0.500000 0.111291
O O12 0.621711 0.372155 0.226346
O O13 0.500000 0.378075 0.000000
O O14 0.426098 0.500000 0.671219
#
# Coordination Sequence:
#
# PCOD9204448 Si02
#       5
#     8   8   8   8   8
#     4  12  28  46  70 101 140 183 232 289 345 405
#     4  11  25  47  74 103 139 183 232 283 345 414
#     4  12  28  43  67 101 142 183 228 285 346 409
#     4  10  20  41  70 101 136 176 224 275 340 416
#     4  10  22  43  73 100 135 181 226 280 342 413
#
# _framework density 21.826155
#
# number of rings (size 3 to 8) (size 9 to 14) (size 15 to 20)
#    0.000    1.000    2.000    3.600    5.600    4.800 
#    0.000    0.000    0.000    0.000    0.000    0.000 
#    0.000    0.000    0.000    0.000    0.000    0.000 
#
# Total GULP energy -111770.890432 kJ/mol
# GULP energy per Si atom -5588.544522 kJ/mol
# Density = 2.177648 g / cm^3
# Si number density = 21.826155 Si / 1000 Ang^3
#
#
#
# Elastic Constant Matrix: (Units=GPa)
#
#
# Indices 1 2 3 4 5 6 
#
# 1 160.0112 24.4332 24.7643 0.0000 -26.5245 0.0000
# 2 24.4332 63.2029 16.2257 0.0000 -13.3043 0.0000
# 3 24.7643 16.2257 80.5519 0.0000 -32.8169 0.0000
# 4 0.0000 0.0000 0.0000 24.9732 0.0000 -8.5027
# 5 -26.5245 -13.3043 -32.8169 0.0000 39.7481 0.0000
# 6 0.0000 0.0000 0.0000 -8.5027 0.0000 26.6114
#
#
#
# Elastic Compliance Matrix: (Units=1/GPa)
#
#
# Indices 1 2 3 4 5 6 
#
# 1 0.007238 -0.001898 -0.000202 0.000000 0.004028 0.000000
# 2 -0.001898 0.017669 -0.001631 0.000000 0.003301 0.000000
# 3 -0.000202 -0.001631 0.018877 0.000000 0.014905 0.000000
# 4 0.000000 0.000000 0.000000 0.044931 0.000000 0.014356
# 5 0.004028 0.003301 0.014905 0.000000 0.041257 0.000000
# 6 0.000000 0.000000 0.000000 0.014356 0.000000 0.042165
#
#
# Mechanical properties :
#
#
# Convention : Reuss Voigt Hill
#
# Bulk Modulus (GPa) = 27.53071 48.29025 37.91048
# Shear Modulus (GPa) = 26.08137 34.15604 30.11871
#
# Velocity S-wave (km/s) = 3.46057 3.96019 3.71878
# Velocity P-wave (km/s) = 5.34868 6.56382 5.98716
#
# Compressibility (1/GPa) = 0.03632308
#
# Stress axis : x y z
#
# Youngs Moduli (GPa) = 138.15127 56.59473 52.97407
#
# Poissons Ratio (x) = 0.10744 0.01069
# Poissons Ratio (y) = 0.26228 0.08639
# Poissons Ratio (z) = 0.02788 0.09229
#
# Static dielectric constant tensor:
#      x y z
#    x 1.827250 0.000000 0.006530 
#    y 0.000000 2.226720 0.000000 
#    z 0.006530 0.000000 1.669210 
# 
# From -- ./inp_files/118879.got.cif
#   From: 2010.05.17/outbox.cif.g08.bks.cpg/sg12_60_cif.got.tgz:118879.got - 2010.06.03 13:09:07.
