data_PCOD9204430
_publ_section_title
;
Structure prediction by ZEFSAII (Michael W. Deem and Ramdas Pophale) SiO2 
 PCOD9204430
Probable space group: C 2/M
;
_chemical_formula_sum "Si O2"
_cell_formula_units_Z 64
_cell_length_a 9.100015
_cell_length_b 28.903294
_cell_length_c 15.730664
_cell_angle_alpha 90.000000
_cell_angle_beta 50.742882
_cell_angle_gamma 90.000000
_cell_volume 3203.713232
_symmetry_space_group_name_H-M "C 2/M"
_symmetry_group_IT_number 12
_symmetry_cell_setting 'monoclinic'
loop_
_space_group_symop_operation_xyz
x,y,z
-x,y,-z
-x,-y,-z
x,-y,z
1/2+x,1/2+y,z
1/2-x,1/2+y,-z
1/2-x,1/2-y,-z
1/2+x,1/2-y,z
loop_
_atom_site_type_symbol
_atom_site_label
_atom_site_fract_x
_atom_site_fract_y
_atom_site_fract_z
Si Si1 0.585631 0.553469 0.275110
Si Si2 0.363265 0.202204 0.469002
Si Si3 0.065318 0.554727 0.719729
Si Si4 0.169642 0.891373 0.505885
Si Si5 0.211761 0.114175 0.914992
Si Si6 0.625287 0.796640 0.211213
Si Si7 0.789135 0.614089 0.079421
Si Si8 0.118614 0.291208 0.871425
O O1 0.547928 0.500000 0.274937
O O2 0.776402 0.557974 0.263252
O O3 0.416788 0.576314 0.389611
O O4 0.632636 0.579585 0.171216
O O5 0.500000 0.205196 0.500000
O O6 0.250000 0.250000 0.500000
O O7 0.229234 0.157478 0.523421
O O8 0.484403 0.193575 0.339710
O O9 0.039823 0.500000 0.710528
O O10 0.160265 0.582530 0.606357
O O11 0.872418 0.579271 0.821785
O O12 0.000000 0.883904 0.500000
O O13 0.227860 0.161009 0.853811
O O14 0.256874 0.129017 0.995098
O O15 0.000000 0.094694 0.000000
O O16 0.726679 0.748480 0.193521
O O17 0.507440 0.792762 0.166863
O O18 0.796696 0.658239 0.139020
O O19 0.000000 0.592272 0.000000
O O20 0.000000 0.279728 0.000000
#
# Coordination Sequence:
#
# PCOD9204430 Si02
#       8
#     8   8   8   8   8   8   8   8
#     4  10  21  38  69 100 126 170 224 278 333 393
#     4  12  27  45  67 100 135 176 223 272 336 391
#     4  10  20  41  68  97 130 170 220 282 335 391
#     4  10  22  41  71  98 131 169 224 279 335 397
#     4  12  25  41  64  96 135 179 222 267 334 400
#     4  12  24  42  64  92 133 172 216 273 326 393
#     4  11  22  40  63  94 134 169 217 272 329 390
#     4  11  23  38  63  93 127 170 218 259 327 388
#
# _framework density 19.976818999999999
#
# number of rings (size 3 to 8) (size 9 to 14) (size 15 to 20)
#    0.000    1.000    5.000    2.250    5.250    3.500 
#    0.000    0.000    0.000    0.750    0.000    0.000 
#    0.000    0.000    0.000    0.000    0.000    0.000 
#
# Total GULP energy -178835.548008 kJ/mol
# GULP energy per Si atom -5588.610875 kJ/mol
# Density = 1.993135 g / cm^3
# Si number density = 19.976819 Si / 1000 Ang^3
#
#
#
# Elastic Constant Matrix: (Units=GPa)
#
#
# Indices 1 2 3 4 5 6 
#
# 1 52.1935 25.0361 25.8718 0.0000 -9.7385 0.0000
# 2 25.0361 139.3561 47.4420 0.0000 -26.2041 0.0000
# 3 25.8718 47.4420 107.2242 0.0000 -18.4381 0.0000
# 4 0.0000 0.0000 0.0000 33.0924 0.0000 -2.6198
# 5 -9.7385 -26.2041 -18.4381 0.0000 25.9646 0.0000
# 6 0.0000 0.0000 0.0000 -2.6198 0.0000 19.9205
#
#
#
# Elastic Compliance Matrix: (Units=1/GPa)
#
#
# Indices 1 2 3 4 5 6 
#
# 1 0.022792 -0.002059 -0.003959 0.000000 0.003659 0.000000
# 2 -0.002059 0.009794 -0.002586 0.000000 0.007276 0.000000
# 3 -0.003959 -0.002586 0.012213 0.000000 0.004578 0.000000
# 4 0.000000 0.000000 0.000000 0.030536 0.000000 0.004016
# 5 0.003659 0.007276 0.004578 0.000000 0.050481 0.000000
# 6 0.000000 0.000000 0.000000 0.004016 0.000000 0.050728
#
#
# Mechanical properties :
#
#
# Convention : Reuss Voigt Hill
#
# Bulk Modulus (GPa) = 36.24222 55.05264 45.64743
# Shear Modulus (GPa) = 24.63673 29.15710 26.89692
#
# Velocity S-wave (km/s) = 3.51560 3.82455 3.67332
# Velocity P-wave (km/s) = 5.88734 6.86447 6.39460
#
# Compressibility (1/GPa) = 0.02759213
#
# Stress axis : x y z
#
# Youngs Moduli (GPa) = 43.87428 102.10184 81.88113
#
# Poissons Ratio (x) = 0.21021 0.32419
# Poissons Ratio (y) = 0.09033 0.21170
# Poissons Ratio (z) = 0.17371 0.26399
#
# Static dielectric constant tensor:
#      x y z
#    x 1.718350 0.000000 -0.023400 
#    y 0.000000 1.695290 0.000000 
#    z -0.023400 0.000000 1.934880 
# 
# From -- ./inp_files/201295.got.cif
#   From: 2010.05.17/outbox.cif.g08.bks.cpg/sg12_101_cif.got.tgz:201295.got - 2010.06.03 13:09:07.
