data_PCOD9204637
_publ_section_title
;
Structure prediction by ZEFSAII (Michael W. Deem and Ramdas Pophale) SiO2 
 PCOD9204637
Probable space group: C 2/M
;
_chemical_formula_sum "Si O2"
_cell_formula_units_Z 52
_cell_length_a 23.966449
_cell_length_b 31.238514
_cell_length_c 5.333385
_cell_angle_alpha 90.000000
_cell_angle_beta 50.446679
_cell_angle_gamma 90.000000
_cell_volume 3078.715539
_symmetry_space_group_name_H-M "C 2/M"
_symmetry_group_IT_number 12
_symmetry_cell_setting 'monoclinic'
loop_
_space_group_symop_operation_xyz
x,y,z
-x,y,-z
-x,-y,-z
x,-y,z
1/2+x,1/2+y,z
1/2-x,1/2+y,-z
1/2-x,1/2-y,-z
1/2+x,1/2-y,z
loop_
_atom_site_type_symbol
_atom_site_label
_atom_site_fract_x
_atom_site_fract_y
_atom_site_fract_z
Si Si1 0.190369 0.763605 0.376571
Si Si2 0.951761 0.000000 0.887553
Si Si3 0.916921 0.331883 0.734151
Si Si4 0.579036 0.269007 0.314409
Si Si5 0.829095 0.667864 0.464465
Si Si6 0.949795 0.904652 0.895164
Si Si7 0.677979 0.663546 0.753651
O O1 0.108190 0.768746 0.512635
O O2 0.186315 0.718997 0.537889
O O3 0.207398 0.811114 0.425350
O O4 0.250000 0.750000 0.000000
O O5 0.916747 0.047026 0.985421
O O6 0.000000 0.000000 0.500000
O O7 0.000000 0.000000 0.000000
O O8 0.922010 0.280407 0.759144
O O9 0.874549 0.337414 0.591356
O O10 0.000000 0.347631 0.500000
O O11 0.873346 0.348808 0.098701
O O12 0.500000 0.287591 0.500000
O O13 0.637836 0.297033 0.004491
O O14 0.748667 0.648195 0.699845
O O15 0.000000 0.898977 0.500000
O O16 0.883636 0.871625 0.101374
O O17 0.000000 0.900276 0.000000
#
# Coordination Sequence:
#
# PCOD9204637 Si02
#       7
#     8   4   8   8   8   8   8
#     4  11  21  34  46  61  95 135 171 205 265 305
#     4   8  16  38  58  74 100 140 171 202 263 332
#     4  10  21  36  50  65  85 124 171 206 243 292
#     4  10  21  31  44  63  92 124 168 217 252 288
#     4  11  21  34  50  65  91 128 164 207 254 302
#     4  10  23  37  56  79 107 137 175 219 265 313
#     4  12  22  31  49  72  99 129 170 216 259 305
#
# _framework density 16.890162
#
# number of rings (size 3 to 8) (size 9 to 14) (size 15 to 20)
#    0.000    1.538    3.077    3.231    4.308    0.000 
#    0.000    0.000    0.000    0.000    0.000    0.000 
#    0.000    0.000    0.000    4.154    0.000    0.462 
#
# Total GULP energy -144740.668188 kJ/mol
# GULP energy per Si atom -5566.948776 kJ/mol
# Density = 1.685172 g / cm^3
# Si number density = 16.890162 Si / 1000 Ang^3
#
#
#
# Elastic Constant Matrix: (Units=GPa)
#
#
# Indices 1 2 3 4 5 6 
#
# 1 110.8050 39.3627 62.2359 0.0000 -24.5878 0.0000
# 2 39.3627 62.8136 14.2559 0.0000 0.4180 0.0000
# 3 62.2359 14.2559 93.3656 0.0000 -1.5295 0.0000
# 4 0.0000 0.0000 0.0000 12.4252 0.0000 -0.9084
# 5 -24.5878 0.4180 -1.5295 0.0000 27.0955 0.0000
# 6 0.0000 0.0000 0.0000 -0.9084 0.0000 10.9568
#
#
#
# Elastic Compliance Matrix: (Units=1/GPa)
#
#
# Indices 1 2 3 4 5 6 
#
# 1 0.029825 -0.014970 -0.017164 0.000000 0.026327 0.000000
# 2 -0.014970 0.024010 0.006090 0.000000 -0.013611 0.000000
# 3 -0.017164 0.006090 0.020985 0.000000 -0.014485 0.000000
# 4 0.000000 0.000000 0.000000 0.080972 0.000000 0.006713
# 5 0.026327 -0.013611 -0.014485 0.000000 0.060189 0.000000
# 6 0.000000 0.000000 0.000000 0.006713 0.000000 0.091824
#
#
# Mechanical properties :
#
#
# Convention : Reuss Voigt Hill
#
# Bulk Modulus (GPa) = 43.99247 55.41037 49.70142
# Shear Modulus (GPa) = 13.60652 20.17083 16.88868
#
# Velocity S-wave (km/s) = 2.84137 3.45952 3.16557
# Velocity P-wave (km/s) = 6.07184 6.98822 6.54609
#
# Compressibility (1/GPa) = 0.02273116
#
# Stress axis : x y z
#
# Youngs Moduli (GPa) = 33.52849 41.64981 47.65387
#
# Poissons Ratio (x) = 0.62350 0.81793
# Poissons Ratio (y) = 0.50192 -0.29020
# Poissons Ratio (z) = 0.57548 -0.25364
#
# Static dielectric constant tensor:
#      x y z
#    x 1.715200 0.000000 0.111520 
#    y 0.000000 1.556850 0.000000 
#    z 0.111520 0.000000 1.737910 
# 
# From -- ./inp_files/26630.got.cif
#   From: 2010.05.17/outbox.cif.g08.bks.cpg/sg12_14_cif.got.tgz:26630.got - 2010.06.03 13:09:07.
