data_PCOD9204133
_publ_section_title
;
Structure prediction by ZEFSAII (Michael W. Deem and Ramdas Pophale) SiO2 
 PCOD9204133
Probable space group: C 2/M
;
_chemical_formula_sum "Si O2"
_cell_formula_units_Z 56
_cell_length_a 13.024375
_cell_length_b 14.778007
_cell_length_c 14.433708
_cell_angle_alpha 90.000000
_cell_angle_beta 97.254006
_cell_angle_gamma 90.000000
_cell_volume 2755.882203
_symmetry_space_group_name_H-M "C 2/M"
_symmetry_group_IT_number 12
_symmetry_cell_setting 'monoclinic'
loop_
_space_group_symop_operation_xyz
x,y,z
-x,y,-z
-x,-y,-z
x,-y,z
1/2+x,1/2+y,z
1/2-x,1/2+y,-z
1/2-x,1/2-y,-z
1/2+x,1/2-y,z
loop_
_atom_site_type_symbol
_atom_site_label
_atom_site_fract_x
_atom_site_fract_y
_atom_site_fract_z
Si Si1 0.978550 0.781805 0.160841
Si Si2 0.202821 0.601696 0.325731
Si Si3 0.277015 0.350243 0.037262
Si Si4 0.376787 0.101677 0.475726
Si Si5 0.339286 0.225814 0.298116
Si Si6 0.926260 0.600263 0.869447
Si Si7 0.186207 0.897867 0.163907
O O1 0.882597 0.837725 0.107329
O O2 0.945741 0.752378 0.260242
O O3 0.000961 0.687397 0.109007
O O4 0.081301 0.841660 0.169217
O O5 0.248159 0.500000 0.323823
O O6 0.169153 0.616784 0.427542
O O7 0.277421 0.681537 0.304018
O O8 0.108174 0.602853 0.242317
O O9 0.180636 0.387400 0.085459
O O10 0.250000 0.250000 0.000000
O O11 0.296439 0.402012 0.944275
O O12 0.500000 0.102766 0.500000
O O13 0.347333 0.174609 0.395927
O O14 0.345856 0.000000 0.441745
O O15 0.277664 0.159812 0.221161
O O16 0.970799 0.500000 0.892926
O O17 0.180999 0.000000 0.200185
#
# Coordination Sequence:
#
# PCOD9204133 Si02
#       7
#     8   8   8   8   8   8   8
#     4  12  23  41  66  91 129 169 219 268 315 384
#     4  10  20  40  65  94 129 168 212 262 323 389
#     4  12  22  44  64  88 133 171 215 269 325 380
#     4  10  22  39  67 100 128 166 218 267 324 393
#     4  12  23  43  68  94 137 171 214 272 332 377
#     4  11  23  41  66  96 128 168 218 270 324 381
#     4  12  27  43  65  97 131 173 221 270 327 387
#
# _framework density 20.320170999999998
#
# number of rings (size 3 to 8) (size 9 to 14) (size 15 to 20)
#    0.000    0.714    5.714    2.571    0.000    4.571 
#    0.000    0.714    0.000    0.429    0.000    0.000 
#    0.000    0.000    0.000    0.000    0.000    0.000 
#
# Total GULP energy -156544.136570 kJ/mol
# GULP energy per Si atom -5590.862020 kJ/mol
# Density = 2.027392 g / cm^3
# Si number density = 20.320171 Si / 1000 Ang^3
#
#
#
# Elastic Constant Matrix: (Units=GPa)
#
#
# Indices 1 2 3 4 5 6 
#
# 1 34.5782 20.0014 9.4699 0.0000 -14.0699 0.0000
# 2 20.0014 138.4784 37.2272 0.0000 -16.1625 0.0000
# 3 9.4699 37.2272 111.1229 0.0000 -5.0583 0.0000
# 4 0.0000 0.0000 0.0000 23.5018 0.0000 0.3585
# 5 -14.0699 -16.1625 -5.0583 0.0000 25.7843 0.0000
# 6 0.0000 0.0000 0.0000 0.3585 0.0000 0.4504
#
#
#
# Elastic Compliance Matrix: (Units=1/GPa)
#
#
# Indices 1 2 3 4 5 6 
#
# 1 0.038778 -0.002997 -0.001436 0.000000 0.019000 0.000000
# 2 -0.002997 0.008720 -0.002514 0.000000 0.003337 0.000000
# 3 -0.001436 -0.002514 0.009945 0.000000 -0.000408 0.000000
# 4 0.000000 0.000000 0.000000 0.043073 0.000000 -0.034286
# 5 0.019000 0.003337 -0.000408 0.000000 0.051163 0.000000
# 6 0.000000 0.000000 0.000000 -0.034286 0.000000 2.247556
#
#
# Mechanical properties :
#
#
# Convention : Reuss Voigt Hill
#
# Bulk Modulus (GPa) = 22.96281 46.39741 34.68011
# Shear Modulus (GPa) = 2.05961 24.44604 13.25283
#
# Velocity S-wave (km/s) = 1.00786 3.47225 2.55659
# Velocity P-wave (km/s) = 3.56082 6.24165 5.08122
#
# Compressibility (1/GPa) = 0.04354867
#
# Stress axis : x y z
#
# Youngs Moduli (GPa) = 25.78785 114.68500 100.55350
#
# Poissons Ratio (x) = 0.34377 0.14435
# Poissons Ratio (y) = 0.07730 0.25277
# Poissons Ratio (z) = 0.03702 0.28829
#
# Static dielectric constant tensor:
#      x y z
#    x 1.702790 0.000000 -0.001240 
#    y 0.000000 1.767020 0.000000 
#    z -0.001240 0.000000 1.745840 
# 
# From -- ./inp_files/205033.got.cif
#   From: 2010.05.17/outbox.cif.g08.bks.cpg/sg12_103_cif.got.tgz:205033.got - 2010.06.03 13:09:07.
