data_PCOD9204942
_publ_section_title
;
Structure prediction by ZEFSAII (Michael W. Deem and Ramdas Pophale) SiO2 
 PCOD9204942
Probable space group: C 2/M
;
_chemical_formula_sum "Si O2"
_cell_formula_units_Z 48
_cell_length_a 19.505476
_cell_length_b 17.381011
_cell_length_c 9.143802
_cell_angle_alpha 90.000000
_cell_angle_beta 56.837456
_cell_angle_gamma 90.000000
_cell_volume 2595.058812
_symmetry_space_group_name_H-M "C 2/M"
_symmetry_group_IT_number 12
_symmetry_cell_setting 'monoclinic'
loop_
_space_group_symop_operation_xyz
x,y,z
-x,y,-z
-x,-y,-z
x,-y,z
1/2+x,1/2+y,z
1/2-x,1/2+y,-z
1/2-x,1/2-y,-z
1/2+x,1/2-y,z
loop_
_atom_site_type_symbol
_atom_site_label
_atom_site_fract_x
_atom_site_fract_y
_atom_site_fract_z
Si Si1 0.172364 0.587246 0.448526
Si Si2 0.720335 0.668190 0.474490
Si Si3 0.255101 0.910372 0.140443
Si Si4 0.989894 0.409976 0.180864
Si Si5 0.875322 0.325532 0.785963
Si Si6 0.095290 0.839723 0.379956
O O1 0.175393 0.500000 0.393140
O O2 0.259058 0.611905 0.415833
O O3 0.102708 0.593979 0.654005
O O4 0.141581 0.638839 0.352564
O O5 0.750000 0.750000 0.500000
O O6 0.769752 0.631652 0.279190
O O7 0.631460 0.674683 0.502436
O O8 0.156445 0.904151 0.244621
O O9 0.280711 0.000000 0.107404
O O10 0.299935 0.856570 0.971217
O O11 0.015220 0.500000 0.161383
O O12 0.046088 0.360553 0.223589
O O13 0.000000 0.386469 0.000000
O O14 0.888165 0.235736 0.738356
O O15 0.000000 0.857314 0.500000
#
# Coordination Sequence:
#
# PCOD9204942 Si02
#       6
#     8   8   8   8   8   8
#     4  11  20  33  56  86 119 160 203 250 306 371
#     4  10  21  38  60  85 119 157 204 254 307 360
#     4  10  22  39  62  89 122 161 205 253 308 366
#     4  10  21  34  52  83 125 163 199 245 306 372
#     4  12  21  37  60  89 125 159 200 250 308 375
#     4  10  23  40  62  87 119 158 210 252 303 360
#
# _framework density 18.496690000000001
#
# number of rings (size 3 to 8) (size 9 to 14) (size 15 to 20)
#    1.000    0.500    1.667    5.000    0.000    3.000 
#    0.000    0.000    0.000    0.000    0.000    2.333 
#    0.000    0.000    0.000    0.000    0.000    0.000 
#
# Total GULP energy -133635.641085 kJ/mol
# GULP energy per Si atom -5568.151712 kJ/mol
# Density = 1.845459 g / cm^3
# Si number density = 18.496690 Si / 1000 Ang^3
#
#
#
# Elastic Constant Matrix: (Units=GPa)
#
#
# Indices 1 2 3 4 5 6 
#
# 1 115.7947 8.3635 16.4127 0.0000 -2.2721 0.0000
# 2 8.3635 46.5095 13.0340 0.0000 -0.3218 0.0000
# 3 16.4127 13.0340 51.9581 0.0000 3.4164 0.0000
# 4 0.0000 0.0000 0.0000 18.6700 0.0000 3.5314
# 5 -2.2721 -0.3218 3.4164 0.0000 34.8313 0.0000
# 6 0.0000 0.0000 0.0000 3.5314 0.0000 22.6852
#
#
#
# Elastic Compliance Matrix: (Units=1/GPa)
#
#
# Indices 1 2 3 4 5 6 
#
# 1 0.009100 -0.000870 -0.002712 0.000000 0.000852 0.000000
# 2 -0.000870 0.023232 -0.005599 0.000000 0.000707 0.000000
# 3 -0.002712 -0.005599 0.021662 0.000000 -0.002353 0.000000
# 4 0.000000 0.000000 0.000000 0.055187 0.000000 -0.008591
# 5 0.000852 0.000707 -0.002353 0.000000 0.029003 0.000000
# 6 0.000000 0.000000 0.000000 -0.008591 0.000000 0.045419
#
#
# Mechanical properties :
#
#
# Convention : Reuss Voigt Hill
#
# Bulk Modulus (GPa) = 28.06616 32.20919 30.13768
# Shear Modulus (GPa) = 23.38163 27.00076 25.19120
#
# Velocity S-wave (km/s) = 3.55927 3.82483 3.69444
# Velocity P-wave (km/s) = 5.66549 6.07923 5.87600
#
# Compressibility (1/GPa) = 0.03563009
#
# Stress axis : x y z
#
# Youngs Moduli (GPa) = 109.89034 43.04486 46.16306
#
# Poissons Ratio (x) = 0.03747 0.12520
# Poissons Ratio (y) = 0.09565 0.25848
# Poissons Ratio (z) = 0.29804 0.24102
#
# Static dielectric constant tensor:
#      x y z
#    x 1.684620 0.000000 -0.004950 
#    y 0.000000 1.661560 0.000000 
#    z -0.004950 0.000000 1.652370 
# 
# From -- ./inp_files/87141.got.cif
#   From: 2010.05.17/outbox.cif.g08.bks.cpg/sg12_44_cif.got.tgz:87141.got - 2010.06.03 13:09:07.
