data_PCOD9204395
_publ_section_title
;
Structure prediction by ZEFSAII (Michael W. Deem and Ramdas Pophale) SiO2 
 PCOD9204395
Probable space group: C 2/M
;
_chemical_formula_sum "Si O2"
_cell_formula_units_Z 64
_cell_length_a 19.821033
_cell_length_b 8.404346
_cell_length_c 19.666305
_cell_angle_alpha 90.000000
_cell_angle_beta 59.540377
_cell_angle_gamma 90.000000
_cell_volume 2823.927225
_symmetry_space_group_name_H-M "C 2/M"
_symmetry_group_IT_number 12
_symmetry_cell_setting 'monoclinic'
loop_
_space_group_symop_operation_xyz
x,y,z
-x,y,-z
-x,-y,-z
x,-y,z
1/2+x,1/2+y,z
1/2-x,1/2+y,-z
1/2-x,1/2-y,-z
1/2+x,1/2-y,z
loop_
_atom_site_type_symbol
_atom_site_label
_atom_site_fract_x
_atom_site_fract_y
_atom_site_fract_z
Si Si1 0.928405 0.308912 0.824535
Si Si2 0.326586 0.183948 0.496535
Si Si3 0.093954 0.815318 0.759800
Si Si4 0.154346 0.308900 0.265146
Si Si5 0.082287 0.308224 0.918731
Si Si6 0.495006 0.194083 0.424055
Si Si7 0.242212 0.181840 0.339636
Si Si8 0.825849 0.690947 0.001178
O O1 0.938947 0.500000 0.814656
O O2 0.011428 0.229765 0.768683
O O3 0.861184 0.265368 0.804936
O O4 0.898267 0.267957 0.914674
O O5 0.250000 0.250000 0.500000
O O6 0.412084 0.253966 0.437185
O O7 0.310291 0.208070 0.585153
O O8 0.329633 0.000000 0.477943
O O9 0.085828 0.774258 0.844059
O O10 0.166809 0.715650 0.694462
O O11 0.111946 0.000000 0.741625
O O12 0.165373 0.500000 0.264254
O O13 0.222011 0.222972 0.272143
O O14 0.072559 0.263431 0.343673
O O15 0.087955 0.500000 0.904989
O O16 0.151357 0.254003 0.934926
O O17 0.000000 0.280902 0.000000
O O18 0.500000 0.244767 0.500000
O O19 0.492275 0.000000 0.425052
O O20 0.223350 0.000000 0.364414
O O21 0.821436 0.500000 0.006310
O O22 0.750000 0.750000 0.000000
#
# Coordination Sequence:
#
# PCOD9204395 Si02
#       8
#     8   8   8   8   8   8   8   8
#     4  10  22  42  65  91 126 167 209 254 317 386
#     4  11  23  41  65  96 130 166 211 262 316 375
#     4  12  26  42  64  93 126 164 212 267 317 375
#     4  10  21  40  66  93 124 165 209 258 313 380
#     4  10  20  41  67  89 120 163 207 252 312 378
#     4   9  17  35  63  90 120 160 202 247 307 368
#     4  12  26  44  64  90 127 171 214 261 317 374
#     4  10  22  39  61  91 126 164 205 257 311 371
#
# _framework density 22.663474000000001
#
# number of rings (size 3 to 8) (size 9 to 14) (size 15 to 20)
#    0.000    1.500    2.500    2.625    3.500    1.750 
#    0.000    1.875    0.000    0.000    0.000    0.000 
#    0.000    0.000    0.000    0.000    0.000    0.000 
#
# Total GULP energy -178968.350114 kJ/mol
# GULP energy per Si atom -5592.760941 kJ/mol
# Density = 2.261189 g / cm^3
# Si number density = 22.663474 Si / 1000 Ang^3
#
#
#
# Elastic Constant Matrix: (Units=GPa)
#
#
# Indices 1 2 3 4 5 6 
#
# 1 113.8505 10.0822 -13.1567 -0.0002 -0.6204 -0.0005
# 2 10.0822 18.2371 -7.9041 -0.0004 -1.4097 -0.0016
# 3 -13.1567 -7.9041 28.2512 0.0000 5.1759 0.0000
# 4 -0.0002 -0.0004 0.0000 17.2372 0.0001 2.8464
# 5 -0.6204 -1.4097 5.1759 0.0001 38.0237 0.0000
# 6 -0.0005 -0.0016 0.0000 2.8464 0.0000 32.1755
#
#
#
# Elastic Compliance Matrix: (Units=1/GPa)
#
#
# Indices 1 2 3 4 5 6 
#
# 1 0.009516 -0.003800 0.003452 0.000000 -0.000456 0.000000
# 2 -0.003800 0.063917 0.016092 0.000001 0.000117 0.000003
# 3 0.003452 0.016092 0.042445 0.000000 -0.005125 0.000001
# 4 0.000000 0.000001 0.000000 0.058874 0.000000 -0.005208
# 5 -0.000456 0.000117 -0.005125 0.000000 0.026994 0.000000
# 6 0.000000 0.000003 0.000001 -0.005208 0.000000 0.031540
#
#
# Mechanical properties :
#
#
# Convention : Reuss Voigt Hill
#
# Bulk Modulus (GPa) = 6.78580 15.37572 11.08076
# Shear Modulus (GPa) = 19.92645 28.90843 24.41744
#
# Velocity S-wave (km/s) = 2.96840 3.57536 3.28593
# Velocity P-wave (km/s) = 3.84047 4.88297 4.39275
#
# Compressibility (1/GPa) = 0.14736655
#
# Stress axis : x y z
#
# Youngs Moduli (GPa) = 105.08153 15.64518 23.55965
#
# Poissons Ratio (x) = 0.05945 -0.08133
# Poissons Ratio (y) = 0.39932 -0.37911
# Poissons Ratio (z) = -0.36275 -0.25176
#
# Static dielectric constant tensor:
#      x y z
#    x 1.873860 0.000000 0.019520 
#    y 0.000000 1.790860 0.000000 
#    z 0.019520 0.000000 1.863770 
# 
# From -- ./inp_files/319904.got.cif
#   From: 2010.05.17/outbox.cif.g08.bks.cpg/sg12_160_cif.got.tgz:319904.got - 2010.06.03 13:09:07.
