data_PCOD9204413
_publ_section_title
;
Structure prediction by ZEFSAII (Michael W. Deem and Ramdas Pophale) SiO2 
 PCOD9204413
Probable space group: C 2/M
;
_chemical_formula_sum "Si O2"
_cell_formula_units_Z 52
_cell_length_a 23.881754
_cell_length_b 12.150466
_cell_length_c 11.983510
_cell_angle_alpha 90.000000
_cell_angle_beta 130.605311
_cell_angle_gamma 90.000000
_cell_volume 2640.010648
_symmetry_space_group_name_H-M "C 2/M"
_symmetry_group_IT_number 12
_symmetry_cell_setting 'monoclinic'
loop_
_space_group_symop_operation_xyz
x,y,z
-x,y,-z
-x,-y,-z
x,-y,z
1/2+x,1/2+y,z
1/2-x,1/2+y,-z
1/2-x,1/2-y,-z
1/2+x,1/2-y,z
loop_
_atom_site_type_symbol
_atom_site_label
_atom_site_fract_x
_atom_site_fract_y
_atom_site_fract_z
Si Si1 0.151941 0.500000 0.461150
Si Si2 0.413685 0.000000 0.871206
Si Si3 0.691341 0.758058 0.568141
Si Si4 0.086313 0.261858 0.646556
Si Si5 0.420468 0.630323 0.142386
Si Si6 0.086780 0.500000 0.627895
Si Si7 0.586539 0.369861 0.270335
Si Si8 0.858418 0.735002 0.861697
O O1 0.105162 0.500000 0.286157
O O2 0.191519 0.381508 0.516230
O O3 0.114361 0.500000 0.535294
O O4 0.382869 0.890684 0.888415
O O5 0.500000 0.000000 0.000000
O O6 0.637443 0.748181 0.605062
O O7 0.653775 0.675471 0.432045
O O8 0.773813 0.736277 0.713642
O O9 0.095796 0.172102 0.754325
O O10 0.106047 0.385973 0.712570
O O11 0.000000 0.259957 0.500000
O O12 0.406868 0.500000 0.111573
O O13 0.507333 0.650315 0.226345
O O14 0.372265 0.702745 0.995308
O O15 0.000000 0.500000 0.500000
O O16 0.593333 0.500000 0.259458
O O17 0.592677 0.302810 0.164111
#
# Coordination Sequence:
#
# PCOD9204413 Si02
#       8
#     4   4   8   8   8   4   8   8
#     4  10  22  40  64  94 128 169 216 264 331 379
#     4  12  26  42  68  96 134 174 213 266 331 399
#     4  11  24  41  68  98 130 170 223 274 327 391
#     4  10  20  41  67  95 126 171 224 271 327 386
#     4  11  25  44  66  94 130 177 219 270 325 394
#     4   8  18  32  62  94 122 158 209 274 311 386
#     4  11  23  41  69  94 129 171 220 269 323 399
#     4  12  27  41  64  98 137 171 213 271 334 390
#
# _framework density 19.69689
#
# number of rings (size 3 to 8) (size 9 to 14) (size 15 to 20)
#    0.000    1.231    3.077    2.308    3.231    3.385 
#    0.000    0.000    0.000    0.000    0.000    0.000 
#    0.000    0.000    0.000    0.000    0.000    0.000 
#
# Total GULP energy -145191.832922 kJ/mol
# GULP energy per Si atom -5584.301266 kJ/mol
# Density = 1.965206 g / cm^3
# Si number density = 19.696890 Si / 1000 Ang^3
#
#
#
# Elastic Constant Matrix: (Units=GPa)
#
#
# Indices 1 2 3 4 5 6 
#
# 1 55.2562 16.0417 8.4718 0.0000 -6.0406 0.0000
# 2 16.0417 117.9819 38.5881 0.0000 -8.5736 0.0000
# 3 8.4718 38.5881 93.3321 0.0000 0.0648 0.0000
# 4 0.0000 0.0000 0.0000 26.5727 0.0000 1.2470
# 5 -6.0406 -8.5736 0.0648 0.0000 27.2356 0.0000
# 6 0.0000 0.0000 0.0000 1.2470 0.0000 5.0965
#
#
#
# Elastic Compliance Matrix: (Units=1/GPa)
#
#
# Indices 1 2 3 4 5 6 
#
# 1 0.019228 -0.002058 -0.000897 0.000000 0.003619 0.000000
# 2 -0.002058 0.010290 -0.004069 0.000000 0.002792 0.000000
# 3 -0.000897 -0.004069 0.012479 0.000000 -0.001510 0.000000
# 4 0.000000 0.000000 0.000000 0.038070 0.000000 -0.009315
# 5 0.003619 0.002792 -0.001510 0.000000 0.038402 0.000000
# 6 0.000000 0.000000 0.000000 -0.009315 0.000000 0.198493
#
#
# Mechanical properties :
#
#
# Convention : Reuss Voigt Hill
#
# Bulk Modulus (GPa) = 35.78029 43.64151 39.71090
# Shear Modulus (GPa) = 14.69179 25.34554 20.01866
#
# Velocity S-wave (km/s) = 2.73407 3.59106 3.19146
# Velocity P-wave (km/s) = 5.30770 6.27686 5.81252
#
# Compressibility (1/GPa) = 0.02794835
#
# Stress axis : x y z
#
# Youngs Moduli (GPa) = 52.00711 97.18584 80.13230
#
# Poissons Ratio (x) = 0.20001 0.07188
# Poissons Ratio (y) = 0.10703 0.32609
# Poissons Ratio (z) = 0.04665 0.39548
#
# Static dielectric constant tensor:
#      x y z
#    x 1.689460 0.000000 -0.009630 
#    y 0.000000 1.746240 0.000000 
#    z -0.009630 0.000000 1.670220 
# 
# From -- ./inp_files/175359.got.cif
#   From: 2010.05.17/outbox.cif.g08.bks.cpg/sg12_88_cif.got.tgz:175359.got - 2010.06.03 13:09:07.
