data_PCOD9204388
_publ_section_title
;
Structure prediction by ZEFSAII (Michael W. Deem and Ramdas Pophale) SiO2 
 PCOD9204388
Probable space group: C 2/M
;
_chemical_formula_sum "Si O2"
_cell_formula_units_Z 64
_cell_length_a 22.480799
_cell_length_b 20.308520
_cell_length_c 16.565302
_cell_angle_alpha 90.000000
_cell_angle_beta 158.028920
_cell_angle_gamma 90.000000
_cell_volume 2829.579072
_symmetry_space_group_name_H-M "C 2/M"
_symmetry_group_IT_number 12
_symmetry_cell_setting 'monoclinic'
loop_
_space_group_symop_operation_xyz
x,y,z
-x,y,-z
-x,-y,-z
x,-y,z
1/2+x,1/2+y,z
1/2-x,1/2+y,-z
1/2-x,1/2-y,-z
1/2+x,1/2-y,z
loop_
_atom_site_type_symbol
_atom_site_label
_atom_site_fract_x
_atom_site_fract_y
_atom_site_fract_z
Si Si1 0.628775 0.073780 0.544351
Si Si2 0.319383 0.075618 0.802100
Si Si3 0.322281 0.136467 0.098414
Si Si4 0.410080 0.573650 0.768134
Si Si5 0.145865 0.922463 0.737880
Si Si6 0.512629 0.771478 0.822789
Si Si7 0.291657 0.332916 0.865568
Si Si8 0.783134 0.844095 0.470292
O O1 0.461065 0.083221 0.288819
O O2 0.772042 0.078357 0.660630
O O3 0.656780 0.135779 0.639057
O O4 0.634742 0.000000 0.589135
O O5 0.297542 0.087153 0.869882
O O6 0.228603 0.129921 0.635124
O O7 0.260333 0.000000 0.713998
O O8 0.500000 0.077398 0.000000
O O9 0.402143 0.192177 0.143647
O O10 0.261444 0.156973 0.109171
O O11 0.177600 0.109941 0.862961
O O12 0.474095 0.500000 0.848838
O O13 0.330217 0.593223 0.583536
O O14 0.554759 0.623034 0.963525
O O15 0.000000 0.897915 0.500000
O O16 0.123266 0.000000 0.722249
O O17 0.384900 0.815898 0.709119
O O18 0.410488 0.712182 0.653276
O O19 0.640208 0.741109 0.046682
#
# Coordination Sequence:
#
# PCOD9204388 Si02
#       8
#     8   8   8   8   8   8   8   8
#     4  11  24  44  71 102 136 173 222 283 341 397
#     4  10  21  38  65  99 129 158 214 272 326 394
#     4  12  24  46  67  96 136 177 222 269 337 398
#     4  10  21  39  69 100 132 167 216 281 341 395
#     4  10  24  43  64  97 133 167 209 268 334 396
#     4  10  23  43  64  92 133 174 227 273 318 392
#     4  11  25  42  66  97 135 178 224 273 326 402
#     4  10  20  41  66  94 126 175 222 270 329 386
#
# _framework density 22.618206000000001
#
# number of rings (size 3 to 8) (size 9 to 14) (size 15 to 20)
#    0.000    1.500    1.250    3.000    3.500    3.500 
#    4.500    1.250    0.000    0.000    0.000    0.000 
#    0.000    0.000    0.000    0.000    0.000    0.000 
#
# Total GULP energy -178879.277733 kJ/mol
# GULP energy per Si atom -5589.977429 kJ/mol
# Density = 2.256673 g / cm^3
# Si number density = 22.618206 Si / 1000 Ang^3
#
#
#
# Elastic Constant Matrix: (Units=GPa)
#
#
# Indices 1 2 3 4 5 6 
#
# 1 49.4569 -1.6818 5.6166 0.0000 1.1536 0.0000
# 2 -1.6818 30.3657 16.4641 0.0000 -3.0520 0.0000
# 3 5.6166 16.4641 83.6534 0.0000 -1.7167 0.0000
# 4 0.0000 0.0000 0.0000 6.2007 0.0000 -12.5973
# 5 1.1536 -3.0520 -1.7167 0.0000 41.6278 0.0000
# 6 0.0000 0.0000 0.0000 -12.5973 0.0000 17.6464
#
#
#
# Elastic Compliance Matrix: (Units=1/GPa)
#
#
# Indices 1 2 3 4 5 6 
#
# 1 0.020505 0.002058 -0.001792 0.000000 -0.000491 0.000000
# 2 0.002058 0.037315 -0.007433 0.000000 0.002372 0.000000
# 3 -0.001792 -0.007433 0.013539 0.000000 0.000063 0.000000
# 4 0.000000 0.000000 0.000000 -0.358147 0.000000 -0.255672
# 5 -0.000491 0.002372 0.000063 0.000000 0.024213 0.000000
# 6 0.000000 0.000000 0.000000 -0.255672 0.000000 -0.125849
#
#
# Mechanical properties :
#
#
# Convention : Reuss Voigt Hill
#
# Bulk Modulus (GPa) = 17.53684 22.69709 20.11696
# Shear Modulus (GPa) = -14.08123 22.63347 4.27612
#
# Velocity S-wave (km/s) = -2.49783 3.16678 1.37647
# Velocity P-wave (km/s) = 0.74067 4.84024 3.38226
#
# Compressibility (1/GPa) = 0.05702283
#
# Stress axis : x y z
#
# Youngs Moduli (GPa) = 48.76971 26.79912 73.86237
#
# Poissons Ratio (x) = -0.05515 0.13234
# Poissons Ratio (y) = -0.10036 0.54906
# Poissons Ratio (z) = 0.08738 0.19921
#
# Static dielectric constant tensor:
#      x y z
#    x 1.793380 0.000000 -0.001230 
#    y 0.000000 1.849240 0.000000 
#    z -0.001230 0.000000 1.888840 
# 
# From -- ./inp_files/290946.got.cif
#   From: 2010.05.17/outbox.cif.g08.bks.cpg/sg12_146_cif.got.tgz:290946.got - 2010.06.03 13:09:07.
