data_PCOD9204406
_publ_section_title
;
Structure prediction by ZEFSAII (Michael W. Deem and Ramdas Pophale) SiO2 
 PCOD9204406
Probable space group: C 2/M
;
_chemical_formula_sum "Si O2"
_cell_formula_units_Z 48
_cell_length_a 19.171309
_cell_length_b 30.125671
_cell_length_c 8.935111
_cell_angle_alpha 90.000000
_cell_angle_beta 29.237965
_cell_angle_gamma 90.000000
_cell_volume 2520.564754
_symmetry_space_group_name_H-M "C 2/M"
_symmetry_group_IT_number 12
_symmetry_cell_setting 'monoclinic'
loop_
_space_group_symop_operation_xyz
x,y,z
-x,y,-z
-x,-y,-z
x,-y,z
1/2+x,1/2+y,z
1/2-x,1/2+y,-z
1/2-x,1/2-y,-z
1/2+x,1/2-y,z
loop_
_atom_site_type_symbol
_atom_site_label
_atom_site_fract_x
_atom_site_fract_y
_atom_site_fract_z
Si Si1 0.396628 0.449455 0.549529
Si Si2 0.640206 0.860022 0.441197
Si Si3 0.117514 0.270675 0.659014
Si Si4 0.071480 0.889513 0.022534
Si Si5 0.683472 0.131001 0.003481
Si Si6 0.059128 0.809110 0.552909
O O1 0.500000 0.446648 0.500000
O O2 0.347450 0.500000 0.625112
O O3 0.493528 0.433031 0.230346
O O4 0.270832 0.413987 0.808302
O O5 0.662992 0.811610 0.470058
O O6 0.473441 0.870960 0.773312
O O7 0.666968 0.862011 0.212720
O O8 0.757624 0.891608 0.298564
O O9 0.250000 0.250000 0.500000
O O10 0.053934 0.232248 0.672688
O O11 0.000000 0.285213 0.000000
O O12 0.032313 0.850064 0.211322
O O13 0.000000 0.877185 0.000000
O O14 0.780231 0.171426 0.761283
O O15 0.000000 0.797649 0.500000
#
# Coordination Sequence:
#
# PCOD9204406 Si02
#       6
#     8   8   8   8   8   8
#     4  10  20  41  67  93 122 155 203 252 298 372
#     4  11  22  38  58  88 124 155 205 253 308 356
#     4  12  26  40  55  85 123 165 209 254 307 351
#     4  11  21  39  63  88 121 159 200 246 304 369
#     4  10  21  38  62  91 118 156 203 256 311 357
#     4  11  21  38  61  82 115 162 216 250 293 357
#
# _framework density 19.043351000000001
#
# number of rings (size 3 to 8) (size 9 to 14) (size 15 to 20)
#    0.000    1.167    3.333    4.500    2.333    2.333 
#    0.000    2.500    0.000    1.000    0.000    0.000 
#    0.000    0.000    0.000    0.000    0.000    0.000 
#
# Total GULP energy -134114.632985 kJ/mol
# GULP energy per Si atom -5588.109708 kJ/mol
# Density = 1.900001 g / cm^3
# Si number density = 19.043351 Si / 1000 Ang^3
#
#
#
# Elastic Constant Matrix: (Units=GPa)
#
#
# Indices 1 2 3 4 5 6 
#
# 1 96.9256 20.1390 26.4266 0.0000 -18.1877 0.0000
# 2 20.1390 91.2045 28.2758 0.0000 4.7289 0.0000
# 3 26.4266 28.2758 101.6724 0.0001 -25.7434 0.0001
# 4 0.0000 0.0000 0.0001 12.5041 -0.0001 -5.7546
# 5 -18.1877 4.7289 -25.7434 -0.0001 29.3091 0.0000
# 6 0.0000 0.0000 0.0001 -5.7546 0.0000 4.6588
#
#
#
# Elastic Compliance Matrix: (Units=1/GPa)
#
#
# Indices 1 2 3 4 5 6 
#
# 1 0.012550 -0.003056 -0.000405 0.000000 0.007925 0.000000
# 2 -0.003056 0.013708 -0.005219 0.000000 -0.008692 0.000001
# 3 -0.000405 -0.005219 0.014843 -0.000001 0.013627 -0.000001
# 4 0.000000 0.000000 -0.000001 0.185320 0.000000 0.228906
# 5 0.007925 -0.008692 0.013627 0.000000 0.052409 0.000000
# 6 0.000000 0.000001 -0.000001 0.228906 0.000000 0.497391
#
#
# Mechanical properties :
#
#
# Convention : Reuss Voigt Hill
#
# Bulk Modulus (GPa) = 42.12388 48.83169 45.47778
# Shear Modulus (GPa) = 6.23835 23.62515 14.93175
#
# Velocity S-wave (km/s) = 1.81190 3.52603 2.80320
# Velocity P-wave (km/s) = 5.15221 6.50194 5.86603
#
# Compressibility (1/GPa) = 0.02373951
#
# Stress axis : x y z
#
# Youngs Moduli (GPa) = 79.68238 72.95085 67.37335
#
# Poissons Ratio (x) = 0.22296 0.02731
# Poissons Ratio (y) = 0.24354 0.35160
# Poissons Ratio (z) = 0.03230 0.38071
#
# Static dielectric constant tensor:
#      x y z
#    x 1.694660 0.000000 -0.011880 
#    y 0.000000 1.628830 0.000000 
#    z -0.011880 0.000000 1.693050 
# 
# From -- ./inp_files/42222.got.cif
#   From: 2010.05.17/outbox.cif.g08.bks.cpg/sg12_22_cif.got.tgz:42222.got - 2010.06.03 13:09:07.
