data_PCOD9204252
_publ_section_title
;
Structure prediction by ZEFSAII (Michael W. Deem and Ramdas Pophale) SiO2 
 PCOD9204252
Probable space group: C 2/M
;
_chemical_formula_sum "Si O2"
_cell_formula_units_Z 48
_cell_length_a 12.413397
_cell_length_b 21.625324
_cell_length_c 11.731497
_cell_angle_alpha 90.000000
_cell_angle_beta 134.681353
_cell_angle_gamma 90.000000
_cell_volume 2239.203805
_symmetry_space_group_name_H-M "C 2/M"
_symmetry_group_IT_number 12
_symmetry_cell_setting 'monoclinic'
loop_
_space_group_symop_operation_xyz
x,y,z
-x,y,-z
-x,-y,-z
x,-y,z
1/2+x,1/2+y,z
1/2-x,1/2+y,-z
1/2-x,1/2-y,-z
1/2+x,1/2-y,z
loop_
_atom_site_type_symbol
_atom_site_label
_atom_site_fract_x
_atom_site_fract_y
_atom_site_fract_z
Si Si1 0.670211 0.814418 0.125093
Si Si2 0.905417 0.281834 0.318337
Si Si3 0.829018 0.886122 0.852111
Si Si4 0.734030 0.429637 0.941824
Si Si5 0.377185 0.432510 0.646362
Si Si6 0.303950 0.816732 0.587821
O O1 0.807559 0.771028 0.183753
O O2 0.673851 0.877797 0.057413
O O3 0.708237 0.821529 0.286193
O O4 0.500000 0.787832 0.000000
O O5 0.780629 0.330868 0.265269
O O6 0.000000 0.260446 0.500000
O O7 0.021715 0.316518 0.322272
O O8 0.841406 0.931581 0.754723
O O9 0.771228 0.915318 0.926948
O O10 0.000000 0.863121 0.000000
O O11 0.785929 0.500000 0.961751
O O12 0.558416 0.425187 0.770226
O O13 0.333611 0.500000 0.566332
O O14 0.290946 0.373921 0.531452
O O15 0.250000 0.750000 0.500000
#
# Coordination Sequence:
#
# PCOD9204252 Si02
#       6
#     8   8   8   8   8   8
#     4  12  27  44  66  96 134 177 217 270 333 395
#     4  12  23  41  67  97 127 169 215 273 334 391
#     4  10  20  40  68  98 133 168 218 274 329 386
#     4  10  23  42  67  96 133 180 223 262 322 401
#     4  10  21  39  67 101 132 173 224 277 331 386
#     4  12  24  42  65  96 134 169 220 278 330 390
#
# _framework density 21.43619
#
# number of rings (size 3 to 8) (size 9 to 14) (size 15 to 20)
#    0.000    1.000    3.333    3.000    0.000    8.333 
#    0.000    5.833    0.000    0.000    0.000    0.000 
#    0.000    0.000    0.000    0.000    0.000    0.000 
#
# Total GULP energy -134120.176649 kJ/mol
# GULP energy per Si atom -5588.340694 kJ/mol
# Density = 2.138740 g / cm^3
# Si number density = 21.436190 Si / 1000 Ang^3
#
#
#
# Elastic Constant Matrix: (Units=GPa)
#
#
# Indices 1 2 3 4 5 6 
#
# 1 34.5103 -8.1298 8.3941 0.0000 -1.4277 0.0000
# 2 -8.1298 108.4197 38.5803 0.0000 14.6197 0.0000
# 3 8.3941 38.5803 85.9105 0.0000 5.7189 0.0000
# 4 0.0000 0.0000 0.0000 18.3157 0.0000 1.3300
# 5 -1.4277 14.6197 5.7189 0.0000 35.2113 0.0000
# 6 0.0000 0.0000 0.0000 1.3300 0.0000 11.0238
#
#
#
# Elastic Compliance Matrix: (Units=1/GPa)
#
#
# Indices 1 2 3 4 5 6 
#
# 1 0.031123 0.004014 -0.004869 0.000000 0.000386 0.000000
# 2 0.004014 0.012022 -0.005529 0.000000 -0.003931 0.000000
# 3 -0.004869 -0.005529 0.014617 0.000000 -0.000276 0.000000
# 4 0.000000 0.000000 0.000000 0.055081 0.000000 -0.006645
# 5 0.000386 -0.003931 -0.000276 0.000000 0.030092 0.000000
# 6 0.000000 0.000000 0.000000 -0.006645 0.000000 0.091515
#
#
# Mechanical properties :
#
#
# Convention : Reuss Voigt Hill
#
# Bulk Modulus (GPa) = 22.22543 34.05883 28.14213
# Shear Modulus (GPa) = 19.06819 25.57654 22.32237
#
# Velocity S-wave (km/s) = 2.98574 3.45794 3.23048
# Velocity P-wave (km/s) = 4.71984 5.64501 5.20303
#
# Compressibility (1/GPa) = 0.04499351
#
# Stress axis : x y z
#
# Youngs Moduli (GPa) = 32.13067 83.18043 68.41222
#
# Poissons Ratio (x) = -0.33392 0.33313
# Poissons Ratio (y) = -0.12899 0.37828
# Poissons Ratio (z) = 0.15646 0.45994
#
# Static dielectric constant tensor:
#      x y z
#    x 1.821950 0.000000 0.009890 
#    y 0.000000 1.782730 0.000000 
#    z 0.009890 0.000000 1.787950 
# 
# From -- ./inp_files/134092.got.cif
#   From: 2010.05.17/outbox.cif.g08.bks.cpg/sg12_68_cif.got.tgz:134092.got - 2010.06.03 13:09:07.
