data_PCOD9204144
_publ_section_title
;
Structure prediction by ZEFSAII (Michael W. Deem and Ramdas Pophale) SiO2 
 PCOD9204144
Probable space group: C 2/M
;
_chemical_formula_sum "Si O2"
_cell_formula_units_Z 52
_cell_length_a 19.343201
_cell_length_b 30.272965
_cell_length_c 5.142761
_cell_angle_alpha 90.000000
_cell_angle_beta 94.799340
_cell_angle_gamma 90.000000
_cell_volume 3000.918883
_symmetry_space_group_name_H-M "C 2/M"
_symmetry_group_IT_number 12
_symmetry_cell_setting 'monoclinic'
loop_
_space_group_symop_operation_xyz
x,y,z
-x,y,-z
-x,-y,-z
x,-y,z
1/2+x,1/2+y,z
1/2-x,1/2+y,-z
1/2-x,1/2-y,-z
1/2+x,1/2-y,z
loop_
_atom_site_type_symbol
_atom_site_label
_atom_site_fract_x
_atom_site_fract_y
_atom_site_fract_z
Si Si1 0.781128 0.182594 0.091056
Si Si2 0.075363 0.818872 0.010630
Si Si3 0.169485 0.775586 0.390463
Si Si4 0.949728 0.500000 0.730170
Si Si5 0.929390 0.727142 0.321138
Si Si6 0.581231 0.906107 0.450049
Si Si7 0.631699 0.142646 0.960860
O O1 0.856144 0.157875 0.085974
O O2 0.792753 0.220074 0.872459
O O3 0.782454 0.203238 0.376510
O O4 0.712269 0.155878 0.013304
O O5 0.101241 0.805545 0.306978
O O6 0.068114 0.772236 0.849311
O O7 0.000000 0.840064 0.000000
O O8 0.134517 0.732395 0.496276
O O9 0.907997 0.454692 0.673527
O O10 0.000000 0.500000 0.500000
O O11 0.000000 0.500000 0.000000
O O12 0.000000 0.721431 0.500000
O O13 0.911385 0.685776 0.138192
O O14 0.500000 0.902122 0.500000
O O15 0.602466 0.873518 0.226222
O O16 0.620881 0.893355 0.727614
#
# Coordination Sequence:
#
# PCOD9204144 Si02
#       7
#     8   8   8   4   8   8   8
#     4   9  20  35  48  73  99 138 175 219 270 310
#     4   9  18  32  52  68  92 139 189 225 252 297
#     4   9  19  33  51  63  95 134 189 215 262 297
#     4  10  20  40  66  82 102 128 177 215 245 317
#     4  11  21  32  49  69  99 136 186 233 266 299
#     4  11  24  41  59  81 103 137 171 211 263 321
#     4  12  25  35  53  78 113 134 166 221 281 320
#
# _framework density 17.328026999999999
#
# number of rings (size 3 to 8) (size 9 to 14) (size 15 to 20)
#    0.923    0.923    1.538    3.692    2.154    4.308 
#    0.000    0.000    0.000    0.000    0.000    0.000 
#    0.000    0.000    0.000    4.154    0.000    0.000 
#
# Total GULP energy -144910.278517 kJ/mol
# GULP energy per Si atom -5573.472251 kJ/mol
# Density = 1.728859 g / cm^3
# Si number density = 17.328027 Si / 1000 Ang^3
#
#
#
# Elastic Constant Matrix: (Units=GPa)
#
#
# Indices 1 2 3 4 5 6 
#
# 1 133.3587 36.7957 46.5870 0.0000 17.4231 0.0000
# 2 36.7957 42.0149 19.9566 0.0000 4.5281 0.0000
# 3 46.5870 19.9566 119.9124 0.0000 4.2042 0.0000
# 4 0.0000 0.0000 0.0000 18.2764 0.0000 -5.6348
# 5 17.4231 4.5281 4.2042 0.0000 41.0061 0.0000
# 6 0.0000 0.0000 0.0000 -5.6348 0.0000 8.3249
#
#
#
# Elastic Compliance Matrix: (Units=1/GPa)
#
#
# Indices 1 2 3 4 5 6 
#
# 1 0.011193 -0.008048 -0.002884 0.000000 -0.003572 0.000000
# 2 -0.008048 0.031872 -0.002182 0.000000 0.000124 0.000000
# 3 -0.002884 -0.002182 0.009807 0.000000 0.000461 0.000000
# 4 0.000000 0.000000 0.000000 0.069145 0.000000 0.046801
# 5 -0.003572 0.000124 0.000461 0.000000 0.025843 0.000000
# 6 0.000000 0.000000 0.000000 0.046801 0.000000 0.151799
#
#
# Mechanical properties :
#
#
# Convention : Reuss Voigt Hill
#
# Bulk Modulus (GPa) = 37.53135 55.77385 46.65260
# Shear Modulus (GPa) = 14.93566 26.31793 20.62679
#
# Velocity S-wave (km/s) = 2.93906 3.90142 3.45392
# Velocity P-wave (km/s) = 5.76401 7.24925 6.54887
#
# Compressibility (1/GPa) = 0.02664439
#
# Stress axis : x y z
#
# Youngs Moduli (GPa) = 89.33950 31.37509 101.96905
#
# Poissons Ratio (x) = 0.25251 0.29408
# Poissons Ratio (y) = 0.71900 0.22250
# Poissons Ratio (z) = 0.25766 0.06846
#
# Static dielectric constant tensor:
#      x y z
#    x 1.671070 0.000000 -0.014320 
#    y 0.000000 1.611130 0.000000 
#    z -0.014320 0.000000 1.640460 
# 
# From -- ./inp_files/22227.got.cif
#   From: 2010.05.17/outbox.cif.g08.bks.cpg/sg12_12_cif.got.tgz:22227.got - 2010.06.03 13:09:07.
