data_PCOD9204830
_publ_section_title
;
Structure prediction by ZEFSAII (Michael W. Deem and Ramdas Pophale) SiO2 
 PCOD9204830
Probable space group: C 2/M
;
_chemical_formula_sum "Si O2"
_cell_formula_units_Z 40
_cell_length_a 7.401177
_cell_length_b 27.453304
_cell_length_c 10.078818
_cell_angle_alpha 90.000000
_cell_angle_beta 119.654084
_cell_angle_gamma 90.000000
_cell_volume 1779.667734
_symmetry_space_group_name_H-M "C 2/M"
_symmetry_group_IT_number 12
_symmetry_cell_setting 'monoclinic'
loop_
_space_group_symop_operation_xyz
x,y,z
-x,y,-z
-x,-y,-z
x,-y,z
1/2+x,1/2+y,z
1/2-x,1/2+y,-z
1/2-x,1/2-y,-z
1/2+x,1/2-y,z
loop_
_atom_site_type_symbol
_atom_site_label
_atom_site_fract_x
_atom_site_fract_y
_atom_site_fract_z
Si Si1 0.916616 0.395277 0.820767
Si Si2 0.149670 0.905113 0.176768
Si Si3 0.141756 0.698510 0.342637
Si Si4 0.310242 0.695440 0.687635
Si Si5 0.097116 0.500000 0.182099
Si Si6 0.806004 0.500000 0.329060
O O1 0.121126 0.398765 0.802545
O O2 0.807698 0.346472 0.733419
O O3 0.798724 0.447055 0.764061
O O4 0.000000 0.390469 0.000000
O O5 0.084429 0.853509 0.218072
O O6 0.173491 0.950398 0.285958
O O7 0.000000 0.917598 0.000000
O O8 0.300753 0.697375 0.524069
O O9 0.123023 0.749303 0.256844
O O10 0.920860 0.692306 0.335417
O O11 0.910189 0.500000 0.220630
O O12 0.000000 0.500000 0.000000
O O13 0.000000 0.500000 0.500000
#
# Coordination Sequence:
#
# PCOD9204830 Si02
#       6
#     8   8   8   8   4   4
#     4   9  18  32  53  77 102 141 182 214 257 327
#     4  10  21  35  53  82 114 138 171 229 279 317
#     4   9  18  33  51  75 102 140 183 224 260 315
#     4   9  19  33  52  73 106 140 179 220 271 312
#     4   8  16  31  50  79 104 134 169 220 263 309
#     4  10  21  33  60  87 105 142 187 224 268 333
#
# _framework density 22.476108
#
# number of rings (size 3 to 8) (size 9 to 14) (size 15 to 20)
#    0.000    2.800    0.000    0.300    8.400    2.400 
#    0.000    4.000    0.000    0.000    0.000    8.400 
#    0.000    0.000    0.000    0.000    0.000    0.000 
#
# Total GULP energy -111457.272790 kJ/mol
# GULP energy per Si atom -5572.863639 kJ/mol
# Density = 2.242495 g / cm^3
# Si number density = 22.476108 Si / 1000 Ang^3
#
#
#
# Elastic Constant Matrix: (Units=GPa)
#
#
# Indices 1 2 3 4 5 6 
#
# 1 66.3516 3.0925 3.4919 0.0000 -11.5037 0.0000
# 2 3.0925 254.2953 77.5631 0.0000 -7.0426 0.0000
# 3 3.4919 77.5631 50.9384 0.0000 3.8419 0.0000
# 4 0.0000 0.0000 0.0000 40.2991 0.0000 -5.1595
# 5 -11.5037 -7.0426 3.8419 0.0000 25.8078 0.0000
# 6 0.0000 0.0000 0.0000 -5.1595 0.0000 24.0787
#
#
#
# Elastic Compliance Matrix: (Units=1/GPa)
#
#
# Indices 1 2 3 4 5 6 
#
# 1 0.016619 0.001047 -0.003351 0.000000 0.008193 0.000000
# 2 0.001047 0.007777 -0.012247 0.000000 0.004412 0.000000
# 3 -0.003351 -0.012247 0.039316 0.000000 -0.010689 0.000000
# 4 0.000000 0.000000 0.000000 0.025514 0.000000 0.005467
# 5 0.008193 0.004412 -0.010689 0.000000 0.045195 0.000000
# 6 0.000000 0.000000 0.000000 0.005467 0.000000 0.042702
#
#
# Mechanical properties :
#
#
# Convention : Reuss Voigt Hill
#
# Bulk Modulus (GPa) = 28.89383 59.98671 44.44027
# Shear Modulus (GPa) = 22.96067 37.19964 30.08016
#
# Velocity S-wave (km/s) = 3.19965 4.07267 3.66227
# Velocity P-wave (km/s) = 5.15108 6.99018 6.13988
#
# Compressibility (1/GPa) = 0.03460947
#
# Stress axis : x y z
#
# Youngs Moduli (GPa) = 60.17132 128.57745 25.43497
#
# Poissons Ratio (x) = -0.13462 0.08524
# Poissons Ratio (y) = -0.06300 0.31150
# Poissons Ratio (z) = 0.20166 1.57470
#
# Static dielectric constant tensor:
#      x y z
#    x 1.866830 0.000000 0.032490 
#    y 0.000000 1.944950 0.000000 
#    z 0.032490 0.000000 1.792870 
# 
# From -- ./inp_files/52897.got.cif
#   From: 2010.05.17/outbox.cif.g08.bks.cpg/sg12_27_cif.got.tgz:52897.got - 2010.06.03 13:09:07.
