data_PCOD9204782
_publ_section_title
;
Structure prediction by ZEFSAII (Michael W. Deem and Ramdas Pophale) SiO2 
 PCOD9204782
Probable space group: C 2/M
;
_chemical_formula_sum "Si O2"
_cell_formula_units_Z 32
_cell_length_a 13.861864
_cell_length_b 18.903527
_cell_length_c 9.198954
_cell_angle_alpha 90.000000
_cell_angle_beta 31.245454
_cell_angle_gamma 90.000000
_cell_volume 1250.327299
_symmetry_space_group_name_H-M "C 2/M"
_symmetry_group_IT_number 12
_symmetry_cell_setting 'monoclinic'
loop_
_space_group_symop_operation_xyz
x,y,z
-x,y,-z
-x,-y,-z
x,-y,z
1/2+x,1/2+y,z
1/2-x,1/2+y,-z
1/2-x,1/2-y,-z
1/2+x,1/2-y,z
loop_
_atom_site_type_symbol
_atom_site_label
_atom_site_fract_x
_atom_site_fract_y
_atom_site_fract_z
Si Si1 0.033839 0.500000 0.783631
Si Si2 0.589380 0.346727 0.102598
Si Si3 0.120959 0.000000 0.190420
Si Si4 0.681523 0.847793 0.593735
Si Si5 0.785682 0.709102 0.125342
O O1 0.142138 0.428894 0.607817
O O2 0.833990 0.500000 0.966902
O O3 0.000000 0.500000 0.000000
O O4 0.594684 0.430560 0.124024
O O5 0.392091 0.330890 0.282249
O O6 0.634574 0.319386 0.208221
O O7 0.732246 0.293828 0.836168
O O8 0.000000 0.000000 0.500000
O O9 0.704869 0.834017 0.737961
O O10 0.493797 0.806740 0.792524
#
# Coordination Sequence:
#
# PCOD9204782 Si02
#       5
#     4   8   4   8   8
#     4  12  18  32  54  81 108 140 171 222 276 317
#     4  11  21  35  53  83 107 145 176 217 275 316
#     4  12  22  34  56  80 111 140 175 228 278 315
#     4  11  20  35  54  80 113 142 176 222 274 314
#     4  10  21  33  53  78 113 141 176 218 265 329
#
# _framework density 25.593295999999999
#
# number of rings (size 3 to 8) (size 9 to 14) (size 15 to 20)
#    0.000    1.000    5.000    5.250    0.000    0.000 
#    0.000    0.000    0.000    3.000    0.000   17.500 
#    0.000    0.000    0.000    0.000    0.000    0.000 
#
# Total GULP energy -89336.528290 kJ/mol
# GULP energy per Si atom -5583.533018 kJ/mol
# Density = 2.553504 g / cm^3
# Si number density = 25.593296 Si / 1000 Ang^3
#
#
#
# Elastic Constant Matrix: (Units=GPa)
#
#
# Indices 1 2 3 4 5 6 
#
# 1 130.6096 12.1841 25.2823 0.0714 -33.4707 -0.1315
# 2 12.1841 212.7967 18.2791 0.0774 -2.9631 -0.1415
# 3 25.2823 18.2791 88.3688 0.0597 -26.5829 -0.1111
# 4 0.0714 0.0774 0.0597 83.2813 -0.0462 -121.6457
# 5 -33.4707 -2.9631 -26.5829 -0.0462 38.5634 0.0822
# 6 -0.1315 -0.1415 -0.1111 -121.6457 0.0822 236.1797
#
#
#
# Elastic Compliance Matrix: (Units=1/GPa)
#
#
# Indices 1 2 3 4 5 6 
#
# 1 0.009892 -0.000431 -0.000212 0.000000 0.008406 0.000002
# 2 -0.000431 0.004808 -0.001101 -0.000001 -0.000764 0.000002
# 3 -0.000212 -0.001101 0.014539 0.000000 0.009753 0.000003
# 4 0.000000 -0.000001 0.000000 0.048480 0.000005 0.024970
# 5 0.008406 -0.000764 0.009753 0.000005 0.039892 -0.000002
# 6 0.000002 0.000002 0.000003 0.024970 -0.000002 0.017095
#
#
# Mechanical properties :
#
#
# Convention : Reuss Voigt Hill
#
# Bulk Modulus (GPa) = 38.83485 60.36290 49.59887
# Shear Modulus (GPa) = 34.06521 96.67351 65.36936
#
# Velocity S-wave (km/s) = 3.65227 6.15264 5.05935
# Velocity P-wave (km/s) = 5.74389 8.60871 7.31786
#
# Compressibility (1/GPa) = 0.02575007
#
# Stress axis : x y z
#
# Youngs Moduli (GPa) = 101.09277 207.98935 68.78265
#
# Poissons Ratio (x) = 0.08967 0.01459
# Poissons Ratio (y) = 0.04358 0.07572
# Poissons Ratio (z) = 0.02145 0.22897
#
# Static dielectric constant tensor:
#      x y z
#    x 1.995910 -0.000020 0.142570 
#    y -0.000020 2.086280 -0.000010 
#    z 0.142570 -0.000010 2.158200 
# 
# From -- ./inp_files/74192.got.cif
#   From: 2010.05.17/outbox.cif.g08.bks.cpg/sg12_38_cif.got.tgz:74192.got - 2010.06.03 13:09:07.
