data_PCOD9204314
_publ_section_title
;
Structure prediction by ZEFSAII (Michael W. Deem and Ramdas Pophale) SiO2 
 PCOD9204314
Probable space group: C 2/M
;
_chemical_formula_sum "Si O2"
_cell_formula_units_Z 48
_cell_length_a 14.371375
_cell_length_b 17.721894
_cell_length_c 9.829215
_cell_angle_alpha 90.000000
_cell_angle_beta 59.309589
_cell_angle_gamma 90.000000
_cell_volume 2152.753391
_symmetry_space_group_name_H-M "C 2/M"
_symmetry_group_IT_number 12
_symmetry_cell_setting 'monoclinic'
loop_
_space_group_symop_operation_xyz
x,y,z
-x,y,-z
-x,-y,-z
x,-y,z
1/2+x,1/2+y,z
1/2-x,1/2+y,-z
1/2-x,1/2-y,-z
1/2+x,1/2-y,z
loop_
_atom_site_type_symbol
_atom_site_label
_atom_site_fract_x
_atom_site_fract_y
_atom_site_fract_z
Si Si1 0.743303 0.587359 0.519147
Si Si2 0.061606 0.690764 0.134252
Si Si3 0.010218 0.088925 0.642933
Si Si4 0.801888 0.318358 0.711582
Si Si5 0.401775 0.635662 0.976926
Si Si6 0.322367 0.840712 0.206744
O O1 0.753351 0.500000 0.551210
O O2 0.620632 0.617915 0.629068
O O3 0.816974 0.640670 0.557068
O O4 0.766317 0.596809 0.341659
O O5 0.096649 0.685097 0.263716
O O6 0.079779 0.776227 0.070327
O O7 0.938811 0.672156 0.191351
O O8 0.143941 0.644487 0.974490
O O9 0.912806 0.099202 0.820198
O O10 0.000000 0.122633 0.500000
O O11 0.029509 0.000000 0.612386
O O12 0.751069 0.234772 0.731903
O O13 0.710325 0.367427 0.859803
O O14 0.500000 0.608244 0.000000
#
# Coordination Sequence:
#
# PCOD9204314 Si02
#       6
#     8   8   8   8   8   8
#     4  11  24  41  57  85 123 157 196 245 290 348
#     4  10  21  38  62  90 114 149 202 245 291 350
#     4  10  23  38  56  86 122 159 196 232 292 364
#     4  11  22  38  63  91 117 155 195 242 298 349
#     4  11  18  37  60  87 121 149 187 245 296 342
#     4  10  20  41  62  88 120 152 194 246 295 345
#
# _framework density 22.297027
#
# number of rings (size 3 to 8) (size 9 to 14) (size 15 to 20)
#    0.000    1.500    5.000    2.500    4.667    1.667 
#    0.000    4.167    0.000    0.000    0.000    0.000 
#    0.000    0.000    0.000    0.000    0.000    0.000 
#
# Total GULP energy -134025.274159 kJ/mol
# GULP energy per Si atom -5584.386423 kJ/mol
# Density = 2.224628 g / cm^3
# Si number density = 22.297027 Si / 1000 Ang^3
#
#
#
# Elastic Constant Matrix: (Units=GPa)
#
#
# Indices 1 2 3 4 5 6 
#
# 1 73.4902 6.7222 9.6969 0.0000 20.3853 0.0000
# 2 6.7222 18.0628 7.8773 0.0000 6.0574 0.0000
# 3 9.6969 7.8773 92.9021 0.0000 20.6656 0.0000
# 4 0.0000 0.0000 0.0000 15.0407 0.0000 -0.6119
# 5 20.3853 6.0574 20.6656 0.0000 36.7966 0.0000
# 6 0.0000 0.0000 0.0000 -0.6119 0.0000 7.0284
#
#
#
# Elastic Compliance Matrix: (Units=1/GPa)
#
#
# Indices 1 2 3 4 5 6 
#
# 1 0.016274 -0.003351 0.000535 0.000000 -0.008765 0.000000
# 2 -0.003351 0.060145 -0.003383 0.000000 -0.006145 0.000000
# 3 0.000535 -0.003383 0.012499 0.000000 -0.006759 0.000000
# 4 0.000000 0.000000 0.000000 0.066723 0.000000 0.005809
# 5 -0.008765 -0.006145 -0.006759 0.000000 0.036840 0.000000
# 6 0.000000 0.000000 0.000000 0.005809 0.000000 0.142786
#
#
# Mechanical properties :
#
#
# Convention : Reuss Voigt Hill
#
# Bulk Modulus (GPa) = 13.06836 25.89423 19.48129
# Shear Modulus (GPa) = 13.39868 22.45039 17.92453
#
# Velocity S-wave (km/s) = 2.45402 3.17658 2.83839
# Velocity P-wave (km/s) = 3.72872 5.00926 4.41566
#
# Compressibility (1/GPa) = 0.07652068
#
# Stress axis : x y z
#
# Youngs Moduli (GPa) = 61.44607 16.62642 80.00950
#
# Poissons Ratio (x) = 0.05571 -0.04282
# Poissons Ratio (y) = 0.20588 0.27069
# Poissons Ratio (z) = -0.03288 0.05625
#
# Static dielectric constant tensor:
#      x y z
#    x 1.865990 0.000000 0.001500 
#    y 0.000000 1.794520 0.000000 
#    z 0.001500 0.000000 1.865760 
# 
# From -- ./inp_files/63373.got.cif
#   From: 2010.05.17/outbox.cif.g08.bks.cpg/sg12_32_cif.got.tgz:63373.got - 2010.06.03 13:09:07.
