data_PCOD9204961
_publ_section_title
;
Structure prediction by ZEFSAII (Michael W. Deem and Ramdas Pophale) SiO2 
 PCOD9204961
Probable space group: C 2/M
;
_chemical_formula_sum "Si O2"
_cell_formula_units_Z 32
_cell_length_a 9.505849
_cell_length_b 18.811829
_cell_length_c 13.392361
_cell_angle_alpha 90.000000
_cell_angle_beta 152.011229
_cell_angle_gamma 90.000000
_cell_volume 1123.901517
_symmetry_space_group_name_H-M "C 2/M"
_symmetry_group_IT_number 12
_symmetry_cell_setting 'monoclinic'
loop_
_space_group_symop_operation_xyz
x,y,z
-x,y,-z
-x,-y,-z
x,-y,z
1/2+x,1/2+y,z
1/2-x,1/2+y,-z
1/2-x,1/2-y,-z
1/2+x,1/2-y,z
loop_
_atom_site_type_symbol
_atom_site_label
_atom_site_fract_x
_atom_site_fract_y
_atom_site_fract_z
Si Si1 0.160310 0.400176 0.800885
Si Si2 0.580209 0.420526 0.297466
Si Si3 0.300181 0.123353 0.755946
Si Si4 0.287034 0.716833 0.749227
O O1 0.187191 0.314997 0.794111
O O2 0.902048 0.419974 0.558944
O O3 0.031442 0.416330 0.828758
O O4 0.500000 0.426201 0.000000
O O5 0.562638 0.500000 0.244579
O O6 0.319355 0.408511 0.215792
O O7 0.575140 0.351631 0.222007
O O8 0.413893 0.204477 0.838554
O O9 0.000000 0.123580 0.500000
O O10 0.000000 0.729261 0.500000
#
# Coordination Sequence:
#
# PCOD9204961 Si02
#       4
#     8   8   8   8
#     4  10  21  34  53  84 117 145 181 234 288 331
#     4  10  21  38  60  83 110 149 193 231 274 334
#     4   9  18  35  59  83 110 148 192 232 274 332
#     4   9  18  35  59  83 110 148 192 232 274 332
#
# _framework density 28.472245000000001
#
# number of rings (size 3 to 8) (size 9 to 14) (size 15 to 20)
#    0.000    2.500    0.000    1.500    0.000   16.500 
#    0.000    1.250    0.000    1.500    0.000    0.000 
#    0.000    0.000    0.000    0.000    0.000    0.000 
#
# Total GULP energy -89528.831395 kJ/mol
# GULP energy per Si atom -5595.551962 kJ/mol
# Density = 2.840744 g / cm^3
# Si number density = 28.472245 Si / 1000 Ang^3
#
#
#
# Elastic Constant Matrix: (Units=GPa)
#
#
# Indices 1 2 3 4 5 6 
#
# 1 206.6598 45.2682 49.6074 -0.0031 22.5899 0.0010
# 2 45.2682 177.4516 54.0193 -0.0056 18.1108 -0.0006
# 3 49.6074 54.0193 191.4227 0.0429 26.1141 -0.0051
# 4 -0.0031 -0.0056 0.0429 1.7347 0.0048 11.8592
# 5 22.5899 18.1108 26.1141 0.0048 51.8772 0.0018
# 6 0.0010 -0.0006 -0.0051 11.8592 0.0018 -11.5137
#
#
#
# Elastic Compliance Matrix: (Units=1/GPa)
#
#
# Indices 1 2 3 4 5 6 
#
# 1 0.005441 -0.000945 -0.000929 0.000004 -0.001572 0.000004
# 2 -0.000945 0.006421 -0.001415 0.000007 -0.001118 0.000007
# 3 -0.000929 -0.001415 0.006165 -0.000016 -0.002205 -0.000020
# 4 0.000004 0.000007 -0.000016 0.071686 -0.000005 0.073837
# 5 -0.001572 -0.001118 -0.002205 -0.000005 0.021461 -0.000001
# 6 0.000004 0.000007 -0.000020 0.073837 -0.000001 -0.010801
#
#
# Mechanical properties :
#
#
# Convention : Reuss Voigt Hill
#
# Bulk Modulus (GPa) = 87.33720 97.03596 92.18658
# Shear Modulus (GPa) = 45.14032 36.86226 41.00129
#
# Velocity S-wave (km/s) = 3.98605 3.60206 3.79891
# Velocity P-wave (km/s) = 7.20596 7.17319 7.18959
#
# Compressibility (1/GPa) = 0.01144988
#
# Stress axis : x y z
#
# Youngs Moduli (GPa) = 183.80361 155.73634 162.21163
#
# Poissons Ratio (x) = 0.14713 0.15068
# Poissons Ratio (y) = 0.17364 0.22947
# Poissons Ratio (z) = 0.17074 0.22031
#
# Static dielectric constant tensor:
#      x y z
#    x 2.295790 0.000000 -0.047720 
#    y 0.000000 2.074390 -0.000010 
#    z -0.047720 -0.000010 2.335330 
# 
# From -- ./inp_files/198712.got.cif
#   From: 2010.05.17/outbox.cif.g08.bks.cpg/sg12_100_cif.got.tgz:198712.got - 2010.06.03 13:09:07.
