data_PCOD9204685
_publ_section_title
;
Structure prediction by ZEFSAII (Michael W. Deem and Ramdas Pophale) SiO2 
 PCOD9204685
Probable space group: C 2/M
;
_chemical_formula_sum "Si O2"
_cell_formula_units_Z 44
_cell_length_a 5.839683
_cell_length_b 34.130973
_cell_length_c 13.214703
_cell_angle_alpha 90.000000
_cell_angle_beta 119.295803
_cell_angle_gamma 90.000000
_cell_volume 2297.016865
_symmetry_space_group_name_H-M "C 2/M"
_symmetry_group_IT_number 12
_symmetry_cell_setting 'monoclinic'
loop_
_space_group_symop_operation_xyz
x,y,z
-x,y,-z
-x,-y,-z
x,-y,z
1/2+x,1/2+y,z
1/2-x,1/2+y,-z
1/2-x,1/2-y,-z
1/2+x,1/2-y,z
loop_
_atom_site_type_symbol
_atom_site_label
_atom_site_fract_x
_atom_site_fract_y
_atom_site_fract_z
Si Si1 0.510452 0.108171 0.212428
Si Si2 0.823908 0.955482 0.156183
Si Si3 0.687654 0.926900 0.624067
Si Si4 0.988043 0.150373 0.617742
Si Si5 0.374633 0.263980 0.634134
Si Si6 0.500000 0.406732 0.000000
O O1 0.622281 0.073225 0.167599
O O2 0.468977 0.089796 0.313993
O O3 0.726197 0.141809 0.272342
O O4 0.231967 0.118337 0.101689
O O5 0.085016 0.953803 0.281789
O O6 0.895408 0.934979 0.066057
O O7 0.735324 0.000000 0.126470
O O8 0.500000 0.945420 0.500000
O O9 0.823817 0.888843 0.603333
O O10 0.000000 0.156718 0.500000
O O11 0.861665 0.189012 0.637544
O O12 0.250000 0.250000 0.500000
O O13 0.684495 0.252987 0.681813
#
# Coordination Sequence:
#
# PCOD9204685 Si02
#       6
#     8   8   8   8   8   4
#     4  10  22  36  56  84 110 152 191 239 294 347
#     4  10  22  38  57  82 111 144 188 248 300 347
#     4  10  21  34  55  80 114 155 194 227 288 359
#     4  11  20  33  57  80 120 152 190 236 293 349
#     4  10  21  32  51  87 123 159 197 244 293 356
#     4  10  21  40  60  82 108 138 204 240 294 352
#
# _framework density 19.155280000000001
#
# number of rings (size 3 to 8) (size 9 to 14) (size 15 to 20)
#    0.000    1.818    3.636    0.818    5.091    4.727 
#    0.000    0.909    0.000    0.000    0.000    1.273 
#    0.000    0.000    0.000    0.000    0.000    0.000 
#
# Total GULP energy -122720.043051 kJ/mol
# GULP energy per Si atom -5578.183775 kJ/mol
# Density = 1.911168 g / cm^3
# Si number density = 19.155280 Si / 1000 Ang^3
#
#
#
# Elastic Constant Matrix: (Units=GPa)
#
#
# Indices 1 2 3 4 5 6 
#
# 1 74.3039 -5.5011 20.6656 0.0000 -3.8094 0.0000
# 2 -5.5011 58.7143 5.2358 0.0000 12.9146 0.0000
# 3 20.6656 5.2358 123.5721 0.0000 22.8245 0.0000
# 4 0.0000 0.0000 0.0000 8.9940 0.0000 -8.7562
# 5 -3.8094 12.9146 22.8245 0.0000 29.3511 0.0000
# 6 0.0000 0.0000 0.0000 -8.7562 0.0000 -12.8449
#
#
#
# Elastic Compliance Matrix: (Units=1/GPa)
#
#
# Indices 1 2 3 4 5 6 
#
# 1 0.014622 0.000762 -0.003230 0.000000 0.004074 0.000000
# 2 0.000762 0.018974 0.000692 0.000000 -0.008788 0.000000
# 3 -0.003230 0.000692 0.010202 0.000000 -0.008657 0.000000
# 4 0.000000 0.000000 0.000000 0.066831 0.000000 -0.045558
# 5 0.004074 -0.008788 -0.008657 0.000000 0.045198 0.000000
# 6 0.000000 0.000000 0.000000 -0.045558 0.000000 -0.046795
#
#
# Mechanical properties :
#
#
# Convention : Reuss Voigt Hill
#
# Bulk Modulus (GPa) = 24.84747 33.04344 28.94545
# Shear Modulus (GPa) = 39.68231 20.84604 30.26417
#
# Velocity S-wave (km/s) = 4.55643 3.30247 3.97916
# Velocity P-wave (km/s) = 6.37818 5.64176 6.02124
#
# Compressibility (1/GPa) = 0.04024555
#
# Stress axis : x y z
#
# Youngs Moduli (GPa) = 68.39058 52.70295 98.01630
#
# Poissons Ratio (x) = -0.04015 0.31661
# Poissons Ratio (y) = -0.05210 -0.06781
# Poissons Ratio (z) = 0.22091 -0.03646
#
# Static dielectric constant tensor:
#      x y z
#    x 1.739270 0.000000 0.036500 
#    y 0.000000 1.608960 0.000000 
#    z 0.036500 0.000000 1.675470 
# 
# From -- ./inp_files/192473.got.cif
#   From: 2010.05.17/outbox.cif.g08.bks.cpg/sg12_97_cif.got.tgz:192473.got - 2010.06.03 13:09:07.
