data_PCOD9204199
_publ_section_title
;
Structure prediction by ZEFSAII (Michael W. Deem and Ramdas Pophale) SiO2 
 PCOD9204199
Probable space group: C 2/M
;
_chemical_formula_sum "Si O2"
_cell_formula_units_Z 56
_cell_length_a 15.932623
_cell_length_b 23.429550
_cell_length_c 14.129115
_cell_angle_alpha 90.000000
_cell_angle_beta 28.411763
_cell_angle_gamma 90.000000
_cell_volume 2509.545074
_symmetry_space_group_name_H-M "C 2/M"
_symmetry_group_IT_number 12
_symmetry_cell_setting 'monoclinic'
loop_
_space_group_symop_operation_xyz
x,y,z
-x,y,-z
-x,-y,-z
x,-y,z
1/2+x,1/2+y,z
1/2-x,1/2+y,-z
1/2-x,1/2-y,-z
1/2+x,1/2-y,z
loop_
_atom_site_type_symbol
_atom_site_label
_atom_site_fract_x
_atom_site_fract_y
_atom_site_fract_z
Si Si1 0.016685 0.285135 0.743798
Si Si2 0.488871 0.565458 0.689054
Si Si3 0.709965 0.622032 0.772750
Si Si4 0.847156 0.811564 0.780501
Si Si5 0.703500 0.060616 0.134549
Si Si6 0.162054 0.592854 0.551004
Si Si7 0.691416 0.751096 0.761306
O O1 0.112129 0.341004 0.610815
O O2 0.144852 0.263016 0.699355
O O3 0.966576 0.235834 0.717511
O O4 0.834742 0.306678 0.976584
O O5 0.466025 0.500000 0.672475
O O6 0.424523 0.624056 0.702580
O O7 0.690486 0.574065 0.521084
O O8 0.369092 0.567560 0.902497
O O9 0.804734 0.606605 0.775820
O O10 0.763976 0.584968 0.628647
O O11 0.757195 0.687177 0.706710
O O12 0.500000 0.616846 0.000000
O O13 0.805088 0.792386 0.714975
O O14 0.524345 0.062033 0.253399
O O15 0.721200 0.000000 0.167273
O O16 0.500000 0.752238 0.000000
#
# Coordination Sequence:
#
# PCOD9204199 Si02
#       7
#     8   8   8   8   8   8   8
#     4  10  21  38  66 101 127 166 214 264 331 392
#     4  11  24  41  63  89 124 171 218 266 320 381
#     4  11  22  38  58  92 131 166 209 262 321 389
#     4  10  20  40  67  93 134 167 207 270 328 384
#     4  11  24  41  60  87 126 171 217 265 318 381
#     4  12  23  40  65  91 127 166 214 265 322 385
#     4   9  20  36  63  95 128 163 205 262 329 393
#
# _framework density 22.314802
#
# number of rings (size 3 to 8) (size 9 to 14) (size 15 to 20)
#    0.000    1.429    2.857    2.571    4.000    4.286 
#    0.000    2.143    0.000    6.429    0.000    0.000 
#    0.000    0.000    0.000    0.000    0.000    0.000 
#
# Total GULP energy -156466.092508 kJ/mol
# GULP energy per Si atom -5588.074732 kJ/mol
# Density = 2.226401 g / cm^3
# Si number density = 22.314802 Si / 1000 Ang^3
#
#
#
# Elastic Constant Matrix: (Units=GPa)
#
#
# Indices 1 2 3 4 5 6 
#
# 1 109.9396 50.9286 7.2322 0.0265 -17.4663 0.0066
# 2 50.9286 124.6940 10.8978 0.1907 -11.7460 0.0327
# 3 7.2322 10.8978 70.4673 -0.0258 -20.8813 0.0073
# 4 0.0265 0.1907 -0.0258 465.7017 0.0060 29.0613
# 5 -17.4663 -11.7460 -20.8813 0.0060 27.5574 -0.0001
# 6 0.0066 0.0327 0.0073 29.0613 -0.0001 21.2641
#
#
#
# Elastic Compliance Matrix: (Units=1/GPa)
#
#
# Indices 1 2 3 4 5 6 
#
# 1 0.012159 -0.004443 0.001498 0.000001 0.006948 0.000001
# 2 -0.004443 0.009983 -0.000853 -0.000003 0.000793 -0.000009
# 3 0.001498 -0.000853 0.018496 0.000002 0.014601 -0.000008
# 4 0.000001 -0.000003 0.000002 0.002348 0.000000 -0.003208
# 5 0.006948 0.000793 0.014601 0.000000 0.052094 -0.000008
# 6 0.000001 -0.000009 -0.000008 -0.003208 -0.000008 0.051412
#
#
# Mechanical properties :
#
#
# Convention : Reuss Voigt Hill
#
# Bulk Modulus (GPa) = 30.26318 49.24647 39.75483
# Shear Modulus (GPa) = 30.28446 118.64079 74.46262
#
# Velocity S-wave (km/s) = 3.68794 7.29947 5.78287
# Velocity P-wave (km/s) = 5.63258 9.65194 7.90208
#
# Compressibility (1/GPa) = 0.03304346
#
# Stress axis : x y z
#
# Youngs Moduli (GPa) = 82.24198 100.16638 54.06648
#
# Poissons Ratio (x) = 0.44500 -0.08100
# Poissons Ratio (y) = 0.36537 0.04612
# Poissons Ratio (z) = -0.12320 0.08544
#
# Static dielectric constant tensor:
#      x y z
#    x 1.870500 -0.000020 0.010400 
#    y -0.000020 1.862790 0.000020 
#    z 0.010400 0.000020 1.864060 
# 
# From -- ./inp_files/218670.got.cif
#   From: 2010.05.17/outbox.cif.g08.bks.cpg/sg12_110_cif.got.tgz:218670.got - 2010.06.03 13:09:07.
