data_PCOD9204067
_publ_section_title
;
Structure prediction by ZEFSAII (Michael W. Deem and Ramdas Pophale) SiO2 
 PCOD9204067
Probable space group: C 2/M
;
_chemical_formula_sum "Si O2"
_cell_formula_units_Z 40
_cell_length_a 27.133592
_cell_length_b 14.580033
_cell_length_c 7.345194
_cell_angle_alpha 90.000000
_cell_angle_beta 33.237161
_cell_angle_gamma 90.000000
_cell_volume 1592.698168
_symmetry_space_group_name_H-M "C 2/M"
_symmetry_group_IT_number 12
_symmetry_cell_setting 'monoclinic'
loop_
_space_group_symop_operation_xyz
x,y,z
-x,y,-z
-x,-y,-z
x,-y,z
1/2+x,1/2+y,z
1/2-x,1/2+y,-z
1/2-x,1/2-y,-z
1/2+x,1/2-y,z
loop_
_atom_site_type_symbol
_atom_site_label
_atom_site_fract_x
_atom_site_fract_y
_atom_site_fract_z
Si Si1 0.011521 0.000000 0.746202
Si Si2 0.226386 0.500000 0.201860
Si Si3 0.975923 0.500000 0.287402
Si Si4 0.188493 0.000000 0.693528
Si Si5 0.853020 0.168708 0.707337
Si Si6 0.678374 0.301058 0.600906
Si Si7 0.498529 0.798631 0.779125
O O1 0.068210 0.908134 0.544392
O O2 0.000000 0.000000 0.000000
O O3 0.918278 0.000000 0.919818
O O4 0.132809 0.500000 0.385462
O O5 0.233277 0.500000 0.399416
O O6 0.275664 0.598419 0.012736
O O7 0.012501 0.403574 0.248269
O O8 0.000000 0.500000 0.000000
O O9 0.194145 0.091369 0.563545
O O10 0.819625 0.213250 0.620525
O O11 0.912879 0.255377 0.589887
O O12 0.750000 0.250000 0.500000
O O13 0.585175 0.269649 0.979292
O O14 0.500000 0.802348 0.000000
#
# Coordination Sequence:
#
# PCOD9204067 Si02
#       7
#     4   4   4   4   8   8   8
#     4  11  15  36  65  90 122 168 209 276 325 386
#     4  11  27  39  67 104 132 174 209 297 345 383
#     4  10  23  42  63  89 129 174 227 260 325 425
#     4  12  23  38  62 103 130 159 242 270 329 392
#     4  10  20  40  64  91 133 170 214 267 349 387
#     4  11  23  39  69 100 127 176 229 277 317 399
#     4   9  19  38  65  91 123 176 220 261 327 397
#
# _framework density 25.114614
#
# number of rings (size 3 to 8) (size 9 to 14) (size 15 to 20)
#    0.000    1.600    4.000    1.200    8.400    2.400 
#    0.000    0.000    0.000    1.200    0.000    0.000 
#    0.000    0.000    0.000    0.000    0.000    0.000 
#
# Total GULP energy -111498.102686 kJ/mol
# GULP energy per Si atom -5574.905134 kJ/mol
# Density = 2.505745 g / cm^3
# Si number density = 25.114614 Si / 1000 Ang^3
#
#
#
# Elastic Constant Matrix: (Units=GPa)
#
#
# Indices 1 2 3 4 5 6 
#
# 1 53.8009 -1.3935 -6.8132 0.0000 3.5592 0.0000
# 2 -1.3935 189.6928 16.9509 0.0000 -1.8721 0.0000
# 3 -6.8132 16.9509 34.9367 0.0000 -2.3026 0.0000
# 4 0.0000 0.0000 0.0000 26.4530 0.0000 -3.9240
# 5 3.5592 -1.8721 -2.3026 0.0000 28.9224 0.0000
# 6 0.0000 0.0000 0.0000 -3.9240 0.0000 33.5396
#
#
#
# Elastic Compliance Matrix: (Units=1/GPa)
#
#
# Indices 1 2 3 4 5 6 
#
# 1 0.019189 -0.000211 0.003707 0.000000 -0.002080 0.000000
# 2 -0.000211 0.005514 -0.002705 0.000000 0.000167 0.000000
# 3 0.003707 -0.002705 0.030779 0.000000 0.001819 0.000000
# 4 0.000000 0.000000 0.000000 0.038471 0.000000 0.004501
# 5 -0.002080 0.000167 0.001819 0.000000 0.034987 0.000000
# 6 0.000000 0.000000 0.000000 0.004501 0.000000 0.030342
#
#
# Mechanical properties :
#
#
# Convention : Reuss Voigt Hill
#
# Bulk Modulus (GPa) = 17.52439 32.87987 25.20213
# Shear Modulus (GPa) = 28.29354 35.76208 32.02781
#
# Velocity S-wave (km/s) = 3.36009 3.77763 3.57496
# Velocity P-wave (km/s) = 4.69538 5.66989 5.20549
#
# Compressibility (1/GPa) = 0.05706331
#
# Stress axis : x y z
#
# Youngs Moduli (GPa) = 52.11413 181.37240 32.49015
#
# Poissons Ratio (x) = 0.03824 -0.12045
# Poissons Ratio (y) = 0.01099 0.08789
# Poissons Ratio (z) = -0.19320 0.49064
#
# Static dielectric constant tensor:
#      x y z
#    x 2.010580 0.000000 -0.005320 
#    y 0.000000 1.917840 0.000000 
#    z -0.005320 0.000000 2.102710 
# 
# From -- ./inp_files/111877.got.cif
#   From: 2010.05.17/outbox.cif.g08.bks.cpg/sg12_56_cif.got.tgz:111877.got - 2010.06.03 13:09:07.
