data_PCOD9204009
_publ_section_title
;
Structure prediction by ZEFSAII (Michael W. Deem and Ramdas Pophale) SiO2 
 PCOD9204009
Probable space group: C 2/M
;
_chemical_formula_sum "Si O2"
_cell_formula_units_Z 36
_cell_length_a 9.873544
_cell_length_b 14.879348
_cell_length_c 21.575840
_cell_angle_alpha 90.000000
_cell_angle_beta 34.278979
_cell_angle_gamma 90.000000
_cell_volume 1785.274515
_symmetry_space_group_name_H-M "C 2/M"
_symmetry_group_IT_number 12
_symmetry_cell_setting 'monoclinic'
loop_
_space_group_symop_operation_xyz
x,y,z
-x,y,-z
-x,-y,-z
x,-y,z
1/2+x,1/2+y,z
1/2-x,1/2+y,-z
1/2-x,1/2-y,-z
1/2+x,1/2-y,z
loop_
_atom_site_type_symbol
_atom_site_label
_atom_site_fract_x
_atom_site_fract_y
_atom_site_fract_z
Si Si1 0.162541 0.691450 0.209878
Si Si2 0.923995 0.000000 0.851904
Si Si3 0.652121 0.694856 0.095170
Si Si4 0.705701 0.500000 0.612601
Si Si5 0.717258 0.500000 0.867050
Si Si6 0.763128 0.199846 0.429897
O O1 0.365098 0.692217 0.187288
O O2 0.229606 0.753743 0.127038
O O3 0.138521 0.592915 0.188037
O O4 0.926163 0.736208 0.326221
O O5 0.779585 0.908439 0.918492
O O6 0.074872 0.000000 0.730116
O O7 0.104783 0.000000 0.841333
O O8 0.750000 0.750000 0.000000
O O9 0.640090 0.596366 0.606303
O O10 0.000000 0.500000 0.500000
O O11 0.500000 0.500000 0.000000
O O12 0.500000 0.194716 0.500000
O O13 0.750000 0.250000 0.500000
#
# Coordination Sequence:
#
# PCOD9204009 Si02
#       6
#     8   4   8   4   4   8
#     4  11  22  40  63  90 127 165 211 258 313 374
#     4  10  20  40  63  89 127 170 218 246 311 402
#     4  11  22  39  63  91 125 167 211 259 309 372
#     4  10  22  40  67  90 123 175 216 250 317 402
#     4  10  22  38  63  92 128 172 214 251 314 391
#     4  11  24  42  66  96 126 165 215 263 319 381
#
# _framework density 20.164966
#
# number of rings (size 3 to 8) (size 9 to 14) (size 15 to 20)
#    0.000    1.333    2.222    4.667    9.333    0.000 
#    0.000   10.000    0.000    0.000    0.000    0.000 
#    0.000    0.000    0.000    0.000    0.000    0.000 
#
# Total GULP energy -100300.885646 kJ/mol
# GULP energy per Si atom -5572.271425 kJ/mol
# Density = 2.011907 g / cm^3
# Si number density = 20.164966 Si / 1000 Ang^3
#
#
#
# Elastic Constant Matrix: (Units=GPa)
#
#
# Indices 1 2 3 4 5 6 
#
# 1 72.4051 30.9382 9.9851 -0.0002 16.1374 -0.0014
# 2 30.9382 244.5185 66.6818 -0.0001 19.3608 0.0002
# 3 9.9851 66.6818 113.4744 -0.0026 21.6397 -0.0073
# 4 -0.0002 -0.0001 -0.0026 35.7686 -0.0005 0.3801
# 5 16.1374 19.3608 21.6397 -0.0005 44.6852 0.0034
# 6 -0.0014 0.0002 -0.0073 0.3801 0.0034 23.6766
#
#
#
# Elastic Compliance Matrix: (Units=1/GPa)
#
#
# Indices 1 2 3 4 5 6 
#
# 1 0.015625 -0.001740 0.000639 0.000000 -0.005198 0.000002
# 2 -0.001740 0.005090 -0.002795 0.000000 -0.000223 -0.000001
# 3 0.000639 -0.002795 0.011251 0.000001 -0.004468 0.000004
# 4 0.000000 0.000000 0.000001 0.027962 0.000000 -0.000449
# 5 -0.005198 -0.000223 -0.004468 0.000000 0.026517 -0.000005
# 6 0.000002 -0.000001 0.000004 -0.000449 -0.000005 0.042243
#
#
# Mechanical properties :
#
#
# Convention : Reuss Voigt Hill
#
# Bulk Modulus (GPa) = 41.36775 71.73425 56.55100
# Shear Modulus (GPa) = 34.59305 42.34561 38.46933
#
# Velocity S-wave (km/s) = 4.14636 4.58750 4.37250
# Velocity P-wave (km/s) = 6.59411 7.98193 7.32098
#
# Compressibility (1/GPa) = 0.02417342
#
# Stress axis : x y z
#
# Youngs Moduli (GPa) = 64.00007 196.47366 88.88078
#
# Poissons Ratio (x) = 0.34177 -0.05676
# Poissons Ratio (y) = 0.11133 0.24844
# Poissons Ratio (z) = -0.04087 0.54919
#
# Static dielectric constant tensor:
#      x y z
#    x 1.683700 0.000010 -0.105270 
#    y 0.000010 1.704240 -0.000070 
#    z -0.105270 -0.000070 2.036470 
# 
# From -- ./inp_files/129074.got.cif
#   From: 2010.05.17/outbox.cif.g08.bks.cpg/sg12_65_cif.got.tgz:129074.got - 2010.06.03 13:09:07.
