data_PCOD9204410
_publ_section_title
;
Structure prediction by ZEFSAII (Michael W. Deem and Ramdas Pophale) SiO2 
 PCOD9204410
Probable space group: C 2/M
;
_chemical_formula_sum "Si O2"
_cell_formula_units_Z 48
_cell_length_a 9.090212
_cell_length_b 24.822283
_cell_length_c 11.362104
_cell_angle_alpha 90.000000
_cell_angle_beta 113.048215
_cell_angle_gamma 90.000000
_cell_volume 2359.094108
_symmetry_space_group_name_H-M "C 2/M"
_symmetry_group_IT_number 12
_symmetry_cell_setting 'monoclinic'
loop_
_space_group_symop_operation_xyz
x,y,z
-x,y,-z
-x,-y,-z
x,-y,z
1/2+x,1/2+y,z
1/2-x,1/2+y,-z
1/2-x,1/2-y,-z
1/2+x,1/2-y,z
loop_
_atom_site_type_symbol
_atom_site_label
_atom_site_fract_x
_atom_site_fract_y
_atom_site_fract_z
Si Si1 0.151558 0.854910 0.127995
Si Si2 0.598819 0.389805 0.374962
Si Si3 0.500760 0.875850 0.872068
Si Si4 0.690003 0.231642 0.213787
Si Si5 0.261923 0.563653 0.357132
Si Si6 0.958702 0.768537 0.612331
O O1 0.139781 0.884959 0.250289
O O2 0.320415 0.867228 0.119125
O O3 0.146912 0.790274 0.150225
O O4 0.000000 0.869172 0.000000
O O5 0.712827 0.423597 0.496600
O O6 0.419650 0.411798 0.342192
O O7 0.606051 0.328454 0.423676
O O8 0.410698 0.818469 0.862202
O O9 0.393186 0.908224 0.745682
O O10 0.500000 0.903074 0.000000
O O11 0.879041 0.224687 0.260845
O O12 0.656382 0.234024 0.343178
O O13 0.258694 0.500000 0.337910
O O14 0.000000 0.743243 0.500000
#
# Coordination Sequence:
#
# PCOD9204410 Si02
#       6
#     8   8   8   8   8   8
#     4  11  25  41  63  97 132 176 214 252 315 384
#     4  10  20  41  67  94 129 164 208 260 316 382
#     4  12  25  42  65  92 132 170 217 269 314 374
#     4  11  22  36  58  92 131 176 210 251 304 378
#     4  11  23  44  72  97 122 164 215 267 331 382
#     4  11  19  34  56  91 134 168 207 249 307 373
#
# _framework density 20.346793000000002
#
# number of rings (size 3 to 8) (size 9 to 14) (size 15 to 20)
#    0.000    1.000    5.000    3.000    2.333    3.667 
#    0.000    2.500    0.000    3.500    0.000    0.000 
#    0.000    0.000    0.000    0.000    0.000    0.000 
#
# Total GULP energy -134152.770602 kJ/mol
# GULP energy per Si atom -5589.698775 kJ/mol
# Density = 2.030048 g / cm^3
# Si number density = 20.346793 Si / 1000 Ang^3
#
#
#
# Elastic Constant Matrix: (Units=GPa)
#
#
# Indices 1 2 3 4 5 6 
#
# 1 113.3169 18.7628 67.8435 0.0000 18.2807 0.0000
# 2 18.7628 74.5970 36.6024 0.0000 12.4271 0.0000
# 3 67.8435 36.6024 128.2580 0.0000 12.5053 0.0000
# 4 0.0000 0.0000 0.0000 6.6560 0.0000 -4.5890
# 5 18.2807 12.4271 12.5053 0.0000 38.5773 0.0000
# 6 0.0000 0.0000 0.0000 -4.5890 0.0000 10.3840
#
#
#
# Elastic Compliance Matrix: (Units=1/GPa)
#
#
# Indices 1 2 3 4 5 6 
#
# 1 0.013586 0.000737 -0.006966 0.000000 -0.004417 0.000000
# 2 0.000737 0.016156 -0.004604 0.000000 -0.004061 0.000000
# 3 -0.006966 -0.004604 0.012731 0.000000 0.000657 0.000000
# 4 0.000000 0.000000 0.000000 0.216080 0.000000 0.095493
# 5 -0.004417 -0.004061 0.000657 0.000000 0.029110 0.000000
# 6 0.000000 0.000000 0.000000 0.095493 0.000000 0.138504
#
#
# Mechanical properties :
#
#
# Convention : Reuss Voigt Hill
#
# Bulk Modulus (GPa) = 48.06316 62.50993 55.28654
# Shear Modulus (GPa) = 10.99456 23.98766 17.49111
#
# Velocity S-wave (km/s) = 2.32708 3.43730 2.93516
# Velocity P-wave (km/s) = 5.55821 6.82219 6.22238
#
# Compressibility (1/GPa) = 0.02080596
#
# Stress axis : x y z
#
# Youngs Moduli (GPa) = 73.60495 61.89753 78.54566
#
# Poissons Ratio (x) = -0.04560 0.54715
# Poissons Ratio (y) = -0.05422 0.36165
# Poissons Ratio (z) = 0.51273 0.28499
#
# Static dielectric constant tensor:
#      x y z
#    x 1.713740 0.000000 -0.005960 
#    y 0.000000 1.675080 0.000000 
#    z -0.005960 0.000000 1.815270 
# 
# From -- ./inp_files/123899.got.cif
#   From: 2010.05.17/outbox.cif.g08.bks.cpg/sg12_62_cif.got.tgz:123899.got - 2010.06.03 13:09:07.
