data_PCOD9204594
_publ_section_title
;
Structure prediction by ZEFSAII (Michael W. Deem and Ramdas Pophale) SiO2 
 PCOD9204594
Probable space group: C 2/M
;
_chemical_formula_sum "Si O2"
_cell_formula_units_Z 40
_cell_length_a 10.291856
_cell_length_b 9.691631
_cell_length_c 21.630095
_cell_angle_alpha 90.000000
_cell_angle_beta 139.593334
_cell_angle_gamma 90.000000
_cell_volume 1398.504016
_symmetry_space_group_name_H-M "C 2/M"
_symmetry_group_IT_number 12
_symmetry_cell_setting 'monoclinic'
loop_
_space_group_symop_operation_xyz
x,y,z
-x,y,-z
-x,-y,-z
x,-y,z
1/2+x,1/2+y,z
1/2-x,1/2+y,-z
1/2-x,1/2-y,-z
1/2+x,1/2-y,z
loop_
_atom_site_type_symbol
_atom_site_label
_atom_site_fract_x
_atom_site_fract_y
_atom_site_fract_z
Si Si1 0.776652 0.166455 0.065867
Si Si2 0.246251 0.222668 0.241168
Si Si3 0.778516 0.500000 0.833662
Si Si4 0.092581 0.329314 0.465519
Si Si5 0.785821 0.000000 0.453523
Si Si6 0.801505 0.000000 0.968859
Si Si7 0.439772 0.000000 0.228983
O O1 0.680874 0.121249 0.098054
O O2 0.695009 0.320818 0.016487
O O3 0.014372 0.183333 0.168099
O O4 0.758399 0.000000 0.030303
O O5 0.277186 0.379409 0.235504
O O6 0.393341 0.190510 0.350784
O O7 0.319130 0.129469 0.211043
O O8 0.152383 0.500000 0.474651
O O9 0.000000 0.345732 0.500000
O O10 0.212803 0.175100 0.522317
O O11 0.640732 0.000000 0.340471
O O12 0.000000 0.000000 0.500000
O O13 0.588214 0.000000 0.854477
O O14 0.000000 0.000000 0.000000
#
# Coordination Sequence:
#
# PCOD9204594 Si02
#       7
#     8   8   4   8   4   4   4
#     4  11  25  42  72 112 157 204 263 337 402 492
#     4  11  25  48  77 112 157 214 271 345 419 505
#     4  11  27  47  79 117 160 208 277 333 418 489
#     4  11  26  49  79 112 157 216 279 352 428 503
#     4  10  23  48  80 119 159 208 284 361 427 519
#     4  11  19  39  65 102 144 205 251 309 399 490
#     4  10  20  43  80 108 157 219 267 334 427 506
#
# _framework density 28.601991000000002
#
# number of rings (size 3 to 8) (size 9 to 14) (size 15 to 20)
#    0.000    1.200    2.000    2.700    2.800    3.200 
#    3.600    2.500    0.000    0.000    0.000    0.000 
#    0.000    0.000    0.000    0.000    0.000    0.000 
#
# Total GULP energy -111411.133315 kJ/mol
# GULP energy per Si atom -5570.556666 kJ/mol
# Density = 2.853689 g / cm^3
# Si number density = 28.601991 Si / 1000 Ang^3
#
#
#
# Elastic Constant Matrix: (Units=GPa)
#
#
# Indices 1 2 3 4 5 6 
#
# 1 92.8008 59.9758 47.6144 0.0000 7.3828 0.0000
# 2 59.9758 222.8865 -2.6034 0.0000 -9.4001 0.0000
# 3 47.6144 -2.6034 153.4042 0.0000 2.0396 0.0000
# 4 0.0000 0.0000 0.0000 18.2399 0.0000 16.0397
# 5 7.3828 -9.4001 2.0396 0.0000 47.7857 0.0000
# 6 0.0000 0.0000 0.0000 16.0397 0.0000 76.2178
#
#
#
# Elastic Compliance Matrix: (Units=1/GPa)
#
#
# Indices 1 2 3 4 5 6 
#
# 1 0.016774 -0.004714 -0.005243 0.000000 -0.003295 0.000000
# 2 -0.004714 0.005850 0.001538 0.000000 0.001813 0.000000
# 3 -0.005243 0.001538 0.008162 0.000000 0.000764 0.000000
# 4 0.000000 0.000000 0.000000 0.067275 0.000000 -0.014158
# 5 -0.003295 0.001813 0.000764 0.000000 0.021760 0.000000
# 6 0.000000 0.000000 0.000000 -0.014158 0.000000 0.016100
#
#
# Mechanical properties :
#
#
# Convention : Reuss Voigt Hill
#
# Bulk Modulus (GPa) = 71.68931 75.45167 73.57049
# Shear Modulus (GPa) = 31.76485 52.72232 42.24359
#
# Velocity S-wave (km/s) = 3.33615 4.29804 3.84727
# Velocity P-wave (km/s) = 6.32129 7.14618 6.74636
#
# Compressibility (1/GPa) = 0.01394908
#
# Stress axis : x y z
#
# Youngs Moduli (GPa) = 59.61447 170.95476 122.51987
#
# Poissons Ratio (x) = 0.80588 0.64234
# Poissons Ratio (y) = 0.28102 -0.18847
# Poissons Ratio (z) = 0.31254 -0.26298
#
# Static dielectric constant tensor:
#      x y z
#    x 2.581700 0.000000 -0.117500 
#    y 0.000000 2.439950 0.000000 
#    z -0.117500 0.000000 2.735590 
# 
# From -- ./inp_files/375790.got.cif
#   From: 2010.05.17/outbox.cif.g08.bks.cpg/sg12_188_cif.got.tgz:375790.got - 2010.06.03 13:09:07.
