data_PCOD9204455
_publ_section_title
;
Structure prediction by ZEFSAII (Michael W. Deem and Ramdas Pophale) SiO2 
 PCOD9204455
Probable space group: C 2/M
;
_chemical_formula_sum "Si O2"
_cell_formula_units_Z 52
_cell_length_a 16.478175
_cell_length_b 22.343946
_cell_length_c 7.314418
_cell_angle_alpha 90.000000
_cell_angle_beta 124.508449
_cell_angle_gamma 90.000000
_cell_volume 2219.210265
_symmetry_space_group_name_H-M "C 2/M"
_symmetry_group_IT_number 12
_symmetry_cell_setting 'monoclinic'
loop_
_space_group_symop_operation_xyz
x,y,z
-x,y,-z
-x,-y,-z
x,-y,z
1/2+x,1/2+y,z
1/2-x,1/2+y,-z
1/2-x,1/2-y,-z
1/2+x,1/2-y,z
loop_
_atom_site_type_symbol
_atom_site_label
_atom_site_fract_x
_atom_site_fract_y
_atom_site_fract_z
Si Si1 0.394001 0.000000 0.772774
Si Si2 0.614442 0.500000 0.103381
Si Si3 0.895676 0.633245 0.767842
Si Si4 0.679309 0.367725 0.584692
Si Si5 0.314809 0.500000 0.393617
Si Si6 0.398158 0.843651 0.386960
Si Si7 0.361137 0.273925 0.171334
Si Si8 0.175993 0.872349 0.140529
O O1 0.386641 0.065247 0.672616
O O2 0.302113 0.000000 0.795519
O O3 0.500000 0.000000 0.000000
O O4 0.676049 0.500000 0.372033
O O5 0.637750 0.437640 0.038176
O O6 0.500000 0.500000 0.000000
O O7 0.798064 0.639268 0.764447
O O8 0.887864 0.676286 0.585330
O O9 0.000000 0.638345 0.000000
O O10 0.646338 0.434319 0.606920
O O11 0.630931 0.315524 0.639149
O O12 0.667239 0.365144 0.349239
O O13 0.500000 0.880531 0.500000
O O14 0.415428 0.787935 0.274880
O O15 0.289850 0.870433 0.217937
O O16 0.250000 0.250000 0.000000
O O17 0.381109 0.318137 0.029065
#
# Coordination Sequence:
#
# PCOD9204455 Si02
#       8
#     4   4   8   8   4   8   8   8
#     4   8  14  30  51  87 117 150 192 241 299 379
#     4  10  20  41  70  98 122 156 212 270 324 385
#     4   9  18  30  56  82 117 158 201 248 306 369
#     4   9  18  36  60  85 115 158 202 251 322 369
#     4   8  16  33  59  86 118 144 188 263 309 364
#     4  10  22  39  54  85 127 165 203 254 302 367
#     4  10  22  38  59  81 124 164 209 257 295 364
#     4   9  21  41  65  89 124 160 200 264 323 370
#
# _framework density 23.431760000000001
#
# number of rings (size 3 to 8) (size 9 to 14) (size 15 to 20)
#    0.000    2.769    0.000    0.923    4.308    6.154 
#    5.538    1.538    0.000    3.692    0.000    0.000 
#    0.000    0.000    0.000    0.000    0.000    0.000 
#
# Total GULP energy -144880.575452 kJ/mol
# GULP energy per Si atom -5572.329825 kJ/mol
# Density = 2.337843 g / cm^3
# Si number density = 23.431760 Si / 1000 Ang^3
#
#
#
# Elastic Constant Matrix: (Units=GPa)
#
#
# Indices 1 2 3 4 5 6 
#
# 1 61.1101 33.4150 19.6484 0.0000 -0.3178 0.0000
# 2 33.4150 117.0437 24.7765 0.0000 -10.3820 0.0000
# 3 19.6484 24.7765 58.4033 0.0000 -8.4762 0.0000
# 4 0.0000 0.0000 0.0000 -293.2260 0.0000 40.7195
# 5 -0.3178 -10.3820 -8.4762 0.0000 32.7148 0.0000
# 6 0.0000 0.0000 0.0000 40.7195 0.0000 11.3253
#
#
#
# Elastic Compliance Matrix: (Units=1/GPa)
#
#
# Indices 1 2 3 4 5 6 
#
# 1 0.020813 -0.005076 -0.005251 0.000000 -0.002769 0.000000
# 2 -0.005076 0.010755 -0.002459 0.000000 0.002727 0.000000
# 3 -0.005251 -0.002459 0.020585 0.000000 0.004502 0.000000
# 4 0.000000 0.000000 0.000000 -0.002275 0.000000 0.008178
# 5 -0.002769 0.002727 0.004502 0.000000 0.032572 0.000000
# 6 0.000000 0.000000 0.000000 0.008178 0.000000 0.058893
#
#
# Mechanical properties :
#
#
# Convention : Reuss Voigt Hill
#
# Bulk Modulus (GPa) = 37.61917 43.58185 40.60051
# Shear Modulus (GPa) = 28.44497 -39.25604 -5.40553
#
# Velocity S-wave (km/s) = 3.48796 -4.09753 -1.52050
# Velocity P-wave (km/s) = 5.68426 1.93557 3.77918
#
# Compressibility (1/GPa) = 0.02658219
#
# Stress axis : x y z
#
# Youngs Moduli (GPa) = 48.04605 92.97569 48.57793
#
# Poissons Ratio (x) = 0.47196 0.25506
# Poissons Ratio (y) = 0.24389 0.11947
# Poissons Ratio (z) = 0.25227 0.22866
#
# Static dielectric constant tensor:
#      x y z
#    x 1.886680 0.000000 -0.013640 
#    y 0.000000 1.929350 0.000000 
#    z -0.013640 0.000000 1.913680 
# 
# From -- ./inp_files/78140.got.cif
#   From: 2010.05.17/outbox.cif.g08.bks.cpg/sg12_40_cif.got.tgz:78140.got - 2010.06.03 13:09:07.
