data_PCOD9204533
_publ_section_title
;
Structure prediction by ZEFSAII (Michael W. Deem and Ramdas Pophale) SiO2 
 PCOD9204533
Probable space group: C 2/M
;
_chemical_formula_sum "Si O2"
_cell_formula_units_Z 44
_cell_length_a 16.936410
_cell_length_b 12.113909
_cell_length_c 26.915646
_cell_angle_alpha 90.000000
_cell_angle_beta 158.431517
_cell_angle_gamma 90.000000
_cell_volume 2030.025032
_symmetry_space_group_name_H-M "C 2/M"
_symmetry_group_IT_number 12
_symmetry_cell_setting 'monoclinic'
loop_
_space_group_symop_operation_xyz
x,y,z
-x,y,-z
-x,-y,-z
x,-y,z
1/2+x,1/2+y,z
1/2-x,1/2+y,-z
1/2-x,1/2-y,-z
1/2+x,1/2-y,z
loop_
_atom_site_type_symbol
_atom_site_label
_atom_site_fract_x
_atom_site_fract_y
_atom_site_fract_z
Si Si1 0.074141 0.727006 0.486738
Si Si2 0.249466 0.248980 0.059408
Si Si3 0.621505 0.000000 0.125242
Si Si4 0.473748 0.870752 0.706139
Si Si5 0.319008 0.500000 0.104773
Si Si6 0.722380 0.000000 0.601008
Si Si7 0.756825 0.745473 0.790945
O O1 0.235180 0.822202 0.563908
O O2 0.208117 0.612446 0.561498
O O3 0.000000 0.742717 0.500000
O O4 0.862703 0.724757 0.329782
O O5 0.422182 0.162365 0.180154
O O6 0.309896 0.370418 0.116225
O O7 0.250000 0.250000 0.000000
O O8 0.008069 0.223565 0.936040
O O9 0.749119 0.113303 0.204177
O O10 0.500000 0.000000 0.000000
O O11 0.435772 0.000000 0.059473
O O12 0.628268 0.809308 0.757842
O O13 0.476125 0.000000 0.699272
O O14 0.574921 0.500000 0.242998
O O15 0.500000 0.000000 0.500000
#
# Coordination Sequence:
#
# PCOD9204533 Si02
#       7
#     8   8   4   8   4   4   8
#     4  11  25  47  71 102 140 182 235 288 349 417
#     4  11  24  44  71  99 136 182 235 289 345 413
#     4  10  22  42  73  97 126 181 235 287 331 403
#     4  12  27  46  67 102 145 184 224 288 360 421
#     4  10  20  42  66  98 125 173 237 283 332 401
#     4  10  22  40  72  97 133 177 228 282 339 405
#     4  11  25  44  70 102 138 180 233 287 349 414
#
# _framework density 21.674610000000001
#
# number of rings (size 3 to 8) (size 9 to 14) (size 15 to 20)
#    0.000    1.091    1.818    4.364    6.364    1.818 
#    3.273    0.000    0.000    0.000    0.000    0.000 
#    0.000    0.000    0.000    0.000    0.000    0.000 
#
# Total GULP energy -122656.696021 kJ/mol
# GULP energy per Si atom -5575.304365 kJ/mol
# Density = 2.162528 g / cm^3
# Si number density = 21.674610 Si / 1000 Ang^3
#
#
#
# Elastic Constant Matrix: (Units=GPa)
#
#
# Indices 1 2 3 4 5 6 
#
# 1 56.0117 0.1086 8.2884 0.0015 -1.4167 0.0020
# 2 0.1086 138.8275 11.3855 0.0064 20.2483 0.0000
# 3 8.2884 11.3855 100.2038 0.0120 16.5127 -0.0056
# 4 0.0015 0.0064 0.0120 36.2478 -0.0060 9.8128
# 5 -1.4167 20.2483 16.5127 -0.0060 38.9777 0.0002
# 6 0.0020 0.0000 -0.0056 9.8128 0.0002 10.0309
#
#
#
# Elastic Compliance Matrix: (Units=1/GPa)
#
#
# Indices 1 2 3 4 5 6 
#
# 1 0.018146 -0.000082 -0.001728 0.000002 0.001434 -0.000006
# 2 -0.000082 0.007799 -0.000227 -0.000003 -0.003958 0.000003
# 3 -0.001728 -0.000227 0.010900 -0.000008 -0.004563 0.000015
# 4 0.000002 -0.000003 -0.000008 0.037526 0.000011 -0.036710
# 5 0.001434 -0.003958 -0.004563 0.000011 0.029697 -0.000014
# 6 -0.000006 0.000003 0.000015 -0.036710 -0.000014 0.135605
#
#
# Mechanical properties :
#
#
# Convention : Reuss Voigt Hill
#
# Bulk Modulus (GPa) = 30.51419 37.17866 33.84642
# Shear Modulus (GPa) = 19.63326 35.40197 27.51762
#
# Velocity S-wave (km/s) = 3.01295 4.04584 3.56698
# Velocity P-wave (km/s) = 5.11983 6.24624 5.71087
#
# Compressibility (1/GPa) = 0.03277164
#
# Stress axis : x y z
#
# Youngs Moduli (GPa) = 55.10997 128.21820 91.74073
#
# Poissons Ratio (x) = 0.01047 0.15852
# Poissons Ratio (y) = 0.00450 0.02084
# Poissons Ratio (z) = 0.09523 0.02912
#
# Static dielectric constant tensor:
#      x y z
#    x 1.898140 0.000000 -0.019300 
#    y 0.000000 1.803610 0.000000 
#    z -0.019300 0.000000 1.757960 
# 
# From -- ./inp_files/379162.got.cif
#   From: 2010.05.17/outbox.cif.g08.bks.cpg/sg12_190_cif.got.tgz:379162.got - 2010.06.03 13:09:07.
