data_PCOD9204706
_publ_section_title
;
Structure prediction by ZEFSAII (Michael W. Deem and Ramdas Pophale) SiO2 
 PCOD9204706
Probable space group: C 2/M
;
_chemical_formula_sum "Si O2"
_cell_formula_units_Z 36
_cell_length_a 5.579882
_cell_length_b 28.795659
_cell_length_c 12.275482
_cell_angle_alpha 90.000000
_cell_angle_beta 126.130284
_cell_angle_gamma 90.000000
_cell_volume 1593.048622
_symmetry_space_group_name_H-M "C 2/M"
_symmetry_group_IT_number 12
_symmetry_cell_setting 'monoclinic'
loop_
_space_group_symop_operation_xyz
x,y,z
-x,y,-z
-x,-y,-z
x,-y,z
1/2+x,1/2+y,z
1/2-x,1/2+y,-z
1/2-x,1/2-y,-z
1/2+x,1/2-y,z
loop_
_atom_site_type_symbol
_atom_site_label
_atom_site_fract_x
_atom_site_fract_y
_atom_site_fract_z
Si Si1 0.392204 0.871593 0.264707
Si Si2 0.294609 0.776033 0.337628
Si Si3 0.000000 0.097993 0.500000
Si Si4 0.143255 0.552641 0.918034
Si Si5 0.183033 0.950487 0.352837
O O1 0.257062 0.821539 0.251938
O O2 0.438632 0.898133 0.163177
O O3 0.191255 0.909023 0.272629
O O4 0.708142 0.871172 0.413913
O O5 0.500000 0.784998 0.500000
O O6 0.487089 0.741724 0.310211
O O7 0.032555 0.063106 0.608948
O O8 0.051957 0.500000 0.851881
O O9 0.500000 0.552034 0.000000
O O10 0.000000 0.554712 0.000000
O O11 0.500000 0.951859 0.500000
O O12 0.125552 0.000000 0.287027
#
# Coordination Sequence:
#
# PCOD9204706 Si02
#       5
#     8   8   4   8   8
#     4  11  23  38  63  89 126 166 219 264 323 385
#     4  10  23  39  62  92 132 169 210 261 326 395
#     4  10  21  32  56  92 128 162 202 258 323 392
#     4  10  24  45  67  93 126 172 222 265 315 379
#     4   9  18  31  48  81 122 156 190 240 309 381
#
# _framework density 22.598179999999999
#
# number of rings (size 3 to 8) (size 9 to 14) (size 15 to 20)
#    0.000    2.000    0.000    3.000   10.889    2.667 
#    0.000    0.000    0.000    4.000    0.000    0.000 
#    0.000    0.000    0.000    0.000    0.000    0.000 
#
# Total GULP energy -100264.740542 kJ/mol
# GULP energy per Si atom -5570.263363 kJ/mol
# Density = 2.254675 g / cm^3
# Si number density = 22.598180 Si / 1000 Ang^3
#
#
#
# Elastic Constant Matrix: (Units=GPa)
#
#
# Indices 1 2 3 4 5 6 
#
# 1 116.2855 35.7875 35.6801 0.0000 -21.1006 0.0000
# 2 35.7875 129.1805 36.7579 0.0000 -24.2139 0.0000
# 3 35.6801 36.7579 48.9770 0.0000 -22.8178 0.0000
# 4 0.0000 0.0000 0.0000 31.8716 0.0000 1.0980
# 5 -21.1006 -24.2139 -22.8178 0.0000 49.0055 0.0000
# 6 0.0000 0.0000 0.0000 1.0980 0.0000 50.5608
#
#
#
# Elastic Compliance Matrix: (Units=1/GPa)
#
#
# Indices 1 2 3 4 5 6 
#
# 1 0.011223 -0.000916 -0.006958 0.000000 0.001140 0.000000
# 2 -0.000916 0.010046 -0.006058 0.000000 0.001749 0.000000
# 3 -0.006958 -0.006058 0.034789 0.000000 0.010209 0.000000
# 4 0.000000 0.000000 0.000000 0.031399 0.000000 -0.000682
# 5 0.001140 0.001749 0.010209 0.000000 0.026515 0.000000
# 6 0.000000 0.000000 0.000000 -0.000682 0.000000 0.019793
#
#
# Mechanical properties :
#
#
# Convention : Reuss Voigt Hill
#
# Bulk Modulus (GPa) = 35.46556 56.76599 46.11577
# Shear Modulus (GPa) = 29.23506 38.70208 33.96857
#
# Velocity S-wave (km/s) = 3.60069 4.14287 3.88126
# Velocity P-wave (km/s) = 5.74584 6.93244 6.36685
#
# Compressibility (1/GPa) = 0.02819637
#
# Stress axis : x y z
#
# Youngs Moduli (GPa) = 89.10227 99.53798 28.74431
#
# Poissons Ratio (x) = 0.09114 0.19999
# Poissons Ratio (y) = 0.08159 0.17414
# Poissons Ratio (z) = 0.61993 0.60301
#
# Static dielectric constant tensor:
#      x y z
#    x 1.942050 0.000000 0.076000 
#    y 0.000000 1.837350 0.000000 
#    z 0.076000 0.000000 2.020420 
# 
# From -- ./inp_files/115370.got.cif
#   From: 2010.05.17/outbox.cif.g08.bks.cpg/sg12_58_cif.got.tgz:115370.got - 2010.06.03 13:09:07.
