data_PCOD9204306
_publ_section_title
;
Structure prediction by ZEFSAII (Michael W. Deem and Ramdas Pophale) SiO2 
 PCOD9204306
Probable space group: C 2/M
;
_chemical_formula_sum "Si O2"
_cell_formula_units_Z 48
_cell_length_a 10.377615
_cell_length_b 18.105601
_cell_length_c 11.675335
_cell_angle_alpha 90.000000
_cell_angle_beta 96.174117
_cell_angle_gamma 90.000000
_cell_volume 2180.988908
_symmetry_space_group_name_H-M "C 2/M"
_symmetry_group_IT_number 12
_symmetry_cell_setting 'monoclinic'
loop_
_space_group_symop_operation_xyz
x,y,z
-x,y,-z
-x,-y,-z
x,-y,z
1/2+x,1/2+y,z
1/2-x,1/2+y,-z
1/2-x,1/2-y,-z
1/2+x,1/2-y,z
loop_
_atom_site_type_symbol
_atom_site_label
_atom_site_fract_x
_atom_site_fract_y
_atom_site_fract_z
Si Si1 0.140796 0.851069 0.051267
Si Si2 0.875998 0.675669 0.912921
Si Si3 0.191745 0.083250 0.528510
Si Si4 0.631459 0.737610 0.575766
Si Si5 0.218960 0.374359 0.706515
Si Si6 0.568192 0.919797 0.295403
O O1 0.125288 0.764334 0.082726
O O2 0.204127 0.886643 0.169614
O O3 0.244912 0.853153 0.958998
O O4 0.000000 0.879018 0.000000
O O5 0.894987 0.644448 0.788565
O O6 0.000000 0.651167 0.000000
O O7 0.122131 0.149368 0.590769
O O8 0.196119 0.102522 0.394758
O O9 0.340609 0.086374 0.585718
O O10 0.145050 0.000000 0.544788
O O11 0.500000 0.762529 0.500000
O O12 0.750000 0.750000 0.500000
O O13 0.670882 0.788747 0.685930
O O14 0.082770 0.416214 0.691781
O O15 0.597497 0.000000 0.244650
#
# Coordination Sequence:
#
# PCOD9204306 Si02
#       6
#     8   8   8   8   8   8
#     4  10  22  39  64  91 125 162 206 264 318 363
#     4  10  20  41  61  92 123 161 210 262 311 367
#     4  10  22  40  59  92 131 166 203 253 322 378
#     4  10  21  38  62  93 123 160 204 255 305 368
#     4  11  20  38  64  96 123 162 212 263 309 371
#     4  11  22  38  65  94 127 165 209 262 311 372
#
# _framework density 22.008364
#
# number of rings (size 3 to 8) (size 9 to 14) (size 15 to 20)
#    0.000    1.667    1.667    4.000    0.000    3.333 
#    6.000    0.000    0.000    3.500    0.000    0.000 
#    0.000    0.000    0.000    0.000    0.000    0.000 
#
# Total GULP energy -134121.761864 kJ/mol
# GULP energy per Si atom -5588.406744 kJ/mol
# Density = 2.195827 g / cm^3
# Si number density = 22.008364 Si / 1000 Ang^3
#
#
#
# Elastic Constant Matrix: (Units=GPa)
#
#
# Indices 1 2 3 4 5 6 
#
# 1 105.4825 -1.3504 15.5934 0.0000 29.1053 0.0000
# 2 -1.3504 85.4496 -5.8875 0.0000 -7.0866 0.0000
# 3 15.5934 -5.8875 68.5164 0.0000 20.0866 0.0000
# 4 0.0000 0.0000 0.0000 14.8645 0.0000 3.0694
# 5 29.1053 -7.0866 20.0866 0.0000 40.0354 0.0000
# 6 0.0000 0.0000 0.0000 3.0694 0.0000 10.8802
#
#
#
# Elastic Compliance Matrix: (Units=1/GPa)
#
#
# Indices 1 2 3 4 5 6 
#
# 1 0.011886 -0.000543 -0.000223 0.000000 -0.008625 0.000000
# 2 -0.000543 0.011915 0.000485 0.000000 0.002261 0.000000
# 3 -0.000223 0.000485 0.017135 0.000000 -0.008349 0.000000
# 4 0.000000 0.000000 0.000000 0.071436 0.000000 -0.020152
# 5 -0.008625 0.002261 -0.008349 0.000000 0.035837 0.000000
# 6 0.000000 0.000000 0.000000 -0.020152 0.000000 0.097595
#
#
# Mechanical properties :
#
#
# Convention : Reuss Voigt Hill
#
# Bulk Modulus (GPa) = 24.76856 30.68439 27.72647
# Shear Modulus (GPa) = 19.24372 29.89555 24.56964
#
# Velocity S-wave (km/s) = 2.96020 3.68961 3.34485
# Velocity P-wave (km/s) = 4.79190 5.66775 5.24813
#
# Compressibility (1/GPa) = 0.04037376
#
# Stress axis : x y z
#
# Youngs Moduli (GPa) = 84.13099 83.92721 58.35970
#
# Poissons Ratio (x) = 0.04556 0.01302
# Poissons Ratio (y) = 0.04567 -0.02829
# Poissons Ratio (z) = 0.01877 -0.04068
#
# Static dielectric constant tensor:
#      x y z
#    x 1.794900 0.000000 0.030390 
#    y 0.000000 1.898150 0.000000 
#    z 0.030390 0.000000 1.787210 
# 
# From -- ./inp_files/131754.got.cif
#   From: 2010.05.17/outbox.cif.g08.bks.cpg/sg12_66_cif.got.tgz:131754.got - 2010.06.03 13:09:07.
