data_PCOD9204391
_publ_section_title
;
Structure prediction by ZEFSAII (Michael W. Deem and Ramdas Pophale) SiO2 
 PCOD9204391
Probable space group: C 2/M
;
_chemical_formula_sum "Si O2"
_cell_formula_units_Z 42
_cell_length_a 14.605768
_cell_length_b 25.391972
_cell_length_c 9.590553
_cell_angle_alpha 90.000000
_cell_angle_beta 151.083931
_cell_angle_gamma 90.000000
_cell_volume 1719.831945
_symmetry_space_group_name_H-M "C 2/M"
_symmetry_group_IT_number 12
_symmetry_cell_setting 'monoclinic'
loop_
_space_group_symop_operation_xyz
x,y,z
-x,y,-z
-x,-y,-z
x,-y,z
1/2+x,1/2+y,z
1/2-x,1/2+y,-z
1/2-x,1/2-y,-z
1/2+x,1/2-y,z
loop_
_atom_site_type_symbol
_atom_site_label
_atom_site_fract_x
_atom_site_fract_y
_atom_site_fract_z
Si Si1 0.155033 0.274977 0.504765
Si Si2 0.643638 0.587566 0.846963
Si Si3 0.695856 0.118800 0.668461
Si Si4 0.524042 0.060704 0.188479
Si Si5 0.244134 0.202889 0.880075
Si Si6 0.500000 0.500000 0.500000
O O1 0.250000 0.250000 0.500000
O O2 0.260681 0.321940 0.725386
O O3 0.157750 0.227978 0.623976
O O4 0.972028 0.304878 0.192716
O O5 0.651375 0.648257 0.806210
O O6 0.478486 0.547784 0.587668
O O7 0.669441 0.589030 0.046188
O O8 0.824591 0.561754 0.008387
O O9 0.500000 0.123236 0.500000
O O10 0.662576 0.090348 0.478527
O O11 0.579301 0.000000 0.247145
O O12 0.500000 0.083306 0.000000
O O13 0.250000 0.250000 0.000000
#
# Coordination Sequence:
#
# PCOD9204391 Si02
#       6
#     8   8   8   8   8   2
#     4  12  25  40  66 105 145 178 237 285 365 428
#     4  11  24  42  69  91 141 175 246 287 347 421
#     4  10  20  41  66  95 129 182 229 277 342 428
#     4  10  21  38  67  96 124 166 223 283 344 408
#     4  12  24  44  68  99 139 195 228 294 354 434
#     4  12  28  44  64 114 122 192 244 312 346 410
#
# _framework density 24.420991000000001
#
# number of rings (size 3 to 8) (size 9 to 14) (size 15 to 20)
#    0.000    0.952    6.667    1.143    6.667    1.143 
#    0.000    0.000    0.000    1.143    0.000    0.000 
#    0.000    0.000    0.000    0.000    0.000    0.000 
#
# Total GULP energy -116973.269151 kJ/mol
# GULP energy per Si atom -5570.155674 kJ/mol
# Density = 2.436541 g / cm^3
# Si number density = 24.420991 Si / 1000 Ang^3
#
#
#
# Elastic Constant Matrix: (Units=GPa)
#
#
# Indices 1 2 3 4 5 6 
#
# 1 78.8162 35.3932 40.4864 0.0000 -53.0040 0.0000
# 2 35.3932 190.3132 70.0492 0.0000 -40.8804 0.0000
# 3 40.4864 70.0492 136.2230 0.0000 -50.7651 0.0000
# 4 0.0000 0.0000 0.0000 59.8026 0.0000 -11.5097
# 5 -53.0040 -40.8804 -50.7651 0.0000 56.1997 0.0000
# 6 0.0000 0.0000 0.0000 -11.5097 0.0000 31.5842
#
#
#
# Elastic Compliance Matrix: (Units=1/GPa)
#
#
# Indices 1 2 3 4 5 6 
#
# 1 0.035436 0.000108 0.002859 0.000000 0.036082 0.000000
# 2 0.000108 0.006737 -0.002461 0.000000 0.002780 0.000000
# 3 0.002859 -0.002461 0.012202 0.000000 0.011928 0.000000
# 4 0.000000 0.000000 0.000000 0.017983 0.000000 0.006553
# 5 0.036082 0.002780 0.011928 0.000000 0.064621 0.000000
# 6 0.000000 0.000000 0.000000 0.006553 0.000000 0.034050
#
#
# Mechanical properties :
#
#
# Convention : Reuss Voigt Hill
#
# Bulk Modulus (GPa) = 18.05450 77.46777 47.76113
# Shear Modulus (GPa) = 26.52838 46.81219 36.67029
#
# Velocity S-wave (km/s) = 3.29947 4.38297 3.87924
# Velocity P-wave (km/s) = 4.68235 7.57658 6.29798
#
# Compressibility (1/GPa) = 0.05538785
#
# Stress axis : x y z
#
# Youngs Moduli (GPa) = 28.22016 148.42884 81.95581
#
# Poissons Ratio (x) = -0.01606 -0.23431
# Poissons Ratio (y) = -0.00305 0.20165
# Poissons Ratio (z) = -0.08068 0.36521
#
# Static dielectric constant tensor:
#      x y z
#    x 1.990360 0.000000 0.143740 
#    y 0.000000 2.103780 0.000000 
#    z 0.143740 0.000000 2.187740 
# 
# From -- ./inp_files/67196.got.cif
#   From: 2010.05.17/outbox.cif.g08.bks.cpg/sg12_34_cif.got.tgz:67196.got - 2010.06.03 13:09:07.
