data_PCOD9204328
_publ_section_title
;
Structure prediction by ZEFSAII (Michael W. Deem and Ramdas Pophale) SiO2 
 PCOD9204328
Probable space group: C 2/M
;
_chemical_formula_sum "Si O2"
_cell_formula_units_Z 36
_cell_length_a 15.249050
_cell_length_b 12.312865
_cell_length_c 23.636062
_cell_angle_alpha 90.000000
_cell_angle_beta 22.252574
_cell_angle_gamma 90.000000
_cell_volume 1680.587346
_symmetry_space_group_name_H-M "C 2/M"
_symmetry_group_IT_number 12
_symmetry_cell_setting 'monoclinic'
loop_
_space_group_symop_operation_xyz
x,y,z
-x,y,-z
-x,-y,-z
x,-y,z
1/2+x,1/2+y,z
1/2-x,1/2+y,-z
1/2-x,1/2-y,-z
1/2+x,1/2-y,z
loop_
_atom_site_type_symbol
_atom_site_label
_atom_site_fract_x
_atom_site_fract_y
_atom_site_fract_z
Si Si1 0.866042 0.754605 0.869703
Si Si2 0.253681 0.621756 0.678740
Si Si3 0.133313 0.878435 0.628481
Si Si4 0.386462 0.794055 0.691878
Si Si5 0.500000 0.683965 0.000000
O O1 0.658076 0.749638 0.949392
O O2 0.044100 0.652839 0.761870
O O3 0.028253 0.853961 0.753213
O O4 0.750000 0.750000 0.000000
O O5 0.500000 0.623976 0.500000
O O6 0.218880 0.500000 0.722279
O O7 0.265350 0.715518 0.718626
O O8 0.408260 0.860239 0.460264
O O9 0.014906 0.789615 0.658222
O O10 0.076875 0.000000 0.643826
O O11 0.198042 0.863574 0.839926
#
# Coordination Sequence:
#
# PCOD9204328 Si02
#       5
#     8   8   8   8   4
#     4  11  22  41  63  92 134 162 209 267 318 379
#     4  11  22  39  65  91 120 167 218 263 319 379
#     4  10  22  40  65  93 125 171 216 260 324 385
#     4  10  20  41  63  91 128 163 212 274 313 376
#     4  10  22  40  66  88 126 172 198 262 328 370
#
# _framework density 21.421082999999999
#
# number of rings (size 3 to 8) (size 9 to 14) (size 15 to 20)
#    0.000    1.556    4.444    0.667    0.000    0.889 
#    0.000    7.222    0.000    0.000    0.000    0.000 
#    0.000    0.000    0.000    0.000    0.000    0.000 
#
# Total GULP energy -100245.566225 kJ/mol
# GULP energy per Si atom -5569.198124 kJ/mol
# Density = 2.137233 g / cm^3
# Si number density = 21.421083 Si / 1000 Ang^3
#
#
#
# Elastic Constant Matrix: (Units=GPa)
#
#
# Indices 1 2 3 4 5 6 
#
# 1 80.0549 13.4464 38.8086 -0.0289 -1.8256 0.0125
# 2 13.4464 62.3407 26.2997 -0.0158 0.4149 0.0071
# 3 38.8086 26.2997 177.0182 0.1740 0.7509 -0.0075
# 4 -0.0289 -0.0158 0.1740 -14.7387 0.0216 -7.4276
# 5 -1.8256 0.4149 0.7509 0.0216 32.3898 0.0030
# 6 0.0125 0.0071 -0.0075 -7.4276 0.0030 4.2142
#
#
#
# Elastic Compliance Matrix: (Units=1/GPa)
#
#
# Indices 1 2 3 4 5 6 
#
# 1 0.014203 -0.001871 -0.002839 -0.000019 0.000890 -0.000078
# 2 -0.001871 0.017361 -0.002168 -0.000014 -0.000278 -0.000053
# 3 -0.002839 -0.002168 0.006595 0.000039 -0.000285 0.000092
# 4 -0.000019 -0.000014 0.000039 -0.035932 0.000028 -0.063331
# 5 0.000890 -0.000278 -0.000285 0.000028 0.030934 0.000025
# 6 -0.000078 -0.000053 0.000092 -0.063331 0.000025 0.125672
#
#
# Mechanical properties :
#
#
# Convention : Reuss Voigt Hill
#
# Bulk Modulus (GPa) = 40.98197 52.94702 46.96450
# Shear Modulus (GPa) = 27.66662 20.43033 24.04847
#
# Velocity S-wave (km/s) = 3.59773 3.09163 3.35424
# Velocity P-wave (km/s) = 6.03584 6.12496 6.08056
#
# Compressibility (1/GPa) = 0.02440097
#
# Stress axis : x y z
#
# Youngs Moduli (GPa) = 70.40985 57.60055 151.63251
#
# Poissons Ratio (x) = 0.10780 0.43055
# Poissons Ratio (y) = 0.13177 0.32872
# Poissons Ratio (z) = 0.19992 0.12487
#
# Static dielectric constant tensor:
#      x y z
#    x 1.893760 -0.000030 0.034580 
#    y -0.000030 1.732660 0.000020 
#    z 0.034580 0.000020 1.844850 
# 
# From -- ./inp_files/363565.got.cif
#   From: 2010.05.17/outbox.cif.g08.bks.cpg/sg12_182_cif.got.tgz:363565.got - 2010.06.03 13:09:07.
