data_PCOD9204896
_publ_section_title
;
Structure prediction by ZEFSAII (Michael W. Deem and Ramdas Pophale) SiO2 
 PCOD9204896
Probable space group: C 2/M
;
_chemical_formula_sum "Si O2"
_cell_formula_units_Z 56
_cell_length_a 25.671721
_cell_length_b 8.901720
_cell_length_c 16.438142
_cell_angle_alpha 90.000000
_cell_angle_beta 55.880636
_cell_angle_gamma 90.000000
_cell_volume 3109.884157
_symmetry_space_group_name_H-M "C 2/M"
_symmetry_group_IT_number 12
_symmetry_cell_setting 'monoclinic'
loop_
_space_group_symop_operation_xyz
x,y,z
-x,y,-z
-x,-y,-z
x,-y,z
1/2+x,1/2+y,z
1/2-x,1/2+y,-z
1/2-x,1/2-y,-z
1/2+x,1/2-y,z
loop_
_atom_site_type_symbol
_atom_site_label
_atom_site_fract_x
_atom_site_fract_y
_atom_site_fract_z
Si Si1 0.748788 0.679575 0.371952
Si Si2 0.531323 0.820672 0.058572
Si Si3 0.149867 0.320302 0.582729
Si Si4 0.619444 0.679741 0.210878
Si Si5 0.275834 0.820960 0.780013
Si Si6 0.016643 0.819862 0.733506
Si Si7 0.159423 0.180141 0.994299
O O1 0.742129 0.500000 0.374559
O O2 0.812818 0.713755 0.365738
O O3 0.692360 0.749412 0.474597
O O4 0.746270 0.747399 0.284554
O O5 0.496779 0.740746 0.164038
O O6 0.528694 0.000000 0.072600
O O7 0.500000 0.783778 0.000000
O O8 0.602938 0.764133 0.998437
O O9 0.147650 0.500000 0.575591
O O10 0.080493 0.252212 0.645265
O O11 0.623965 0.500000 0.217459
O O12 0.656861 0.760458 0.249486
O O13 0.545992 0.719019 0.263577
O O14 0.652447 0.719018 0.095554
O O15 0.225169 0.782795 0.894687
O O16 0.277518 0.000000 0.769501
O O17 0.021571 0.000000 0.730953
O O18 0.149504 0.000000 0.996913
#
# Coordination Sequence:
#
# PCOD9204896 Si02
#       7
#     8   8   8   8   8   8   8
#     4  10  22  39  59  84 114 147 183 227 280 334
#     4  10  21  34  50  78 113 146 188 233 272 323
#     4  10  21  39  62  86 113 143 183 230 280 334
#     4   9  19  37  56  79 112 150 190 228 273 332
#     4  11  22  35  56  85 114 146 189 235 279 327
#     4  10  21  37  59  82 110 149 186 224 280 338
#     4   9  20  36  53  78 111 150 190 227 278 333
#
# _framework density 18.007100999999999
#
# number of rings (size 3 to 8) (size 9 to 14) (size 15 to 20)
#    0.000    2.143    0.000    3.429    2.000    6.857 
#    0.000    0.714    0.000    4.286    0.000    0.000 
#    0.000    0.000    0.000    0.000    0.000    0.000 
#
# Total GULP energy -156336.730563 kJ/mol
# GULP energy per Si atom -5583.454663 kJ/mol
# Density = 1.796612 g / cm^3
# Si number density = 18.007101 Si / 1000 Ang^3
#
#
#
# Elastic Constant Matrix: (Units=GPa)
#
#
# Indices 1 2 3 4 5 6 
#
# 1 84.9310 40.8492 45.8852 0.0000 -8.7603 0.0000
# 2 40.8492 39.9923 26.7028 0.0000 -5.4505 0.0000
# 3 45.8852 26.7028 51.0362 0.0000 -14.9231 0.0000
# 4 0.0000 0.0000 0.0000 30.3444 0.0000 1.8654
# 5 -8.7603 -5.4505 -14.9231 0.0000 26.8412 0.0000
# 6 0.0000 0.0000 0.0000 1.8654 0.0000 29.8817
#
#
#
# Elastic Compliance Matrix: (Units=1/GPa)
#
#
# Indices 1 2 3 4 5 6 
#
# 1 0.030925 -0.019621 -0.018809 0.000000 -0.004349 0.000000
# 2 -0.019621 0.051249 -0.009556 0.000000 -0.001310 0.000000
# 3 -0.018809 -0.009556 0.046741 0.000000 0.017907 0.000000
# 4 0.000000 0.000000 0.000000 0.033082 0.000000 -0.002065
# 5 -0.004349 -0.001310 0.017907 0.000000 0.045527 0.000000
# 6 0.000000 0.000000 0.000000 -0.002065 0.000000 0.033594
#
#
# Mechanical properties :
#
#
# Convention : Reuss Voigt Hill
#
# Bulk Modulus (GPa) = 30.35710 44.75933 37.55822
# Shear Modulus (GPa) = 14.36491 21.58161 17.97326
#
# Velocity S-wave (km/s) = 2.82749 3.46570 3.16273
# Velocity P-wave (km/s) = 5.24924 6.39728 5.85149
#
# Compressibility (1/GPa) = 0.03294122
#
# Stress axis : x y z
#
# Youngs Moduli (GPa) = 32.33637 19.51275 21.39467
#
# Poissons Ratio (x) = 0.38287 0.40242
# Poissons Ratio (y) = 0.63449 0.20444
# Poissons Ratio (z) = 0.60822 0.18646
#
# Static dielectric constant tensor:
#      x y z
#    x 1.606010 0.000000 -0.005290 
#    y 0.000000 1.596180 0.000000 
#    z -0.005290 0.000000 1.598070 
# 
# From -- ./inp_files/238381.got.cif
#   From: 2010.05.17/outbox.cif.g08.bks.cpg/sg12_120_cif.got.tgz:238381.got - 2010.06.03 13:09:07.
