data_PCOD9204730
_publ_section_title
;
Structure prediction by ZEFSAII (Michael W. Deem and Ramdas Pophale) SiO2 
 PCOD9204730
Probable space group: C 2/M
;
_chemical_formula_sum "Si O2"
_cell_formula_units_Z 64
_cell_length_a 5.197982
_cell_length_b 32.055623
_cell_length_c 16.624893
_cell_angle_alpha 90.000000
_cell_angle_beta 94.014950
_cell_angle_gamma 90.000000
_cell_volume 2763.316962
_symmetry_space_group_name_H-M "C 2/M"
_symmetry_group_IT_number 12
_symmetry_cell_setting 'monoclinic'
loop_
_space_group_symop_operation_xyz
x,y,z
-x,y,-z
-x,-y,-z
x,-y,z
1/2+x,1/2+y,z
1/2-x,1/2+y,-z
1/2-x,1/2-y,-z
1/2+x,1/2-y,z
loop_
_atom_site_type_symbol
_atom_site_label
_atom_site_fract_x
_atom_site_fract_y
_atom_site_fract_z
Si Si1 0.581126 0.047175 0.754394
Si Si2 0.759784 0.320990 0.046547
Si Si3 0.108305 0.227202 0.187456
Si Si4 0.896877 0.863230 0.371405
Si Si5 0.885397 0.773446 0.618657
Si Si6 0.409096 0.403412 0.204084
Si Si7 0.904772 0.413542 0.412898
Si Si8 0.255681 0.588646 0.023993
O O1 0.295296 0.061462 0.772345
O O2 0.590772 0.053322 0.658472
O O3 0.803271 0.077912 0.792423
O O4 0.632874 0.000000 0.779388
O O5 0.726926 0.310733 0.139465
O O6 0.500000 0.304335 0.000000
O O7 0.763833 0.370637 0.033503
O O8 0.000000 0.304536 0.000000
O O9 0.307968 0.263719 0.164736
O O10 0.126758 0.224900 0.283797
O O11 0.897711 0.868447 0.273664
O O12 0.613948 0.877316 0.394155
O O13 0.992720 0.817949 0.400354
O O14 0.117687 0.894663 0.407676
O O15 0.593307 0.760579 0.592494
O O16 0.302545 0.393338 0.113696
O O17 0.000000 0.430139 0.500000
O O18 0.500000 0.563554 0.000000
O O19 0.000000 0.563905 0.000000
#
# Coordination Sequence:
#
# PCOD9204730 Si02
#       8
#     8   8   8   8   8   8   8   8
#     4  10  21  39  65  96 124 158 190 227 290 357
#     4  10  21  33  47  70  97 141 185 238 296 354
#     4  10  21  35  49  70 103 144 184 237 309 363
#     4  10  21  37  63  88 117 167 201 246 294 351
#     4  10  21  37  56  82 113 155 204 258 302 349
#     4  10  21  38  61  88 120 157 206 249 290 351
#     4  10  21  39  63  98 129 155 188 229 290 358
#     4  10  21  36  54  80 109 148 198 260 297 336
#
# _framework density 23.16057
#
# number of rings (size 3 to 8) (size 9 to 14) (size 15 to 20)
#    0.000    2.000    0.000    3.000    3.500    1.750 
#    9.000    0.000    0.000   19.500    0.000    0.000 
#    0.000    0.000    0.000    0.000    0.000    0.000 
#
# Total GULP energy -178685.689848 kJ/mol
# GULP energy per Si atom -5583.927808 kJ/mol
# Density = 2.310786 g / cm^3
# Si number density = 23.160570 Si / 1000 Ang^3
#
#
#
# Elastic Constant Matrix: (Units=GPa)
#
#
# Indices 1 2 3 4 5 6 
#
# 1 142.9372 -6.9584 24.5429 0.0000 -2.8343 0.0000
# 2 -6.9584 45.7246 2.0923 0.0000 -7.3065 0.0000
# 3 24.5429 2.0923 95.1487 0.0000 16.4607 0.0000
# 4 0.0000 0.0000 0.0000 -1.3328 0.0000 -0.4718
# 5 -2.8343 -7.3065 16.4607 0.0000 26.7068 0.0000
# 6 0.0000 0.0000 0.0000 -0.4718 0.0000 11.9004
#
#
#
# Elastic Compliance Matrix: (Units=1/GPa)
#
#
# Indices 1 2 3 4 5 6 
#
# 1 0.007559 0.001710 -0.002470 0.000000 0.002793 0.000000
# 2 0.001710 0.023527 -0.002354 0.000000 0.008069 0.000000
# 3 -0.002470 -0.002354 0.012711 0.000000 -0.008741 0.000000
# 4 0.000000 0.000000 0.000000 -0.739917 0.000000 -0.029334
# 5 0.002793 0.008069 -0.008741 0.000000 0.045335 0.000000
# 6 0.000000 0.000000 0.000000 -0.029334 0.000000 0.082868
#
#
# Mechanical properties :
#
#
# Convention : Reuss Voigt Hill
#
# Bulk Modulus (GPa) = 26.61915 35.90712 31.26314
# Shear Modulus (GPa) = -9.10474 25.06380 7.97953
#
# Velocity S-wave (km/s) = -1.98486 3.29321 1.85817
# Velocity P-wave (km/s) = 2.50307 5.47700 4.25810
#
# Compressibility (1/GPa) = 0.03756693
#
# Stress axis : x y z
#
# Youngs Moduli (GPa) = 132.29502 42.50364 78.67195
#
# Poissons Ratio (x) = -0.07266 0.19436
# Poissons Ratio (y) = -0.22617 0.18522
# Poissons Ratio (z) = 0.32683 0.10007
#
# Static dielectric constant tensor:
#      x y z
#    x 1.961240 0.000000 -0.031540 
#    y 0.000000 1.845040 0.000000 
#    z -0.031540 0.000000 1.920000 
# 
# From -- ./inp_files/254019.got.cif
#   From: 2010.05.17/outbox.cif.g08.bks.cpg/sg12_128_cif.got.tgz:254019.got - 2010.06.03 13:09:07.
