data_PCOD9204528
_publ_section_title
;
Structure prediction by ZEFSAII (Michael W. Deem and Ramdas Pophale) SiO2 
 PCOD9204528
Probable space group: C 2/M
;
_chemical_formula_sum "Si O2"
_cell_formula_units_Z 40
_cell_length_a 25.264558
_cell_length_b 13.745014
_cell_length_c 5.528147
_cell_angle_alpha 90.000000
_cell_angle_beta 70.576411
_cell_angle_gamma 90.000000
_cell_volume 1810.454821
_symmetry_space_group_name_H-M "C 2/M"
_symmetry_group_IT_number 12
_symmetry_cell_setting 'monoclinic'
loop_
_space_group_symop_operation_xyz
x,y,z
-x,y,-z
-x,-y,-z
x,-y,z
1/2+x,1/2+y,z
1/2-x,1/2+y,-z
1/2-x,1/2-y,-z
1/2+x,1/2-y,z
loop_
_atom_site_type_symbol
_atom_site_label
_atom_site_fract_x
_atom_site_fract_y
_atom_site_fract_z
Si Si1 0.734341 0.670320 0.827900
Si Si2 0.533206 0.310347 0.206026
Si Si3 0.562279 0.891573 0.015735
Si Si4 0.865041 0.896411 0.742513
Si Si5 0.157453 0.286376 0.563512
O O1 0.794762 0.643755 0.625954
O O2 0.694065 0.724479 0.699072
O O3 0.750000 0.750000 0.000000
O O4 0.694710 0.599196 0.034434
O O5 0.500000 0.337331 0.500000
O O6 0.587610 0.378046 0.127451
O O7 0.500000 0.316382 0.000000
O O8 0.554200 0.198572 0.208956
O O9 0.607951 0.849094 0.757574
O O10 0.578373 0.000000 0.078911
O O11 0.500000 0.900436 0.000000
O O12 0.865152 0.799683 0.576403
O O13 0.875320 0.000000 0.600199
#
# Coordination Sequence:
#
# PCOD9204528 Si02
#       5
#     8   8   8   8   8
#     4   9  20  39  66  89 126 172 218 279 338 398
#     4  11  24  44  67  96 141 185 226 287 346 404
#     4  10  21  40  68  99 128 171 223 277 346 412
#     4  11  23  39  65  98 132 179 231 278 341 414
#     4  10  20  42  66  92 134 172 221 283 340 408
#
# _framework density 22.093896000000001
#
# number of rings (size 3 to 8) (size 9 to 14) (size 15 to 20)
#    0.000    1.800    2.000    2.400    0.000    2.800 
#    0.000   11.000    0.000    0.600    0.000    0.000 
#    0.000    0.000    0.000    0.000    0.000    0.000 
#
# Total GULP energy -111414.711937 kJ/mol
# GULP energy per Si atom -5570.735597 kJ/mol
# Density = 2.204361 g / cm^3
# Si number density = 22.093896 Si / 1000 Ang^3
#
#
#
# Elastic Constant Matrix: (Units=GPa)
#
#
# Indices 1 2 3 4 5 6 
#
# 1 123.5574 47.7276 50.8486 0.0000 -6.4451 0.0000
# 2 47.7276 86.3161 -5.4183 0.0000 3.8742 0.0000
# 3 50.8486 -5.4183 62.2992 0.0000 -8.5887 0.0000
# 4 0.0000 0.0000 0.0000 10.3788 0.0000 2.6783
# 5 -6.4451 3.8742 -8.5887 0.0000 54.2745 0.0000
# 6 0.0000 0.0000 0.0000 2.6783 0.0000 -4.9609
#
#
#
# Elastic Compliance Matrix: (Units=1/GPa)
#
#
# Indices 1 2 3 4 5 6 
#
# 1 0.019865 -0.012086 -0.017196 0.000000 0.000500 0.000000
# 2 -0.012086 0.019027 0.011383 0.000000 -0.000992 0.000000
# 3 -0.017196 0.011383 0.031367 0.000000 0.002109 0.000000
# 4 0.000000 0.000000 0.000000 0.084568 0.000000 0.045657
# 5 0.000500 -0.000992 0.002109 0.000000 0.018889 0.000000
# 6 0.000000 0.000000 0.000000 0.045657 0.000000 -0.176925
#
#
# Mechanical properties :
#
#
# Convention : Reuss Voigt Hill
#
# Bulk Modulus (GPa) = 29.01815 50.94318 39.98067
# Shear Modulus (GPa) = 113.43982 23.87279 68.65631
#
# Velocity S-wave (km/s) = 7.17328 3.29069 5.58052
# Velocity P-wave (km/s) = 9.04270 6.12746 7.72386
#
# Compressibility (1/GPa) = 0.03446119
#
# Stress axis : x y z
#
# Youngs Moduli (GPa) = 50.34046 52.55655 31.88015
#
# Poissons Ratio (x) = 0.63519 0.54820
# Poissons Ratio (y) = 0.60841 -0.36288
# Poissons Ratio (z) = 0.86564 -0.59823
#
# Static dielectric constant tensor:
#      x y z
#    x 0.616660 0.000000 -0.296770 
#    y 0.000000 1.786000 0.000000 
#    z -0.296770 0.000000 1.829640 
# 
# From -- ./inp_files/24201.got.cif
#   From: 2010.05.17/outbox.cif.g08.bks.cpg/sg12_13_cif.got.tgz:24201.got - 2010.06.03 13:09:07.
