data_PCOD9204712
_publ_section_title
;
Structure prediction by ZEFSAII (Michael W. Deem and Ramdas Pophale) SiO2 
 PCOD9204712
Probable space group: C 2/M
;
_chemical_formula_sum "Si O2"
_cell_formula_units_Z 34
_cell_length_a 8.786721
_cell_length_b 18.562673
_cell_length_c 7.631124
_cell_angle_alpha 90.000000
_cell_angle_beta 88.160439
_cell_angle_gamma 90.000000
_cell_volume 1244.033236
_symmetry_space_group_name_H-M "C 2/M"
_symmetry_group_IT_number 12
_symmetry_cell_setting 'monoclinic'
loop_
_space_group_symop_operation_xyz
x,y,z
-x,y,-z
-x,-y,-z
x,-y,z
1/2+x,1/2+y,z
1/2-x,1/2+y,-z
1/2-x,1/2-y,-z
1/2+x,1/2-y,z
loop_
_atom_site_type_symbol
_atom_site_label
_atom_site_fract_x
_atom_site_fract_y
_atom_site_fract_z
Si Si1 0.847964 0.000000 0.619019
Si Si2 0.859667 0.500000 0.865005
Si Si3 0.298544 0.846575 0.892417
Si Si4 0.000000 0.000000 0.000000
Si Si5 0.268919 0.853424 0.314452
Si Si6 0.482791 0.729512 0.271188
O O1 0.738236 0.068569 0.603222
O O2 0.000000 0.000000 0.500000
O O3 0.922428 0.000000 0.808972
O O4 0.868714 0.417244 0.797010
O O5 0.677608 0.500000 0.914191
O O6 0.000000 0.500000 0.000000
O O7 0.405050 0.778287 0.852878
O O8 0.134658 0.823088 0.824503
O O9 0.286847 0.860451 0.101461
O O10 0.383969 0.791425 0.367921
O O11 0.102744 0.821627 0.359046
#
# Coordination Sequence:
#
# PCOD9204712 Si02
#       6
#     4   4   8   2   8   8
#     4  12  28  46  72 104 138 186 246 296 358 434
#     4  12  24  36  64 108 140 184 248 288 350 432
#     4  11  19  33  54  98 140 178 226 292 346 424
#     4  12  24  48  76 104 144 188 232 298 372 416
#     4  11  19  37  59  94 136 182 225 289 348 419
#     4  10  21  32  59  99 143 173 230 286 350 425
#
# _framework density 27.330459999999999
#
# number of rings (size 3 to 8) (size 9 to 14) (size 15 to 20)
#    0.000    0.941    2.353    8.471    0.000    0.000 
#    0.000    1.176    0.000    0.706    0.000    0.000 
#    0.000    0.000    0.000    0.000    0.000    0.000 
#
# Total GULP energy -94918.285968 kJ/mol
# GULP energy per Si atom -5583.428586 kJ/mol
# Density = 2.726826 g / cm^3
# Si number density = 27.330460 Si / 1000 Ang^3
#
#
#
# Elastic Constant Matrix: (Units=GPa)
#
#
# Indices 1 2 3 4 5 6 
#
# 1 148.9967 25.7255 -0.8465 0.0000 20.0989 0.0000
# 2 25.7255 239.2406 13.6659 0.0000 2.8797 0.0000
# 3 -0.8465 13.6659 73.5245 0.0000 2.7129 0.0000
# 4 0.0000 0.0000 0.0000 5.3088 0.0000 -11.1344
# 5 20.0989 2.8797 2.7129 0.0000 45.3628 0.0000
# 6 0.0000 0.0000 0.0000 -11.1344 0.0000 27.0950
#
#
#
# Elastic Compliance Matrix: (Units=1/GPa)
#
#
# Indices 1 2 3 4 5 6 
#
# 1 0.007276 -0.000764 0.000344 0.000000 -0.003196 0.000000
# 2 -0.000764 0.004307 -0.000814 0.000000 0.000114 0.000000
# 3 0.000344 -0.000814 0.013790 0.000000 -0.000925 0.000000
# 4 0.000000 0.000000 0.000000 1.363784 0.000000 0.560431
# 5 -0.003196 0.000114 -0.000925 0.000000 0.023509 0.000000
# 6 0.000000 0.000000 0.000000 0.560431 0.000000 0.267210
#
#
# Mechanical properties :
#
#
# Convention : Reuss Voigt Hill
#
# Bulk Modulus (GPa) = 43.65511 59.87236 51.76374
# Shear Modulus (GPa) = 2.95862 43.76779 23.36320
#
# Velocity S-wave (km/s) = 1.04158 4.00613 2.92694
# Velocity P-wave (km/s) = 4.17783 6.58431 5.51395
#
# Compressibility (1/GPa) = 0.02290682
#
# Stress axis : x y z
#
# Youngs Moduli (GPa) = 137.42893 232.17446 72.51513
#
# Poissons Ratio (x) = 0.17729 -0.02492
# Poissons Ratio (y) = 0.10494 0.05899
# Poissons Ratio (z) = -0.04723 0.18888
#
# Static dielectric constant tensor:
#      x y z
#    x 2.076570 0.000000 -0.041830 
#    y 0.000000 2.206680 0.000000 
#    z -0.041830 0.000000 2.246610 
# 
# From -- ./inp_files/38056.got.cif
#   From: 2010.05.17/outbox.cif.g08.bks.cpg/sg12_20_cif.got.tgz:38056.got - 2010.06.03 13:09:07.
