data_PCOD9204816
_publ_section_title
;
Structure prediction by ZEFSAII (Michael W. Deem and Ramdas Pophale) SiO2 
 PCOD9204816
Probable space group: C 2/M
;
_chemical_formula_sum "Si O2"
_cell_formula_units_Z 56
_cell_length_a 15.020715
_cell_length_b 17.466881
_cell_length_c 12.402786
_cell_angle_alpha 90.000000
_cell_angle_beta 65.401715
_cell_angle_gamma 90.000000
_cell_volume 2958.747091
_symmetry_space_group_name_H-M "C 2/M"
_symmetry_group_IT_number 12
_symmetry_cell_setting 'monoclinic'
loop_
_space_group_symop_operation_xyz
x,y,z
-x,y,-z
-x,-y,-z
x,-y,z
1/2+x,1/2+y,z
1/2-x,1/2+y,-z
1/2-x,1/2-y,-z
1/2+x,1/2-y,z
loop_
_atom_site_type_symbol
_atom_site_label
_atom_site_fract_x
_atom_site_fract_y
_atom_site_fract_z
Si Si1 0.238599 0.086618 0.897594
Si Si2 0.720532 0.803554 0.417320
Si Si3 0.096428 0.301397 0.277414
Si Si4 0.878861 0.000000 0.679950
Si Si5 0.612156 0.384025 0.757949
Si Si6 0.886329 0.000000 0.432734
Si Si7 0.114157 0.137284 0.160296
Si Si8 0.064817 0.413247 0.576249
O O1 0.327918 0.135774 0.806262
O O2 0.158733 0.082298 0.842194
O O3 0.268968 0.000000 0.909098
O O4 0.189489 0.126261 0.025124
O O5 0.750000 0.750000 0.500000
O O6 0.634415 0.778531 0.378275
O O7 0.819783 0.810424 0.296966
O O8 0.670784 0.881154 0.489752
O O9 0.104465 0.223659 0.206892
O O10 0.992614 0.345762 0.331337
O O11 0.856578 0.923651 0.760833
O O12 0.841237 0.000000 0.575269
O O13 0.996485 0.000000 0.612252
O O14 0.633182 0.429282 0.636464
O O15 0.495874 0.381377 0.824863
O O16 0.068426 0.500000 0.620477
O O17 0.000000 0.419498 0.500000
#
# Coordination Sequence:
#
# PCOD9204816 Si02
#       8
#     8   8   8   4   8   4   8   8
#     4  11  21  37  58  83 110 142 189 236 277 325
#     4  10  21  34  51  82 113 146 180 226 279 332
#     4  10  22  36  55  79 109 149 185 233 275 322
#     4   9  20  33  51  79 110 151 183 214 265 345
#     4  10  21  33  57  81 112 140 178 231 282 326
#     4   9  18  33  49  79 109 143 172 218 273 333
#     4  11  21  37  55  82 114 148 188 222 279 337
#     4   9  18  35  56  78 106 145 188 226 272 326
#
# _framework density 18.926931
#
# number of rings (size 3 to 8) (size 9 to 14) (size 15 to 20)
#    0.000    2.000    1.429    2.143    3.000    2.286 
#    5.143    0.000    0.000    0.000    0.000    0.000 
#    0.000   10.286    0.000    0.000    0.000    0.000 
#
# Total GULP energy -155890.449562 kJ/mol
# GULP energy per Si atom -5567.516056 kJ/mol
# Density = 1.888385 g / cm^3
# Si number density = 18.926931 Si / 1000 Ang^3
#
#
#
# Elastic Constant Matrix: (Units=GPa)
#
#
# Indices 1 2 3 4 5 6 
#
# 1 37.3323 6.6375 14.6975 0.0000 -7.1546 0.0000
# 2 6.6375 94.3872 18.5913 0.0000 4.7345 0.0000
# 3 14.6975 18.5913 80.3496 0.0000 5.6760 0.0000
# 4 0.0000 0.0000 0.0000 31.2945 0.0000 -0.2253
# 5 -7.1546 4.7345 5.6760 0.0000 27.2680 0.0000
# 6 0.0000 0.0000 0.0000 -0.2253 0.0000 8.5390
#
#
#
# Elastic Compliance Matrix: (Units=1/GPa)
#
#
# Indices 1 2 3 4 5 6 
#
# 1 0.031308 -0.001495 -0.006069 0.000000 0.009737 0.000000
# 2 -0.001495 0.011226 -0.002191 0.000000 -0.001885 0.000000
# 3 -0.006069 -0.002191 0.014359 0.000000 -0.004201 0.000000
# 4 0.000000 0.000000 0.000000 0.031961 0.000000 0.000843
# 5 0.009737 -0.001885 -0.004201 0.000000 0.040430 0.000000
# 6 0.000000 0.000000 0.000000 0.000843 0.000000 0.117132
#
#
# Mechanical properties :
#
#
# Convention : Reuss Voigt Hill
#
# Bulk Modulus (GPa) = 26.74929 32.43575 29.59252
# Shear Modulus (GPa) = 17.96070 24.89648 21.42859
#
# Velocity S-wave (km/s) = 3.08384 3.63078 3.36843
# Velocity P-wave (km/s) = 5.18109 5.89502 5.54955
#
# Compressibility (1/GPa) = 0.03738417
#
# Stress axis : x y z
#
# Youngs Moduli (GPa) = 31.94116 89.08007 69.64085
#
# Poissons Ratio (x) = 0.13315 0.42264
# Poissons Ratio (y) = 0.04774 0.15257
# Poissons Ratio (z) = 0.19384 0.19516
#
# Static dielectric constant tensor:
#      x y z
#    x 1.664190 0.000000 -0.002500 
#    y 0.000000 1.705040 0.000000 
#    z -0.002500 0.000000 1.659330 
# 
# From -- ./inp_files/146067.got.cif
#   From: 2010.05.17/outbox.cif.g08.bks.cpg/sg12_74_cif.got.tgz:146067.got - 2010.06.03 13:09:07.
