data_PCOD9204283
_publ_section_title
;
Structure prediction by ZEFSAII (Michael W. Deem and Ramdas Pophale) SiO2 
 PCOD9204283
Probable space group: C 2/M
;
_chemical_formula_sum "Si O2"
_cell_formula_units_Z 20
_cell_length_a 4.980597
_cell_length_b 19.595525
_cell_length_c 9.139283
_cell_angle_alpha 90.000000
_cell_angle_beta 115.406434
_cell_angle_gamma 90.000000
_cell_volume 805.705354
_symmetry_space_group_name_H-M "C 2/M"
_symmetry_group_IT_number 12
_symmetry_cell_setting 'monoclinic'
loop_
_space_group_symop_operation_xyz
x,y,z
-x,y,-z
-x,-y,-z
x,-y,z
1/2+x,1/2+y,z
1/2-x,1/2+y,-z
1/2-x,1/2-y,-z
1/2+x,1/2-y,z
loop_
_atom_site_type_symbol
_atom_site_label
_atom_site_fract_x
_atom_site_fract_y
_atom_site_fract_z
Si Si1 0.722979 0.187746 0.374389
Si Si2 0.843665 0.000000 0.118682
Si Si3 0.543361 0.352069 0.184415
O O1 0.750000 0.250000 0.500000
O O2 0.394138 0.157097 0.299055
O O3 0.000000 0.142965 0.500000
O O4 0.826604 0.197623 0.228757
O O5 0.937168 0.072220 0.206046
O O6 0.500000 0.000000 0.000000
O O7 0.000000 0.000000 0.000000
O O8 0.500000 0.343853 0.000000
#
# Coordination Sequence:
#
# PCOD9204283 Si02
#       3
#     8   4   8
#     4  12  25  46  67  96 147 195 233 297 361 412
#     4  10  20  40  71 110 143 172 228 306 360 414
#     4  11  23  44  74 105 136 185 243 295 353 429
#
# _framework density 24.822973000000001
#
# number of rings (size 3 to 8) (size 9 to 14) (size 15 to 20)
#    0.000    0.800    0.000   10.800    0.000    0.000 
#    0.000   26.000    0.000    0.000    0.000    0.000 
#    0.000    0.000    0.000   17.600    0.000    0.000 
#
# Total GULP energy -55740.135355 kJ/mol
# GULP energy per Si atom -5574.013535 kJ/mol
# Density = 2.476647 g / cm^3
# Si number density = 24.822973 Si / 1000 Ang^3
#
#
#
# Elastic Constant Matrix: (Units=GPa)
#
#
# Indices 1 2 3 4 5 6 
#
# 1 286.8648 64.1372 96.9586 0.0000 28.2752 0.0000
# 2 64.1372 136.9129 76.0154 0.0000 16.6478 0.0000
# 3 96.9586 76.0154 162.0173 0.0000 14.1149 0.0000
# 4 0.0000 0.0000 0.0000 42.7336 0.0000 -0.4346
# 5 28.2752 16.6478 14.1149 0.0000 80.5630 0.0000
# 6 0.0000 0.0000 0.0000 -0.4346 0.0000 35.9344
#
#
#
# Elastic Compliance Matrix: (Units=1/GPa)
#
#
# Indices 1 2 3 4 5 6 
#
# 1 0.004519 -0.000730 -0.002272 0.000000 -0.001037 0.000000
# 2 -0.000730 0.010120 -0.004216 0.000000 -0.001096 0.000000
# 3 -0.002272 -0.004216 0.009510 0.000000 0.000002 0.000000
# 4 0.000000 0.000000 0.000000 0.023404 0.000000 0.000283
# 5 -0.001037 -0.001096 0.000002 0.000000 0.013003 0.000000
# 6 0.000000 0.000000 0.000000 0.000283 0.000000 0.027832
#
#
# Mechanical properties :
#
#
# Convention : Reuss Voigt Hill
#
# Bulk Modulus (GPa) = 102.94466 117.77971 110.36218
# Shear Modulus (GPa) = 47.14349 55.09179 51.11764
#
# Velocity S-wave (km/s) = 4.36270 4.71615 4.54286
# Velocity P-wave (km/s) = 8.18163 8.78675 8.48958
#
# Compressibility (1/GPa) = 0.00971396
#
# Stress axis : x y z
#
# Youngs Moduli (GPa) = 221.27884 98.81747 105.15778
#
# Poissons Ratio (x) = 0.07209 0.23890
# Poissons Ratio (y) = 0.16143 0.44333
# Poissons Ratio (z) = 0.50271 0.41660
#
# Static dielectric constant tensor:
#      x y z
#    x 2.208030 0.000000 -0.020980 
#    y 0.000000 2.368220 0.000000 
#    z -0.020980 0.000000 2.049350 
# 
# From -- ./inp_files/33361.got.cif
#   From: 2010.05.17/outbox.cif.g08.bks.cpg/sg12_17_cif.got.tgz:33361.got - 2010.06.03 13:09:07.
