data_PCOD9204268
_publ_section_title
;
Structure prediction by ZEFSAII (Michael W. Deem and Ramdas Pophale) SiO2 
 PCOD9204268
Probable space group: C 2/M
;
_chemical_formula_sum "Si O2"
_cell_formula_units_Z 34
_cell_length_a 28.277685
_cell_length_b 12.899811
_cell_length_c 5.951053
_cell_angle_alpha 90.000000
_cell_angle_beta 44.359231
_cell_angle_gamma 90.000000
_cell_volume 1517.729403
_symmetry_space_group_name_H-M "C 2/M"
_symmetry_group_IT_number 12
_symmetry_cell_setting 'monoclinic'
loop_
_space_group_symop_operation_xyz
x,y,z
-x,y,-z
-x,-y,-z
x,-y,z
1/2+x,1/2+y,z
1/2-x,1/2+y,-z
1/2-x,1/2-y,-z
1/2+x,1/2-y,z
loop_
_atom_site_type_symbol
_atom_site_label
_atom_site_fract_x
_atom_site_fract_y
_atom_site_fract_z
Si Si1 0.000000 0.500000 0.500000
Si Si2 0.560765 0.844508 0.630735
Si Si3 0.813884 0.113425 0.271393
Si Si4 0.199539 0.701774 0.358100
Si Si5 0.941267 0.112323 0.513830
O O1 0.048707 0.408459 0.445515
O O2 0.636130 0.858684 0.470573
O O3 0.552985 0.720558 0.632098
O O4 0.500000 0.880981 0.000000
O O5 0.827613 0.201126 0.406430
O O6 0.743703 0.135704 0.382766
O O7 0.813459 0.000000 0.378864
O O8 0.871077 0.116988 0.887430
O O9 0.250000 0.750000 0.000000
O O10 0.000000 0.111276 0.500000
O O11 0.943547 0.000000 0.384813
#
# Coordination Sequence:
#
# PCOD9204268 Si02
#       5
#     2   8   8   8   8
#     4  12  30  48  70  98 144 196 242 304 328 416
#     4  12  26  47  71 100 140 185 243 282 356 419
#     4  10  23  43  67 101 141 176 228 288 358 419
#     4  11  24  43  68 102 136 183 228 289 343 416
#     4  10  20  40  70 101 136 175 220 289 358 421
#
# _framework density 22.401885
#
# number of rings (size 3 to 8) (size 9 to 14) (size 15 to 20)
#    0.000    1.176    3.529    1.765    1.647    2.353 
#    4.235    0.000    0.000    0.000    0.000    0.000 
#    0.000    0.000    0.000    0.000    0.000    0.000 
#
# Total GULP energy -94782.311528 kJ/mol
# GULP energy per Si atom -5575.430090 kJ/mol
# Density = 2.235090 g / cm^3
# Si number density = 22.401885 Si / 1000 Ang^3
#
#
#
# Elastic Constant Matrix: (Units=GPa)
#
#
# Indices 1 2 3 4 5 6 
#
# 1 160.6527 32.6839 6.7525 0.0000 -34.8516 0.0000
# 2 32.6839 138.2852 18.3773 0.0000 -6.9876 0.0000
# 3 6.7525 18.3773 63.4211 0.0000 -14.6875 0.0000
# 4 0.0000 0.0000 0.0000 23.3521 0.0000 -28.3794
# 5 -34.8516 -6.9876 -14.6875 0.0000 28.7318 0.0000
# 6 0.0000 0.0000 0.0000 -28.3794 0.0000 -40.6329
#
#
#
# Elastic Compliance Matrix: (Units=1/GPa)
#
#
# Indices 1 2 3 4 5 6 
#
# 1 0.009039 -0.001849 0.002278 0.000000 0.011679 0.000000
# 2 -0.001849 0.007916 -0.002462 0.000000 -0.001576 0.000000
# 3 0.002278 -0.002462 0.018988 0.000000 0.011871 0.000000
# 4 0.000000 0.000000 0.000000 0.023163 0.000000 -0.016177
# 5 0.011679 -0.001576 0.011871 0.000000 0.054656 0.000000
# 6 0.000000 0.000000 0.000000 -0.016177 0.000000 -0.013312
#
#
# Mechanical properties :
#
#
# Convention : Reuss Voigt Hill
#
# Bulk Modulus (GPa) = 31.37111 53.10959 42.24035
# Shear Modulus (GPa) = 43.42556 22.59321 33.00938
#
# Velocity S-wave (km/s) = 4.40759 3.17920 3.84280
# Velocity P-wave (km/s) = 6.31955 6.10209 6.21177
#
# Compressibility (1/GPa) = 0.03187646
#
# Stress axis : x y z
#
# Youngs Moduli (GPa) = 110.63763 126.32718 52.66602
#
# Poissons Ratio (x) = 0.23356 -0.11997
# Poissons Ratio (y) = 0.20456 0.12966
# Poissons Ratio (z) = -0.25203 0.31101
#
# Static dielectric constant tensor:
#      x y z
#    x 1.807500 0.000000 0.005650 
#    y 0.000000 1.849800 0.000000 
#    z 0.005650 0.000000 1.869080 
# 
# From -- ./inp_files/19646.got.cif
#   From: 2010.05.17/outbox.cif.g08.bks.cpg/sg12_10_cif.got.tgz:19646.got - 2010.06.03 13:09:07.
