data_PCOD9204426
_publ_section_title
;
Structure prediction by ZEFSAII (Michael W. Deem and Ramdas Pophale) SiO2 
 PCOD9204426
Probable space group: C 2/M
;
_chemical_formula_sum "Si O2"
_cell_formula_units_Z 56
_cell_length_a 21.012289
_cell_length_b 8.928432
_cell_length_c 17.674381
_cell_angle_alpha 90.000000
_cell_angle_beta 117.983902
_cell_angle_gamma 90.000000
_cell_volume 2928.144858
_symmetry_space_group_name_H-M "C 2/M"
_symmetry_group_IT_number 12
_symmetry_cell_setting 'monoclinic'
loop_
_space_group_symop_operation_xyz
x,y,z
-x,y,-z
-x,-y,-z
x,-y,z
1/2+x,1/2+y,z
1/2-x,1/2+y,-z
1/2-x,1/2-y,-z
1/2+x,1/2-y,z
loop_
_atom_site_type_symbol
_atom_site_label
_atom_site_fract_x
_atom_site_fract_y
_atom_site_fract_z
Si Si1 0.555757 0.322298 0.284077
Si Si2 0.906577 0.321473 0.256147
Si Si3 0.326780 0.679911 0.522251
Si Si4 0.315383 0.326053 0.080810
Si Si5 0.091754 0.328712 0.982609
Si Si6 0.918150 0.819832 0.426965
Si Si7 0.578885 0.169751 0.143766
O O1 0.541901 0.500000 0.279665
O O2 0.481155 0.237633 0.260318
O O3 0.613970 0.282982 0.380773
O O4 0.586940 0.276064 0.219806
O O5 0.905744 0.500000 0.252543
O O6 0.840307 0.255312 0.171029
O O7 0.904572 0.261859 0.340521
O O8 0.319308 0.500000 0.517163
O O9 0.250000 0.750000 0.500000
O O10 0.361634 0.724086 0.460994
O O11 0.302948 0.500000 0.087505
O O12 0.250000 0.250000 0.000000
O O13 0.379749 0.295105 0.058021
O O14 0.117329 0.500000 0.979728
O O15 0.112625 0.293064 0.080928
O O16 0.006194 0.333536 0.922940
O O17 0.000000 0.788269 0.500000
O O18 0.913652 0.000000 0.413410
O O19 0.600769 0.000000 0.176432
#
# Coordination Sequence:
#
# PCOD9204426 Si02
#       7
#     8   8   8   8   8   8   8
#     4  11  21  37  61  90 121 160 205 254 310 372
#     4  12  24  39  63  95 125 159 209 265 315 373
#     4  10  23  42  64  90 126 167 203 256 319 378
#     4  12  25  42  63  87 120 163 207 258 317 374
#     4   9  18  35  57  84 118 153 193 242 297 355
#     4  10  20  41  68  94 128 167 212 261 316 381
#     4   9  18  33  57  87 118 152 191 242 297 353
#
# _framework density 19.124737
#
# number of rings (size 3 to 8) (size 9 to 14) (size 15 to 20)
#    0.000    1.571    2.857    3.857    0.000    2.571 
#    2.571    1.429    0.000    0.000    0.000    0.000 
#    0.000    0.000    0.000    0.000    0.000    0.000 
#
# Total GULP energy -156314.409705 kJ/mol
# GULP energy per Si atom -5582.657489 kJ/mol
# Density = 1.908121 g / cm^3
# Si number density = 19.124737 Si / 1000 Ang^3
#
#
#
# Elastic Constant Matrix: (Units=GPa)
#
#
# Indices 1 2 3 4 5 6 
#
# 1 59.4452 29.3659 41.6772 0.0000 -3.0253 0.0000
# 2 29.3659 95.4154 76.8862 0.0000 -1.3570 0.0000
# 3 41.6772 76.8862 157.7184 0.0000 -10.5780 0.0000
# 4 0.0000 0.0000 0.0000 31.5841 0.0000 -5.9713
# 5 -3.0253 -1.3570 -10.5780 0.0000 30.9021 0.0000
# 6 0.0000 0.0000 0.0000 -5.9713 0.0000 28.7930
#
#
#
# Elastic Compliance Matrix: (Units=1/GPa)
#
#
# Indices 1 2 3 4 5 6 
#
# 1 0.021278 -0.003362 -0.003945 0.000000 0.000585 0.000000
# 2 -0.003362 0.017936 -0.008008 0.000000 -0.002283 0.000000
# 3 -0.003945 -0.008008 0.011501 0.000000 0.003199 0.000000
# 4 0.000000 0.000000 0.000000 0.032954 0.000000 0.006834
# 5 0.000585 -0.002283 0.003199 0.000000 0.033412 0.000000
# 6 0.000000 0.000000 0.000000 0.006834 0.000000 0.036148
#
#
# Mechanical properties :
#
#
# Convention : Reuss Voigt Hill
#
# Bulk Modulus (GPa) = 49.78622 67.60419 58.69520
# Shear Modulus (GPa) = 26.23924 29.23248 27.73586
#
# Velocity S-wave (km/s) = 3.70808 3.91387 3.81236
# Velocity P-wave (km/s) = 6.66498 7.47331 7.08069
#
# Compressibility (1/GPa) = 0.02008588
#
# Stress axis : x y z
#
# Youngs Moduli (GPa) = 46.99605 55.75451 86.94656
#
# Poissons Ratio (x) = 0.18744 0.34298
# Poissons Ratio (y) = 0.15799 0.69629
# Poissons Ratio (z) = 0.18539 0.44650
#
# Static dielectric constant tensor:
#      x y z
#    x 1.739620 0.000000 0.006860 
#    y 0.000000 1.652890 0.000000 
#    z 0.006860 0.000000 1.672910 
# 
# From -- ./inp_files/281646.got.cif
#   From: 2010.05.17/outbox.cif.g08.bks.cpg/sg12_141_cif.got.tgz:281646.got - 2010.06.03 13:09:07.
