data_PCOD9204541
_publ_section_title
;
Structure prediction by ZEFSAII (Michael W. Deem and Ramdas Pophale) SiO2 
 PCOD9204541
Probable space group: C 2/M
;
_chemical_formula_sum "Si O2"
_cell_formula_units_Z 34
_cell_length_a 10.459790
_cell_length_b 21.147425
_cell_length_c 7.956292
_cell_angle_alpha 90.000000
_cell_angle_beta 70.735532
_cell_angle_gamma 90.000000
_cell_volume 1661.367868
_symmetry_space_group_name_H-M "C 2/M"
_symmetry_group_IT_number 12
_symmetry_cell_setting 'monoclinic'
loop_
_space_group_symop_operation_xyz
x,y,z
-x,y,-z
-x,-y,-z
x,-y,z
1/2+x,1/2+y,z
1/2-x,1/2+y,-z
1/2-x,1/2-y,-z
1/2+x,1/2-y,z
loop_
_atom_site_type_symbol
_atom_site_label
_atom_site_fract_x
_atom_site_fract_y
_atom_site_fract_z
Si Si1 0.641790 0.376168 0.088131
Si Si2 0.885264 0.427954 0.191227
Si Si3 0.364291 0.308399 0.251431
Si Si4 0.893852 0.318065 0.408490
Si Si5 0.500000 0.500000 0.000000
O O1 0.757233 0.390224 0.171880
O O2 0.505656 0.344635 0.221607
O O3 0.681474 0.330904 0.914121
O O4 0.600554 0.443876 0.028732
O O5 0.849654 0.500000 0.252467
O O6 0.937901 0.385932 0.321468
O O7 0.000000 0.429899 0.000000
O O8 0.250396 0.324504 0.437205
O O9 0.387170 0.233710 0.263596
O O10 0.000000 0.293751 0.500000
#
# Coordination Sequence:
#
# PCOD9204541 Si02
#       5
#     8   8   8   8   2
#     4  10  20  42  67  96 119 165 211 259 314 371
#     4  11  25  42  65  93 127 169 210 256 308 378
#     4   9  23  39  65  95 124 162 207 262 320 363
#     4  11  24  42  59  93 134 166 203 263 308 375
#     4   8  16  36  62  90 124 148 196 266 298 352
#
# _framework density 20.465064000000002
#
# number of rings (size 3 to 8) (size 9 to 14) (size 15 to 20)
#    0.000    2.118    1.176    1.412    9.882    1.412 
#    8.471    1.176    0.000    0.000    0.000    0.000 
#    0.000    0.000    0.000    0.000    0.000    0.000 
#
# Total GULP energy -94650.055831 kJ/mol
# GULP energy per Si atom -5567.650343 kJ/mol
# Density = 2.041848 g / cm^3
# Si number density = 20.465064 Si / 1000 Ang^3
#
#
#
# Elastic Constant Matrix: (Units=GPa)
#
#
# Indices 1 2 3 4 5 6 
#
# 1 23.7680 16.5692 1.3891 0.0000 -7.3696 0.0000
# 2 16.5692 151.0629 55.2022 0.0000 -1.2431 0.0000
# 3 1.3891 55.2022 49.9315 0.0000 -10.8113 0.0000
# 4 0.0000 0.0000 0.0000 11.4440 0.0000 -7.0473
# 5 -7.3696 -1.2431 -10.8113 0.0000 29.7487 0.0000
# 6 0.0000 0.0000 0.0000 -7.0473 0.0000 6.8440
#
#
#
# Elastic Compliance Matrix: (Units=1/GPa)
#
#
# Indices 1 2 3 4 5 6 
#
# 1 0.054893 -0.011379 0.015081 0.000000 0.018604 0.000000
# 2 -0.011379 0.014007 -0.016990 0.000000 -0.008408 0.000000
# 3 0.015081 -0.016990 0.042381 0.000000 0.018428 0.000000
# 4 0.000000 0.000000 0.000000 0.238810 0.000000 0.245902
# 5 0.018604 -0.008408 0.018428 0.000000 0.044570 0.000000
# 6 0.000000 0.000000 0.000000 0.245902 0.000000 0.399319
#
#
# Mechanical properties :
#
#
# Convention : Reuss Voigt Hill
#
# Bulk Modulus (GPa) = 11.80553 41.23147 26.51850
# Shear Modulus (GPa) = 5.89075 19.71413 12.80244
#
# Velocity S-wave (km/s) = 1.69844 3.10708 2.50386
# Velocity P-wave (km/s) = 3.10280 5.75004 4.62008
#
# Compressibility (1/GPa) = 0.08470610
#
# Stress axis : x y z
#
# Youngs Moduli (GPa) = 18.21732 71.39268 23.59552
#
# Poissons Ratio (x) = 0.81236 -0.35584
# Poissons Ratio (y) = 0.20729 0.40088
# Poissons Ratio (z) = -0.27473 1.21293
#
# Static dielectric constant tensor:
#      x y z
#    x 1.755830 0.000000 0.021660 
#    y 0.000000 1.710140 0.000000 
#    z 0.021660 0.000000 1.727330 
# 
# From -- ./inp_files/47839.got.cif
#   From: 2010.05.17/outbox.cif.g08.bks.cpg/sg12_24_cif.got.tgz:47839.got - 2010.06.03 13:09:07.
