data_PCOD9204992
_publ_section_title
;
Structure prediction by ZEFSAII (Michael W. Deem and Ramdas Pophale) SiO2 
 PCOD9204992
Probable space group: C 2/M
;
_chemical_formula_sum "Si O2"
_cell_formula_units_Z 50
_cell_length_a 12.224780
_cell_length_b 30.204041
_cell_length_c 8.203192
_cell_angle_alpha 90.000000
_cell_angle_beta 121.263848
_cell_angle_gamma 90.000000
_cell_volume 2589.086827
_symmetry_space_group_name_H-M "C 2/M"
_symmetry_group_IT_number 12
_symmetry_cell_setting 'monoclinic'
loop_
_space_group_symop_operation_xyz
x,y,z
-x,y,-z
-x,-y,-z
x,-y,z
1/2+x,1/2+y,z
1/2-x,1/2+y,-z
1/2-x,1/2-y,-z
1/2+x,1/2-y,z
loop_
_atom_site_type_symbol
_atom_site_label
_atom_site_fract_x
_atom_site_fract_y
_atom_site_fract_z
Si Si1 0.772409 0.548649 0.996534
Si Si2 0.478652 0.800743 0.176754
Si Si3 0.481074 0.297479 0.179047
Si Si4 0.866621 0.377959 0.303144
Si Si5 0.129685 0.123871 0.701078
Si Si6 0.750399 0.828308 0.497934
Si Si7 0.000000 0.500000 0.000000
O O1 0.719061 0.500000 0.998603
O O2 0.676763 0.579630 0.823119
O O3 0.816597 0.577481 0.183899
O O4 0.898035 0.537771 0.986688
O O5 0.424675 0.751476 0.164980
O O6 0.396277 0.840109 0.191365
O O7 0.618040 0.802604 0.370501
O O8 0.500000 0.806306 0.000000
O O9 0.398941 0.337017 0.192120
O O10 0.620454 0.300811 0.373209
O O11 0.500000 0.302670 0.000000
O O12 0.768202 0.358692 0.358026
O O13 0.000000 0.385964 0.500000
O O14 0.230456 0.142088 0.647826
O O15 0.000000 0.116171 0.500000
#
# Coordination Sequence:
#
# PCOD9204992 Si02
#       7
#     8   8   8   8   8   8   2
#     4  10  22  40  62  85 116 144 190 243 294 345
#     4  10  21  34  55  84 118 155 195 238 283 340
#     4  10  21  37  56  83 116 155 200 233 280 337
#     4  10  22  35  57  85 118 150 192 236 292 346
#     4  10  22  39  62  86 117 158 195 235 288 347
#     4  10  21  35  56  82 119 156 190 238 281 338
#     4   8  24  36  68  88 110 146 188 246 300 352
#
# _framework density 19.311827999999998
#
# number of rings (size 3 to 8) (size 9 to 14) (size 15 to 20)
#    0.480    1.600    0.000    2.400    5.600    7.680 
#    0.000    4.800    0.000    9.120    0.000    0.000 
#    0.000    0.000    0.000    0.000    0.000    0.000 
#
# Total GULP energy -139296.346755 kJ/mol
# GULP energy per Si atom -5571.853870 kJ/mol
# Density = 1.926787 g / cm^3
# Si number density = 19.311828 Si / 1000 Ang^3
#
#
#
# Elastic Constant Matrix: (Units=GPa)
#
#
# Indices 1 2 3 4 5 6 
#
# 1 55.7045 47.4452 7.9296 0.0000 -11.5638 0.0000
# 2 47.4452 183.2265 62.7530 0.0000 -19.7815 0.0000
# 3 7.9296 62.7530 79.9322 0.0000 -8.7042 0.0000
# 4 0.0000 0.0000 0.0000 -93.2761 0.0000 162.8635
# 5 -11.5638 -19.7815 -8.7042 0.0000 24.5239 0.0000
# 6 0.0000 0.0000 0.0000 162.8635 0.0000 -205.4864
#
#
#
# Elastic Compliance Matrix: (Units=1/GPa)
#
#
# Indices 1 2 3 4 5 6 
#
# 1 0.024867 -0.006929 0.003787 0.000000 0.007481 0.000000
# 2 -0.006929 0.009814 -0.006773 0.000000 0.002245 0.000000
# 3 0.003787 -0.006773 0.017737 0.000000 0.002618 0.000000
# 4 0.000000 0.000000 0.000000 0.027929 0.000000 0.022136
# 5 0.007481 0.002245 0.002618 0.000000 0.047044 0.000000
# 6 0.000000 0.000000 0.000000 0.022136 0.000000 0.012678
#
#
# Mechanical properties :
#
#
# Convention : Reuss Voigt Hill
#
# Bulk Modulus (GPa) = 30.68456 61.67990 46.18223
# Shear Modulus (GPa) = 29.28086 -41.46535 -6.09224
#
# Velocity S-wave (km/s) = 3.89808 -4.63876 -1.77807
# Velocity P-wave (km/s) = 6.01528 1.82139 4.44416
#
# Compressibility (1/GPa) = 0.03258968
#
# Stress axis : x y z
#
# Youngs Moduli (GPa) = 40.21391 101.89714 56.37883
#
# Poissons Ratio (x) = 0.70600 -0.21352
# Poissons Ratio (y) = 0.27862 0.38184
# Poissons Ratio (z) = -0.15230 0.69013
#
# Static dielectric constant tensor:
#      x y z
#    x 1.679630 0.000000 0.021390 
#    y 0.000000 1.657170 0.000000 
#    z 0.021390 0.000000 1.701720 
# 
# From -- ./inp_files/53376.got.cif
#   From: 2010.05.17/outbox.cif.g08.bks.cpg/sg12_27_cif.got.tgz:53376.got - 2010.06.03 13:09:07.
