data_PCOD9204100
_publ_section_title
;
Structure prediction by ZEFSAII (Michael W. Deem and Ramdas Pophale) SiO2 
 PCOD9204100
Probable space group: C 2/M
;
_chemical_formula_sum "Si O2"
_cell_formula_units_Z 48
_cell_length_a 19.099483
_cell_length_b 8.906034
_cell_length_c 30.265276
_cell_angle_alpha 90.000000
_cell_angle_beta 150.358808
_cell_angle_gamma 90.000000
_cell_volume 2546.100852
_symmetry_space_group_name_H-M "C 2/M"
_symmetry_group_IT_number 12
_symmetry_cell_setting 'monoclinic'
loop_
_space_group_symop_operation_xyz
x,y,z
-x,y,-z
-x,-y,-z
x,-y,z
1/2+x,1/2+y,z
1/2-x,1/2+y,-z
1/2-x,1/2-y,-z
1/2+x,1/2-y,z
loop_
_atom_site_type_symbol
_atom_site_label
_atom_site_fract_x
_atom_site_fract_y
_atom_site_fract_z
Si Si1 0.336483 0.317190 0.913623
Si Si2 0.624932 0.321655 0.240810
Si Si3 0.650495 0.831105 0.558476
Si Si4 0.680215 0.179928 0.918245
Si Si5 0.115939 0.175728 0.449727
Si Si6 0.314764 0.181514 0.260328
O O1 0.338117 0.500000 0.914588
O O2 0.261136 0.270237 0.917840
O O3 0.249714 0.272140 0.822292
O O4 0.500000 0.267563 0.000000
O O5 0.592588 0.500000 0.219384
O O6 0.730670 0.301477 0.339897
O O7 0.482033 0.232020 0.170723
O O8 0.707271 0.277525 0.241104
O O9 0.500000 0.834457 0.500000
O O10 0.640130 0.710883 0.514461
O O11 0.674565 0.000000 0.552931
O O12 0.689676 0.000000 0.925559
O O13 0.750000 0.250000 0.000000
O O14 0.250000 0.250000 0.500000
O O15 0.968342 0.249830 0.353719
O O16 0.110722 0.000000 0.438008
O O17 0.327470 0.000000 0.268032
#
# Coordination Sequence:
#
# PCOD9204100 Si02
#       6
#     8   8   8   8   8   8
#     4   9  19  37  63  89 115 151 200 247 294 358
#     4  10  21  38  64  91 122 159 197 246 306 368
#     4  10  20  40  65  91 122 162 207 249 303 366
#     4  11  23  39  61  91 121 154 201 252 305 365
#     4  12  26  41  60  88 125 166 210 257 306 361
#     4  10  20  40  65  89 119 160 204 248 305 366
#
# _framework density 18.852356
#
# number of rings (size 3 to 8) (size 9 to 14) (size 15 to 20)
#    0.000    1.667    1.667    3.000    2.333    4.333 
#    0.000    0.833    0.000    3.500    0.000    0.000 
#    0.000    0.000    0.000    0.000    0.000    0.000 
#
# Total GULP energy -134077.506772 kJ/mol
# GULP energy per Si atom -5586.562782 kJ/mol
# Density = 1.880945 g / cm^3
# Si number density = 18.852356 Si / 1000 Ang^3
#
#
#
# Elastic Constant Matrix: (Units=GPa)
#
#
# Indices 1 2 3 4 5 6 
#
# 1 156.2202 50.5141 89.0091 0.0000 10.6488 0.0000
# 2 50.5141 50.3499 53.4161 0.0000 5.0537 0.0000
# 3 89.0091 53.4161 141.6980 -0.0001 10.1254 0.0000
# 4 0.0000 0.0000 -0.0001 23.3810 0.0000 4.0600
# 5 10.6488 5.0537 10.1254 0.0000 34.1275 0.0000
# 6 0.0000 0.0000 0.0000 4.0600 0.0000 30.2337
#
#
#
# Elastic Compliance Matrix: (Units=1/GPa)
#
#
# Indices 1 2 3 4 5 6 
#
# 1 0.011062 -0.006161 -0.004541 0.000000 -0.001192 0.000000
# 2 -0.006161 0.036579 -0.009879 0.000000 -0.000563 0.000000
# 3 -0.004541 -0.009879 0.013719 0.000000 -0.001190 0.000000
# 4 0.000000 0.000000 0.000000 0.043791 0.000000 -0.005881
# 5 -0.001192 -0.000563 -0.001190 0.000000 0.030110 0.000000
# 6 0.000000 0.000000 0.000000 -0.005881 0.000000 0.033865
#
#
# Mechanical properties :
#
#
# Convention : Reuss Voigt Hill
#
# Bulk Modulus (GPa) = 49.50929 81.57184 65.54056
# Shear Modulus (GPa) = 23.03924 27.90371 25.47147
#
# Velocity S-wave (km/s) = 3.49963 3.85140 3.67972
# Velocity P-wave (km/s) = 6.53058 7.94610 7.27286
#
# Compressibility (1/GPa) = 0.02019823
#
# Stress axis : x y z
#
# Youngs Moduli (GPa) = 90.40032 27.33802 72.89182
#
# Poissons Ratio (x) = 0.16842 0.33101
# Poissons Ratio (y) = 0.55693 0.72010
# Poissons Ratio (z) = 0.41051 0.27007
#
# Static dielectric constant tensor:
#      x y z
#    x 1.535980 0.000000 -0.244390 
#    y 0.000000 1.646020 0.000000 
#    z -0.244390 0.000000 1.062050 
# 
# From -- ./inp_files/244866.got.cif
#   From: 2010.05.17/outbox.cif.g08.bks.cpg/sg12_123_cif.got.tgz:244866.got - 2010.06.03 13:09:07.
