data_PCOD9204479
_publ_section_title
;
Structure prediction by ZEFSAII (Michael W. Deem and Ramdas Pophale) SiO2 
 PCOD9204479
Probable space group: C 2/M
;
_chemical_formula_sum "Si O2"
_cell_formula_units_Z 64
_cell_length_a 9.773245
_cell_length_b 28.441346
_cell_length_c 14.733228
_cell_angle_alpha 90.000000
_cell_angle_beta 123.320604
_cell_angle_gamma 90.000000
_cell_volume 3422.081945
_symmetry_space_group_name_H-M "C 2/M"
_symmetry_group_IT_number 12
_symmetry_cell_setting 'monoclinic'
loop_
_space_group_symop_operation_xyz
x,y,z
-x,y,-z
-x,-y,-z
x,-y,z
1/2+x,1/2+y,z
1/2-x,1/2+y,-z
1/2-x,1/2-y,-z
1/2+x,1/2-y,z
loop_
_atom_site_type_symbol
_atom_site_label
_atom_site_fract_x
_atom_site_fract_y
_atom_site_fract_z
Si Si1 0.731021 0.367378 0.381150
Si Si2 0.814863 0.267811 0.427529
Si Si3 0.641872 0.117897 0.977747
Si Si4 0.461990 0.877259 0.633821
Si Si5 0.760656 0.782338 0.228063
Si Si6 0.420658 0.801654 0.176501
Si Si7 0.406438 0.055737 0.775758
Si Si8 0.867143 0.888113 0.217834
O O1 0.705349 0.311441 0.355253
O O2 0.809810 0.370337 0.510250
O O3 0.559651 0.392915 0.304518
O O4 0.872842 0.383574 0.364312
O O5 0.750000 0.250000 0.500000
O O6 0.821596 0.228862 0.352386
O O7 0.000000 0.286908 0.500000
O O8 0.673580 0.160899 0.920636
O O9 0.556715 0.076098 0.890566
O O10 0.500000 0.131254 0.000000
O O11 0.801635 0.103814 0.092057
O O12 0.494827 0.832675 0.712188
O O13 0.429033 0.921638 0.685369
O O14 0.565576 0.781995 0.166735
O O15 0.823964 0.741052 0.186198
O O16 0.818312 0.834007 0.221398
O O17 0.242717 0.078514 0.758956
O O18 0.401189 0.000000 0.774499
#
# Coordination Sequence:
#
# PCOD9204479 Si02
#       8
#     8   8   8   8   8   8   8   8
#     4  11  21  38  59  89 128 167 194 250 306 363
#     4  12  22  34  54  87 125 173 224 246 287 355
#     4   9  19  42  61  86 123 155 209 262 299 371
#     4  10  20  42  62  86 127 160 208 252 301 373
#     4  12  21  34  54  87 127 163 208 254 296 357
#     4  11  21  37  56  83 125 169 211 250 295 362
#     4  10  22  44  73  91 113 157 206 264 324 370
#     4  11  23  38  60  93 123 153 207 258 308 361
#
# _framework density 18.702065999999999
#
# number of rings (size 3 to 8) (size 9 to 14) (size 15 to 20)
#    0.000    1.250    6.250    3.000    0.000    3.250 
#    0.000    5.625    0.000    0.750    0.000    0.000 
#    0.000    0.000    0.000    0.000    0.000    0.000 
#
# Total GULP energy -178690.730735 kJ/mol
# GULP energy per Si atom -5584.085335 kJ/mol
# Density = 1.865950 g / cm^3
# Si number density = 18.702066 Si / 1000 Ang^3
#
#
#
# Elastic Constant Matrix: (Units=GPa)
#
#
# Indices 1 2 3 4 5 6 
#
# 1 92.7230 49.4739 40.2038 0.0000 6.3120 0.0000
# 2 49.4739 125.4204 29.8341 0.0000 -3.9499 0.0000
# 3 40.2038 29.8341 88.0888 0.0000 6.2702 0.0000
# 4 0.0000 0.0000 0.0000 11.4419 0.0000 0.8049
# 5 6.3120 -3.9499 6.2702 0.0000 26.5709 0.0000
# 6 0.0000 0.0000 0.0000 0.8049 0.0000 18.7965
#
#
#
# Elastic Compliance Matrix: (Units=1/GPa)
#
#
# Indices 1 2 3 4 5 6 
#
# 1 0.016098 -0.005181 -0.005355 0.000000 -0.003331 0.000000
# 2 -0.005181 0.010447 -0.001395 0.000000 0.003113 0.000000
# 3 -0.005355 -0.001395 0.014436 0.000000 -0.002342 0.000000
# 4 0.000000 0.000000 0.000000 0.087662 0.000000 -0.003754
# 5 -0.003331 0.003113 -0.002342 0.000000 0.039442 0.000000
# 6 0.000000 0.000000 0.000000 -0.003754 0.000000 0.053362
#
#
# Mechanical properties :
#
#
# Convention : Reuss Voigt Hill
#
# Bulk Modulus (GPa) = 58.42023 60.58398 59.50210
# Shear Modulus (GPa) = 19.91912 23.80988 21.86450
#
# Velocity S-wave (km/s) = 3.26709 3.57194 3.42291
# Velocity P-wave (km/s) = 6.74811 7.03394 6.89251
#
# Compressibility (1/GPa) = 0.01711736
#
# Stress axis : x y z
#
# Youngs Moduli (GPa) = 62.11939 95.72275 69.27351
#
# Poissons Ratio (x) = 0.49595 0.37098
# Poissons Ratio (y) = 0.32185 0.09664
# Poissons Ratio (z) = 0.33267 0.13354
#
# Static dielectric constant tensor:
#      x y z
#    x 1.657500 0.000000 0.007850 
#    y 0.000000 1.641410 0.000000 
#    z 0.007850 0.000000 1.706860 
# 
# From -- ./inp_files/200934.got.cif
#   From: 2010.05.17/outbox.cif.g08.bks.cpg/sg12_101_cif.got.tgz:200934.got - 2010.06.03 13:09:07.
