data_PCOD9204015
_publ_section_title
;
Structure prediction by ZEFSAII (Michael W. Deem and Ramdas Pophale) SiO2 
 PCOD9204015
Probable space group: C 2/M
;
_chemical_formula_sum "Si O2"
_cell_formula_units_Z 48
_cell_length_a 11.094524
_cell_length_b 23.164472
_cell_length_c 17.644377
_cell_angle_alpha 90.000000
_cell_angle_beta 30.813875
_cell_angle_gamma 90.000000
_cell_volume 2322.844320
_symmetry_space_group_name_H-M "C 2/M"
_symmetry_group_IT_number 12
_symmetry_cell_setting 'monoclinic'
loop_
_space_group_symop_operation_xyz
x,y,z
-x,y,-z
-x,-y,-z
x,-y,z
1/2+x,1/2+y,z
1/2-x,1/2+y,-z
1/2-x,1/2-y,-z
1/2+x,1/2-y,z
loop_
_atom_site_type_symbol
_atom_site_label
_atom_site_fract_x
_atom_site_fract_y
_atom_site_fract_z
Si Si1 0.745597 0.937557 0.821949
Si Si2 0.109158 0.568109 0.356552
Si Si3 0.137945 0.338220 0.603959
Si Si4 0.050229 0.345835 0.827324
Si Si5 0.458893 0.644563 0.830354
Si Si6 0.575338 0.280639 0.288798
O O1 0.671690 0.905864 0.786009
O O2 0.902386 0.899099 0.791641
O O3 0.851816 0.000000 0.753064
O O4 0.500000 0.941942 0.000000
O O5 0.156711 0.500000 0.313227
O O6 0.334595 0.611155 0.237769
O O7 0.000000 0.569840 0.500000
O O8 0.933932 0.600729 0.393401
O O9 0.115882 0.336700 0.705743
O O10 0.391482 0.317103 0.438603
O O11 0.965570 0.286153 0.670994
O O12 0.167588 0.300877 0.823305
O O13 0.772091 0.348383 0.993296
O O14 0.487349 0.703262 0.765094
#
# Coordination Sequence:
#
# PCOD9204015 Si02
#       6
#     8   8   8   8   8   8
#     4   8  15  31  57  84 116 156 194 238 299 365
#     4  11  24  43  66  90 127 173 217 253 305 392
#     4  11  24  40  64  93 125 171 207 259 318 373
#     4  10  22  38  60  97 124 153 207 269 315 360
#     4  10  20  40  63  92 122 163 208 255 313 374
#     4  10  22  41  65  87 130 168 211 255 312 389
#
# _framework density 20.66432
#
# number of rings (size 3 to 8) (size 9 to 14) (size 15 to 20)
#    0.000    2.000    1.667    2.500    2.333    2.667 
#    3.000    0.833    0.000    3.000    0.000    0.000 
#    0.000    0.000    0.000    0.000    0.000    0.000 
#
# Total GULP energy -133848.233699 kJ/mol
# GULP energy per Si atom -5577.009737 kJ/mol
# Density = 2.061729 g / cm^3
# Si number density = 20.664320 Si / 1000 Ang^3
#
#
#
# Elastic Constant Matrix: (Units=GPa)
#
#
# Indices 1 2 3 4 5 6 
#
# 1 63.5693 34.0753 90.3374 0.0178 7.5887 0.0064
# 2 34.0753 121.1575 154.0197 0.0339 -2.5272 0.0062
# 3 90.3374 154.0197 800.7979 0.1457 10.8866 0.0151
# 4 0.0178 0.0339 0.1457 21.7417 -0.0126 11.0517
# 5 7.5887 -2.5272 10.8866 -0.0126 32.8063 -0.0063
# 6 0.0064 0.0062 0.0151 11.0517 -0.0063 34.1130
#
#
#
# Elastic Compliance Matrix: (Units=1/GPa)
#
#
# Indices 1 2 3 4 5 6 
#
# 1 0.020521 -0.003974 -0.001489 -0.000002 -0.004559 -0.000003
# 2 -0.003974 0.011773 -0.001849 -0.000001 0.002440 0.000000
# 3 -0.001489 -0.001849 0.001778 -0.000009 -0.000388 0.000003
# 4 -0.000002 -0.000001 -0.000009 0.055063 0.000021 -0.017839
# 5 -0.004559 0.002440 -0.000388 0.000021 0.031853 0.000000
# 6 -0.000003 0.000000 0.000003 -0.017839 0.000000 0.035094
#
#
# Mechanical properties :
#
#
# Convention : Reuss Voigt Hill
#
# Bulk Modulus (GPa) = 51.42027 171.37662 111.39844
# Shear Modulus (GPa) = 28.21868 64.87167 46.54517
#
# Velocity S-wave (km/s) = 3.69938 5.60903 4.75114
# Velocity P-wave (km/s) = 6.57152 11.18311 9.17188
#
# Compressibility (1/GPa) = 0.01944758
#
# Stress axis : x y z
#
# Youngs Moduli (GPa) = 48.73102 84.93922 562.54998
#
# Poissons Ratio (x) = 0.33756 0.83741
# Poissons Ratio (y) = 0.19367 1.04027
# Poissons Ratio (z) = 0.07254 0.15707
#
# Static dielectric constant tensor:
#      x y z
#    x 1.730020 0.000000 -0.042570 
#    y 0.000000 1.832570 0.000010 
#    z -0.042570 0.000010 1.727450 
# 
# From -- ./inp_files/265654.got.cif
#   From: 2010.05.17/outbox.cif.g08.bks.cpg/sg12_133_cif.got.tgz:265654.got - 2010.06.03 13:09:07.
