data_PCOD9204300
_publ_section_title
;
Structure prediction by ZEFSAII (Michael W. Deem and Ramdas Pophale) SiO2 
 PCOD9204300
Probable space group: C 2/M
;
_chemical_formula_sum "Si O2"
_cell_formula_units_Z 50
_cell_length_a 30.962837
_cell_length_b 14.369468
_cell_length_c 18.436987
_cell_angle_alpha 90.000000
_cell_angle_beta 17.350625
_cell_angle_gamma 90.000000
_cell_volume 2446.277727
_symmetry_space_group_name_H-M "C 2/M"
_symmetry_group_IT_number 12
_symmetry_cell_setting 'monoclinic'
loop_
_space_group_symop_operation_xyz
x,y,z
-x,y,-z
-x,-y,-z
x,-y,z
1/2+x,1/2+y,z
1/2-x,1/2+y,-z
1/2-x,1/2-y,-z
1/2+x,1/2-y,z
loop_
_atom_site_type_symbol
_atom_site_label
_atom_site_fract_x
_atom_site_fract_y
_atom_site_fract_z
Si Si1 0.892059 0.396139 0.942020
Si Si2 0.789256 0.893198 0.144521
Si Si3 0.672454 0.706240 0.399368
Si Si4 0.849722 0.778268 0.906915
Si Si5 0.611242 0.340938 0.664136
Si Si6 0.602668 0.866302 0.719160
Si Si7 0.000000 0.500000 0.000000
O O1 0.856084 0.500000 0.976022
O O2 0.783598 0.359447 0.178470
O O3 0.879135 0.317357 0.902921
O O4 0.052437 0.394619 0.719817
O O5 0.713658 0.813036 0.313994
O O6 0.736558 0.000000 0.233783
O O7 0.784240 0.851470 0.070234
O O8 0.959053 0.890823 0.895531
O O9 0.510414 0.686955 0.629596
O O10 0.669736 0.684843 0.489742
O O11 0.750000 0.750000 0.000000
O O12 0.583847 0.244429 0.750131
O O13 0.737306 0.390119 0.507832
O O14 0.499359 0.919916 0.938686
#
# Coordination Sequence:
#
# PCOD9204300 Si02
#       7
#     8   8   8   8   8   8   2
#     4  11  22  39  60  94 124 155 206 254 303 360
#     4  10  22  39  60  91 122 157 207 244 300 363
#     4  10  20  41  60  88 117 163 192 257 301 359
#     4  10  23  44  65  86 118 158 198 253 319 371
#     4  10  22  39  59  83 128 169 198 243 298 352
#     4  11  21  37  57  92 123 159 203 245 289 352
#     4  12  24  32  64  92 116 158 218 250 288 356
#
# _framework density 20.439216999999999
#
# number of rings (size 3 to 8) (size 9 to 14) (size 15 to 20)
#    0.000    1.600    5.600    0.960    1.120    6.400 
#    1.440    1.600    0.000    3.840    0.000    0.000 
#    0.000    0.000    0.000    0.000    0.000    0.000 
#
# Total GULP energy -139193.842533 kJ/mol
# GULP energy per Si atom -5567.753701 kJ/mol
# Density = 2.039270 g / cm^3
# Si number density = 20.439217 Si / 1000 Ang^3
#
#
#
# Elastic Constant Matrix: (Units=GPa)
#
#
# Indices 1 2 3 4 5 6 
#
# 1 101.1104 -13.2821 19.7999 -0.0001 -26.7299 0.0000
# 2 -13.2821 70.7186 -15.4712 0.0001 -0.5806 -0.0002
# 3 19.7999 -15.4712 53.0637 0.0004 -6.0323 -0.0002
# 4 -0.0001 0.0001 0.0004 9.1794 -0.0002 11.4375
# 5 -26.7299 -0.5806 -6.0323 -0.0002 23.7535 0.0001
# 6 0.0000 -0.0002 -0.0002 11.4375 0.0001 26.6000
#
#
#
# Elastic Compliance Matrix: (Units=1/GPa)
#
#
# Indices 1 2 3 4 5 6 
#
# 1 0.015098 0.002287 -0.003119 0.000001 0.016254 -0.000001
# 2 0.002287 0.015505 0.004122 -0.000001 0.003999 0.000000
# 3 -0.003119 0.004122 0.021442 -0.000002 0.002036 0.000001
# 4 0.000001 -0.000001 -0.000002 0.234663 0.000003 -0.100901
# 5 0.016254 0.003999 0.002036 0.000003 0.061004 -0.000001
# 6 -0.000001 0.000000 0.000001 -0.100901 -0.000001 0.080979
#
#
# Mechanical properties :
#
#
# Convention : Reuss Voigt Hill
#
# Bulk Modulus (GPa) = 17.05783 22.99844 20.02814
# Shear Modulus (GPa) = 11.32106 27.49632 19.40869
#
# Velocity S-wave (km/s) = 2.35604 3.67178 3.08487
# Velocity P-wave (km/s) = 3.97051 5.40855 4.74434
#
# Compressibility (1/GPa) = 0.05862410
#
# Stress axis : x y z
#
# Youngs Moduli (GPa) = 66.23231 64.49697 46.63657
#
# Poissons Ratio (x) = -0.14749 0.14547
# Poissons Ratio (y) = -0.15146 -0.19223
# Poissons Ratio (z) = 0.20659 -0.26585
#
# Static dielectric constant tensor:
#      x y z
#    x 1.730250 0.000000 -0.012100 
#    y 0.000000 1.718830 0.000000 
#    z -0.012100 0.000000 1.795050 
# 
# From -- ./inp_files/296766.got.cif
#   From: 2010.05.17/outbox.cif.g08.bks.cpg/sg12_149_cif.got.tgz:296766.got - 2010.06.03 13:09:07.
