data_PCOD9204312
_publ_section_title
;
Structure prediction by ZEFSAII (Michael W. Deem and Ramdas Pophale) SiO2 
 PCOD9204312
Probable space group: C 2/M
;
_chemical_formula_sum "Si O2"
_cell_formula_units_Z 64
_cell_length_a 18.303510
_cell_length_b 15.061417
_cell_length_c 17.529558
_cell_angle_alpha 90.000000
_cell_angle_beta 40.866662
_cell_angle_gamma 90.000000
_cell_volume 3161.904142
_symmetry_space_group_name_H-M "C 2/M"
_symmetry_group_IT_number 12
_symmetry_cell_setting 'monoclinic'
loop_
_space_group_symop_operation_xyz
x,y,z
-x,y,-z
-x,-y,-z
x,-y,z
1/2+x,1/2+y,z
1/2-x,1/2+y,-z
1/2-x,1/2-y,-z
1/2+x,1/2-y,z
loop_
_atom_site_type_symbol
_atom_site_label
_atom_site_fract_x
_atom_site_fract_y
_atom_site_fract_z
Si Si1 0.882187 0.775942 0.852273
Si Si2 0.013816 0.601742 0.281590
Si Si3 0.038899 0.399983 0.856750
Si Si4 0.824081 0.712012 0.061438
Si Si5 0.571290 0.404022 0.368225
Si Si6 0.062615 0.096158 0.679327
Si Si7 0.212271 0.325141 0.468469
Si Si8 0.241875 0.731075 0.728571
O O1 0.794222 0.832629 0.871528
O O2 0.896486 0.682195 0.796256
O O3 0.002136 0.821397 0.765721
O O4 0.843720 0.768253 0.969537
O O5 0.045618 0.500000 0.279338
O O6 0.979360 0.596199 0.219973
O O7 0.910211 0.638053 0.413828
O O8 0.055600 0.500000 0.871444
O O9 0.147190 0.339627 0.780661
O O10 0.928131 0.355432 0.981128
O O11 0.809746 0.767004 0.150564
O O12 0.500000 0.412475 0.500000
O O13 0.629392 0.500000 0.308658
O O14 0.480334 0.391709 0.373163
O O15 0.652387 0.323661 0.324390
O O16 0.193412 0.101630 0.589692
O O17 0.021089 0.000000 0.738468
O O18 0.250000 0.250000 0.500000
O O19 0.226009 0.289481 0.370569
#
# Coordination Sequence:
#
# PCOD9204312 Si02
#       8
#     8   8   8   8   8   8   8   8
#     4  10  20  41  62  86 120 158 210 255 316 370
#     4  10  21  39  63  90 120 163 211 257 306 366
#     4  10  21  35  56  87 127 161 199 252 310 377
#     4  10  22  37  58  85 117 160 207 259 309 371
#     4  10  22  36  54  89 129 159 197 250 314 383
#     4  11  22  38  61  91 125 164 208 248 307 381
#     4  12  21  37  61  88 126 167 203 246 302 372
#     4  12  22  36  60  89 122 167 207 249 314 367
#
# _framework density 20.240967999999999
#
# number of rings (size 3 to 8) (size 9 to 14) (size 15 to 20)
#    0.000    1.375    3.750    2.625    0.000    2.000 
#    0.000    1.875    0.000    4.500    0.000    0.000 
#    0.000    0.000    0.000    0.000    0.000    0.000 
#
# Total GULP energy -178167.229019 kJ/mol
# GULP energy per Si atom -5567.725907 kJ/mol
# Density = 2.019490 g / cm^3
# Si number density = 20.240968 Si / 1000 Ang^3
#
#
#
# Elastic Constant Matrix: (Units=GPa)
#
#
# Indices 1 2 3 4 5 6 
#
# 1 76.6846 26.1978 35.7094 0.0000 9.7062 0.0000
# 2 26.1978 83.2593 37.7675 0.0000 6.6638 0.0000
# 3 35.7094 37.7675 117.9404 0.0000 14.8923 0.0000
# 4 0.0000 0.0000 0.0000 2.4605 0.0000 5.9630
# 5 9.7062 6.6638 14.8923 0.0000 31.5983 0.0000
# 6 0.0000 0.0000 0.0000 5.9630 0.0000 20.3538
#
#
#
# Elastic Compliance Matrix: (Units=1/GPa)
#
#
# Indices 1 2 3 4 5 6 
#
# 1 0.016121 -0.003275 -0.003503 0.000000 -0.002610 0.000000
# 2 -0.003275 0.014741 -0.003683 0.000000 -0.000367 0.000000
# 3 -0.003503 -0.003683 0.011148 0.000000 -0.003402 0.000000
# 4 0.000000 0.000000 0.000000 1.401512 0.000000 -0.410601
# 5 -0.002610 -0.000367 -0.003402 0.000000 0.034130 0.000000
# 6 0.000000 0.000000 0.000000 -0.410601 0.000000 0.169425
#
#
# Mechanical properties :
#
#
# Convention : Reuss Voigt Hill
#
# Bulk Modulus (GPa) = 47.41595 53.02597 50.22096
# Shear Modulus (GPa) = 2.98503 22.76315 12.87409
#
# Velocity S-wave (km/s) = 1.21571 3.35715 2.52472
# Velocity P-wave (km/s) = 5.04452 6.42507 5.77619
#
# Compressibility (1/GPa) = 0.02108995
#
# Stress axis : x y z
#
# Youngs Moduli (GPa) = 62.03234 67.83852 89.70092
#
# Poissons Ratio (x) = 0.22214 0.31420
# Poissons Ratio (y) = 0.20313 0.33033
# Poissons Ratio (z) = 0.21728 0.24982
#
# Static dielectric constant tensor:
#      x y z
#    x 1.751930 0.000000 -0.045260 
#    y 0.000000 1.789490 0.000000 
#    z -0.045260 0.000000 1.871040 
# 
# From -- ./inp_files/278123.got.cif
#   From: 2010.05.17/outbox.cif.g08.bks.cpg/sg12_140_cif.got.tgz:278123.got - 2010.06.03 13:09:07.
