data_PCOD9204150
_publ_section_title
;
Structure prediction by ZEFSAII (Michael W. Deem and Ramdas Pophale) SiO2 
 PCOD9204150
Probable space group: C 2/M
;
_chemical_formula_sum "Si O2"
_cell_formula_units_Z 44
_cell_length_a 27.316597
_cell_length_b 9.934122
_cell_length_c 24.022563
_cell_angle_alpha 90.000000
_cell_angle_beta 159.567545
_cell_angle_gamma 90.000000
_cell_volume 2275.772770
_symmetry_space_group_name_H-M "C 2/M"
_symmetry_group_IT_number 12
_symmetry_cell_setting 'monoclinic'
loop_
_space_group_symop_operation_xyz
x,y,z
-x,y,-z
-x,-y,-z
x,-y,z
1/2+x,1/2+y,z
1/2-x,1/2+y,-z
1/2-x,1/2-y,-z
1/2+x,1/2-y,z
loop_
_atom_site_type_symbol
_atom_site_label
_atom_site_fract_x
_atom_site_fract_y
_atom_site_fract_z
Si Si1 0.649821 0.500000 0.932336
Si Si2 0.693384 0.500000 0.853839
Si Si3 0.601444 0.500000 0.410435
Si Si4 0.484650 0.347487 0.049550
Si Si5 0.560323 0.155095 0.503269
Si Si6 0.263066 0.792128 0.140055
Si Si7 0.276070 0.845473 0.670982
O O1 0.729839 0.500000 0.958401
O O2 0.691976 0.372087 0.013665
O O3 0.486294 0.500000 0.739577
O O4 0.523099 0.500000 0.675719
O O5 0.742874 0.634212 0.877279
O O6 0.696574 0.371997 0.527504
O O7 0.528724 0.500000 0.110827
O O8 0.581031 0.236701 0.181615
O O9 0.500000 0.330162 0.000000
O O10 0.325447 0.330278 0.899810
O O11 0.500000 0.189334 0.500000
O O12 0.423917 0.164749 0.318344
O O13 0.676878 0.257629 0.605440
O O14 0.611669 0.000000 0.559060
O O15 0.297714 0.000000 0.714672
#
# Coordination Sequence:
#
# PCOD9204150 Si02
#       7
#     4   4   4   8   8   8   8
#     4  10  20  40  66  88 123 156 202 256 314 354
#     4  10  22  37  64  94 126 143 200 269 305 356
#     4   8  20  39  60  88 122 151 190 263 301 356
#     4  11  24  42  62  89 127 167 207 247 294 366
#     4  11  21  36  59  89 121 158 205 249 300 366
#     4  12  21  40  64  95 118 162 203 252 310 362
#     4  10  21  40  58  83 124 161 192 253 306 354
#
# _framework density 19.334091000000001
#
# number of rings (size 3 to 8) (size 9 to 14) (size 15 to 20)
#    1.091    0.364    3.636    2.182    1.273    3.636 
#    3.273    0.909    2.000    0.000    0.000    0.000 
#    0.000    0.000    0.000    0.000    0.000    0.000 
#
# Total GULP energy -122661.721222 kJ/mol
# GULP energy per Si atom -5575.532783 kJ/mol
# Density = 1.929009 g / cm^3
# Si number density = 19.334091 Si / 1000 Ang^3
#
#
#
# Elastic Constant Matrix: (Units=GPa)
#
#
# Indices 1 2 3 4 5 6 
#
# 1 30.6247 1.5219 -11.7053 0.0000 1.8303 0.0003
# 2 1.5219 119.1877 23.5225 0.0005 -0.5801 0.0007
# 3 -11.7053 23.5225 62.9476 0.0006 -0.3933 0.0003
# 4 0.0000 0.0005 0.0006 102.5477 0.0001 -72.8564
# 5 1.8303 -0.5801 -0.3933 0.0001 30.4624 0.0003
# 6 0.0003 0.0007 0.0003 -72.8564 0.0003 100.8787
#
#
#
# Elastic Compliance Matrix: (Units=1/GPa)
#
#
# Indices 1 2 3 4 5 6 
#
# 1 0.035677 -0.001914 0.007336 0.000000 -0.002085 0.000000
# 2 -0.001914 0.009161 -0.003778 0.000000 0.000241 0.000000
# 3 0.007336 -0.003778 0.018660 0.000000 -0.000272 0.000000
# 4 0.000000 0.000000 0.000000 0.020028 0.000000 0.014465
# 5 -0.002085 0.000241 -0.000272 0.000000 0.032954 0.000000
# 6 0.000000 0.000000 0.000000 0.014465 0.000000 0.020360
#
#
# Mechanical properties :
#
#
# Convention : Reuss Voigt Hill
#
# Bulk Modulus (GPa) = 14.97258 26.60426 20.78842
# Shear Modulus (GPa) = 32.08964 60.07247 46.08106
#
# Velocity S-wave (km/s) = 4.07842 5.58016 4.88731
# Velocity P-wave (km/s) = 5.47165 7.43692 6.52865
#
# Compressibility (1/GPa) = 0.06678877
#
# Stress axis : x y z
#
# Youngs Moduli (GPa) = 28.02914 109.15480 53.58939
#
# Poissons Ratio (x) = 0.20888 -0.39315
# Poissons Ratio (y) = 0.05364 0.20245
# Poissons Ratio (z) = -0.20563 0.41236
#
# Static dielectric constant tensor:
#      x y z
#    x 1.662630 0.000000 -0.012590 
#    y 0.000000 1.657720 0.000000 
#    z -0.012590 0.000000 1.699930 
# 
# From -- ./inp_files/370629.got.cif
#   From: 2010.05.17/outbox.cif.g08.bks.cpg/sg12_186_cif.got.tgz:370629.got - 2010.06.03 13:09:07.
