data_PCOD9204757
_publ_section_title
;
Structure prediction by ZEFSAII (Michael W. Deem and Ramdas Pophale) SiO2 
 PCOD9204757
Probable space group: C 2/M
;
_chemical_formula_sum "Si O2"
_cell_formula_units_Z 56
_cell_length_a 21.899098
_cell_length_b 24.804056
_cell_length_c 11.989404
_cell_angle_alpha 90.000000
_cell_angle_beta 24.971611
_cell_angle_gamma 90.000000
_cell_volume 2749.368928
_symmetry_space_group_name_H-M "C 2/M"
_symmetry_group_IT_number 12
_symmetry_cell_setting 'monoclinic'
loop_
_space_group_symop_operation_xyz
x,y,z
-x,y,-z
-x,-y,-z
x,-y,z
1/2+x,1/2+y,z
1/2-x,1/2+y,-z
1/2-x,1/2-y,-z
1/2+x,1/2-y,z
loop_
_atom_site_type_symbol
_atom_site_label
_atom_site_fract_x
_atom_site_fract_y
_atom_site_fract_z
Si Si1 0.270479 0.795883 0.813063
Si Si2 0.200730 0.853399 0.523247
Si Si3 0.661879 0.677547 0.238063
Si Si4 0.410291 0.862259 0.984428
Si Si5 0.987371 0.242002 0.153584
Si Si6 0.464988 0.559261 0.925647
Si Si7 0.180804 0.615751 0.435387
O O1 0.348622 0.738306 0.693798
O O2 0.351932 0.840352 0.605766
O O3 0.230994 0.815850 0.001571
O O4 0.121274 0.785177 0.994725
O O5 0.339395 0.870316 0.222390
O O6 0.232492 0.859941 0.601513
O O7 0.154514 0.791638 0.575662
O O8 0.067900 0.892860 0.712447
O O9 0.500000 0.655078 0.500000
O O10 0.773488 0.645423 0.130039
O O11 0.496127 0.804913 0.847494
O O12 0.528790 0.902951 0.739360
O O13 0.000000 0.235345 0.000000
O O14 0.497173 0.500000 0.825155
O O15 0.296264 0.573996 0.194211
O O16 0.500000 0.556599 0.000000
#
# Coordination Sequence:
#
# PCOD9204757 Si02
#       7
#     8   8   8   8   8   8   8
#     4  10  21  33  51  75 108 152 193 238 265 317
#     4  11  20  36  54  84 120 149 194 232 274 348
#     4  10  23  38  50  72 113 157 205 231 264 328
#     4  11  26  33  52  83 121 155 190 232 287 327
#     4  11  19  32  51  80 113 156 191 222 268 332
#     4   9  19  37  63  85 110 149 191 234 291 355
#     4  11  21  36  55  86 117 146 190 237 287 336
#
# _framework density 20.368310000000001
#
# number of rings (size 3 to 8) (size 9 to 14) (size 15 to 20)
#    0.000    1.571    2.857    2.571   10.000    1.143 
#    0.000    0.714    0.000    3.429    0.000    4.000 
#    0.000    0.000    0.000    0.000    0.000    0.000 
#
# Total GULP energy -156399.102003 kJ/mol
# GULP energy per Si atom -5585.682214 kJ/mol
# Density = 2.032195 g / cm^3
# Si number density = 20.368310 Si / 1000 Ang^3
#
#
#
# Elastic Constant Matrix: (Units=GPa)
#
#
# Indices 1 2 3 4 5 6 
#
# 1 76.6670 6.2286 1.7600 -0.0003 1.7908 0.0020
# 2 6.2286 48.8414 32.7276 0.0016 -1.6514 -0.0001
# 3 1.7600 32.7276 95.5266 0.0021 -8.8918 0.0006
# 4 -0.0003 0.0016 0.0021 9.8766 0.0006 -0.7748
# 5 1.7908 -1.6514 -8.8918 0.0006 36.9192 -0.0020
# 6 0.0020 -0.0001 0.0006 -0.7748 -0.0020 6.5285
#
#
#
# Elastic Compliance Matrix: (Units=1/GPa)
#
#
# Indices 1 2 3 4 5 6 
#
# 1 0.013208 -0.001951 0.000365 0.000000 -0.000640 -0.000004
# 2 -0.001951 0.026902 -0.009268 -0.000002 -0.000934 0.000001
# 3 0.000365 -0.009268 0.013908 -0.000002 0.002917 -0.000001
# 4 0.000000 -0.000002 -0.000002 0.102201 -0.000002 0.012129
# 5 -0.000640 -0.000934 0.002917 -0.000002 0.027778 0.000008
# 6 -0.000004 0.000001 -0.000001 0.012129 0.000008 0.154613
#
#
# Mechanical properties :
#
#
# Convention : Reuss Voigt Hill
#
# Bulk Modulus (GPa) = 30.94805 33.60748 32.27776
# Shear Modulus (GPa) = 13.47394 22.68613 18.08004
#
# Velocity S-wave (km/s) = 2.57478 3.34098 2.98259
# Velocity P-wave (km/s) = 4.90577 5.60523 5.26712
#
# Compressibility (1/GPa) = 0.03231222
#
# Stress axis : x y z
#
# Youngs Moduli (GPa) = 75.70888 37.17250 71.90008
#
# Poissons Ratio (x) = 0.07252 -0.02628
# Poissons Ratio (y) = 0.14771 0.66634
# Poissons Ratio (z) = -0.02767 0.34450
#
# Static dielectric constant tensor:
#      x y z
#    x 1.727140 0.000000 -0.006870 
#    y 0.000000 1.729320 0.000000 
#    z -0.006870 0.000000 1.792730 
# 
# From -- ./inp_files/170504.got.cif
#   From: 2010.05.17/outbox.cif.g08.bks.cpg/sg12_86_cif.got.tgz:170504.got - 2010.06.03 13:09:07.
