data_PCOD9204320
_publ_section_title
;
Structure prediction by ZEFSAII (Michael W. Deem and Ramdas Pophale) SiO2 
 PCOD9204320
Probable space group: C 2/M
;
_chemical_formula_sum "Si O2"
_cell_formula_units_Z 48
_cell_length_a 11.571177
_cell_length_b 23.152842
_cell_length_c 9.517683
_cell_angle_alpha 90.000000
_cell_angle_beta 105.893182
_cell_angle_gamma 90.000000
_cell_volume 2452.370422
_symmetry_space_group_name_H-M "C 2/M"
_symmetry_group_IT_number 12
_symmetry_cell_setting 'monoclinic'
loop_
_space_group_symop_operation_xyz
x,y,z
-x,y,-z
-x,-y,-z
x,-y,z
1/2+x,1/2+y,z
1/2-x,1/2+y,-z
1/2-x,1/2-y,-z
1/2+x,1/2-y,z
loop_
_atom_site_type_symbol
_atom_site_label
_atom_site_fract_x
_atom_site_fract_y
_atom_site_fract_z
Si Si1 0.038658 0.733353 0.176219
Si Si2 0.208367 0.365277 0.213955
Si Si3 0.047607 0.066419 0.674039
Si Si4 0.582062 0.641175 0.165062
Si Si5 0.653216 0.136102 0.866503
Si Si6 0.027071 0.567408 0.352094
O O1 0.166742 0.700650 0.230386
O O2 0.046238 0.798761 0.229941
O O3 0.936428 0.689727 0.197832
O O4 0.000000 0.739254 0.000000
O O5 0.343023 0.388763 0.266822
O O6 0.133610 0.402089 0.302397
O O7 0.163886 0.372494 0.037843
O O8 0.000000 0.068988 0.500000
O O9 0.942376 0.087729 0.741769
O O10 0.084356 0.000000 0.716463
O O11 0.717241 0.646701 0.155596
O O12 0.500000 0.633481 0.000000
O O13 0.591193 0.080582 0.778039
O O14 0.053815 0.500000 0.371182
O O15 0.000000 0.589908 0.500000
#
# Coordination Sequence:
#
# PCOD9204320 Si02
#       6
#     8   8   8   8   8   8
#     4   8  19  35  65  92 120 150 192 251 306 360
#     4  10  20  41  63  89 117 157 203 250 298 357
#     4  11  26  43  59  83 125 172 206 243 301 365
#     4  11  22  39  64  93 120 158 199 250 301 362
#     4  10  21  38  61  94 120 152 200 248 299 356
#     4  10  22  38  60  86 117 159 200 248 304 352
#
# _framework density 19.572900000000001
#
# number of rings (size 3 to 8) (size 9 to 14) (size 15 to 20)
#    0.000    2.000    1.667    2.000    4.667    5.000 
#    0.000    4.167    0.000    0.000    0.000    0.000 
#    0.000    0.000    0.000    0.000    0.000    0.000 
#
# Total GULP energy -133808.887388 kJ/mol
# GULP energy per Si atom -5575.370308 kJ/mol
# Density = 1.952835 g / cm^3
# Si number density = 19.572900 Si / 1000 Ang^3
#
#
#
# Elastic Constant Matrix: (Units=GPa)
#
#
# Indices 1 2 3 4 5 6 
#
# 1 64.8572 4.4123 9.0499 0.0000 -23.1941 0.0000
# 2 4.4123 63.9719 20.5031 0.0000 -11.8924 0.0000
# 3 9.0499 20.5031 64.3352 0.0000 -18.6956 0.0000
# 4 0.0000 0.0000 0.0000 -30.5133 0.0000 -17.9706
# 5 -23.1941 -11.8924 -18.6956 0.0000 25.1814 0.0000
# 6 0.0000 0.0000 0.0000 -17.9706 0.0000 14.7258
#
#
#
# Elastic Compliance Matrix: (Units=1/GPa)
#
#
# Indices 1 2 3 4 5 6 
#
# 1 0.023934 0.002000 0.003413 0.000000 0.025523 0.000000
# 2 0.002000 0.018135 -0.003872 0.000000 0.007532 0.000000
# 3 0.003413 -0.003872 0.021268 0.000000 0.017105 0.000000
# 4 0.000000 0.000000 0.000000 -0.019068 0.000000 -0.023270
# 5 0.025523 0.007532 0.017105 0.000000 0.079477 0.000000
# 6 0.000000 0.000000 0.000000 -0.023270 0.000000 0.039511
#
#
# Mechanical properties :
#
#
# Convention : Reuss Voigt Hill
#
# Bulk Modulus (GPa) = 15.05591 29.01054 22.03322
# Shear Modulus (GPa) = 27.42503 12.49206 19.95854
#
# Velocity S-wave (km/s) = 3.74729 2.52907 3.19674
# Velocity P-wave (km/s) = 5.14119 4.83551 4.99069
#
# Compressibility (1/GPa) = 0.06641912
#
# Stress axis : x y z
#
# Youngs Moduli (GPa) = 41.78186 55.14156 47.01856
#
# Poissons Ratio (x) = -0.11029 -0.16047
# Poissons Ratio (y) = -0.08357 0.18206
# Poissons Ratio (z) = -0.14260 0.21351
#
# Static dielectric constant tensor:
#      x y z
#    x 1.745510 0.000000 -0.012110 
#    y 0.000000 1.694540 0.000000 
#    z -0.012110 0.000000 1.677640 
# 
# From -- ./inp_files/50784.got.cif
#   From: 2010.05.17/outbox.cif.g08.bks.cpg/sg12_26_cif.got.tgz:50784.got - 2010.06.03 13:09:07.
