data_PCOD9204188
_publ_section_title
;
Structure prediction by ZEFSAII (Michael W. Deem and Ramdas Pophale) SiO2 
 PCOD9204188
Probable space group: C 2/M
;
_chemical_formula_sum "Si O2"
_cell_formula_units_Z 36
_cell_length_a 17.511592
_cell_length_b 19.642217
_cell_length_c 5.083648
_cell_angle_alpha 90.000000
_cell_angle_beta 81.397614
_cell_angle_gamma 90.000000
_cell_volume 1728.933026
_symmetry_space_group_name_H-M "C 2/M"
_symmetry_group_IT_number 12
_symmetry_cell_setting 'monoclinic'
loop_
_space_group_symop_operation_xyz
x,y,z
-x,y,-z
-x,-y,-z
x,-y,z
1/2+x,1/2+y,z
1/2-x,1/2+y,-z
1/2-x,1/2-y,-z
1/2+x,1/2-y,z
loop_
_atom_site_type_symbol
_atom_site_label
_atom_site_fract_x
_atom_site_fract_y
_atom_site_fract_z
Si Si1 0.656726 0.862244 0.139124
Si Si2 0.414192 0.577650 0.600000
Si Si3 0.161260 0.867387 0.849982
Si Si4 0.837647 0.274235 0.385849
Si Si5 0.443655 0.000000 0.779922
O O1 0.746404 0.872087 0.172102
O O2 0.627499 0.806442 0.367599
O O3 0.609335 0.932093 0.184516
O O4 0.658062 0.830558 0.846178
O O5 0.500000 0.603116 0.500000
O O6 0.420324 0.500000 0.692736
O O7 0.367524 0.580214 0.353400
O O8 0.372581 0.619961 0.846102
O O9 0.130958 0.795215 0.754318
O O10 0.750000 0.250000 0.500000
O O11 0.500000 0.000000 0.500000
O O12 0.500000 0.000000 0.000000
#
# Coordination Sequence:
#
# PCOD9204188 Si02
#       5
#     8   8   8   8   4
#     4  11  23  42  69  94 124 169 216 266 331 376
#     4  11  24  39  57  89 137 170 197 252 318 368
#     4  11  21  40  67  94 122 164 225 259 306 388
#     4  10  20  40  66  97 128 159 208 282 326 365
#     4  12  28  48  66  96 139 174 221 280 334 394
#
# _framework density 20.822091
#
# number of rings (size 3 to 8) (size 9 to 14) (size 15 to 20)
#    0.000    1.111    0.000    9.333    3.111    1.778 
#    0.000   11.111    0.000    0.000    0.000    0.000 
#    0.000    0.000    0.000    0.000    0.000    0.000 
#
# Total GULP energy -100565.493190 kJ/mol
# GULP energy per Si atom -5586.971844 kJ/mol
# Density = 2.077470 g / cm^3
# Si number density = 20.822091 Si / 1000 Ang^3
#
#
#
# Elastic Constant Matrix: (Units=GPa)
#
#
# Indices 1 2 3 4 5 6 
#
# 1 61.9499 40.4218 47.6927 0.0000 -9.8985 0.0000
# 2 40.4218 113.8563 25.1554 0.0000 -12.3231 0.0000
# 3 47.6927 25.1554 106.2715 0.0000 9.7604 0.0000
# 4 0.0000 0.0000 0.0000 49.8953 0.0000 12.6084
# 5 -9.8985 -12.3231 9.7604 0.0000 24.8362 0.0000
# 6 0.0000 0.0000 0.0000 12.6084 0.0000 -9.0507
#
#
#
# Elastic Compliance Matrix: (Units=1/GPa)
#
#
# Indices 1 2 3 4 5 6 
#
# 1 0.035942 -0.007411 -0.015929 0.000000 0.016907 0.000000
# 2 -0.007411 0.011634 0.000325 0.000000 0.002691 0.000000
# 3 -0.015929 0.000325 0.017688 0.000000 -0.013138 0.000000
# 4 0.000000 0.000000 0.000000 0.014824 0.000000 0.020651
# 5 0.016907 0.002691 -0.013138 0.000000 0.053501 0.000000
# 6 0.000000 0.000000 0.000000 0.020651 0.000000 -0.081721
#
#
# Mechanical properties :
#
#
# Convention : Reuss Voigt Hill
#
# Bulk Modulus (GPa) = 51.99057 56.51305 54.25181
# Shear Modulus (GPa) = 47.93469 24.39002 36.16235
#
# Velocity S-wave (km/s) = 4.80323 3.42622 4.17193
# Velocity P-wave (km/s) = 7.46891 6.54613 7.02269
#
# Compressibility (1/GPa) = 0.01923426
#
# Stress axis : x y z
#
# Youngs Moduli (GPa) = 27.82241 85.95828 56.53502
#
# Poissons Ratio (x) = 0.63705 0.90054
# Poissons Ratio (y) = 0.20620 -0.01838
# Poissons Ratio (z) = 0.44318 -0.02794
#
# Static dielectric constant tensor:
#      x y z
#    x 1.727300 0.000000 -0.015420 
#    y 0.000000 1.786610 0.000000 
#    z -0.015420 0.000000 1.773870 
# 
# From -- ./inp_files/15046.got.cif
#   From: 2010.05.17/outbox.cif.g08.bks.cpg/sg12_8_cif.got.tgz:15046.got - 2010.06.03 13:09:07.
