data_PCOD9204774
_publ_section_title
;
Structure prediction by ZEFSAII (Michael W. Deem and Ramdas Pophale) SiO2 
 PCOD9204774
Probable space group: C 2/M
;
_chemical_formula_sum "Si O2"
_cell_formula_units_Z 44
_cell_length_a 8.707589
_cell_length_b 25.334622
_cell_length_c 11.614751
_cell_angle_alpha 90.000000
_cell_angle_beta 112.893768
_cell_angle_gamma 90.000000
_cell_volume 2360.419829
_symmetry_space_group_name_H-M "C 2/M"
_symmetry_group_IT_number 12
_symmetry_cell_setting 'monoclinic'
loop_
_space_group_symop_operation_xyz
x,y,z
-x,y,-z
-x,-y,-z
x,-y,z
1/2+x,1/2+y,z
1/2-x,1/2+y,-z
1/2-x,1/2-y,-z
1/2+x,1/2-y,z
loop_
_atom_site_type_symbol
_atom_site_label
_atom_site_fract_x
_atom_site_fract_y
_atom_site_fract_z
Si Si1 0.000000 0.608287 0.000000
Si Si2 0.048676 0.421799 0.268523
Si Si3 0.256445 0.202040 0.911628
Si Si4 0.194259 0.000000 0.538091
Si Si5 0.395048 0.728254 0.751547
Si Si6 0.471879 0.185390 0.360926
Si Si7 0.357881 0.000000 0.358664
O O1 0.844489 0.648372 0.976154
O O2 0.963017 0.575656 0.872961
O O3 0.038973 0.361113 0.300981
O O4 0.893431 0.450449 0.287115
O O5 0.208600 0.450750 0.372710
O O6 0.365354 0.226649 0.839577
O O7 0.062653 0.195095 0.822005
O O8 0.250000 0.250000 0.000000
O O9 0.206592 0.000000 0.401828
O O10 0.000000 0.000000 0.500000
O O11 0.432327 0.760895 0.646039
O O12 0.225361 0.695635 0.708589
O O13 0.500000 0.170255 0.500000
O O14 0.500000 0.000000 0.500000
#
# Coordination Sequence:
#
# PCOD9204774 Si02
#       7
#     4   8   8   4   8   8   4
#     4  12  20  35  60  90 126 158 218 249 298 362
#     4  10  21  39  64  90 117 164 199 248 314 363
#     4  11  18  34  53  77 119 175 210 245 283 353
#     4  10  22  46  73  94 116 145 198 256 316 390
#     4  10  21  33  52  80 122 166 213 247 295 345
#     4  11  20  37  55  85 120 165 209 254 301 351
#     4   8  18  40  65  86 111 148 189 240 317 379
#
# _framework density 18.640751000000002
#
# number of rings (size 3 to 8) (size 9 to 14) (size 15 to 20)
#    0.000    1.818    3.636    3.273    0.000    1.455 
#    6.545    0.909    0.000    1.091    0.000    0.000 
#    0.000    0.000    0.000    0.000    0.000    0.000 
#
# Total GULP energy -122555.370337 kJ/mol
# GULP energy per Si atom -5570.698652 kJ/mol
# Density = 1.859832 g / cm^3
# Si number density = 18.640751 Si / 1000 Ang^3
#
#
#
# Elastic Constant Matrix: (Units=GPa)
#
#
# Indices 1 2 3 4 5 6 
#
# 1 122.1394 33.0727 32.1293 0.0000 4.4575 0.0000
# 2 33.0727 70.8100 29.4895 0.0000 7.7997 0.0000
# 3 32.1293 29.4895 101.4500 0.0000 -20.0217 0.0000
# 4 0.0000 0.0000 0.0000 29.0614 0.0000 -5.2035
# 5 4.4575 7.7997 -20.0217 0.0000 36.0258 0.0000
# 6 0.0000 0.0000 0.0000 -5.2035 0.0000 15.3071
#
#
#
# Elastic Compliance Matrix: (Units=1/GPa)
#
#
# Indices 1 2 3 4 5 6 
#
# 1 0.009820 -0.003331 -0.002515 0.000000 -0.001892 0.000000
# 2 -0.003331 0.018843 -0.005780 0.000000 -0.006880 0.000000
# 3 -0.002515 -0.005780 0.014200 0.000000 0.009454 0.000000
# 4 0.000000 0.000000 0.000000 0.036640 0.000000 0.012455
# 5 -0.001892 -0.006880 0.009454 0.000000 0.034736 0.000000
# 6 0.000000 0.000000 0.000000 0.012455 0.000000 0.069563
#
#
# Mechanical properties :
#
#
# Convention : Reuss Voigt Hill
#
# Bulk Modulus (GPa) = 50.99328 53.75360 52.37344
# Shear Modulus (GPa) = 23.40927 29.39273 26.40100
#
# Velocity S-wave (km/s) = 3.54759 3.97520 3.76747
# Velocity P-wave (km/s) = 6.64798 7.06886 6.86165
#
# Compressibility (1/GPa) = 0.01961043
#
# Stress axis : x y z
#
# Youngs Moduli (GPa) = 101.83404 53.07026 70.42432
#
# Poissons Ratio (x) = 0.17676 0.17713
# Poissons Ratio (y) = 0.33918 0.40707
# Poissons Ratio (z) = 0.25613 0.30676
#
# Static dielectric constant tensor:
#      x y z
#    x 1.688220 0.000000 -0.016200 
#    y 0.000000 1.671520 0.000000 
#    z -0.016200 0.000000 1.706230 
# 
# From -- ./inp_files/123199.got.cif
#   From: 2010.05.17/outbox.cif.g08.bks.cpg/sg12_62_cif.got.tgz:123199.got - 2010.06.03 13:09:07.
