data_PCOD9204284
_publ_section_title
;
Structure prediction by ZEFSAII (Michael W. Deem and Ramdas Pophale) SiO2 
 PCOD9204284
Probable space group: C 2/M
;
_chemical_formula_sum "Si O2"
_cell_formula_units_Z 44
_cell_length_a 28.756335
_cell_length_b 17.825261
_cell_length_c 10.452019
_cell_angle_alpha 90.000000
_cell_angle_beta 24.296227
_cell_angle_gamma 90.000000
_cell_volume 2204.404408
_symmetry_space_group_name_H-M "C 2/M"
_symmetry_group_IT_number 12
_symmetry_cell_setting 'monoclinic'
loop_
_space_group_symop_operation_xyz
x,y,z
-x,y,-z
-x,-y,-z
x,-y,z
1/2+x,1/2+y,z
1/2-x,1/2+y,-z
1/2-x,1/2-y,-z
1/2+x,1/2-y,z
loop_
_atom_site_type_symbol
_atom_site_label
_atom_site_fract_x
_atom_site_fract_y
_atom_site_fract_z
Si Si1 0.447365 0.000000 0.770746
Si Si2 0.169641 0.500000 0.380862
Si Si3 0.899834 0.000000 0.645676
Si Si4 0.600303 0.283471 0.645662
Si Si5 0.740672 0.859995 0.368273
Si Si6 0.502925 0.344387 0.644589
Si Si7 0.249941 0.085493 0.371629
O O1 0.500000 0.000000 0.500000
O O2 0.549761 0.000000 0.612993
O O3 0.363897 0.070221 0.005669
O O4 0.184333 0.427175 0.431326
O O5 0.275207 0.500000 0.017521
O O6 0.924433 0.920771 0.518107
O O7 0.000000 0.000000 0.500000
O O8 0.688439 0.217430 0.451202
O O9 0.553240 0.285050 0.618935
O O10 0.661649 0.361960 0.522457
O O11 0.500000 0.274737 0.000000
O O12 0.721935 0.875156 0.564795
O O13 0.874493 0.861005 0.006887
O O14 0.500000 0.325107 0.500000
O O15 0.206605 0.000000 0.505572
#
# Coordination Sequence:
#
# PCOD9204284 Si02
#       7
#     4   4   4   8   8   8   8
#     4  10  27  44  70 107 142 184 232 301 348 421
#     4  12  23  44  74  97 133 191 230 282 358 419
#     4  10  20  40  72 101 138 173 232 288 342 424
#     4  12  28  42  74 103 144 188 233 301 354 418
#     4  12  24  45  71 105 139 183 242 289 351 428
#     4  11  24  44  69 106 142 183 233 298 359 411
#     4  10  25  46  72 102 140 183 237 288 351 426
#
# _framework density 19.960039999999999
#
# number of rings (size 3 to 8) (size 9 to 14) (size 15 to 20)
#    0.545    0.364    6.364    0.545    6.364    1.818 
#    0.000    1.818    0.000    0.000    0.000    0.000 
#    0.000    0.000    0.000    0.000    0.000    0.000 
#
# Total GULP energy -122864.017040 kJ/mol
# GULP energy per Si atom -5584.728047 kJ/mol
# Density = 1.991461 g / cm^3
# Si number density = 19.960040 Si / 1000 Ang^3
#
#
#
# Elastic Constant Matrix: (Units=GPa)
#
#
# Indices 1 2 3 4 5 6 
#
# 1 105.2956 17.7426 -13.4498 0.0000 22.1402 0.0000
# 2 17.7426 36.4637 -58.3251 0.0000 6.0775 0.0000
# 3 -13.4498 -58.3251 -0.5402 0.0000 33.5515 0.0000
# 4 0.0000 0.0000 0.0000 8.7679 0.0000 0.1709
# 5 22.1402 6.0775 33.5515 0.0000 30.2285 0.0000
# 6 0.0000 0.0000 0.0000 0.1709 0.0000 14.4748
#
#
#
# Elastic Compliance Matrix: (Units=1/GPa)
#
#
# Indices 1 2 3 4 5 6 
#
# 1 0.011735 -0.006275 -0.001002 0.000000 -0.006221 0.000000
# 2 -0.006275 0.010144 -0.011156 0.000000 0.014939 0.000000
# 3 -0.001002 -0.011156 -0.006247 0.000000 0.009910 0.000000
# 4 0.000000 0.000000 0.000000 0.114079 0.000000 -0.001347
# 5 -0.006221 0.014939 0.009910 0.000000 0.023635 0.000000
# 6 0.000000 0.000000 0.000000 -0.001347 0.000000 0.069102
#
#
# Mechanical properties :
#
#
# Convention : Reuss Voigt Hill
#
# Bulk Modulus (GPa) = -47.09458 3.68385 -21.70536
# Shear Modulus (GPa) = 19.82268 23.71098 21.76683
#
# Velocity S-wave (km/s) = 3.15480 3.45036 3.30589
# Velocity P-wave (km/s) = 3.22108 4.20987 1.91672
#
# Compressibility (1/GPa) = -0.02123387
#
# Stress axis : x y z
#
# Youngs Moduli (GPa) = 85.21780 98.57965 -160.08942
#
# Poissons Ratio (x) = 0.61863 -0.16038
# Poissons Ratio (y) = 0.53478 -1.78592
# Poissons Ratio (z) = 0.08537 1.09973
#
# Static dielectric constant tensor:
#      x y z
#    x 1.728230 0.000000 -0.000830 
#    y 0.000000 1.772530 0.000000 
#    z -0.000830 0.000000 1.678440 
# 
# From -- ./inp_files/189994.got.cif
#   From: 2010.05.17/outbox.cif.g08.bks.cpg/sg12_95_cif.got.tgz:189994.got - 2010.06.03 13:09:07.
