data_PCOD9204592
_publ_section_title
;
Structure prediction by ZEFSAII (Michael W. Deem and Ramdas Pophale) SiO2 
 PCOD9204592
Probable space group: C 2/M
;
_chemical_formula_sum "Si O2"
_cell_formula_units_Z 24
_cell_length_a 17.366920
_cell_length_b 15.261255
_cell_length_c 7.859628
_cell_angle_alpha 90.000000
_cell_angle_beta 151.410043
_cell_angle_gamma 90.000000
_cell_volume 996.853718
_symmetry_space_group_name_H-M "C 2/M"
_symmetry_group_IT_number 12
_symmetry_cell_setting 'monoclinic'
loop_
_space_group_symop_operation_xyz
x,y,z
-x,y,-z
-x,-y,-z
x,-y,z
1/2+x,1/2+y,z
1/2-x,1/2+y,-z
1/2-x,1/2-y,-z
1/2+x,1/2-y,z
loop_
_atom_site_type_symbol
_atom_site_label
_atom_site_fract_x
_atom_site_fract_y
_atom_site_fract_z
Si Si1 0.301459 0.500000 0.080265
Si Si2 0.153986 0.500000 0.171362
Si Si3 0.622666 0.684105 0.894507
Si Si4 0.306417 0.315248 0.465558
O O1 0.500000 0.500000 0.500000
O O2 0.280439 0.592782 0.942370
O O3 0.185155 0.500000 0.021630
O O4 0.239228 0.409548 0.377877
O O5 0.000000 0.500000 0.000000
O O6 0.500000 0.695078 0.500000
O O7 0.494168 0.674697 0.797100
O O8 0.724413 0.769917 0.139055
O O9 0.250000 0.250000 0.500000
#
# Coordination Sequence:
#
# PCOD9204592 Si02
#       4
#     4   4   8   8
#     4  10  20  43  71  97 131 179 229 280 329 407
#     4  12  24  43  66 100 142 174 224 286 340 397
#     4  11  22  43  72  98 131 180 230 273 335 403
#     4  12  25  44  68 101 139 179 221 283 342 403
#
# _framework density 24.075748999999998
#
# number of rings (size 3 to 8) (size 9 to 14) (size 15 to 20)
#    0.000    0.667    6.667    4.000    0.000    1.333 
#    0.000    5.833    0.000    0.000    0.000    0.000 
#    0.000    0.000    0.000    0.000    0.000    0.000 
#
# Total GULP energy -66949.237926 kJ/mol
# GULP energy per Si atom -5579.103161 kJ/mol
# Density = 2.402095 g / cm^3
# Si number density = 24.075749 Si / 1000 Ang^3
#
#
#
# Elastic Constant Matrix: (Units=GPa)
#
#
# Indices 1 2 3 4 5 6 
#
# 1 181.4599 57.4232 40.7209 0.0000 44.9192 0.0000
# 2 57.4232 229.9894 52.1818 0.0000 25.9450 0.0000
# 3 40.7209 52.1818 52.1987 0.0000 17.3265 0.0000
# 4 0.0000 0.0000 0.0000 16.5975 0.0000 -2.8134
# 5 44.9192 25.9450 17.3265 0.0000 61.5398 0.0000
# 6 0.0000 0.0000 0.0000 -2.8134 0.0000 62.4118
#
#
#
# Elastic Compliance Matrix: (Units=1/GPa)
#
#
# Indices 1 2 3 4 5 6 
#
# 1 0.007621 -0.000512 -0.004036 0.000000 -0.004210 0.000000
# 2 -0.000512 0.005700 -0.005102 0.000000 -0.000593 0.000000
# 3 -0.004036 -0.005102 0.028365 0.000000 -0.002890 0.000000
# 4 0.000000 0.000000 0.000000 0.060714 0.000000 0.002737
# 5 -0.004210 -0.000593 -0.002890 0.000000 0.020386 0.000000
# 6 0.000000 0.000000 0.000000 0.002737 0.000000 0.016146
#
#
# Mechanical properties :
#
#
# Convention : Reuss Voigt Hill
#
# Bulk Modulus (GPa) = 44.66902 84.92220 64.79561
# Shear Modulus (GPa) = 30.17590 48.99797 39.58694
#
# Velocity S-wave (km/s) = 3.54414 4.51617 4.05935
# Velocity P-wave (km/s) = 5.94489 7.90847 6.99591
#
# Compressibility (1/GPa) = 0.02238688
#
# Stress axis : x y z
#
# Youngs Moduli (GPa) = 131.21988 175.42572 35.25418
#
# Poissons Ratio (x) = 0.08985 0.14227
# Poissons Ratio (y) = 0.06720 0.17987
# Poissons Ratio (z) = 0.52954 0.89506
#
# Static dielectric constant tensor:
#      x y z
#    x 2.177680 0.000000 -0.055470 
#    y 0.000000 1.841310 0.000000 
#    z -0.055470 0.000000 2.012030 
# 
# From -- ./inp_files/36404.got.cif
#   From: 2010.05.17/outbox.cif.g08.bks.cpg/sg12_19_cif.got.tgz:36404.got - 2010.06.03 13:09:07.
