data_PCOD9204560
_publ_section_title
;
Structure prediction by ZEFSAII (Michael W. Deem and Ramdas Pophale) SiO2 
 PCOD9204560
Probable space group: C 2/M
;
_chemical_formula_sum "Si O2"
_cell_formula_units_Z 48
_cell_length_a 22.864920
_cell_length_b 13.872450
_cell_length_c 10.507193
_cell_angle_alpha 90.000000
_cell_angle_beta 142.334644
_cell_angle_gamma 90.000000
_cell_volume 2036.503946
_symmetry_space_group_name_H-M "C 2/M"
_symmetry_group_IT_number 12
_symmetry_cell_setting 'monoclinic'
loop_
_space_group_symop_operation_xyz
x,y,z
-x,y,-z
-x,-y,-z
x,-y,z
1/2+x,1/2+y,z
1/2-x,1/2+y,-z
1/2-x,1/2-y,-z
1/2+x,1/2-y,z
loop_
_atom_site_type_symbol
_atom_site_label
_atom_site_fract_x
_atom_site_fract_y
_atom_site_fract_z
Si Si1 0.392902 0.191572 0.070743
Si Si2 0.270418 0.782652 0.351163
Si Si3 0.277755 0.000000 0.303999
Si Si4 0.974422 0.000000 0.802816
Si Si5 0.386744 0.710453 0.306981
Si Si6 0.061812 0.205025 0.234890
Si Si7 0.495342 0.000000 0.337683
Si Si8 0.366562 0.500000 0.156078
O O1 0.345115 0.232494 0.114811
O O2 0.483462 0.257673 0.197444
O O3 0.437515 0.089419 0.179910
O O4 0.318546 0.212127 0.829505
O O5 0.242511 0.896284 0.298675
O O6 0.339363 0.754553 0.350683
O O7 0.340874 0.763759 0.590206
O O8 0.392954 0.000000 0.510932
O O9 0.237006 0.000000 0.090175
O O10 0.914990 0.096523 0.685249
O O11 0.058844 0.000000 0.838916
O O12 0.000000 0.000000 0.000000
O O13 0.500000 0.731919 0.500000
O O14 0.377034 0.596234 0.259150
O O15 0.000000 0.207281 0.000000
O O16 0.500000 0.000000 0.500000
#
# Coordination Sequence:
#
# PCOD9204560 Si02
#       8
#     8   8   4   4   8   8   4   4
#     4  12  24  43  65 100 139 177 240 285 344 421
#     4  12  25  42  69  99 138 187 233 287 357 414
#     4  12  22  43  67  95 143 191 231 275 351 430
#     4  10  20  42  70  94 135 180 227 284 349 406
#     4  12  22  39  63  96 140 174 220 291 343 412
#     4  11  24  45  70  97 134 180 238 297 346 407
#     4  12  26  41  68  99 146 195 224 275 355 428
#     4  12  23  36  65 106 133 176 235 282 342 425
#
# _framework density 23.569804999999999
#
# number of rings (size 3 to 8) (size 9 to 14) (size 15 to 20)
#    0.000    0.333    6.667    2.250    2.333    2.000 
#    0.000    1.667    0.000    0.000    0.000    0.000 
#    0.000    0.000    0.000    0.000    0.000    0.000 
#
# Total GULP energy -134105.021873 kJ/mol
# GULP energy per Si atom -5587.709245 kJ/mol
# Density = 2.351616 g / cm^3
# Si number density = 23.569805 Si / 1000 Ang^3
#
#
#
# Elastic Constant Matrix: (Units=GPa)
#
#
# Indices 1 2 3 4 5 6 
#
# 1 78.3437 5.5257 16.5867 0.0000 -6.2155 0.0000
# 2 5.5257 87.3168 9.0952 0.0000 -21.0918 0.0000
# 3 16.5867 9.0952 150.0651 0.0000 -3.8317 0.0000
# 4 0.0000 0.0000 0.0000 59.3708 0.0000 -1.2787
# 5 -6.2155 -21.0918 -3.8317 0.0000 37.9295 0.0000
# 6 0.0000 0.0000 0.0000 -1.2787 0.0000 8.8284
#
#
#
# Elastic Compliance Matrix: (Units=1/GPa)
#
#
# Indices 1 2 3 4 5 6 
#
# 1 0.013227 -0.000233 -0.001399 0.000000 0.001897 0.000000
# 2 -0.000233 0.013291 -0.000594 0.000000 0.007292 0.000000
# 3 -0.001399 -0.000594 0.006858 0.000000 0.000133 0.000000
# 4 0.000000 0.000000 0.000000 0.016896 0.000000 0.002447
# 5 0.001897 0.007292 0.000133 0.000000 0.030744 0.000000
# 6 0.000000 0.000000 0.000000 0.002447 0.000000 0.113625
#
#
# Mechanical properties :
#
#
# Convention : Reuss Voigt Hill
#
# Bulk Modulus (GPa) = 34.57388 42.01565 38.29476
# Shear Modulus (GPa) = 23.95386 40.19363 32.07375
#
# Velocity S-wave (km/s) = 3.19140 4.13401 3.69290
# Velocity P-wave (km/s) = 5.31795 6.37585 5.87078
#
# Compressibility (1/GPa) = 0.02892357
#
# Stress axis : x y z
#
# Youngs Moduli (GPa) = 75.60018 75.24079 145.81856
#
# Poissons Ratio (x) = 0.01754 0.20407
# Poissons Ratio (y) = 0.01763 0.08655
# Poissons Ratio (z) = 0.10580 0.04466
#
# Static dielectric constant tensor:
#      x y z
#    x 2.343060 0.000000 -0.286500 
#    y 0.000000 1.909460 0.000000 
#    z -0.286500 0.000000 2.104540 
# 
# From -- ./inp_files/183930.got.cif
#   From: 2010.05.17/outbox.cif.g08.bks.cpg/sg12_92_cif.got.tgz:183930.got - 2010.06.03 13:09:07.
