data_PCOD9204499
_publ_section_title
;
Structure prediction by ZEFSAII (Michael W. Deem and Ramdas Pophale) SiO2 
 PCOD9204499
Probable space group: C 2/M
;
_chemical_formula_sum "Si O2"
_cell_formula_units_Z 58
_cell_length_a 18.713341
_cell_length_b 16.180455
_cell_length_c 9.161955
_cell_angle_alpha 90.000000
_cell_angle_beta 109.019033
_cell_angle_gamma 90.000000
_cell_volume 2622.711853
_symmetry_space_group_name_H-M "C 2/M"
_symmetry_group_IT_number 12
_symmetry_cell_setting 'monoclinic'
loop_
_space_group_symop_operation_xyz
x,y,z
-x,y,-z
-x,-y,-z
x,-y,z
1/2+x,1/2+y,z
1/2-x,1/2+y,-z
1/2-x,1/2-y,-z
1/2+x,1/2-y,z
loop_
_atom_site_type_symbol
_atom_site_label
_atom_site_fract_x
_atom_site_fract_y
_atom_site_fract_z
Si Si1 0.285839 0.910457 0.742196
Si Si2 0.269601 0.761665 0.344185
Si Si3 0.000000 0.500000 0.500000
Si Si4 0.610731 0.139710 0.444096
Si Si5 0.628178 0.909550 0.910246
Si Si6 0.507771 0.768449 0.828516
Si Si7 0.290856 0.591509 0.863085
Si Si8 0.548544 0.410137 0.881613
O O1 0.236945 0.827880 0.733526
O O2 0.323467 0.902947 0.608317
O O3 0.247389 0.000000 0.733684
O O4 0.353511 0.909214 0.905291
O O5 0.250000 0.750000 0.500000
O O6 0.350511 0.805314 0.404852
O O7 0.211365 0.827823 0.238705
O O8 0.057305 0.571950 0.476114
O O9 0.565674 0.197966 0.302142
O O10 0.573433 0.834767 0.840648
O O11 0.711257 0.904930 0.895204
O O12 0.594343 0.000000 0.844319
O O13 0.525855 0.675206 0.790989
O O14 0.500000 0.767569 0.000000
O O15 0.293685 0.500000 0.792356
O O16 0.363587 0.595853 0.014453
O O17 0.535892 0.500000 0.801055
O O18 0.500000 0.412117 0.000000
#
# Coordination Sequence:
#
# PCOD9204499 Si02
#       8
#     8   8   2   8   8   8   8   8
#     4  10  20  42  64  89 126 166 213 269 323 385
#     4  10  24  38  60  86 126 168 217 260 308 391
#     4  12  28  44  66  88 142 180 218 276 322 390
#     4  11  25  41  61  94 128 172 221 261 325 390
#     4  10  22  36  63  97 125 161 209 268 335 390
#     4  11  22  37  64  90 129 168 211 267 326 388
#     4  10  22  40  64  95 126 161 214 272 332 383
#     4   9  20  38  62  90 123 162 209 267 326 382
#
# _framework density 22.114515000000001
#
# number of rings (size 3 to 8) (size 9 to 14) (size 15 to 20)
#    0.000    1.793    2.069    0.828    9.655    3.034 
#    0.000    0.690    0.000    0.000    0.000    0.966 
#    0.000    0.000    0.000    0.000    0.000    0.000 
#
# Total GULP energy -161746.508631 kJ/mol
# GULP energy per Si atom -5577.465815 kJ/mol
# Density = 2.206418 g / cm^3
# Si number density = 22.114515 Si / 1000 Ang^3
#
#
#
# Elastic Constant Matrix: (Units=GPa)
#
#
# Indices 1 2 3 4 5 6 
#
# 1 55.2624 27.1512 -3.5737 0.0000 1.7633 0.0000
# 2 27.1512 223.2343 38.2751 0.0000 13.0817 0.0000
# 3 -3.5737 38.2751 36.8760 0.0000 6.3815 0.0000
# 4 0.0000 0.0000 0.0000 12.6488 0.0000 19.0647
# 5 1.7633 13.0817 6.3815 0.0000 25.1539 0.0000
# 6 0.0000 0.0000 0.0000 19.0647 0.0000 19.0078
#
#
#
# Elastic Compliance Matrix: (Units=1/GPa)
#
#
# Indices 1 2 3 4 5 6 
#
# 1 0.020139 -0.003348 0.005616 0.000000 -0.001095 0.000000
# 2 -0.003348 0.006058 -0.006388 0.000000 -0.001295 0.000000
# 3 0.005616 -0.006388 0.035337 0.000000 -0.006037 0.000000
# 4 0.000000 0.000000 0.000000 -0.154492 0.000000 0.154954
# 5 -0.001095 -0.001295 -0.006037 0.000000 0.042037 0.000000
# 6 0.000000 0.000000 0.000000 0.154954 0.000000 -0.102808
#
#
# Mechanical properties :
#
#
# Convention : Reuss Voigt Hill
#
# Bulk Modulus (GPa) = 18.76380 48.78645 33.77513
# Shear Modulus (GPa) = -39.14689 28.26346 -5.44172
#
# Velocity S-wave (km/s) = -4.21193 3.57886 -1.57036
# Velocity P-wave (km/s) = 3.89237 6.25990 3.46669
#
# Compressibility (1/GPa) = 0.05329410
#
# Stress axis : x y z
#
# Youngs Moduli (GPa) = 49.65579 165.07033 28.29864
#
# Poissons Ratio (x) = 0.55268 -0.15894
# Poissons Ratio (y) = 0.16626 0.18078
# Poissons Ratio (z) = -0.27889 1.05450
#
# Static dielectric constant tensor:
#      x y z
#    x 1.823660 0.000000 0.000380 
#    y 0.000000 1.876670 0.000000 
#    z 0.000380 0.000000 1.853390 
# 
# From -- ./inp_files/167334.got.cif
#   From: 2010.05.17/outbox.cif.g08.bks.cpg/sg12_84_cif.got.tgz:167334.got - 2010.06.03 13:09:07.
