data_PCOD9204862
_publ_section_title
;
Structure prediction by ZEFSAII (Michael W. Deem and Ramdas Pophale) SiO2 
 PCOD9204862
Probable space group: C 2/M
;
_chemical_formula_sum "Si O2"
_cell_formula_units_Z 56
_cell_length_a 16.872914
_cell_length_b 27.684399
_cell_length_c 19.832098
_cell_angle_alpha 90.000000
_cell_angle_beta 159.026190
_cell_angle_gamma 90.000000
_cell_volume 3315.931169
_symmetry_space_group_name_H-M "C 2/M"
_symmetry_group_IT_number 12
_symmetry_cell_setting 'monoclinic'
loop_
_space_group_symop_operation_xyz
x,y,z
-x,y,-z
-x,-y,-z
x,-y,z
1/2+x,1/2+y,z
1/2-x,1/2+y,-z
1/2-x,1/2-y,-z
1/2+x,1/2-y,z
loop_
_atom_site_type_symbol
_atom_site_label
_atom_site_fract_x
_atom_site_fract_y
_atom_site_fract_z
Si Si1 0.189880 0.866099 0.427286
Si Si2 0.469407 0.273243 0.639315
Si Si3 0.894341 0.210578 0.990858
Si Si4 0.149006 0.391502 0.813995
Si Si5 0.744245 0.554507 0.229095
Si Si6 0.169111 0.706446 0.578779
Si Si7 0.973176 0.057683 0.806166
O O1 0.036874 0.829587 0.348166
O O2 0.399589 0.881825 0.638566
O O3 0.291504 0.832388 0.448509
O O4 0.075453 0.910634 0.298281
O O5 0.250000 0.250000 0.500000
O O6 0.696040 0.248438 0.843294
O O7 0.439205 0.254504 0.539154
O O8 0.787775 0.157805 0.917545
O O9 0.000000 0.212899 0.000000
O O10 0.094422 0.217385 0.201205
O O11 0.125066 0.413262 0.719573
O O12 0.291277 0.426790 0.974269
O O13 0.832132 0.500000 0.298985
O O14 0.701619 0.569998 0.272008
O O15 0.500000 0.553365 0.000000
O O16 0.000000 0.686983 0.500000
O O17 0.963493 0.000000 0.788397
#
# Coordination Sequence:
#
# PCOD9204862 Si02
#       7
#     8   8   8   8   8   8   8
#     4  11  23  34  51  74 108 141 176 217 265 309
#     4  10  22  38  49  79 110 137 180 218 263 317
#     4  12  20  33  57  78 103 144 178 218 262 305
#     4  11  19  31  51  71 102 140 184 215 257 294
#     4   8  16  29  44  65  95 131 175 223 246 274
#     4  11  21  34  55  78 104 140 184 219 254 314
#     4  10  21  34  49  71 100 138 184 222 261 302
#
# _framework density 16.888168
#
# number of rings (size 3 to 8) (size 9 to 14) (size 15 to 20)
#    0.000    1.571    5.714    2.571    2.000    4.571 
#    0.000    1.429    0.000    0.000    0.000    0.000 
#    0.000    1.143    0.000    0.143    0.000    0.000 
#
# Total GULP energy -156203.705827 kJ/mol
# GULP energy per Si atom -5578.703780 kJ/mol
# Density = 1.684973 g / cm^3
# Si number density = 16.888168 Si / 1000 Ang^3
#
#
#
# Elastic Constant Matrix: (Units=GPa)
#
#
# Indices 1 2 3 4 5 6 
#
# 1 11.8696 14.4226 4.6343 -0.0002 -2.5436 0.0031
# 2 14.4226 92.9307 30.9422 -0.0001 -4.9689 0.0005
# 3 4.6343 30.9422 98.3267 0.0003 -4.8348 0.0062
# 4 -0.0002 -0.0001 0.0003 21.0319 -0.0011 -4.7960
# 5 -2.5436 -4.9689 -4.8348 -0.0011 17.6533 0.0093
# 6 0.0031 0.0005 0.0062 -4.7960 0.0093 70.0427
#
#
#
# Elastic Compliance Matrix: (Units=1/GPa)
#
#
# Indices 1 2 3 4 5 6 
#
# 1 0.105845 -0.016043 0.000596 0.000000 0.010898 -0.000006
# 2 -0.016043 0.014551 -0.003786 0.000000 0.000747 0.000001
# 3 0.000596 -0.003786 0.011439 0.000000 0.002153 -0.000001
# 4 0.000000 0.000000 0.000000 0.048301 0.000001 0.003307
# 5 0.010898 0.000747 0.002153 0.000001 0.059017 -0.000008
# 6 -0.000006 0.000001 -0.000001 0.003307 -0.000008 0.014503
#
#
# Mechanical properties :
#
#
# Convention : Reuss Voigt Hill
#
# Bulk Modulus (GPa) = 10.71012 33.68056 22.19534
# Shear Modulus (GPa) = 15.46807 31.95411 23.71109
#
# Velocity S-wave (km/s) = 3.02969 4.35455 3.75107
# Velocity P-wave (km/s) = 4.31210 6.72825 5.65082
#
# Compressibility (1/GPa) = 0.09336962
#
# Stress axis : x y z
#
# Youngs Moduli (GPa) = 9.44776 68.72342 87.41679
#
# Poissons Ratio (x) = 1.10250 -0.05207
# Poissons Ratio (y) = 0.15157 0.33098
# Poissons Ratio (z) = -0.00563 0.26020
#
# Static dielectric constant tensor:
#      x y z
#    x 1.586180 0.000000 0.010150 
#    y 0.000000 1.597130 0.000000 
#    z 0.010150 0.000000 1.677310 
# 
# From -- ./inp_files/318510.got.cif
#   From: 2010.05.17/outbox.cif.g08.bks.cpg/sg12_160_cif.got.tgz:318510.got - 2010.06.03 13:09:07.
