data_PCOD9204660
_publ_section_title
;
Structure prediction by ZEFSAII (Michael W. Deem and Ramdas Pophale) SiO2 
 PCOD9204660
Probable space group: C 2/M
;
_chemical_formula_sum "Si O2"
_cell_formula_units_Z 52
_cell_length_a 32.362443
_cell_length_b 14.409836
_cell_length_c 5.383362
_cell_angle_alpha 90.000000
_cell_angle_beta 115.470483
_cell_angle_gamma 90.000000
_cell_volume 2266.463947
_symmetry_space_group_name_H-M "C 2/M"
_symmetry_group_IT_number 12
_symmetry_cell_setting 'monoclinic'
loop_
_space_group_symop_operation_xyz
x,y,z
-x,y,-z
-x,-y,-z
x,-y,z
1/2+x,1/2+y,z
1/2-x,1/2+y,-z
1/2-x,1/2-y,-z
1/2+x,1/2-y,z
loop_
_atom_site_type_symbol
_atom_site_label
_atom_site_fract_x
_atom_site_fract_y
_atom_site_fract_z
Si Si1 0.059673 0.396300 0.030469
Si Si2 0.659427 0.132338 0.235344
Si Si3 0.550947 0.294032 0.243425
Si Si4 0.190436 0.140684 0.867983
Si Si5 0.295091 0.135717 0.143971
Si Si6 0.500000 0.219772 0.500000
Si Si7 0.643148 0.647852 0.246249
O O1 0.048994 0.500000 0.088915
O O2 0.108917 0.399333 0.030362
O O3 0.064989 0.314448 0.243822
O O4 0.022284 0.350102 0.755365
O O5 0.674625 0.101171 0.547901
O O6 0.656741 0.243835 0.249632
O O7 0.692670 0.103769 0.100543
O O8 0.540063 0.289103 0.507614
O O9 0.590686 0.351732 0.213319
O O10 0.500000 0.311906 0.000000
O O11 0.195030 0.253090 0.849132
O O12 0.172519 0.108842 0.552447
O O13 0.242378 0.113736 0.062083
O O14 0.156774 0.112387 0.007333
#
# Coordination Sequence:
#
# PCOD9204660 Si02
#       7
#     8   8   8   8   8   4   8
#     4  10  21  33  44  59  74  99 138 180 220 258
#     4   9  18  28  44  57  79 100 120 157 202 251
#     4   9  20  31  43  56  78 104 136 173 217 255
#     4   9  16  25  42  61  80  98 119 151 185 245
#     4   9  16  28  41  61  80  98 119 143 197 249
#     4  10  21  32  46  56  70 104 134 180 224 258
#     4   9  17  26  42  60  79 100 126 155 196 238
#
# _framework density 22.943231000000001
#
# number of rings (size 3 to 8) (size 9 to 14) (size 15 to 20)
#    0.000    2.769    0.000    1.154   12.923    7.077 
#    0.000    0.000    0.000    0.000    0.000    0.000 
#    0.000    0.000    0.000    0.000    0.000    0.000 
#
# Total GULP energy -144796.111174 kJ/mol
# GULP energy per Si atom -5569.081199 kJ/mol
# Density = 2.289101 g / cm^3
# Si number density = 22.943231 Si / 1000 Ang^3
#
#
#
# Elastic Constant Matrix: (Units=GPa)
#
#
# Indices 1 2 3 4 5 6 
#
# 1 148.2663 -0.5297 23.3088 0.0000 -8.2377 0.0000
# 2 -0.5297 55.5758 1.7743 0.0000 1.5667 0.0000
# 3 23.3088 1.7743 60.9730 0.0000 -8.9280 0.0000
# 4 0.0000 0.0000 0.0000 -20.9256 0.0000 -11.3420
# 5 -8.2377 1.5667 -8.9280 0.0000 35.0231 0.0000
# 6 0.0000 0.0000 0.0000 -11.3420 0.0000 -13.2504
#
#
#
# Elastic Compliance Matrix: (Units=1/GPa)
#
#
# Indices 1 2 3 4 5 6 
#
# 1 0.007212 0.000123 -0.002611 0.000000 0.001025 0.000000
# 2 0.000123 0.018044 -0.000713 0.000000 -0.000960 0.000000
# 3 -0.002611 -0.000713 0.018006 0.000000 0.004008 0.000000
# 4 0.000000 0.000000 0.000000 -0.089150 0.000000 0.076310
# 5 0.001025 -0.000960 0.004008 0.000000 0.029858 0.000000
# 6 0.000000 0.000000 0.000000 0.076310 0.000000 -0.140790
#
#
# Mechanical properties :
#
#
# Convention : Reuss Voigt Hill
#
# Bulk Modulus (GPa) = 27.12760 34.88022 31.00391
# Shear Modulus (GPa) = -36.19777 16.18687 -10.00545
#
# Velocity S-wave (km/s) = -3.97635 2.65904 -2.09056
# Velocity P-wave (km/s) = 3.03848 4.96620 2.77766
#
# Compressibility (1/GPa) = 0.03686283
#
# Stress axis : x y z
#
# Youngs Moduli (GPa) = 138.64921 55.41878 55.53616
#
# Poissons Ratio (x) = -0.00683 0.14498
# Poissons Ratio (y) = -0.01708 0.03958
# Poissons Ratio (z) = 0.36196 0.03950
#
# Static dielectric constant tensor:
#      x y z
#    x 1.942600 0.000000 -0.056580 
#    y 0.000000 1.911410 0.000000 
#    z -0.056580 0.000000 1.876380 
# 
# From -- ./inp_files/32291.got.cif
#   From: 2010.05.17/outbox.cif.g08.bks.cpg/sg12_17_cif.got.tgz:32291.got - 2010.06.03 13:09:07.
