data_PCOD9204628
_publ_section_title
;
Structure prediction by ZEFSAII (Michael W. Deem and Ramdas Pophale) SiO2 
 PCOD9204628
Probable space group: C 2/M
;
_chemical_formula_sum "Si O2"
_cell_formula_units_Z 24
_cell_length_a 8.456198
_cell_length_b 12.657802
_cell_length_c 9.862180
_cell_angle_alpha 90.000000
_cell_angle_beta 112.697001
_cell_angle_gamma 90.000000
_cell_volume 973.868190
_symmetry_space_group_name_H-M "C 2/M"
_symmetry_group_IT_number 12
_symmetry_cell_setting 'monoclinic'
loop_
_space_group_symop_operation_xyz
x,y,z
-x,y,-z
-x,-y,-z
x,-y,z
1/2+x,1/2+y,z
1/2-x,1/2+y,-z
1/2-x,1/2-y,-z
1/2+x,1/2-y,z
loop_
_atom_site_type_symbol
_atom_site_label
_atom_site_fract_x
_atom_site_fract_y
_atom_site_fract_z
Si Si1 0.315927 0.000000 0.020078
Si Si2 0.008121 0.500000 0.339633
Si Si3 0.283424 0.791353 0.660901
Si Si4 0.030457 0.119553 0.783618
O O1 0.193924 0.097493 0.934708
O O2 0.342175 0.000000 0.188971
O O3 0.500000 0.000000 0.000000
O O4 0.106726 0.396596 0.321667
O O5 0.000000 0.500000 0.500000
O O6 0.250000 0.750000 0.500000
O O7 0.383431 0.700430 0.776677
O O8 0.112195 0.825169 0.679794
O O9 0.968969 0.000000 0.730572
#
# Coordination Sequence:
#
# PCOD9204628 Si02
#       4
#     4   4   8   8
#     4  10  20  49  73  97 150 201 232 314 364 434
#     4  12  24  43  67 111 146 179 249 305 364 432
#     4  12  24  43  73 106 149 195 237 314 367 432
#     4  10  24  46  72 104 142 198 249 293 374 436
#
# _framework density 24.643992999999998
#
# number of rings (size 3 to 8) (size 9 to 14) (size 15 to 20)
#    1.000    0.000    5.000    3.000    2.333    2.667 
#    3.000    0.000    0.000    8.000    0.000    0.000 
#    0.000    0.000    0.000    0.000    0.000    0.000 
#
# Total GULP energy -67138.151484 kJ/mol
# GULP energy per Si atom -5594.845957 kJ/mol
# Density = 2.458790 g / cm^3
# Si number density = 24.643993 Si / 1000 Ang^3
#
#
#
# Elastic Constant Matrix: (Units=GPa)
#
#
# Indices 1 2 3 4 5 6 
#
# 1 90.4279 73.1461 37.1564 0.0000 1.2731 0.0000
# 2 73.1461 194.7369 23.5731 0.0000 7.8458 0.0000
# 3 37.1564 23.5731 134.8780 0.0000 14.5567 0.0000
# 4 0.0000 0.0000 0.0000 31.5660 0.0000 23.7781
# 5 1.2731 7.8458 14.5567 0.0000 41.6237 0.0000
# 6 0.0000 0.0000 0.0000 23.7781 0.0000 32.6814
#
#
#
# Elastic Compliance Matrix: (Units=1/GPa)
#
#
# Indices 1 2 3 4 5 6 
#
# 1 0.017744 -0.006261 -0.004014 0.000000 0.002041 0.000000
# 2 -0.006261 0.007475 0.000571 0.000000 -0.001417 0.000000
# 3 -0.004014 0.000571 0.008749 0.000000 -0.003045 0.000000
# 4 0.000000 0.000000 0.000000 0.070098 0.000000 -0.051001
# 5 0.002041 -0.001417 -0.003045 0.000000 0.025294 0.000000
# 6 0.000000 0.000000 0.000000 -0.051001 0.000000 0.067705
#
#
# Mechanical properties :
#
#
# Convention : Reuss Voigt Hill
#
# Bulk Modulus (GPa) = 68.68366 76.42156 72.55261
# Shear Modulus (GPa) = 22.59114 40.25203 31.42159
#
# Velocity S-wave (km/s) = 3.03099 4.04585 3.57462
# Velocity P-wave (km/s) = 6.33877 7.27342 6.82212
#
# Compressibility (1/GPa) = 0.01455950
#
# Stress axis : x y z
#
# Youngs Moduli (GPa) = 56.35789 133.78195 114.30350
#
# Poissons Ratio (x) = 0.83763 0.45883
# Poissons Ratio (y) = 0.35287 -0.06531
# Poissons Ratio (z) = 0.22623 -0.07644
#
# Static dielectric constant tensor:
#      x y z
#    x 2.034500 0.000000 -0.001790 
#    y 0.000000 1.990850 0.000000 
#    z -0.001790 0.000000 1.997730 
# 
# From -- ./inp_files/116792.got.cif
#   From: 2010.05.17/outbox.cif.g08.bks.cpg/sg12_59_cif.got.tgz:116792.got - 2010.06.03 13:09:07.
