data_PCOD9204286
_publ_section_title
;
Structure prediction by ZEFSAII (Michael W. Deem and Ramdas Pophale) SiO2 
 PCOD9204286
Probable space group: C 2/M
;
_chemical_formula_sum "Si O2"
_cell_formula_units_Z 30
_cell_length_a 8.920093
_cell_length_b 30.626798
_cell_length_c 5.006162
_cell_angle_alpha 90.000000
_cell_angle_beta 99.635985
_cell_angle_gamma 90.000000
_cell_volume 1348.356779
_symmetry_space_group_name_H-M "C 2/M"
_symmetry_group_IT_number 12
_symmetry_cell_setting 'monoclinic'
loop_
_space_group_symop_operation_xyz
x,y,z
-x,y,-z
-x,-y,-z
x,-y,z
1/2+x,1/2+y,z
1/2-x,1/2+y,-z
1/2-x,1/2-y,-z
1/2+x,1/2-y,z
loop_
_atom_site_type_symbol
_atom_site_label
_atom_site_fract_x
_atom_site_fract_y
_atom_site_fract_z
Si Si1 0.000000 0.000000 0.500000
Si Si2 0.656221 0.437279 0.905471
Si Si3 0.174653 0.163985 0.018563
Si Si4 0.108912 0.500000 0.784656
Si Si5 0.172918 0.702844 0.445006
O O1 0.871335 0.961884 0.381209
O O2 0.665653 0.385481 0.909389
O O3 0.500000 0.451417 0.000000
O O4 0.786777 0.457964 0.125621
O O5 0.284772 0.189099 0.844553
O O6 0.245176 0.168642 0.332606
O O7 0.000000 0.180686 0.000000
O O8 0.000000 0.500000 0.500000
O O9 0.000000 0.500000 0.000000
O O10 0.250000 0.750000 0.500000
O O11 0.000000 0.705079 0.500000
#
# Coordination Sequence:
#
# PCOD9204286 Si02
#       5
#     2   8   8   4   8
#     4  10  20  40  72  96 138 180 252 286 360 404
#     4  10  25  42  71  95 138 190 242 291 352 440
#     4  11  25  44  73 106 138 184 242 295 352 426
#     4  11  26  41  62  96 137 177 224 288 357 409
#     4  12  26  47  73 103 146 187 234 293 367 434
#
# _framework density 22.249306000000001
#
# number of rings (size 3 to 8) (size 9 to 14) (size 15 to 20)
#    0.000    1.067    0.000    5.600   14.933    3.200 
#    0.000    0.000    0.000    0.000    0.000    0.000 
#    0.000    0.000    0.000    0.000    0.000    0.000 
#
# Total GULP energy -83506.243671 kJ/mol
# GULP energy per Si atom -5567.082911 kJ/mol
# Density = 2.219867 g / cm^3
# Si number density = 22.249306 Si / 1000 Ang^3
#
#
#
# Elastic Constant Matrix: (Units=GPa)
#
#
# Indices 1 2 3 4 5 6 
#
# 1 174.8496 8.3903 33.5486 0.0000 2.0237 0.0000
# 2 8.3903 89.3018 -4.5688 0.0000 1.0016 0.0000
# 3 33.5486 -4.5688 124.2221 0.0000 7.6307 0.0000
# 4 0.0000 0.0000 0.0000 -13.7131 0.0000 -15.6042
# 5 2.0237 1.0016 7.6307 0.0000 51.4812 0.0000
# 6 0.0000 0.0000 0.0000 -15.6042 0.0000 38.7277
#
#
#
# Elastic Compliance Matrix: (Units=1/GPa)
#
#
# Indices 1 2 3 4 5 6 
#
# 1 0.006070 -0.000656 -0.001665 0.000000 0.000021 0.000000
# 2 -0.000656 0.011294 0.000610 0.000000 -0.000284 0.000000
# 3 -0.001665 0.000610 0.008597 0.000000 -0.001221 0.000000
# 4 0.000000 0.000000 0.000000 -0.049999 0.000000 -0.020146
# 5 0.000021 -0.000284 -0.001221 0.000000 0.019610 0.000000
# 6 0.000000 0.000000 0.000000 -0.020146 0.000000 0.017704
#
#
# Mechanical properties :
#
#
# Convention : Reuss Voigt Hill
#
# Bulk Modulus (GPa) = 44.36547 51.45705 47.91126
# Shear Modulus (GPa) = 206.52192 38.69939 122.61065
#
# Velocity S-wave (km/s) = 9.64486 4.17508 7.43150
# Velocity P-wave (km/s) = 12.00060 6.81318 9.75792
#
# Compressibility (1/GPa) = 0.02254005
#
# Stress axis : x y z
#
# Youngs Moduli (GPa) = 164.74940 88.54277 116.31836
#
# Poissons Ratio (x) = 0.05806 0.19363
# Poissons Ratio (y) = 0.10802 -0.07095
# Poissons Ratio (z) = 0.27425 -0.05401
#
# Static dielectric constant tensor:
#      x y z
#    x 1.844700 0.000000 -0.094560 
#    y 0.000000 1.899480 0.000000 
#    z -0.094560 0.000000 1.996590 
# 
# From -- ./inp_files/3952.got.cif
#   From: 2010.05.17/outbox.cif.g08.bks.cpg/sg12_2_cif.got.tgz:3952.got - 2010.06.03 13:09:07.
