data_PCOD9204750
_publ_section_title
;
Structure prediction by ZEFSAII (Michael W. Deem and Ramdas Pophale) SiO2 
 PCOD9204750
Probable space group: C 2/M
;
_chemical_formula_sum "Si O2"
_cell_formula_units_Z 48
_cell_length_a 18.253314
_cell_length_b 32.950873
_cell_length_c 9.419733
_cell_angle_alpha 90.000000
_cell_angle_beta 157.207496
_cell_angle_gamma 90.000000
_cell_volume 2194.831715
_symmetry_space_group_name_H-M "C 2/M"
_symmetry_group_IT_number 12
_symmetry_cell_setting 'monoclinic'
loop_
_space_group_symop_operation_xyz
x,y,z
-x,y,-z
-x,-y,-z
x,-y,z
1/2+x,1/2+y,z
1/2-x,1/2+y,-z
1/2-x,1/2-y,-z
1/2+x,1/2-y,z
loop_
_atom_site_type_symbol
_atom_site_label
_atom_site_fract_x
_atom_site_fract_y
_atom_site_fract_z
Si Si1 0.011383 0.545245 0.687885
Si Si2 0.908323 0.131017 0.989953
Si Si3 0.526808 0.878483 0.881163
Si Si4 0.128193 0.296400 0.935852
Si Si5 0.567314 0.456538 0.956649
Si Si6 0.297311 0.292730 0.939385
O O1 0.096032 0.500000 0.854174
O O2 0.106094 0.581666 0.943747
O O3 0.795090 0.542186 0.355985
O O4 0.000000 0.554918 0.500000
O O5 0.683915 0.126230 0.560208
O O6 0.981770 0.088486 0.186369
O O7 0.926051 0.170847 0.115327
O O8 0.000000 0.136951 0.000000
O O9 0.637966 0.836572 0.049487
O O10 0.500000 0.885479 0.000000
O O11 0.279794 0.294832 0.078557
O O12 0.917919 0.298803 0.495364
O O13 0.141034 0.250460 0.015427
O O14 0.500476 0.500000 0.775093
O O15 0.500000 0.455923 0.000000
#
# Coordination Sequence:
#
# PCOD9204750 Si02
#       6
#     8   8   8   8   8   8
#     4   9  18  31  52  80 104 134 177 215 250 305
#     4   9  18  31  50  73  98 132 171 210 247 300
#     4  10  21  33  50  77 108 136 164 210 268 309
#     4   9  19  33  51  70  98 131 173 209 256 307
#     4   8  14  26  45  72 100 126 160 204 248 293
#     4   9  18  33  51  72  93 133 171 215 253 301
#
# _framework density 21.869557
#
# number of rings (size 3 to 8) (size 9 to 14) (size 15 to 20)
#    0.000    3.000    0.000    0.000    7.000    2.333 
#    0.000    3.333    0.000    0.000    0.000    0.000 
#    0.000   27.000    0.000    0.000    0.000    0.000 
#
# Total GULP energy -133688.585024 kJ/mol
# GULP energy per Si atom -5570.357709 kJ/mol
# Density = 2.181978 g / cm^3
# Si number density = 21.869557 Si / 1000 Ang^3
#
#
#
# Elastic Constant Matrix: (Units=GPa)
#
#
# Indices 1 2 3 4 5 6 
#
# 1 55.0945 86.7847 15.7469 -0.0003 4.5164 0.0000
# 2 86.7847 270.6864 5.7431 0.0001 -16.2007 0.0000
# 3 15.7469 5.7431 60.6818 -0.0001 8.8977 0.0002
# 4 -0.0003 0.0001 -0.0001 7.5220 -0.0002 1.3988
# 5 4.5164 -16.2007 8.8977 -0.0002 22.7858 0.0001
# 6 0.0000 0.0000 0.0002 1.3988 0.0001 41.1284
#
#
#
# Elastic Compliance Matrix: (Units=1/GPa)
#
#
# Indices 1 2 3 4 5 6 
#
# 1 0.047047 -0.015958 -0.008133 0.000001 -0.017496 0.000000
# 2 -0.015958 0.009310 0.001937 0.000000 0.009026 0.000000
# 3 -0.008133 0.001937 0.019060 0.000000 -0.004454 0.000000
# 4 0.000001 0.000000 0.000000 0.133789 0.000000 -0.004550
# 5 -0.017496 0.009026 -0.004454 0.000000 0.055511 0.000000
# 6 0.000000 0.000000 0.000000 -0.004550 0.000000 0.024469
#
#
# Mechanical properties :
#
#
# Convention : Reuss Voigt Hill
#
# Bulk Modulus (GPa) = 32.14711 67.00133 49.57422
# Shear Modulus (GPa) = 14.54063 32.83311 23.68687
#
# Velocity S-wave (km/s) = 2.58132 3.87889 3.29462
# Velocity P-wave (km/s) = 4.85960 7.12491 6.09836
#
# Compressibility (1/GPa) = 0.03110700
#
# Stress axis : x y z
#
# Youngs Moduli (GPa) = 21.25549 107.41383 52.46679
#
# Poissons Ratio (x) = 1.71413 0.42671
# Poissons Ratio (y) = 0.33920 -0.10161
# Poissons Ratio (z) = 0.17287 -0.20801
#
# Static dielectric constant tensor:
#      x y z
#    x 1.760340 0.000000 -0.017100 
#    y 0.000000 1.901600 0.000000 
#    z -0.017100 0.000000 1.869550 
# 
# From -- ./inp_files/68363.got.cif
#   From: 2010.05.17/outbox.cif.g08.bks.cpg/sg12_35_cif.got.tgz:68363.got - 2010.06.03 13:09:07.
