data_PCOD9204315
_publ_section_title
;
Structure prediction by ZEFSAII (Michael W. Deem and Ramdas Pophale) SiO2 
 PCOD9204315
Probable space group: C 2/M
;
_chemical_formula_sum "Si O2"
_cell_formula_units_Z 52
_cell_length_a 10.563916
_cell_length_b 20.511872
_cell_length_c 15.918053
_cell_angle_alpha 90.000000
_cell_angle_beta 144.162561
_cell_angle_gamma 90.000000
_cell_volume 2019.471974
_symmetry_space_group_name_H-M "C 2/M"
_symmetry_group_IT_number 12
_symmetry_cell_setting 'monoclinic'
loop_
_space_group_symop_operation_xyz
x,y,z
-x,y,-z
-x,-y,-z
x,-y,z
1/2+x,1/2+y,z
1/2-x,1/2+y,-z
1/2-x,1/2-y,-z
1/2+x,1/2-y,z
loop_
_atom_site_type_symbol
_atom_site_label
_atom_site_fract_x
_atom_site_fract_y
_atom_site_fract_z
Si Si1 0.133371 0.923115 0.773572
Si Si2 0.468328 0.375936 0.109122
Si Si3 0.224676 0.500000 0.728137
Si Si4 0.138570 0.610480 0.456827
Si Si5 0.364033 0.226135 0.329101
Si Si6 0.270210 0.631324 0.344829
Si Si7 0.278982 0.269808 0.919872
O O1 0.168080 0.884909 0.878699
O O2 0.878193 0.909740 0.615066
O O3 0.272491 0.900426 0.768382
O O4 0.160487 0.000000 0.800974
O O5 0.590150 0.443031 0.160230
O O6 0.656442 0.321408 0.221823
O O7 0.317222 0.347605 0.954360
O O8 0.037010 0.556811 0.614168
O O9 0.129307 0.616953 0.350413
O O10 0.072525 0.681205 0.457676
O O11 0.309654 0.292190 0.348111
O O12 0.388795 0.245173 0.243292
O O13 0.500000 0.603346 0.500000
O O14 0.500000 0.241943 0.000000
O O15 0.250000 0.250000 0.000000
#
# Coordination Sequence:
#
# PCOD9204315 Si02
#       7
#     8   8   4   8   8   8   8
#     4  11  22  38  63  87 126 171 207 253 310 378
#     4  10  22  39  63  94 119 161 211 259 313 370
#     4  10  20  41  62  90 126 163 212 258 307 369
#     4  10  23  37  61  91 127 168 207 254 310 376
#     4  10  23  39  61  93 122 163 204 262 318 366
#     4  10  24  36  58  93 131 169 204 256 310 380
#     4  10  22  41  65  92 124 163 210 260 318 380
#
# _framework density 25.749305
#
# number of rings (size 3 to 8) (size 9 to 14) (size 15 to 20)
#    0.000    1.846    1.538    0.923    9.692    4.615 
#    0.000    9.615    0.000    0.000    0.000    1.615 
#    0.000    0.000    0.000    0.000    0.000    0.000 
#
# Total GULP energy -144951.765372 kJ/mol
# GULP energy per Si atom -5575.067899 kJ/mol
# Density = 2.569070 g / cm^3
# Si number density = 25.749305 Si / 1000 Ang^3
#
#
#
# Elastic Constant Matrix: (Units=GPa)
#
#
# Indices 1 2 3 4 5 6 
#
# 1 130.8785 29.2446 17.5691 0.0021 -37.3657 0.0005
# 2 29.2446 110.6888 4.9821 0.0007 -17.5220 0.0002
# 3 17.5691 4.9821 56.7697 0.0009 -6.9028 0.0000
# 4 0.0021 0.0007 0.0009 26.6465 0.0008 11.1983
# 5 -37.3657 -17.5220 -6.9028 0.0008 36.5164 0.0000
# 6 0.0005 0.0002 0.0000 11.1983 0.0000 18.1531
#
#
#
# Elastic Compliance Matrix: (Units=1/GPa)
#
#
# Indices 1 2 3 4 5 6 
#
# 1 0.011177 -0.001202 -0.002081 -0.000001 0.010466 0.000001
# 2 -0.001202 0.009911 -0.000071 0.000000 0.003512 0.000000
# 3 -0.002081 -0.000071 0.018426 -0.000001 0.001320 0.000001
# 4 -0.000001 0.000000 -0.000001 0.050662 -0.000003 -0.031253
# 5 0.010466 0.003512 0.001320 -0.000003 0.040030 0.000001
# 6 0.000001 0.000000 0.000001 -0.031253 0.000001 0.074366
#
#
# Mechanical properties :
#
#
# Convention : Reuss Voigt Hill
#
# Bulk Modulus (GPa) = 30.48240 44.65875 37.57057
# Shear Modulus (GPa) = 22.50074 32.69928 27.60001
#
# Velocity S-wave (km/s) = 2.95928 3.56744 3.27750
# Velocity P-wave (km/s) = 4.85184 5.86090 5.38008
#
# Compressibility (1/GPa) = 0.03280582
#
# Stress axis : x y z
#
# Youngs Moduli (GPa) = 89.47059 100.89636 54.27201
#
# Poissons Ratio (x) = 0.12133 0.11293
# Poissons Ratio (y) = 0.10759 0.00383
# Poissons Ratio (z) = 0.18617 0.00713
#
# Static dielectric constant tensor:
#      x y z
#    x 2.171390 0.000000 -0.026840 
#    y 0.000000 2.002650 0.000000 
#    z -0.026840 0.000000 2.102420 
# 
# From -- ./inp_files/265127.got.cif
#   From: 2010.05.17/outbox.cif.g08.bks.cpg/sg12_133_cif.got.tgz:265127.got - 2010.06.03 13:09:07.
