data_PCOD9204404
_publ_section_title
;
Structure prediction by ZEFSAII (Michael W. Deem and Ramdas Pophale) SiO2 
 PCOD9204404
Probable space group: C 2/M
;
_chemical_formula_sum "Si O2"
_cell_formula_units_Z 58
_cell_length_a 22.499665
_cell_length_b 9.683338
_cell_length_c 25.489228
_cell_angle_alpha 90.000000
_cell_angle_beta 150.011197
_cell_angle_gamma 90.000000
_cell_volume 2775.752849
_symmetry_space_group_name_H-M "C 2/M"
_symmetry_group_IT_number 12
_symmetry_cell_setting 'monoclinic'
loop_
_space_group_symop_operation_xyz
x,y,z
-x,y,-z
-x,-y,-z
x,-y,z
1/2+x,1/2+y,z
1/2-x,1/2+y,-z
1/2-x,1/2-y,-z
1/2+x,1/2-y,z
loop_
_atom_site_type_symbol
_atom_site_label
_atom_site_fract_x
_atom_site_fract_y
_atom_site_fract_z
Si Si1 0.551725 0.835369 0.145080
Si Si2 0.223079 0.657213 0.529911
Si Si3 0.025812 0.156724 0.223175
Si Si4 0.858750 0.841244 0.944026
Si Si5 0.984504 0.232043 0.398830
Si Si6 0.853807 0.843501 0.190760
Si Si7 0.500000 0.500000 0.500000
Si Si8 0.754716 0.150765 0.747137
O O1 0.504522 0.772732 0.163598
O O2 0.684756 0.774932 0.238396
O O3 0.549217 0.000000 0.140211
O O4 0.468339 0.759813 0.038782
O O5 0.210762 0.500000 0.502130
O O6 0.250000 0.750000 0.500000
O O7 0.337720 0.666115 0.654662
O O8 0.104917 0.698748 0.470645
O O9 0.945304 0.174348 0.213159
O O10 0.003897 0.000000 0.186606
O O11 0.747911 0.771805 0.889288
O O12 0.817410 0.845021 0.852084
O O13 0.884409 0.000000 0.978695
O O14 0.921454 0.171739 0.298015
O O15 0.010683 0.118600 0.462173
O O16 0.884227 0.329876 0.347953
O O17 0.803673 0.000000 0.149833
O O18 0.778583 0.000000 0.741271
#
# Coordination Sequence:
#
# PCOD9204404 Si02
#       8
#     8   8   8   8   8   8   2   8
#     4  12  26  41  63  97 131 167 221 278 339 399
#     4  11  24  43  70  99 133 179 232 281 336 404
#     4  10  23  42  64  92 129 178 215 274 331 391
#     4  10  22  41  68  95 127 171 216 268 334 409
#     4  11  24  42  66 100 137 176 223 272 341 399
#     4  10  20  41  67  92 129 168 219 269 325 396
#     4  12  28  40  70 104 146 180 222 298 342 402
#     4  10  23  43  67  93 131 177 222 271 332 407
#
# _framework density 20.895230999999999
#
# number of rings (size 3 to 8) (size 9 to 14) (size 15 to 20)
#    0.000    1.379    2.069    2.483    3.862    4.966 
#    0.000    0.690    0.000    0.000    0.000    0.000 
#    0.000    0.000    0.000    0.000    0.000    0.000 
#
# Total GULP energy -161816.762595 kJ/mol
# GULP energy per Si atom -5579.888365 kJ/mol
# Density = 2.084767 g / cm^3
# Si number density = 20.895231 Si / 1000 Ang^3
#
#
#
# Elastic Constant Matrix: (Units=GPa)
#
#
# Indices 1 2 3 4 5 6 
#
# 1 105.8584 63.9910 32.8648 0.0000 12.2850 0.0000
# 2 63.9910 192.3237 40.4459 -0.0001 7.1345 0.0000
# 3 32.8648 40.4459 44.4385 -0.0001 16.1025 0.0000
# 4 0.0000 -0.0001 -0.0001 14.3782 -0.0001 -10.5899
# 5 12.2850 7.1345 16.1025 -0.0001 33.7994 0.0000
# 6 0.0000 0.0000 0.0000 -10.5899 0.0000 32.5394
#
#
#
# Elastic Compliance Matrix: (Units=1/GPa)
#
#
# Indices 1 2 3 4 5 6 
#
# 1 0.013525 -0.003012 -0.006902 0.000000 -0.000992 0.000000
# 2 -0.003012 0.007186 -0.005028 0.000000 0.001973 0.000000
# 3 -0.006902 -0.005028 0.037335 0.000000 -0.014217 0.000000
# 4 0.000000 0.000000 0.000000 0.091477 0.000000 0.029771
# 5 -0.000992 0.001973 -0.014217 0.000000 0.036304 0.000000
# 6 0.000000 0.000000 0.000000 0.029771 0.000000 0.040421
#
#
# Mechanical properties :
#
#
# Convention : Reuss Voigt Hill
#
# Bulk Modulus (GPa) = 35.50761 68.58045 52.04403
# Shear Modulus (GPa) = 18.83111 29.83130 24.33121
#
# Velocity S-wave (km/s) = 3.00528 3.78254 3.41609
# Velocity P-wave (km/s) = 5.39188 7.20896 6.36559
#
# Compressibility (1/GPa) = 0.02816298
#
# Stress axis : x y z
#
# Youngs Moduli (GPa) = 73.93642 139.16227 26.78452
#
# Poissons Ratio (x) = 0.41914 0.18486
# Poissons Ratio (y) = 0.22269 0.13467
# Poissons Ratio (z) = 0.51030 0.69968
#
# Static dielectric constant tensor:
#      x y z
#    x 1.752990 0.000000 0.006320 
#    y 0.000000 1.728420 0.000000 
#    z 0.006320 0.000000 1.780200 
# 
# From -- ./inp_files/367622.got.cif
#   From: 2010.05.17/outbox.cif.g08.bks.cpg/sg12_184_cif.got.tgz:367622.got - 2010.06.03 13:09:07.
