data_PCOD9204463
_publ_section_title
;
Structure prediction by ZEFSAII (Michael W. Deem and Ramdas Pophale) SiO2 
 PCOD9204463
Probable space group: C 2/M
;
_chemical_formula_sum "Si O2"
_cell_formula_units_Z 32
_cell_length_a 18.907272
_cell_length_b 14.407231
_cell_length_c 9.447106
_cell_angle_alpha 90.000000
_cell_angle_beta 29.928112
_cell_angle_gamma 90.000000
_cell_volume 1283.905377
_symmetry_space_group_name_H-M "C 2/M"
_symmetry_group_IT_number 12
_symmetry_cell_setting 'monoclinic'
loop_
_space_group_symop_operation_xyz
x,y,z
-x,y,-z
-x,-y,-z
x,-y,z
1/2+x,1/2+y,z
1/2-x,1/2+y,-z
1/2-x,1/2-y,-z
1/2+x,1/2-y,z
loop_
_atom_site_type_symbol
_atom_site_label
_atom_site_fract_x
_atom_site_fract_y
_atom_site_fract_z
Si Si1 0.885394 0.102250 0.095936
Si Si2 0.371957 0.174377 0.330436
Si Si3 0.557263 0.108362 0.241801
Si Si4 0.856584 0.113430 0.825821
O O1 0.740425 0.095148 0.433298
O O2 0.946263 0.000000 0.960600
O O3 0.855816 0.142270 0.992048
O O4 0.000000 0.150524 0.000000
O O5 0.250000 0.250000 0.500000
O O6 0.461682 0.179138 0.319323
O O7 0.500000 0.154086 0.000000
O O8 0.500000 0.103583 0.500000
O O9 0.552660 0.000000 0.195245
O O10 0.718976 0.141451 0.975493
O O11 0.000000 0.141957 0.500000
O O12 0.849166 0.000000 0.839245
#
# Coordination Sequence:
#
# PCOD9204463 Si02
#       4
#     8   8   8   8
#     4  10  21  39  68 103 138 173 218 283 343 400
#     4  12  27  46  66  92 138 189 233 280 336 411
#     4  10  20  41  74 106 133 167 222 289 347 399
#     4   9  18  34  63 105 140 165 206 275 351 407
#
# _framework density 24.923957000000001
#
# number of rings (size 3 to 8) (size 9 to 14) (size 15 to 20)
#    0.000    1.750    2.500    1.500    3.500    2.000 
#    0.000    1.250    0.000    0.000    0.000    0.000 
#    0.000    0.000    0.000    0.000    0.000    0.000 
#
# Total GULP energy -89211.564208 kJ/mol
# GULP energy per Si atom -5575.722763 kJ/mol
# Density = 2.486723 g / cm^3
# Si number density = 24.923957 Si / 1000 Ang^3
#
#
#
# Elastic Constant Matrix: (Units=GPa)
#
#
# Indices 1 2 3 4 5 6 
#
# 1 192.6546 46.7346 79.0536 0.0000 -38.2493 0.0000
# 2 46.7346 80.6529 15.5066 0.0000 -6.0480 0.0000
# 3 79.0536 15.5066 213.5845 0.0000 -32.4128 0.0000
# 4 0.0000 0.0000 0.0000 -7.4349 0.0000 -10.0643
# 5 -38.2493 -6.0480 -32.4128 0.0000 56.0662 0.0000
# 6 0.0000 0.0000 0.0000 -10.0643 0.0000 4.6986
#
#
#
# Elastic Compliance Matrix: (Units=1/GPa)
#
#
# Indices 1 2 3 4 5 6 
#
# 1 0.007655 -0.003776 -0.002004 0.000000 0.003656 0.000000
# 2 -0.003776 0.014479 0.000211 0.000000 -0.000892 0.000000
# 3 -0.002004 0.000211 0.005705 0.000000 0.001954 0.000000
# 4 0.000000 0.000000 0.000000 -0.034492 0.000000 -0.073881
# 5 0.003656 -0.000892 0.001954 0.000000 0.021364 0.000000
# 6 0.000000 0.000000 0.000000 -0.073881 0.000000 0.054578
#
#
# Mechanical properties :
#
#
# Convention : Reuss Voigt Hill
#
# Bulk Modulus (GPa) = 59.87833 85.49794 72.68813
# Shear Modulus (GPa) = 58.14263 33.70580 45.92422
#
# Velocity S-wave (km/s) = 4.83515 3.68141 4.29718
# Velocity P-wave (km/s) = 7.43291 7.24213 7.33814
#
# Compressibility (1/GPa) = 0.01670053
#
# Stress axis : x y z
#
# Youngs Moduli (GPa) = 130.63276 69.06331 175.28546
#
# Poissons Ratio (x) = 0.26080 0.35133
# Poissons Ratio (y) = 0.49330 -0.03699
# Poissons Ratio (z) = 0.26183 -0.01458
#
# Static dielectric constant tensor:
#      x y z
#    x 2.009810 0.000000 0.010270 
#    y 0.000000 2.137370 0.000000 
#    z 0.010270 0.000000 1.972130 
# 
# From -- ./inp_files/77162.got.cif
#   From: 2010.05.17/outbox.cif.g08.bks.cpg/sg12_39_cif.got.tgz:77162.got - 2010.06.03 13:09:07.
