data_PCOD9204682
_publ_section_title
;
Structure prediction by ZEFSAII (Michael W. Deem and Ramdas Pophale) SiO2 
 PCOD9204682
Probable space group: C 2/M
;
_chemical_formula_sum "Si O2"
_cell_formula_units_Z 56
_cell_length_a 31.491864
_cell_length_b 13.571552
_cell_length_c 13.186474
_cell_angle_alpha 90.000000
_cell_angle_beta 23.871205
_cell_angle_gamma 90.000000
_cell_volume 2280.712372
_symmetry_space_group_name_H-M "C 2/M"
_symmetry_group_IT_number 12
_symmetry_cell_setting 'monoclinic'
loop_
_space_group_symop_operation_xyz
x,y,z
-x,y,-z
-x,-y,-z
x,-y,z
1/2+x,1/2+y,z
1/2-x,1/2+y,-z
1/2-x,1/2-y,-z
1/2+x,1/2-y,z
loop_
_atom_site_type_symbol
_atom_site_label
_atom_site_fract_x
_atom_site_fract_y
_atom_site_fract_z
Si Si1 0.754257 0.106804 0.409743
Si Si2 0.571437 0.891794 0.974222
Si Si3 0.854885 0.205795 0.826889
Si Si4 0.309015 0.891511 0.684081
Si Si5 0.846664 0.611662 0.974398
Si Si6 0.893161 0.821172 0.530990
Si Si7 0.027609 0.816107 0.048978
O O1 0.667334 0.111347 0.685845
O O2 0.709455 0.111394 0.395199
O O3 0.847452 0.183427 0.214750
O O4 0.807950 0.000000 0.303664
O O5 0.614064 0.883088 0.995819
O O6 0.498516 0.799447 0.110622
O O7 0.520757 0.000000 0.074624
O O8 0.918011 0.159182 0.594983
O O9 0.750000 0.250000 0.000000
O O10 0.803397 0.128841 0.016935
O O11 0.895804 0.300445 0.799859
O O12 0.381089 0.798280 0.553383
O O13 0.348500 0.000000 0.628387
O O14 0.865007 0.500000 0.896628
O O15 0.721257 0.633828 0.245931
O O16 0.972744 0.855922 0.270143
O O17 0.000000 0.860617 0.000000
#
# Coordination Sequence:
#
# PCOD9204682 Si02
#       7
#     8   8   8   8   8   8   8
#     4  10  21  37  56  76 100 135 177 213 247 301
#     4  10  21  37  56  76 100 135 177 213 247 301
#     4   8  17  31  49  78 106 131 170 211 248 295
#     4   9  17  34  57  75  99 138 177 209 245 297
#     4   9  17  34  57  75  99 138 177 209 245 297
#     4  10  21  32  50  82 109 131 164 213 260 298
#     4  12  23  35  54  78 107 136 162 208 268 311
#
# _framework density 24.553732
#
# number of rings (size 3 to 8) (size 9 to 14) (size 15 to 20)
#    0.000    2.571    0.000    3.857    0.000    6.857 
#    0.000    2.857    0.000    3.429    0.000    0.000 
#    0.000    0.000    0.000    0.000    0.000    0.000 
#
# Total GULP energy -156480.913147 kJ/mol
# GULP energy per Si atom -5588.604041 kJ/mol
# Density = 2.449785 g / cm^3
# Si number density = 24.553732 Si / 1000 Ang^3
#
#
#
# Elastic Constant Matrix: (Units=GPa)
#
#
# Indices 1 2 3 4 5 6 
#
# 1 114.0067 12.0472 37.3923 0.0000 37.3450 0.0000
# 2 12.0472 68.7870 9.5274 0.0000 5.0978 0.0000
# 3 37.3923 9.5274 143.0827 0.0000 45.6868 0.0000
# 4 0.0000 0.0000 0.0000 9.7294 0.0000 -2.3692
# 5 37.3450 5.0978 45.6868 0.0000 46.7775 0.0000
# 6 0.0000 0.0000 0.0000 -2.3692 0.0000 22.9369
#
#
#
# Elastic Compliance Matrix: (Units=1/GPa)
#
#
# Indices 1 2 3 4 5 6 
#
# 1 0.012011 -0.001401 -0.000047 0.000000 -0.009390 0.000000
# 2 -0.001401 0.014865 -0.000674 0.000000 0.000157 0.000000
# 3 -0.000047 -0.000674 0.010188 0.000000 -0.009839 0.000000
# 4 0.000000 0.000000 0.000000 0.105433 0.000000 0.010890
# 5 -0.009390 0.000157 -0.009839 0.000000 0.038467 0.000000
# 6 0.000000 0.000000 0.000000 0.010890 0.000000 0.044723
#
#
# Mechanical properties :
#
#
# Convention : Reuss Voigt Hill
#
# Bulk Modulus (GPa) = 30.46977 49.31224 39.89100
# Shear Modulus (GPa) = 20.75806 33.68273 27.22039
#
# Velocity S-wave (km/s) = 2.91075 3.70780 3.33318
# Velocity P-wave (km/s) = 4.87165 6.20140 5.57630
#
# Compressibility (1/GPa) = 0.03281942
#
# Stress axis : x y z
#
# Youngs Moduli (GPa) = 83.25800 67.27334 98.15612
#
# Poissons Ratio (x) = 0.09426 0.00464
# Poissons Ratio (y) = 0.11665 0.06612
# Poissons Ratio (z) = 0.00393 0.04532
#
# Static dielectric constant tensor:
#      x y z
#    x 1.945930 0.000000 0.016630 
#    y 0.000000 1.984190 0.000000 
#    z 0.016630 0.000000 2.002890 
# 
# From -- ./inp_files/111093.got.cif
#   From: 2010.05.17/outbox.cif.g08.bks.cpg/sg12_56_cif.got.tgz:111093.got - 2010.06.03 13:09:07.
