data_PCOD9204783
_publ_section_title
;
Structure prediction by ZEFSAII (Michael W. Deem and Ramdas Pophale) SiO2 
 PCOD9204783
Probable space group: C 2/M
;
_chemical_formula_sum "Si O2"
_cell_formula_units_Z 32
_cell_length_a 11.326073
_cell_length_b 18.089008
_cell_length_c 13.754821
_cell_angle_alpha 90.000000
_cell_angle_beta 32.152131
_cell_angle_gamma 90.000000
_cell_volume 1499.680417
_symmetry_space_group_name_H-M "C 2/M"
_symmetry_group_IT_number 12
_symmetry_cell_setting 'monoclinic'
loop_
_space_group_symop_operation_xyz
x,y,z
-x,y,-z
-x,-y,-z
x,-y,z
1/2+x,1/2+y,z
1/2-x,1/2+y,-z
1/2-x,1/2-y,-z
1/2+x,1/2-y,z
loop_
_atom_site_type_symbol
_atom_site_label
_atom_site_fract_x
_atom_site_fract_y
_atom_site_fract_z
Si Si1 0.473291 0.146740 0.836983
Si Si2 0.158057 0.918525 0.294621
Si Si3 0.496501 0.680529 0.118670
Si Si4 0.287084 0.664480 0.448369
O O1 0.602856 0.103457 0.830507
O O2 0.490930 0.233257 0.856681
O O3 0.603032 0.128218 0.645985
O O4 0.215699 0.136195 0.997715
O O5 0.000000 0.920903 0.500000
O O6 0.030418 0.859192 0.317841
O O7 0.159275 0.000000 0.248846
O O8 0.293973 0.652282 0.327726
O O9 0.500000 0.678593 0.000000
O O10 0.250000 0.750000 0.500000
#
# Coordination Sequence:
#
# PCOD9204783 Si02
#       4
#     8   8   8   8
#     4   9  20  34  53  80 112 144 182 233 287 326
#     4   9  18  35  60  85 113 145 188 236 285 337
#     4  10  21  33  53  79 114 146 186 235 278 333
#     4   9  19  35  54  82 113 145 183 231 284 332
#
# _framework density 21.337879999999998
#
# number of rings (size 3 to 8) (size 9 to 14) (size 15 to 20)
#    0.000    2.750    0.000    0.000   10.500    1.000 
#    0.000    2.500    0.000    3.000    0.000    7.000 
#    0.000    0.000    0.000    0.000    0.000    0.000 
#
# Total GULP energy -89092.612874 kJ/mol
# GULP energy per Si atom -5568.288305 kJ/mol
# Density = 2.128931 g / cm^3
# Si number density = 21.337880 Si / 1000 Ang^3
#
#
#
# Elastic Constant Matrix: (Units=GPa)
#
#
# Indices 1 2 3 4 5 6 
#
# 1 85.1747 30.7521 85.6680 -0.0089 26.4770 0.0116
# 2 30.7521 53.2711 7.0994 -0.0005 -12.9057 0.0031
# 3 85.6680 7.0994 144.2239 -0.0187 42.2994 0.0135
# 4 -0.0089 -0.0005 -0.0187 13.4378 0.0095 -3.3759
# 5 26.4770 -12.9057 42.2994 0.0095 51.7304 -0.0138
# 6 0.0116 0.0031 0.0135 -3.3759 -0.0138 14.6135
#
#
#
# Elastic Compliance Matrix: (Units=1/GPa)
#
#
# Indices 1 2 3 4 5 6 
#
# 1 0.053354 -0.030571 -0.026232 0.000001 -0.013485 -0.000024
# 2 -0.030571 0.038699 0.011620 -0.000009 0.015800 0.000018
# 3 -0.026232 0.011620 0.022567 0.000016 -0.002128 -0.000001
# 4 0.000001 -0.000009 0.000016 0.079002 -0.000025 0.018250
# 5 -0.013485 0.015800 -0.002128 -0.000025 0.031915 0.000034
# 6 -0.000024 0.000018 -0.000001 0.018250 0.000034 0.072646
#
#
# Mechanical properties :
#
#
# Convention : Reuss Voigt Hill
#
# Bulk Modulus (GPa) = 41.22958 58.85653 50.04306
# Shear Modulus (GPa) = 12.60606 26.56637 19.58621
#
# Velocity S-wave (km/s) = 2.43324 3.53233 3.03299
# Velocity P-wave (km/s) = 5.22096 6.65428 5.98071
#
# Compressibility (1/GPa) = 0.02425443
#
# Stress axis : x y z
#
# Youngs Moduli (GPa) = 18.74266 25.84039 44.31160
#
# Poissons Ratio (x) = 0.78997 1.16239
# Poissons Ratio (y) = 0.57299 -0.51491
# Poissons Ratio (z) = 0.49166 -0.30027
#
# Static dielectric constant tensor:
#      x y z
#    x 1.850930 0.000000 0.067220 
#    y 0.000000 1.764420 0.000010 
#    z 0.067220 0.000010 1.864840 
# 
# From -- ./inp_files/131478.got.cif
#   From: 2010.05.17/outbox.cif.g08.bks.cpg/sg12_66_cif.got.tgz:131478.got - 2010.06.03 13:09:07.
