data_PCOD9204671
_publ_section_title
;
Structure prediction by ZEFSAII (Michael W. Deem and Ramdas Pophale) SiO2 
 PCOD9204671
Probable space group: C 2/M
;
_chemical_formula_sum "Si O2"
_cell_formula_units_Z 64
_cell_length_a 24.055560
_cell_length_b 10.140772
_cell_length_c 27.326672
_cell_angle_alpha 90.000000
_cell_angle_beta 27.769047
_cell_angle_gamma 90.000000
_cell_volume 3105.804022
_symmetry_space_group_name_H-M "C 2/M"
_symmetry_group_IT_number 12
_symmetry_cell_setting 'monoclinic'
loop_
_space_group_symop_operation_xyz
x,y,z
-x,y,-z
-x,-y,-z
x,-y,z
1/2+x,1/2+y,z
1/2-x,1/2+y,-z
1/2-x,1/2-y,-z
1/2+x,1/2-y,z
loop_
_atom_site_type_symbol
_atom_site_label
_atom_site_fract_x
_atom_site_fract_y
_atom_site_fract_z
Si Si1 0.880365 0.654291 0.527235
Si Si2 0.023780 0.154292 0.039541
Si Si3 0.161966 0.653419 0.331933
Si Si4 0.007349 0.348270 0.699313
Si Si5 0.214814 0.661838 0.187184
Si Si6 0.275571 0.843603 0.406613
Si Si7 0.345973 0.860415 0.922331
Si Si8 0.928361 0.645785 0.187429
O O1 0.846264 0.500000 0.546595
O O2 0.830491 0.705375 0.618805
O O3 0.834108 0.746364 0.519544
O O4 0.022277 0.655862 0.425108
O O5 0.936141 0.241309 0.140825
O O6 0.010476 0.000000 0.062755
O O7 0.164052 0.192674 0.936091
O O8 0.000000 0.166217 0.000000
O O9 0.197219 0.500000 0.308560
O O10 0.226176 0.709395 0.234283
O O11 0.030508 0.500000 0.665369
O O12 0.911328 0.289310 0.736328
O O13 0.926595 0.352654 0.811187
O O14 0.134543 0.297353 0.620193
O O15 0.208667 0.500000 0.192579
O O16 0.350269 0.835886 0.297374
O O17 0.246568 0.000000 0.436409
O O18 0.437790 0.857148 0.895230
O O19 0.281173 0.000000 0.971647
O O20 0.250000 0.750000 0.000000
O O21 0.898784 0.500000 0.190284
#
# Coordination Sequence:
#
# PCOD9204671 Si02
#       8
#     8   8   8   8   8   8   8   8
#     4   9  17  31  52  76  98 122 158 203 247 288
#     4  10  21  32  47  75 101 123 163 212 246 278
#     4   8  16  30  49  73  98 127 160 193 241 303
#     4   8  15  28  45  65  91 128 165 192 230 289
#     4   9  16  29  49  70  98 131 160 197 244 293
#     4   9  18  32  50  72  97 127 166 203 236 284
#     4   9  16  27  44  65  88 118 160 202 236 277
#     4   9  19  33  46  64  95 133 164 191 234 294
#
# _framework density 20.606580000000001
#
# number of rings (size 3 to 8) (size 9 to 14) (size 15 to 20)
#    0.000    3.125    0.000    3.000    1.750    2.250 
#    0.000    3.750    0.000    1.500    0.000    0.000 
#    0.000    0.000    0.000    0.000    0.000    0.000 
#
# Total GULP energy -178225.256194 kJ/mol
# GULP energy per Si atom -5569.539256 kJ/mol
# Density = 2.055968 g / cm^3
# Si number density = 20.606580 Si / 1000 Ang^3
#
#
#
# Elastic Constant Matrix: (Units=GPa)
#
#
# Indices 1 2 3 4 5 6 
#
# 1 102.6703 22.6913 9.9643 0.0002 -10.7898 0.0000
# 2 22.6913 40.9622 12.1244 0.0002 -5.8240 -0.0001
# 3 9.9643 12.1244 52.5230 0.0009 -4.5293 -0.0002
# 4 0.0002 0.0002 0.0009 15.1860 -0.0002 -5.5763
# 5 -10.7898 -5.8240 -4.5293 -0.0002 41.4706 0.0000
# 6 0.0000 -0.0001 -0.0002 -5.5763 0.0000 14.9784
#
#
#
# Elastic Compliance Matrix: (Units=1/GPa)
#
#
# Indices 1 2 3 4 5 6 
#
# 1 0.011294 -0.005777 -0.000632 0.000000 0.002058 0.000000
# 2 -0.005777 0.029545 -0.005548 0.000000 0.002040 0.000000
# 3 -0.000632 -0.005548 0.020552 -0.000001 0.001301 0.000000
# 4 0.000000 0.000000 -0.000001 0.076278 0.000000 0.028397
# 5 0.002058 0.002040 0.001301 0.000000 0.025078 0.000000
# 6 0.000000 0.000000 0.000000 0.028397 0.000000 0.077335
#
#
# Mechanical properties :
#
#
# Convention : Reuss Voigt Hill
#
# Bulk Modulus (GPa) = 26.68248 31.74618 29.21433
# Shear Modulus (GPa) = 18.08395 24.41869 21.25132
#
# Velocity S-wave (km/s) = 2.96561 3.44611 3.21485
# Velocity P-wave (km/s) = 4.97022 5.59227 5.29040
#
# Compressibility (1/GPa) = 0.03747778
#
# Stress axis : x y z
#
# Youngs Moduli (GPa) = 88.54033 33.84643 48.65688
#
# Poissons Ratio (x) = 0.19553 0.03073
# Poissons Ratio (y) = 0.51149 0.26996
# Poissons Ratio (z) = 0.05593 0.18779
#
# Static dielectric constant tensor:
#      x y z
#    x 1.787320 0.000000 -0.004060 
#    y 0.000000 1.797620 0.000000 
#    z -0.004060 0.000000 1.790010 
# 
# From -- ./inp_files/366036.got.cif
#   From: 2010.05.17/outbox.cif.g08.bks.cpg/sg12_184_cif.got.tgz:366036.got - 2010.06.03 13:09:07.
