data_PCOD9204843
_publ_section_title
;
Structure prediction by ZEFSAII (Michael W. Deem and Ramdas Pophale) SiO2 
 PCOD9204843
Probable space group: C 2/M
;
_chemical_formula_sum "Si O2"
_cell_formula_units_Z 64
_cell_length_a 25.521703
_cell_length_b 9.023320
_cell_length_c 21.611297
_cell_angle_alpha 90.000000
_cell_angle_beta 54.359238
_cell_angle_gamma 90.000000
_cell_volume 4044.639711
_symmetry_space_group_name_H-M "C 2/M"
_symmetry_group_IT_number 12
_symmetry_cell_setting 'monoclinic'
loop_
_space_group_symop_operation_xyz
x,y,z
-x,y,-z
-x,-y,-z
x,-y,z
1/2+x,1/2+y,z
1/2-x,1/2+y,-z
1/2-x,1/2-y,-z
1/2+x,1/2-y,z
loop_
_atom_site_type_symbol
_atom_site_label
_atom_site_fract_x
_atom_site_fract_y
_atom_site_fract_z
Si Si1 0.148551 0.676008 0.085700
Si Si2 0.808774 0.677038 0.497499
Si Si3 0.776142 0.176128 0.076737
Si Si4 0.110324 0.822987 0.655295
Si Si5 0.770781 0.823186 0.333616
Si Si6 0.536945 0.177463 0.911292
Si Si7 0.486647 0.322379 0.820066
Si Si8 0.189371 0.676463 0.818789
O O1 0.140273 0.500000 0.083947
O O2 0.205418 0.702468 0.096154
O O3 0.081694 0.751474 0.149428
O O4 0.173625 0.745642 0.004176
O O5 0.806437 0.500000 0.492041
O O6 0.750000 0.750000 0.500000
O O7 0.871530 0.741591 0.420828
O O8 0.791351 0.710538 0.580766
O O9 0.783714 0.243331 0.139195
O O10 0.787631 0.000000 0.069253
O O11 0.166124 0.788684 0.667633
O O12 0.042355 0.782911 0.732495
O O13 0.112793 0.000000 0.643608
O O14 0.776276 0.734929 0.266597
O O15 0.772023 0.000000 0.320769
O O16 0.508225 0.260933 0.872049
O O17 0.612907 0.209855 0.865433
O O18 0.529415 0.000000 0.907320
O O19 0.500000 0.217156 0.000000
O O20 0.482091 0.500000 0.825783
O O21 0.196311 0.500000 0.820041
#
# Coordination Sequence:
#
# PCOD9204843 Si02
#       8
#     8   8   8   8   8   8   8   8
#     4  10  21  37  55  75  98 126 166 212 253 295
#     4   9  17  28  45  67  94 131 167 201 243 289
#     4  10  21  37  56  74  96 129 166 209 256 296
#     4   9  18  31  46  69 100 132 166 203 240 290
#     4   9  17  31  46  66 100 134 165 202 241 292
#     4  10  21  34  46  66  99 134 166 203 244 291
#     4  11  21  33  51  74 100 133 167 202 248 295
#     4  11  21  31  49  75 101 132 167 205 248 293
#
# _framework density 15.823411999999999
#
# number of rings (size 3 to 8) (size 9 to 14) (size 15 to 20)
#    0.000    2.125    1.250    3.375    0.000    6.750 
#    0.000    0.000    0.000    0.000    0.000    0.875 
#    0.000    7.000    0.000    0.000    0.000    0.000 
#
# Total GULP energy -178529.595191 kJ/mol
# GULP energy per Si atom -5579.049850 kJ/mol
# Density = 1.578740 g / cm^3
# Si number density = 15.823412 Si / 1000 Ang^3
#
#
#
# Elastic Constant Matrix: (Units=GPa)
#
#
# Indices 1 2 3 4 5 6 
#
# 1 43.7112 34.2039 44.8927 0.0019 -5.6358 -0.0024
# 2 34.2039 50.4930 55.1167 0.0029 -5.1534 -0.0036
# 3 44.8927 55.1167 139.8791 0.0020 -12.2426 -0.0026
# 4 0.0019 0.0029 0.0020 32.1017 0.0005 1.7617
# 5 -5.6358 -5.1534 -12.2426 0.0005 17.0932 -0.0008
# 6 -0.0024 -0.0036 -0.0026 1.7617 -0.0008 23.7614
#
#
#
# Elastic Compliance Matrix: (Units=1/GPa)
#
#
# Indices 1 2 3 4 5 6 
#
# 1 0.050809 -0.029105 -0.004417 0.000000 0.004814 0.000001
# 2 -0.029105 0.051433 -0.011104 -0.000002 -0.002043 0.000004
# 3 -0.004417 -0.011104 0.013359 0.000000 0.004764 0.000000
# 4 0.000000 -0.000002 0.000000 0.031278 -0.000002 -0.002319
# 5 0.004814 -0.002043 0.004764 -0.000002 0.062886 0.000003
# 6 0.000001 0.000004 0.000000 -0.002319 0.000003 0.042257
#
#
# Mechanical properties :
#
#
# Convention : Reuss Voigt Hill
#
# Bulk Modulus (GPa) = 37.95278 55.83445 46.89362
# Shear Modulus (GPa) = 14.28334 21.24925 17.76629
#
# Velocity S-wave (km/s) = 3.00771 3.66853 3.35443
# Velocity P-wave (km/s) = 6.00825 7.30115 6.68602
#
# Compressibility (1/GPa) = 0.02634853
#
# Stress axis : x y z
#
# Youngs Moduli (GPa) = 19.68139 19.44282 74.85679
#
# Poissons Ratio (x) = 0.56589 0.33064
# Poissons Ratio (y) = 0.57284 0.83120
# Poissons Ratio (z) = 0.08693 0.21589
#
# Static dielectric constant tensor:
#      x y z
#    x 1.505120 0.000000 -0.012570 
#    y 0.000000 1.524070 0.000000 
#    z -0.012570 0.000000 1.539960 
# 
# From -- ./inp_files/324122.got.cif
#   From: 2010.05.17/outbox.cif.g08.bks.cpg/sg12_163_cif.got.tgz:324122.got - 2010.06.03 13:09:07.
