data_PCOD9204290
_publ_section_title
;
Structure prediction by ZEFSAII (Michael W. Deem and Ramdas Pophale) SiO2 
 PCOD9204290
Probable space group: C 2/M
;
_chemical_formula_sum "Si O2"
_cell_formula_units_Z 52
_cell_length_a 10.437455
_cell_length_b 16.312561
_cell_length_c 18.866520
_cell_angle_alpha 90.000000
_cell_angle_beta 138.601351
_cell_angle_gamma 90.000000
_cell_volume 2124.238444
_symmetry_space_group_name_H-M "C 2/M"
_symmetry_group_IT_number 12
_symmetry_cell_setting 'monoclinic'
loop_
_space_group_symop_operation_xyz
x,y,z
-x,y,-z
-x,-y,-z
x,-y,z
1/2+x,1/2+y,z
1/2-x,1/2+y,-z
1/2-x,1/2-y,-z
1/2+x,1/2-y,z
loop_
_atom_site_type_symbol
_atom_site_label
_atom_site_fract_x
_atom_site_fract_y
_atom_site_fract_z
Si Si1 0.834285 0.093318 0.990192
Si Si2 0.524867 0.822164 0.425882
Si Si3 0.615558 0.320706 0.719765
Si Si4 0.017233 0.000000 0.700338
Si Si5 0.224223 0.903749 0.574937
Si Si6 0.012662 0.297560 0.209917
Si Si7 0.864247 0.089374 0.771050
O O1 0.668173 0.153334 0.895771
O O2 0.759447 0.000000 0.969665
O O3 0.000000 0.092322 0.000000
O O4 0.948141 0.119027 0.108427
O O5 0.500000 0.818309 0.500000
O O6 0.523544 0.731882 0.391120
O O7 0.696670 0.881520 0.471086
O O8 0.331447 0.861611 0.312565
O O9 0.500000 0.387589 0.500000
O O10 0.416795 0.431626 0.712185
O O11 0.833190 0.289765 0.790073
O O12 0.121082 0.079913 0.706410
O O13 0.362587 0.850481 0.682044
O O14 0.254270 0.000000 0.596256
O O15 0.941357 0.220250 0.227567
O O16 0.821959 0.000000 0.788300
#
# Coordination Sequence:
#
# PCOD9204290 Si02
#       7
#     8   8   8   4   8   8   8
#     4  10  20  40  76 116 154 198 249 308 376 451
#     4  11  24  47  78 110 145 202 254 310 375 455
#     4  11  26  48  76 108 151 197 251 312 376 442
#     4  10  24  48  72 102 150 194 242 316 378 442
#     4  10  23  42  68 113 156 195 251 314 377 446
#     4  11  25  47  75 110 153 203 250 313 377 450
#     4   9  21  43  75 109 155 190 252 306 373 448
#
# _framework density 24.479361000000001
#
# number of rings (size 3 to 8) (size 9 to 14) (size 15 to 20)
#    0.462    1.231    0.000    3.692    2.154    5.538 
#    2.769   15.769    0.000    0.923    0.000    0.000 
#    0.000    0.000    0.000    0.000    0.000    0.000 
#
# Total GULP energy -144761.597842 kJ/mol
# GULP energy per Si atom -5567.753763 kJ/mol
# Density = 2.442364 g / cm^3
# Si number density = 24.479361 Si / 1000 Ang^3
#
#
#
# Elastic Constant Matrix: (Units=GPa)
#
#
# Indices 1 2 3 4 5 6 
#
# 1 122.3562 75.0929 29.6330 0.0000 1.0158 0.0000
# 2 75.0929 210.5755 77.9087 0.0000 11.5222 0.0000
# 3 29.6330 77.9087 120.5659 0.0000 10.3388 0.0000
# 4 0.0000 0.0000 0.0000 24.3494 0.0000 1.7341
# 5 1.0158 11.5222 10.3388 0.0000 33.5932 0.0000
# 6 0.0000 0.0000 0.0000 1.7341 0.0000 30.8527
#
#
#
# Elastic Compliance Matrix: (Units=1/GPa)
#
#
# Indices 1 2 3 4 5 6 
#
# 1 0.010502 -0.003698 -0.000280 0.000000 0.001037 0.000000
# 2 -0.003698 0.007571 -0.003873 0.000000 -0.001293 0.000000
# 3 -0.000280 -0.003873 0.011042 0.000000 -0.002062 0.000000
# 4 0.000000 0.000000 0.000000 0.041234 0.000000 -0.002318
# 5 0.001037 -0.001293 -0.002062 0.000000 0.030815 0.000000
# 6 0.000000 0.000000 0.000000 -0.002318 0.000000 0.032542
#
#
# Mechanical properties :
#
#
# Convention : Reuss Voigt Hill
#
# Bulk Modulus (GPa) = 74.55385 90.97410 82.76398
# Shear Modulus (GPa) = 32.49300 35.81660 34.15480
#
# Velocity S-wave (km/s) = 3.64725 3.82924 3.73936
# Velocity P-wave (km/s) = 6.94683 7.53625 7.24754
#
# Compressibility (1/GPa) = 0.01341312
#
# Stress axis : x y z
#
# Youngs Moduli (GPa) = 95.22255 132.07996 90.55989
#
# Poissons Ratio (x) = 0.48843 0.02540
# Poissons Ratio (y) = 0.35213 0.35071
# Poissons Ratio (z) = 0.02671 0.51150
#
# Static dielectric constant tensor:
#      x y z
#    x 2.110190 0.000000 -0.064530 
#    y 0.000000 2.145630 0.000000 
#    z -0.064530 0.000000 1.941950 
# 
# From -- ./inp_files/340526.got.cif
#   From: 2010.05.17/outbox.cif.g08.bks.cpg/sg12_171_cif.got.tgz:340526.got - 2010.06.03 13:09:07.
