data_PCOD9204145
_publ_section_title
;
Structure prediction by ZEFSAII (Michael W. Deem and Ramdas Pophale) SiO2 
 PCOD9204145
Probable space group: C 2/M
;
_chemical_formula_sum "Si O2"
_cell_formula_units_Z 56
_cell_length_a 32.575070
_cell_length_b 9.447159
_cell_length_c 22.435750
_cell_angle_alpha 90.000000
_cell_angle_beta 25.699773
_cell_angle_gamma 90.000000
_cell_volume 2994.139619
_symmetry_space_group_name_H-M "C 2/M"
_symmetry_group_IT_number 12
_symmetry_cell_setting 'monoclinic'
loop_
_space_group_symop_operation_xyz
x,y,z
-x,y,-z
-x,-y,-z
x,-y,z
1/2+x,1/2+y,z
1/2-x,1/2+y,-z
1/2-x,1/2-y,-z
1/2+x,1/2-y,z
loop_
_atom_site_type_symbol
_atom_site_label
_atom_site_fract_x
_atom_site_fract_y
_atom_site_fract_z
Si Si1 0.460967 0.160647 0.649157
Si Si2 0.110427 0.837052 0.838146
Si Si3 0.327828 0.167546 0.133901
Si Si4 0.344410 0.667112 0.359844
Si Si5 0.653794 0.667894 0.108965
Si Si6 0.949530 0.831406 0.880637
Si Si7 0.151412 0.339347 0.327779
O O1 0.426372 0.274010 0.741646
O O2 0.395396 0.170581 0.676120
O O3 0.567236 0.176960 0.485766
O O4 0.450287 0.000000 0.686925
O O5 0.165309 0.729702 0.808685
O O6 0.128431 0.810032 0.745061
O O7 0.138982 0.000000 0.813343
O O8 0.000000 0.825183 0.000000
O O9 0.230163 0.222886 0.233974
O O10 0.336518 0.000000 0.121427
O O11 0.408436 0.241986 0.988803
O O12 0.327269 0.500000 0.390341
O O13 0.250000 0.750000 0.500000
O O14 0.439479 0.704380 0.272551
O O15 0.668578 0.500000 0.096140
O O16 0.615289 0.693870 0.092512
O O17 0.750000 0.750000 0.000000
O O18 0.945503 0.000000 0.900029
O O19 0.190695 0.500000 0.281985
#
# Coordination Sequence:
#
# PCOD9204145 Si02
#       7
#     8   8   8   8   8   8   8
#     4   9  19  37  59  81 111 151 197 244 287 343
#     4  10  20  40  66  85 112 157 200 235 286 360
#     4  12  24  35  57  92 121 146 190 251 299 339
#     4  10  22  41  65  90 119 158 200 247 301 356
#     4  11  23  37  58  85 118 156 196 243 295 352
#     4  10  22  42  61  80 114 162 203 237 290 365
#     4   9  19  37  59  82 112 154 195 234 290 358
#
# _framework density 18.703202000000001
#
# number of rings (size 3 to 8) (size 9 to 14) (size 15 to 20)
#    0.000    1.857    1.429    3.429    0.000    8.286 
#    0.000    4.286    0.000    0.000    0.000    0.000 
#    0.000    0.000    0.000    0.000    0.000    0.000 
#
# Total GULP energy -156374.226858 kJ/mol
# GULP energy per Si atom -5584.793816 kJ/mol
# Density = 1.866063 g / cm^3
# Si number density = 18.703202 Si / 1000 Ang^3
#
#
#
# Elastic Constant Matrix: (Units=GPa)
#
#
# Indices 1 2 3 4 5 6 
#
# 1 65.8986 56.2453 37.9742 0.0005 -8.3978 0.0001
# 2 56.2453 87.5536 48.4114 0.0013 -5.7098 0.0002
# 3 37.9742 48.4114 77.9896 0.0015 -11.2129 -0.0001
# 4 0.0005 0.0013 0.0015 33.1091 -0.0006 -0.1372
# 5 -8.3978 -5.7098 -11.2129 -0.0006 29.4224 0.0002
# 6 0.0001 0.0002 -0.0001 -0.1372 0.0002 22.6544
#
#
#
# Elastic Compliance Matrix: (Units=1/GPa)
#
#
# Indices 1 2 3 4 5 6 
#
# 1 0.035256 -0.020133 -0.004003 0.000001 0.004630 0.000000
# 2 -0.020133 0.028905 -0.008632 -0.000001 -0.003427 0.000000
# 3 -0.004003 -0.008632 0.020868 0.000000 0.005135 0.000000
# 4 0.000001 -0.000001 0.000000 0.030204 0.000000 0.000183
# 5 0.004630 -0.003427 0.005135 0.000000 0.036601 0.000000
# 6 0.000000 0.000000 0.000000 0.000183 0.000000 0.044143
#
#
# Mechanical properties :
#
#
# Convention : Reuss Voigt Hill
#
# Bulk Modulus (GPa) = 51.30419 57.41152 54.35786
# Shear Modulus (GPa) = 18.65604 22.95792 20.80698
#
# Velocity S-wave (km/s) = 3.16171 3.50735 3.33901
# Velocity P-wave (km/s) = 6.38896 6.86766 6.63263
#
# Compressibility (1/GPa) = 0.01949159
#
# Stress axis : x y z
#
# Youngs Moduli (GPa) = 28.36431 34.59646 47.92021
#
# Poissons Ratio (x) = 0.69653 0.19184
# Poissons Ratio (y) = 0.57106 0.41365
# Poissons Ratio (z) = 0.11355 0.29864
#
# Static dielectric constant tensor:
#      x y z
#    x 1.662620 0.000000 -0.009100 
#    y 0.000000 1.620360 0.000000 
#    z -0.009100 0.000000 1.646700 
# 
# From -- ./inp_files/329438.got.cif
#   From: 2010.05.17/outbox.cif.g08.bks.cpg/sg12_165_cif.got.tgz:329438.got - 2010.06.03 13:09:07.
