data_PCOD9204729
_publ_section_title
;
Structure prediction by ZEFSAII (Michael W. Deem and Ramdas Pophale) SiO2 
 PCOD9204729
Probable space group: C 2/M
;
_chemical_formula_sum "Si O2"
_cell_formula_units_Z 48
_cell_length_a 7.961422
_cell_length_b 18.347363
_cell_length_c 17.875543
_cell_angle_alpha 90.000000
_cell_angle_beta 90.004323
_cell_angle_gamma 90.000000
_cell_volume 2611.100211
_symmetry_space_group_name_H-M "C 2/M"
_symmetry_group_IT_number 12
_symmetry_cell_setting 'monoclinic'
loop_
_space_group_symop_operation_xyz
x,y,z
-x,y,-z
-x,-y,-z
x,-y,z
1/2+x,1/2+y,z
1/2-x,1/2+y,-z
1/2-x,1/2-y,-z
1/2+x,1/2-y,z
loop_
_atom_site_type_symbol
_atom_site_label
_atom_site_fract_x
_atom_site_fract_y
_atom_site_fract_z
Si Si1 0.297676 0.666144 0.499993
Si Si2 0.186728 0.411143 0.186402
Si Si3 0.500029 0.589099 0.913846
Si Si4 0.703024 0.414459 0.350531
Si Si5 0.703006 0.585541 0.649484
Si Si6 0.186773 0.411143 0.813579
O O1 0.500000 0.658626 0.500000
O O2 0.250000 0.750000 0.500000
O O3 0.237716 0.627987 0.576164
O O4 0.237726 0.627993 0.423813
O O5 0.191910 0.500000 0.187220
O O6 0.334535 0.387172 0.131332
O O7 0.221923 0.388331 0.271880
O O8 0.999968 0.388922 0.162986
O O9 0.500030 0.500000 0.913500
O O10 0.334615 0.612827 0.868640
O O11 0.500000 0.612275 0.000000
O O12 0.743006 0.500000 0.359532
O O13 0.500009 0.408786 0.344680
O O14 0.778094 0.388329 0.271901
O O15 0.742987 0.500000 0.640483
O O16 0.191955 0.500000 0.812758
#
# Coordination Sequence:
#
# PCOD9204729 Si02
#       6
#     8   8   8   8   8   8
#     4  10  21  33  47  69  99 132 159 205 253 294
#     4   9  16  26  42  65  91 123 163 202 239 286
#     4   9  16  26  40  61  95 131 157 194 246 293
#     4   9  16  30  50  68  90 127 173 210 241 286
#     4   9  16  30  50  68  90 127 173 210 241 286
#     4   9  16  26  42  65  91 123 163 202 239 286
#
# _framework density 18.383056
#
# number of rings (size 3 to 8) (size 9 to 14) (size 15 to 20)
#    0.000    2.833    1.667    0.500    0.000    4.000 
#    0.000    3.333    0.000    5.000    0.000    0.000 
#    0.000    1.333    0.667    0.000    0.000    0.000 
#
# Total GULP energy -133808.818615 kJ/mol
# GULP energy per Si atom -5575.367442 kJ/mol
# Density = 1.834122 g / cm^3
# Si number density = 18.383056 Si / 1000 Ang^3
#
#
#
# Elastic Constant Matrix: (Units=GPa)
#
#
# Indices 1 2 3 4 5 6 
#
# 1 113.8952 19.1291 92.7693 0.0000 -0.0527 0.0000
# 2 19.1291 20.1634 31.5721 0.0000 -0.0128 0.0000
# 3 92.7693 31.5721 183.5777 0.0000 -0.0607 0.0000
# 4 0.0000 0.0000 0.0000 -3.8703 0.0000 -0.0019
# 5 -0.0527 -0.0128 -0.0607 0.0000 2.3288 0.0000
# 6 0.0000 0.0000 0.0000 -0.0019 0.0000 11.6755
#
#
#
# Elastic Compliance Matrix: (Units=1/GPa)
#
#
# Indices 1 2 3 4 5 6 
#
# 1 0.015076 -0.003248 -0.007060 0.000000 0.000139 0.000000
# 2 -0.003248 0.068572 -0.010152 0.000000 0.000039 0.000000
# 3 -0.007060 -0.010152 0.010761 0.000000 0.000065 0.000000
# 4 0.000000 0.000000 0.000000 -0.258377 0.000000 -0.000042
# 5 0.000139 0.000039 0.000065 0.000000 0.429416 0.000000
# 6 0.000000 0.000000 0.000000 -0.000042 0.000000 0.085649
#
#
# Mechanical properties :
#
#
# Convention : Reuss Voigt Hill
#
# Bulk Modulus (GPa) = 18.69528 67.17524 42.93526
# Shear Modulus (GPa) = 12.19969 13.63785 12.91877
#
# Velocity S-wave (km/s) = 2.57891 2.72669 2.65383
# Velocity P-wave (km/s) = 4.36573 6.82161 5.72687
#
# Compressibility (1/GPa) = 0.05348945
#
# Stress axis : x y z
#
# Youngs Moduli (GPa) = 66.33090 14.58319 92.92963
#
# Poissons Ratio (x) = 0.04737 0.65607
# Poissons Ratio (y) = 0.21545 0.94340
# Poissons Ratio (z) = 0.46828 0.14804
#
# Static dielectric constant tensor:
#      x y z
#    x 1.660500 0.000000 -0.000010 
#    y 0.000000 1.587760 0.000000 
#    z -0.000010 0.000000 1.621400 
# 
# From -- ./inp_files/256190.got.cif
#   From: 2010.05.17/outbox.cif.g08.bks.cpg/sg12_129_cif.got.tgz:256190.got - 2010.06.03 13:09:07.
