data_PCOD9204614
_publ_section_title
;
Structure prediction by ZEFSAII (Michael W. Deem and Ramdas Pophale) SiO2 
 PCOD9204614
Probable space group: C 2/M
;
_chemical_formula_sum "Si O2"
_cell_formula_units_Z 38
_cell_length_a 11.176969
_cell_length_b 31.236649
_cell_length_c 10.926208
_cell_angle_alpha 90.000000
_cell_angle_beta 26.774825
_cell_angle_gamma 90.000000
_cell_volume 1718.456639
_symmetry_space_group_name_H-M "C 2/M"
_symmetry_group_IT_number 12
_symmetry_cell_setting 'monoclinic'
loop_
_space_group_symop_operation_xyz
x,y,z
-x,y,-z
-x,-y,-z
x,-y,z
1/2+x,1/2+y,z
1/2-x,1/2+y,-z
1/2-x,1/2-y,-z
1/2+x,1/2-y,z
loop_
_atom_site_type_symbol
_atom_site_label
_atom_site_fract_x
_atom_site_fract_y
_atom_site_fract_z
Si Si1 0.487809 0.122167 0.658381
Si Si2 0.000000 0.000000 0.000000
Si Si3 0.005165 0.929619 0.204071
Si Si4 0.213064 0.000000 0.199102
Si Si5 0.000000 0.773473 0.000000
Si Si6 0.500000 0.712083 0.500000
Si Si7 0.310627 0.300182 0.422016
O O1 0.500000 0.118306 0.500000
O O2 0.556134 0.170816 0.630071
O O3 0.732506 0.093864 0.487897
O O4 0.214632 0.104427 0.960107
O O5 0.065612 0.037136 0.838428
O O6 0.152736 0.958226 0.171285
O O7 0.000000 0.000000 0.500000
O O8 0.500000 0.000000 0.000000
O O9 0.255752 0.742656 0.762005
O O10 0.022056 0.800777 0.855943
O O11 0.563619 0.685684 0.564146
O O12 0.250000 0.250000 0.500000
#
# Coordination Sequence:
#
# PCOD9204614 Si02
#       7
#     8   2   8   4   4   4   8
#     4  12  25  43  68 107 144 177 238 304 363 418
#     4  10  20  44  72 106 136 164 216 276 364 430
#     4  11  25  44  73 108 140 178 226 293 351 429
#     4  11  24  49  78 103 144 195 234 268 352 447
#     4  10  22  39  70  94 126 169 250 301 354 429
#     4  10  22  44  60  98 126 179 238 299 360 430
#     4  10  25  43  71  95 138 189 242 298 364 427
#
# _framework density 22.112864999999999
#
# number of rings (size 3 to 8) (size 9 to 14) (size 15 to 20)
#    0.000    1.263    2.105    1.895    8.842    6.737 
#    5.684    0.000    0.000    0.000    0.000    0.000 
#    0.000    0.000    0.000    0.000    0.000    0.000 
#
# Total GULP energy -105981.441141 kJ/mol
# GULP energy per Si atom -5577.970586 kJ/mol
# Density = 2.206254 g / cm^3
# Si number density = 22.112865 Si / 1000 Ang^3
#
#
#
# Elastic Constant Matrix: (Units=GPa)
#
#
# Indices 1 2 3 4 5 6 
#
# 1 100.5601 9.6474 4.1025 0.0000 18.6921 0.0000
# 2 9.6474 116.6283 23.0145 0.0000 -6.4179 0.0000
# 3 4.1025 23.0145 95.0562 0.0000 -7.4490 0.0000
# 4 0.0000 0.0000 0.0000 -22.4920 0.0000 -14.8213
# 5 18.6921 -6.4179 -7.4490 0.0000 48.4872 0.0000
# 6 0.0000 0.0000 0.0000 -14.8213 0.0000 3.6921
#
#
#
# Elastic Compliance Matrix: (Units=1/GPa)
#
#
# Indices 1 2 3 4 5 6 
#
# 1 0.010888 -0.001032 -0.000566 0.000000 -0.004421 0.000000
# 2 -0.001032 0.009138 -0.002067 0.000000 0.001290 0.000000
# 3 -0.000566 -0.002067 0.011175 0.000000 0.001662 0.000000
# 4 0.000000 0.000000 0.000000 -0.012197 0.000000 -0.048961
# 5 -0.004421 0.001290 0.001662 0.000000 0.022754 0.000000
# 6 0.000000 0.000000 0.000000 -0.048961 0.000000 0.074301
#
#
# Mechanical properties :
#
#
# Convention : Reuss Voigt Hill
#
# Bulk Modulus (GPa) = 41.89229 42.86374 42.37802
# Shear Modulus (GPa) = 38.06659 24.30280 31.18469
#
# Velocity S-wave (km/s) = 4.15356 3.31877 3.75941
# Velocity P-wave (km/s) = 6.47986 5.84053 6.16848
#
# Compressibility (1/GPa) = 0.02387074
#
# Stress axis : x y z
#
# Youngs Moduli (GPa) = 91.84225 109.42734 89.48399
#
# Poissons Ratio (x) = 0.11295 0.05069
# Poissons Ratio (y) = 0.09480 0.18496
# Poissons Ratio (z) = 0.05203 0.22618
#
# Static dielectric constant tensor:
#      x y z
#    x 1.876210 0.000000 -0.015680 
#    y 0.000000 1.815590 0.000000 
#    z -0.015680 0.000000 1.775830 
# 
# From -- ./inp_files/137525.got.cif
#   From: 2010.05.17/outbox.cif.g08.bks.cpg/sg12_69_cif.got.tgz:137525.got - 2010.06.03 13:09:07.
