data_PCOD9204108
_publ_section_title
;
Structure prediction by ZEFSAII (Michael W. Deem and Ramdas Pophale) SiO2 
 PCOD9204108
Probable space group: C 2/M
;
_chemical_formula_sum "Si O2"
_cell_formula_units_Z 40
_cell_length_a 9.573807
_cell_length_b 29.266948
_cell_length_c 12.175490
_cell_angle_alpha 90.000000
_cell_angle_beta 34.035543
_cell_angle_gamma 90.000000
_cell_volume 1909.454681
_symmetry_space_group_name_H-M "C 2/M"
_symmetry_group_IT_number 12
_symmetry_cell_setting 'monoclinic'
loop_
_space_group_symop_operation_xyz
x,y,z
-x,y,-z
-x,-y,-z
x,-y,z
1/2+x,1/2+y,z
1/2-x,1/2+y,-z
1/2-x,1/2-y,-z
1/2+x,1/2-y,z
loop_
_atom_site_type_symbol
_atom_site_label
_atom_site_fract_x
_atom_site_fract_y
_atom_site_fract_z
Si Si1 0.617567 0.446741 0.041469
Si Si2 0.754171 0.810244 0.388380
Si Si3 0.900775 0.613457 0.221760
Si Si4 0.702818 0.211673 0.672189
Si Si5 0.976652 0.897551 0.328381
O O1 0.686522 0.500000 0.993906
O O2 0.852190 0.414758 0.916005
O O3 0.500000 0.434964 0.000000
O O4 0.439372 0.436429 0.261756
O O5 0.500000 0.828261 0.500000
O O6 0.666027 0.794133 0.566287
O O7 0.852106 0.764441 0.264042
O O8 0.952820 0.849785 0.278016
O O9 0.932589 0.668268 0.186811
O O10 0.730560 0.605963 0.441497
O O11 0.734546 0.597476 0.226931
O O12 0.000000 0.205327 0.500000
#
# Coordination Sequence:
#
# PCOD9204108 Si02
#       5
#     8   8   8   8   8
#     4  11  27  45  61  87 120 152 196 256 311 359
#     4   9  17  27  55  90 123 160 193 234 286 346
#     4  10  20  40  65  90 121 158 200 246 292 354
#     4   9  15  31  53  88 125 156 195 234 286 347
#     4  10  21  39  64  93 119 158 202 243 295 355
#
# _framework density 20.94839
#
# number of rings (size 3 to 8) (size 9 to 14) (size 15 to 20)
#    0.000    2.200    4.000    0.600    5.600    2.400 
#    0.000    5.000    0.000    0.000    0.000    0.000 
#    0.000    0.000    0.000    0.000    0.000    0.000 
#
# Total GULP energy -111504.373692 kJ/mol
# GULP energy per Si atom -5575.218685 kJ/mol
# Density = 2.090071 g / cm^3
# Si number density = 20.948390 Si / 1000 Ang^3
#
#
#
# Elastic Constant Matrix: (Units=GPa)
#
#
# Indices 1 2 3 4 5 6 
#
# 1 151.7910 60.5778 34.5964 0.0000 2.0639 0.0000
# 2 60.5778 104.1682 28.0235 0.0000 -7.8016 0.0000
# 3 34.5964 28.0235 48.1775 0.0000 -0.2499 0.0000
# 4 0.0000 0.0000 0.0000 13.1436 0.0000 -7.0871
# 5 2.0639 -7.8016 -0.2499 0.0000 25.5134 0.0000
# 6 0.0000 0.0000 0.0000 -7.0871 0.0000 18.7867
#
#
#
# Elastic Compliance Matrix: (Units=1/GPa)
#
#
# Indices 1 2 3 4 5 6 
#
# 1 0.009347 -0.004493 -0.004110 0.000000 -0.002170 0.000000
# 2 -0.004493 0.013846 -0.004804 0.000000 0.004550 0.000000
# 3 -0.004110 -0.004804 0.026498 0.000000 -0.000877 0.000000
# 4 0.000000 0.000000 0.000000 0.095511 0.000000 0.036030
# 5 -0.002170 0.004550 -0.000877 0.000000 0.040753 0.000000
# 6 0.000000 0.000000 0.000000 0.036030 0.000000 0.066821
#
#
# Mechanical properties :
#
#
# Convention : Reuss Voigt Hill
#
# Bulk Modulus (GPa) = 43.71158 61.17023 52.44090
# Shear Modulus (GPa) = 17.40856 23.55136 20.47996
#
# Velocity S-wave (km/s) = 2.88587 3.35663 3.13011
# Velocity P-wave (km/s) = 5.65826 6.65481 6.17667
#
# Compressibility (1/GPa) = 0.02287723
#
# Stress axis : x y z
#
# Youngs Moduli (GPa) = 106.98318 72.22521 37.73877
#
# Poissons Ratio (x) = 0.32448 0.15512
# Poissons Ratio (y) = 0.48063 0.18129
# Poissons Ratio (z) = 0.43974 0.34696
#
# Static dielectric constant tensor:
#      x y z
#    x 1.747360 0.000000 0.007680 
#    y 0.000000 1.790500 0.000000 
#    z 0.007680 0.000000 1.837140 
# 
# From -- ./inp_files/124984.got.cif
#   From: 2010.05.17/outbox.cif.g08.bks.cpg/sg12_63_cif.got.tgz:124984.got - 2010.06.03 13:09:07.
