data_PCOD9204197
_publ_section_title
;
Structure prediction by ZEFSAII (Michael W. Deem and Ramdas Pophale) SiO2 
 PCOD9204197
Probable space group: C 2/M
;
_chemical_formula_sum "Si O2"
_cell_formula_units_Z 56
_cell_length_a 17.532066
_cell_length_b 13.948375
_cell_length_c 18.467355
_cell_angle_alpha 90.000000
_cell_angle_beta 31.485677
_cell_angle_gamma 90.000000
_cell_volume 2358.681481
_symmetry_space_group_name_H-M "C 2/M"
_symmetry_group_IT_number 12
_symmetry_cell_setting 'monoclinic'
loop_
_space_group_symop_operation_xyz
x,y,z
-x,y,-z
-x,-y,-z
x,-y,z
1/2+x,1/2+y,z
1/2-x,1/2+y,-z
1/2-x,1/2-y,-z
1/2+x,1/2-y,z
loop_
_atom_site_type_symbol
_atom_site_label
_atom_site_fract_x
_atom_site_fract_y
_atom_site_fract_z
Si Si1 0.165013 0.176499 0.883136
Si Si2 0.593795 0.611963 0.141406
Si Si3 0.161405 0.394035 0.902369
Si Si4 0.364356 0.892900 0.841131
Si Si5 0.620446 0.786881 0.554222
Si Si6 0.526263 0.605251 0.367955
Si Si7 0.695187 0.386786 0.706857
O O1 0.165784 0.281254 0.919984
O O2 0.252458 0.107606 0.864510
O O3 0.233581 0.171922 0.747755
O O4 0.000000 0.146123 0.000000
O O5 0.597474 0.500000 0.118501
O O6 0.556029 0.614297 0.256680
O O7 0.459108 0.650286 0.202633
O O8 0.758889 0.643755 0.990611
O O9 0.174067 0.500000 0.931239
O O10 0.309443 0.395076 0.733746
O O11 0.000000 0.398918 0.000000
O O12 0.493548 0.825382 0.709553
O O13 0.419050 0.000000 0.812367
O O14 0.750000 0.750000 0.500000
O O15 0.566405 0.700246 0.545988
O O16 0.684131 0.870029 0.452237
O O17 0.460063 0.500000 0.435717
O O18 0.684627 0.500000 0.732262
#
# Coordination Sequence:
#
# PCOD9204197 Si02
#       7
#     8   8   8   8   8   8   8
#     4  11  21  38  66  99 127 167 211 258 319 382
#     4   9  19  37  64  95 123 161 210 262 320 374
#     4   9  19  38  63  91 124 159 205 267 320 366
#     4  11  23  40  63  96 133 166 212 268 314 377
#     4  12  25  42  60  90 126 175 211 255 316 380
#     4  10  20  40  67  91 122 166 212 262 323 380
#     4  11  23  40  64  93 131 171 209 259 317 382
#
# _framework density 23.742076999999998
#
# number of rings (size 3 to 8) (size 9 to 14) (size 15 to 20)
#    0.000    1.571    4.286    0.857    0.000    2.286 
#    5.143    2.143    0.000    1.714    0.000    0.000 
#    0.000    0.000    0.000    0.000    0.000    0.000 
#
# Total GULP energy -156073.149927 kJ/mol
# GULP energy per Si atom -5574.041069 kJ/mol
# Density = 2.368804 g / cm^3
# Si number density = 23.742077 Si / 1000 Ang^3
#
#
#
# Elastic Constant Matrix: (Units=GPa)
#
#
# Indices 1 2 3 4 5 6 
#
# 1 70.4935 18.2670 10.5527 0.0004 2.3446 -0.0001
# 2 18.2670 144.7069 26.8965 0.0007 -11.0572 -0.0002
# 3 10.5527 26.8965 68.2250 0.0023 -6.6942 -0.0006
# 4 0.0004 0.0007 0.0023 19.1187 -0.0007 -0.9698
# 5 2.3446 -11.0572 -6.6942 -0.0007 40.1211 0.0001
# 6 -0.0001 -0.0002 -0.0006 -0.9698 0.0001 20.4761
#
#
#
# Elastic Compliance Matrix: (Units=1/GPa)
#
#
# Indices 1 2 3 4 5 6 
#
# 1 0.014945 -0.001675 -0.001812 0.000000 -0.001637 0.000000
# 2 -0.001675 0.007746 -0.002618 0.000000 0.001796 0.000000
# 3 -0.001812 -0.002618 0.016174 -0.000002 0.002083 0.000000
# 4 0.000000 0.000000 -0.000002 0.052431 0.000001 0.002483
# 5 -0.001637 0.001796 0.002083 0.000001 0.025863 0.000000
# 6 0.000000 0.000000 0.000000 0.002483 0.000000 0.048955
#
#
# Mechanical properties :
#
#
# Convention : Reuss Voigt Hill
#
# Bulk Modulus (GPa) = 37.51661 43.87308 40.69485
# Shear Modulus (GPa) = 26.70802 31.12379 28.91591
#
# Velocity S-wave (km/s) = 3.35763 3.62458 3.49365
# Velocity P-wave (km/s) = 5.55586 6.00299 5.78375
#
# Compressibility (1/GPa) = 0.02665486
#
# Stress axis : x y z
#
# Youngs Moduli (GPa) = 66.91000 129.10146 61.82654
#
# Poissons Ratio (x) = 0.21624 0.11203
# Poissons Ratio (y) = 0.11207 0.16189
# Poissons Ratio (z) = 0.12124 0.33804
#
# Static dielectric constant tensor:
#      x y z
#    x 1.970380 0.000000 0.038240 
#    y 0.000000 1.929610 0.000000 
#    z 0.038240 0.000000 1.968770 
# 
# From -- ./inp_files/86358.got.cif
#   From: 2010.05.17/outbox.cif.g08.bks.cpg/sg12_44_cif.got.tgz:86358.got - 2010.06.03 13:09:07.
