data_PCOD9204535
_publ_section_title
;
Structure prediction by ZEFSAII (Michael W. Deem and Ramdas Pophale) SiO2 
 PCOD9204535
Probable space group: C 2/M
;
_chemical_formula_sum "Si O2"
_cell_formula_units_Z 40
_cell_length_a 12.078154
_cell_length_b 25.847228
_cell_length_c 7.863111
_cell_angle_alpha 90.000000
_cell_angle_beta 131.061109
_cell_angle_gamma 90.000000
_cell_volume 1850.911782
_symmetry_space_group_name_H-M "C 2/M"
_symmetry_group_IT_number 12
_symmetry_cell_setting 'monoclinic'
loop_
_space_group_symop_operation_xyz
x,y,z
-x,y,-z
-x,-y,-z
x,-y,z
1/2+x,1/2+y,z
1/2-x,1/2+y,-z
1/2-x,1/2-y,-z
1/2+x,1/2-y,z
loop_
_atom_site_type_symbol
_atom_site_label
_atom_site_fract_x
_atom_site_fract_y
_atom_site_fract_z
Si Si1 0.382759 0.858065 0.028016
Si Si2 0.450614 0.058319 0.646314
Si Si3 0.035834 0.727692 0.352692
Si Si4 0.215032 0.147617 0.369580
Si Si5 0.405877 0.330230 0.127448
O O1 0.417827 0.917049 0.109393
O O2 0.436639 0.823406 0.239856
O O3 0.500000 0.843096 0.000000
O O4 0.214008 0.841986 0.847910
O O5 0.500000 0.057539 0.500000
O O6 0.318199 0.099511 0.520783
O O7 0.413523 0.000000 0.660424
O O8 0.196417 0.701198 0.500838
O O9 0.000000 0.751043 0.500000
O O10 0.958843 0.770479 0.156194
O O11 0.062264 0.143326 0.314355
O O12 0.165511 0.149905 0.121749
#
# Coordination Sequence:
#
# PCOD9204535 Si02
#       5
#     8   8   8   8   8
#     4  11  23  39  60  88 124 155 205 247 294 358
#     4  10  20  42  67  85 115 159 201 250 304 357
#     4  11  22  38  58  84 126 170 202 232 291 360
#     4  10  21  39  60  90 123 151 207 251 290 360
#     4  11  22  36  60  89 125 160 200 249 292 345
#
# _framework density 21.610970999999999
#
# number of rings (size 3 to 8) (size 9 to 14) (size 15 to 20)
#    0.000    1.400    4.000    2.400    2.800    3.600 
#    0.000    3.000    0.000    1.200    0.000    0.000 
#    0.000    0.000    0.000    0.000    0.000    0.000 
#
# Total GULP energy -111442.751634 kJ/mol
# GULP energy per Si atom -5572.137582 kJ/mol
# Density = 2.156178 g / cm^3
# Si number density = 21.610971 Si / 1000 Ang^3
#
#
#
# Elastic Constant Matrix: (Units=GPa)
#
#
# Indices 1 2 3 4 5 6 
#
# 1 154.5019 36.8973 41.9071 0.0000 48.3039 0.0000
# 2 36.8973 155.0562 37.5642 0.0000 30.0828 0.0000
# 3 41.9071 37.5642 75.8324 0.0000 25.7555 0.0000
# 4 0.0000 0.0000 0.0000 157.7345 0.0000 -10.2219
# 5 48.3039 30.0828 25.7555 0.0000 45.2875 0.0000
# 6 0.0000 0.0000 0.0000 -10.2219 0.0000 20.3447
#
#
#
# Elastic Compliance Matrix: (Units=1/GPa)
#
#
# Indices 1 2 3 4 5 6 
#
# 1 0.010043 0.000001 -0.002370 0.000000 -0.009365 0.000000
# 2 0.000001 0.007798 -0.002607 0.000000 -0.003698 0.000000
# 3 -0.002370 -0.002607 0.017775 0.000000 -0.005849 0.000000
# 4 0.000000 0.000000 0.000000 0.006553 0.000000 0.003293
# 5 -0.009365 -0.003698 -0.005849 0.000000 0.037853 0.000000
# 6 0.000000 0.000000 0.000000 0.003293 0.000000 0.050807
#
#
# Mechanical properties :
#
#
# Convention : Reuss Voigt Hill
#
# Bulk Modulus (GPa) = 38.96593 68.68086 53.82340
# Shear Modulus (GPa) = 33.48171 62.60814 48.04492
#
# Velocity S-wave (km/s) = 3.94038 5.38827 4.72017
# Velocity P-wave (km/s) = 6.22670 8.40005 7.39367
#
# Compressibility (1/GPa) = 0.02566344
#
# Stress axis : x y z
#
# Youngs Moduli (GPa) = 99.57467 128.23437 56.25949
#
# Poissons Ratio (x) = -0.00016 0.13333
# Poissons Ratio (y) = -0.00012 0.14669
# Poissons Ratio (z) = 0.23598 0.33436
#
# Static dielectric constant tensor:
#      x y z
#    x 1.912300 0.000000 -0.028360 
#    y 0.000000 1.782660 0.000000 
#    z -0.028360 0.000000 1.837010 
# 
# From -- ./inp_files/66641.got.cif
#   From: 2010.05.17/outbox.cif.g08.bks.cpg/sg12_34_cif.got.tgz:66641.got - 2010.06.03 13:09:07.
