data_PCOD9204164
_publ_section_title
;
Structure prediction by ZEFSAII (Michael W. Deem and Ramdas Pophale) SiO2 
 PCOD9204164
Probable space group: C 2/M
;
_chemical_formula_sum "Si O2"
_cell_formula_units_Z 58
_cell_length_a 19.386951
_cell_length_b 9.664692
_cell_length_c 21.346050
_cell_angle_alpha 90.000000
_cell_angle_beta 131.899217
_cell_angle_gamma 90.000000
_cell_volume 2976.974636
_symmetry_space_group_name_H-M "C 2/M"
_symmetry_group_IT_number 12
_symmetry_cell_setting 'monoclinic'
loop_
_space_group_symop_operation_xyz
x,y,z
-x,y,-z
-x,-y,-z
x,-y,z
1/2+x,1/2+y,z
1/2-x,1/2+y,-z
1/2-x,1/2-y,-z
1/2+x,1/2-y,z
loop_
_atom_site_type_symbol
_atom_site_label
_atom_site_fract_x
_atom_site_fract_y
_atom_site_fract_z
Si Si1 0.038679 0.336336 0.163335
Si Si2 0.147491 0.834430 0.567067
Si Si3 0.040022 0.661945 0.406604
Si Si4 0.500000 0.500000 0.000000
Si Si5 0.149704 0.667354 0.350946
Si Si6 0.649995 0.741113 0.110125
Si Si7 0.830406 0.658191 0.295599
Si Si8 0.169688 0.338517 0.984070
O O1 0.030295 0.500000 0.167348
O O2 0.097778 0.278328 0.257310
O O3 0.094108 0.314999 0.132533
O O4 0.933160 0.283982 0.096965
O O5 0.065762 0.756689 0.481106
O O6 0.241934 0.801828 0.586281
O O7 0.165939 0.767556 0.645812
O O8 0.134274 0.000000 0.562550
O O9 0.062027 0.500000 0.433743
O O10 0.098778 0.711941 0.382874
O O11 0.931313 0.667637 0.325164
O O12 0.581406 0.618832 0.049250
O O13 0.142812 0.500000 0.345304
O O14 0.746000 0.688876 0.198321
O O15 0.671649 0.826896 0.060769
O O16 0.820945 0.500000 0.314114
O O17 0.178679 0.500000 0.971598
O O18 0.250000 0.250000 0.000000
#
# Coordination Sequence:
#
# PCOD9204164 Si02
#       8
#     8   8   8   2   8   8   8   8
#     4  10  20  40  66  91 120 161 212 258 312 378
#     4  11  22  39  64  91 122 161 209 262 313 369
#     4  10  22  40  61  86 124 163 207 254 309 374
#     4  12  24  40  66  96 126 168 208 280 310 380
#     4   9  19  36  62  91 116 157 206 255 303 364
#     4  12  23  41  66  93 127 165 215 261 321 374
#     4  11  24  39  62  92 123 165 209 253 307 377
#     4  11  26  41  65  95 130 169 208 261 322 390
#
# _framework density 19.482866999999999
#
# number of rings (size 3 to 8) (size 9 to 14) (size 15 to 20)
#    0.000    1.379    3.448    1.655    2.897    3.862 
#    0.000    0.690    1.517    0.000    0.000    0.000 
#    0.000    0.000    0.000    0.000    0.000    0.000 
#
# Total GULP energy -161602.832621 kJ/mol
# GULP energy per Si atom -5572.511470 kJ/mol
# Density = 1.943852 g / cm^3
# Si number density = 19.482867 Si / 1000 Ang^3
#
#
#
# Elastic Constant Matrix: (Units=GPa)
#
#
# Indices 1 2 3 4 5 6 
#
# 1 91.5641 20.0286 32.2376 0.0000 9.0380 0.0000
# 2 20.0286 52.9176 30.4440 0.0000 11.4783 0.0000
# 3 32.2376 30.4440 102.7696 0.0000 20.7964 0.0000
# 4 0.0000 0.0000 0.0000 23.1617 0.0000 8.9631
# 5 9.0380 11.4783 20.7964 0.0000 29.9240 0.0000
# 6 0.0000 0.0000 0.0000 8.9631 0.0000 3.8985
#
#
#
# Elastic Compliance Matrix: (Units=1/GPa)
#
#
# Indices 1 2 3 4 5 6 
#
# 1 0.012676 -0.002950 -0.002975 0.000000 -0.000630 0.000000
# 2 -0.002950 0.024051 -0.005251 0.000000 -0.004685 0.000000
# 3 -0.002975 -0.005251 0.013533 0.000000 -0.006492 0.000000
# 4 0.000000 0.000000 0.000000 0.391463 0.000000 -0.900020
# 5 -0.000630 -0.004685 -0.006492 0.000000 0.039917 0.000000
# 6 0.000000 0.000000 0.000000 -0.900020 0.000000 2.325762
#
#
# Mechanical properties :
#
#
# Convention : Reuss Voigt Hill
#
# Bulk Modulus (GPa) = 35.83198 45.85241 40.84220
# Shear Modulus (GPa) = 1.76115 22.36624 12.06370
#
# Velocity S-wave (km/s) = 0.95179 3.39188 2.49106
# Velocity P-wave (km/s) = 4.43163 6.23904 5.41133
#
# Compressibility (1/GPa) = 0.02790803
#
# Stress axis : x y z
#
# Youngs Moduli (GPa) = 78.88849 41.57813 73.89218
#
# Poissons Ratio (x) = 0.12264 0.21984
# Poissons Ratio (y) = 0.23268 0.38804
# Poissons Ratio (z) = 0.23471 0.21835
#
# Static dielectric constant tensor:
#      x y z
#    x 1.694250 0.000000 0.004800 
#    y 0.000000 1.660680 0.000000 
#    z 0.004800 0.000000 1.691760 
# 
# From -- ./inp_files/223204.got.cif
#   From: 2010.05.17/outbox.cif.g08.bks.cpg/sg12_112_cif.got.tgz:223204.got - 2010.06.03 13:09:07.
