data_PCOD9204678
_publ_section_title
;
Structure prediction by ZEFSAII (Michael W. Deem and Ramdas Pophale) SiO2 
 PCOD9204678
Probable space group: C 2/M
;
_chemical_formula_sum "Si O2"
_cell_formula_units_Z 56
_cell_length_a 22.579082
_cell_length_b 22.385231
_cell_length_c 17.367462
_cell_angle_alpha 90.000000
_cell_angle_beta 159.770617
_cell_angle_gamma 90.000000
_cell_volume 3035.312332
_symmetry_space_group_name_H-M "C 2/M"
_symmetry_group_IT_number 12
_symmetry_cell_setting 'monoclinic'
loop_
_space_group_symop_operation_xyz
x,y,z
-x,y,-z
-x,-y,-z
x,-y,z
1/2+x,1/2+y,z
1/2-x,1/2+y,-z
1/2-x,1/2-y,-z
1/2+x,1/2-y,z
loop_
_atom_site_type_symbol
_atom_site_label
_atom_site_fract_x
_atom_site_fract_y
_atom_site_fract_z
Si Si1 0.151529 0.169067 0.918211
Si Si2 0.542870 0.298551 0.465690
Si Si3 0.356268 0.618150 0.764076
Si Si4 0.024071 0.341884 0.441157
Si Si5 0.622287 0.568589 0.375773
Si Si6 0.868079 0.642382 0.778851
Si Si7 0.571596 0.259453 0.236391
O O1 0.111401 0.188938 0.782311
O O2 0.038071 0.110109 0.796137
O O3 0.071505 0.219654 0.877391
O O4 0.346080 0.157215 0.177979
O O5 0.500000 0.318015 0.500000
O O6 0.578321 0.227790 0.510843
O O7 0.707481 0.330398 0.629911
O O8 0.354854 0.577146 0.687372
O O9 0.403943 0.684793 0.791125
O O10 0.173007 0.622391 0.580812
O O11 0.500000 0.599694 0.000000
O O12 0.000000 0.361996 0.500000
O O13 0.598251 0.500000 0.367342
O O14 0.786414 0.597225 0.618343
O O15 0.958090 0.698163 0.845119
O O16 0.000000 0.614995 0.000000
O O17 0.750000 0.250000 0.500000
#
# Coordination Sequence:
#
# PCOD9204678 Si02
#       7
#     8   8   8   8   8   8   8
#     4  10  21  36  57  83 118 157 189 244 295 346
#     4  10  21  32  49  84 125 155 181 221 286 364
#     4  11  21  36  60  87 120 152 188 240 294 359
#     4  11  21  32  52  89 123 152 181 223 294 370
#     4  10  23  43  62  80 107 155 215 256 290 332
#     4  11  22  35  60  87 117 157 192 242 294 347
#     4  11  17  34  57  85 121 154 192 228 298 357
#
# _framework density 18.449501999999999
#
# number of rings (size 3 to 8) (size 9 to 14) (size 15 to 20)
#    0.000    1.429    5.714    2.571    4.000    1.714 
#    0.000    0.714    0.000    8.571    0.000    0.000 
#    0.000    0.000    0.000    0.000    0.000    0.000 
#
# Total GULP energy -156469.453339 kJ/mol
# GULP energy per Si atom -5588.194762 kJ/mol
# Density = 1.840751 g / cm^3
# Si number density = 18.449502 Si / 1000 Ang^3
#
#
#
# Elastic Constant Matrix: (Units=GPa)
#
#
# Indices 1 2 3 4 5 6 
#
# 1 106.3039 22.6883 42.5378 0.0000 -13.2521 0.0000
# 2 22.6883 67.8566 3.5654 0.0000 2.7981 0.0000
# 3 42.5378 3.5654 123.0642 0.0000 -6.4207 0.0000
# 4 0.0000 0.0000 0.0000 -3.4027 0.0000 4.0752
# 5 -13.2521 2.7981 -6.4207 0.0000 28.9519 0.0000
# 6 0.0000 0.0000 0.0000 4.0752 0.0000 7.1047
#
#
#
# Elastic Compliance Matrix: (Units=1/GPa)
#
#
# Indices 1 2 3 4 5 6 
#
# 1 0.012536 -0.004202 -0.003936 0.000000 0.005271 0.000000
# 2 -0.004202 0.016236 0.000809 0.000000 -0.003313 0.000000
# 3 -0.003936 0.000809 0.009475 0.000000 0.000221 0.000000
# 4 0.000000 0.000000 0.000000 -0.174208 0.000000 0.099925
# 5 0.005271 -0.003313 0.000221 0.000000 0.037322 0.000000
# 6 0.000000 0.000000 0.000000 0.099925 0.000000 0.083435
#
#
# Mechanical properties :
#
#
# Convention : Reuss Voigt Hill
#
# Bulk Modulus (GPa) = 42.39403 48.31196 45.35299
# Shear Modulus (GPa) = 683.38341 21.75967 352.57154
#
# Velocity S-wave (km/s) = 19.26685 3.43799 13.83892
# Velocity P-wave (km/s) = 22.75911 6.48094 16.73290
#
# Compressibility (1/GPa) = 0.02358823
#
# Stress axis : x y z
#
# Youngs Moduli (GPa) = 79.76939 61.59138 105.54558
#
# Poissons Ratio (x) = 0.25881 0.41547
# Poissons Ratio (y) = 0.33520 -0.08541
# Poissons Ratio (z) = 0.31401 -0.04984
#
# Static dielectric constant tensor:
#      x y z
#    x 1.652280 0.000000 -0.012870 
#    y 0.000000 1.607260 0.000000 
#    z -0.012870 0.000000 1.647200 
# 
# From -- ./inp_files/290841.got.cif
#   From: 2010.05.17/outbox.cif.g08.bks.cpg/sg12_146_cif.got.tgz:290841.got - 2010.06.03 13:09:07.
