data_PCOD9204543
_publ_section_title
;
Structure prediction by ZEFSAII (Michael W. Deem and Ramdas Pophale) SiO2 
 PCOD9204543
Probable space group: C 2/M
;
_chemical_formula_sum "Si O2"
_cell_formula_units_Z 38
_cell_length_a 7.149179
_cell_length_b 14.482739
_cell_length_c 13.649137
_cell_angle_alpha 90.000000
_cell_angle_beta 78.188117
_cell_angle_gamma 90.000000
_cell_volume 1383.302308
_symmetry_space_group_name_H-M "C 2/M"
_symmetry_group_IT_number 12
_symmetry_cell_setting 'monoclinic'
loop_
_space_group_symop_operation_xyz
x,y,z
-x,y,-z
-x,-y,-z
x,-y,z
1/2+x,1/2+y,z
1/2-x,1/2+y,-z
1/2-x,1/2-y,-z
1/2+x,1/2-y,z
loop_
_atom_site_type_symbol
_atom_site_label
_atom_site_fract_x
_atom_site_fract_y
_atom_site_fract_z
Si Si1 0.113882 0.848055 0.885484
Si Si2 0.224647 0.144864 0.380827
Si Si3 0.725339 0.862614 0.835901
Si Si4 0.500000 0.000000 0.000000
Si Si5 0.176564 0.500000 0.238502
Si Si6 0.773318 0.864514 0.404203
O O1 0.183160 0.744837 0.858693
O O2 0.282098 0.920432 0.852313
O O3 0.952032 0.875689 0.824523
O O4 0.000000 0.852641 0.000000
O O5 0.324097 0.110047 0.270661
O O6 0.299740 0.112981 0.478046
O O7 0.238889 0.256203 0.385211
O O8 0.001552 0.121156 0.392287
O O9 0.624887 0.921055 0.928408
O O10 0.191198 0.421041 0.323656
#
# Coordination Sequence:
#
# PCOD9204543 Si02
#       6
#     8   8   8   2   4   8
#     4  12  26  46  70  95 135 177 231 281 337 394
#     4  10  20  42  67  99 135 175 214 276 333 390
#     4  12  24  48  69 100 135 181 220 284 336 400
#     4  12  30  40  70 100 134 174 240 268 336 400
#     4  12  22  41  66 104 126 176 223 272 327 410
#     4  10  22  38  72 100 132 173 224 266 338 401
#
# _framework density 27.470495
#
# number of rings (size 3 to 8) (size 9 to 14) (size 15 to 20)
#    0.000    0.842    5.263    1.579    0.000    2.526 
#    0.000    0.000    0.000   11.368    0.000    0.000 
#    0.000    0.000    0.000    0.000    0.000    0.000 
#
# Total GULP energy -105994.597081 kJ/mol
# GULP energy per Si atom -5578.663004 kJ/mol
# Density = 2.740797 g / cm^3
# Si number density = 27.470495 Si / 1000 Ang^3
#
#
#
# Elastic Constant Matrix: (Units=GPa)
#
#
# Indices 1 2 3 4 5 6 
#
# 1 130.3186 -14.1894 0.1205 0.0000 6.6053 0.0000
# 2 -14.1894 157.1655 15.2810 0.0000 -9.2675 0.0000
# 3 0.1205 15.2810 203.8717 0.0000 0.5155 0.0000
# 4 0.0000 0.0000 0.0000 90.5321 0.0000 26.1322
# 5 6.6053 -9.2675 0.5155 0.0000 48.7964 0.0000
# 6 0.0000 0.0000 0.0000 26.1322 0.0000 -91.4473
#
#
#
# Elastic Compliance Matrix: (Units=1/GPa)
#
#
# Indices 1 2 3 4 5 6 
#
# 1 0.007792 0.000654 -0.000051 0.000000 -0.000930 0.000000
# 2 0.000654 0.006538 -0.000493 0.000000 0.001158 0.000000
# 3 -0.000051 -0.000493 0.004942 0.000000 -0.000139 0.000000
# 4 0.000000 0.000000 0.000000 0.010204 0.000000 0.002916
# 5 -0.000930 0.001158 -0.000139 0.000000 0.020841 0.000000
# 6 0.000000 0.000000 0.000000 0.002916 0.000000 -0.010102
#
#
# Mechanical properties :
#
#
# Convention : Reuss Voigt Hill
#
# Bulk Modulus (GPa) = 51.30761 54.86442 53.08602
# Shear Modulus (GPa) = 107.54109 42.25248 74.89678
#
# Velocity S-wave (km/s) = 6.26361 3.92612 5.22720
# Velocity P-wave (km/s) = 8.42783 6.36931 7.46982
#
# Compressibility (1/GPa) = 0.01949029
#
# Stress axis : x y z
#
# Youngs Moduli (GPa) = 128.33908 152.95175 202.33052
#
# Poissons Ratio (x) = -0.09997 0.01037
# Poissons Ratio (y) = -0.08388 0.09982
# Poissons Ratio (z) = 0.00658 0.07546
#
# Static dielectric constant tensor:
#      x y z
#    x 2.272030 0.000000 0.032890 
#    y 0.000000 1.867950 0.000000 
#    z 0.032890 0.000000 2.220250 
# 
# From -- ./inp_files/194472.got.cif
#   From: 2010.05.17/outbox.cif.g08.bks.cpg/sg12_98_cif.got.tgz:194472.got - 2010.06.03 13:09:07.
