data_PCOD9204237
_publ_section_title
;
Structure prediction by ZEFSAII (Michael W. Deem and Ramdas Pophale) SiO2 
 PCOD9204237
Probable space group: C 2/M
;
_chemical_formula_sum "Si O2"
_cell_formula_units_Z 64
_cell_length_a 9.585763
_cell_length_b 27.396991
_cell_length_c 11.987057
_cell_angle_alpha 90.000000
_cell_angle_beta 81.715838
_cell_angle_gamma 90.000000
_cell_volume 3115.205769
_symmetry_space_group_name_H-M "C 2/M"
_symmetry_group_IT_number 12
_symmetry_cell_setting 'monoclinic'
loop_
_space_group_symop_operation_xyz
x,y,z
-x,y,-z
-x,-y,-z
x,-y,z
1/2+x,1/2+y,z
1/2-x,1/2+y,-z
1/2-x,1/2-y,-z
1/2+x,1/2-y,z
loop_
_atom_site_type_symbol
_atom_site_label
_atom_site_fract_x
_atom_site_fract_y
_atom_site_fract_z
Si Si1 0.848967 0.383198 0.496217
Si Si2 0.537113 0.699722 0.364505
Si Si3 0.373764 0.445027 0.615357
Si Si4 0.248483 0.946259 0.128899
Si Si5 0.871904 0.702187 0.328460
Si Si6 0.992219 0.368036 0.126071
Si Si7 0.744440 0.442511 0.880397
Si Si8 0.889457 0.894986 0.311942
O O1 0.748041 0.410999 0.420583
O O2 0.877675 0.330956 0.438418
O O3 0.761299 0.379737 0.619577
O O4 0.000000 0.407749 0.500000
O O5 0.500000 0.689115 0.500000
O O6 0.703799 0.707748 0.327508
O O7 0.447515 0.746694 0.340382
O O8 0.485667 0.653144 0.299228
O O9 0.353541 0.500000 0.578500
O O10 0.349549 0.444850 0.752836
O O11 0.536188 0.427895 0.601004
O O12 0.362306 0.905004 0.134166
O O13 0.318446 0.000000 0.119620
O O14 0.184143 0.940391 0.013327
O O15 0.953936 0.671989 0.223101
O O16 0.125385 0.403728 0.134906
O O17 0.000000 0.346099 0.000000
O O18 0.782285 0.500000 0.855170
O O19 0.639816 0.423599 0.797533
#
# Coordination Sequence:
#
# PCOD9204237 Si02
#       8
#     8   8   8   8   8   8   8   8
#     4  12  25  42  65  95 134 168 220 273 327 396
#     4  12  25  44  70  97 127 173 221 275 335 394
#     4  11  23  42  66  91 132 181 220 266 330 398
#     4   9  18  37  65  95 128 175 226 271 319 384
#     4  12  25  44  69  99 127 167 222 278 334 398
#     4  10  20  40  68  95 136 174 214 269 336 392
#     4  10  22  37  64 102 136 174 225 272 321 386
#     4  12  24  42  63  96 136 174 214 274 335 395
#
# _framework density 20.544388000000001
#
# number of rings (size 3 to 8) (size 9 to 14) (size 15 to 20)
#    0.000    1.000    3.750    2.625    3.500    3.750 
#    0.000    2.500    2.750    0.000    0.000    0.000 
#    0.000    0.000    0.000    0.000    0.000    0.000 
#
# Total GULP energy -178686.062760 kJ/mol
# GULP energy per Si atom -5583.939461 kJ/mol
# Density = 2.049763 g / cm^3
# Si number density = 20.544388 Si / 1000 Ang^3
#
#
#
# Elastic Constant Matrix: (Units=GPa)
#
#
# Indices 1 2 3 4 5 6 
#
# 1 118.2223 29.2680 24.9581 0.0000 14.3142 0.0000
# 2 29.2680 100.7837 11.2084 0.0000 17.8525 0.0000
# 3 24.9581 11.2084 55.8541 0.0000 15.4854 0.0000
# 4 0.0000 0.0000 0.0000 26.7203 0.0000 4.8158
# 5 14.3142 17.8525 15.4854 0.0000 34.6781 0.0000
# 6 0.0000 0.0000 0.0000 4.8158 0.0000 16.7503
#
#
#
# Elastic Compliance Matrix: (Units=1/GPa)
#
#
# Indices 1 2 3 4 5 6 
#
# 1 0.009941 -0.002249 -0.003623 0.000000 -0.001328 0.000000
# 2 -0.002249 0.011452 0.000096 0.000000 -0.005010 0.000000
# 3 -0.003623 0.000096 0.021802 0.000000 -0.008289 0.000000
# 4 0.000000 0.000000 0.000000 0.039470 0.000000 -0.011348
# 5 -0.001328 -0.005010 -0.008289 0.000000 0.035666 0.000000
# 6 0.000000 0.000000 0.000000 -0.011348 0.000000 0.062963
#
#
# Mechanical properties :
#
#
# Convention : Reuss Voigt Hill
#
# Bulk Modulus (GPa) = 31.60218 45.08102 38.34160
# Shear Modulus (GPa) = 24.58307 29.59145 27.08726
#
# Velocity S-wave (km/s) = 3.46292 3.79933 3.63502
# Velocity P-wave (km/s) = 5.60400 6.42164 6.02670
#
# Compressibility (1/GPa) = 0.03164338
#
# Stress axis : x y z
#
# Youngs Moduli (GPa) = 100.59422 87.32011 45.86834
#
# Poissons Ratio (x) = 0.19636 0.16616
# Poissons Ratio (y) = 0.22621 -0.00439
# Poissons Ratio (z) = 0.36441 -0.00836
#
# Static dielectric constant tensor:
#      x y z
#    x 1.776890 0.000000 -0.043440 
#    y 0.000000 1.717240 0.000000 
#    z -0.043440 0.000000 1.801230 
# 
# From -- ./inp_files/125726.got.cif
#   From: 2010.05.17/outbox.cif.g08.bks.cpg/sg12_63_cif.got.tgz:125726.got - 2010.06.03 13:09:07.
