data_PCOD9204718
_publ_section_title
;
Structure prediction by ZEFSAII (Michael W. Deem and Ramdas Pophale) SiO2 
 PCOD9204718
Probable space group: C 2/M
;
_chemical_formula_sum "Si O2"
_cell_formula_units_Z 48
_cell_length_a 23.713329
_cell_length_b 19.901570
_cell_length_c 20.514082
_cell_angle_alpha 90.000000
_cell_angle_beta 163.455809
_cell_angle_gamma 90.000000
_cell_volume 2756.785470
_symmetry_space_group_name_H-M "C 2/M"
_symmetry_group_IT_number 12
_symmetry_cell_setting 'monoclinic'
loop_
_space_group_symop_operation_xyz
x,y,z
-x,y,-z
-x,-y,-z
x,-y,z
1/2+x,1/2+y,z
1/2-x,1/2+y,-z
1/2-x,1/2-y,-z
1/2+x,1/2-y,z
loop_
_atom_site_type_symbol
_atom_site_label
_atom_site_fract_x
_atom_site_fract_y
_atom_site_fract_z
Si Si1 0.284149 0.575915 0.763795
Si Si2 0.018525 0.684810 0.823966
Si Si3 0.388976 0.267812 0.308691
Si Si4 0.429187 0.695350 0.624338
Si Si5 0.368757 0.886272 0.268752
Si Si6 0.240970 0.921766 0.985120
O O1 0.300779 0.500000 0.756468
O O2 0.211581 0.574476 0.757808
O O3 0.106955 0.610868 0.529627
O O4 0.500000 0.608229 0.000000
O O5 0.798876 0.684595 0.609755
O O6 0.020151 0.748534 0.775113
O O7 0.188873 0.692650 0.067603
O O8 0.080686 0.617883 0.853510
O O9 0.500000 0.281881 0.500000
O O10 0.536344 0.278788 0.410884
O O11 0.320573 0.190589 0.230383
O O12 0.550132 0.625646 0.762348
O O13 0.282332 0.915712 0.107639
O O14 0.221796 0.000000 0.945125
#
# Coordination Sequence:
#
# PCOD9204718 Si02
#       6
#     8   8   8   8   8   8
#     4  10  21  33  44  67 111 160 195 223 262 320
#     4  10  21  39  60  82 114 153 193 237 285 335
#     4  11  20  36  58  85 114 147 191 233 282 340
#     4  10  21  39  60  82 114 153 193 237 285 335
#     4  11  19  34  52  78 112 150 186 228 276 330
#     4  11  21  36  59  85 114 147 189 235 284 338
#
# _framework density 17.411583
#
# number of rings (size 3 to 8) (size 9 to 14) (size 15 to 20)
#    0.000    1.500    5.000    3.000    0.000    4.000 
#    0.000    0.000    0.000    8.000    0.000    9.333 
#    0.000    0.000    0.000    0.000    0.000    0.000 
#
# Total GULP energy -133766.688551 kJ/mol
# GULP energy per Si atom -5573.612023 kJ/mol
# Density = 1.737195 g / cm^3
# Si number density = 17.411583 Si / 1000 Ang^3
#
#
#
# Elastic Constant Matrix: (Units=GPa)
#
#
# Indices 1 2 3 4 5 6 
#
# 1 83.9882 29.1854 52.5890 -0.0033 -2.2178 -0.0141
# 2 29.1854 99.4715 21.6671 -0.0080 -3.1375 0.0045
# 3 52.5890 21.6671 78.2291 -0.0018 8.5134 -0.0269
# 4 -0.0033 -0.0080 -0.0018 19.3926 -0.0068 -5.2621
# 5 -2.2178 -3.1375 8.5134 -0.0068 37.4943 -0.0159
# 6 -0.0141 0.0045 -0.0269 -5.2621 -0.0159 27.6028
#
#
#
# Elastic Compliance Matrix: (Units=1/GPa)
#
#
# Indices 1 2 3 4 5 6 
#
# 1 0.022239 -0.003223 -0.014530 0.000003 0.004345 0.000001
# 2 -0.003223 0.011261 -0.001060 0.000003 0.000992 -0.000003
# 3 -0.014530 -0.001060 0.023529 0.000000 -0.006291 0.000012
# 4 0.000003 0.000003 0.000000 0.054379 0.000015 0.010367
# 5 0.004345 0.000992 -0.006291 0.000015 0.028439 0.000015
# 6 0.000001 -0.000003 0.000012 0.010367 0.000015 0.038205
#
#
# Mechanical properties :
#
#
# Convention : Reuss Voigt Hill
#
# Bulk Modulus (GPa) = 51.54084 52.06352 51.80218
# Shear Modulus (GPa) = 22.50758 27.44774 24.97766
#
# Velocity S-wave (km/s) = 3.59928 3.97471 3.79164
# Velocity P-wave (km/s) = 6.85119 7.14360 6.99892
#
# Compressibility (1/GPa) = 0.01940209
#
# Stress axis : x y z
#
# Youngs Moduli (GPa) = 44.96538 88.80167 42.50032
#
# Poissons Ratio (x) = 0.28621 0.61755
# Poissons Ratio (y) = 0.14492 0.04506
# Poissons Ratio (z) = 0.65337 0.09416
#
# Static dielectric constant tensor:
#      x y z
#    x 1.593190 0.000000 0.002890 
#    y 0.000000 1.613330 0.000010 
#    z 0.002890 0.000010 1.622500 
# 
# From -- ./inp_files/285912.got.cif
#   From: 2010.05.17/outbox.cif.g08.bks.cpg/sg12_143_cif.got.tgz:285912.got - 2010.06.03 13:09:07.
