data_PCOD9204057
_publ_section_title
;
Structure prediction by ZEFSAII (Michael W. Deem and Ramdas Pophale) SiO2 
 PCOD9204057
Probable space group: C 2/M
;
_chemical_formula_sum "Si O2"
_cell_formula_units_Z 56
_cell_length_a 28.496830
_cell_length_b 10.618537
_cell_length_c 9.141928
_cell_angle_alpha 90.000000
_cell_angle_beta 110.416285
_cell_angle_gamma 90.000000
_cell_volume 2592.527540
_symmetry_space_group_name_H-M "C 2/M"
_symmetry_group_IT_number 12
_symmetry_cell_setting 'monoclinic'
loop_
_space_group_symop_operation_xyz
x,y,z
-x,y,-z
-x,-y,-z
x,-y,z
1/2+x,1/2+y,z
1/2-x,1/2+y,-z
1/2-x,1/2-y,-z
1/2+x,1/2-y,z
loop_
_atom_site_type_symbol
_atom_site_label
_atom_site_fract_x
_atom_site_fract_y
_atom_site_fract_z
Si Si1 0.847868 0.641761 0.470775
Si Si2 0.451546 0.723680 0.520241
Si Si3 0.601419 0.147596 0.038421
Si Si4 0.392219 0.635623 0.189980
Si Si5 0.793851 0.641815 0.692350
Si Si6 0.452521 0.639095 0.841658
Si Si7 0.287917 0.735990 0.175942
O O1 0.855351 0.500000 0.527647
O O2 0.902773 0.695516 0.506347
O O3 0.816203 0.704193 0.569280
O O4 0.817830 0.649378 0.285307
O O5 0.500000 0.787990 0.500000
O O6 0.428533 0.636479 0.368690
O O7 0.466954 0.658324 0.688275
O O8 0.596315 0.238818 0.891879
O O9 0.583996 0.000000 0.007502
O O10 0.659721 0.140833 0.144492
O O11 0.576418 0.235214 0.136441
O O12 0.398281 0.500000 0.119139
O O13 0.334316 0.647962 0.178756
O O14 0.779118 0.500000 0.635976
O O15 0.747375 0.693774 0.730056
O O16 0.427119 0.500000 0.822709
O O17 0.500000 0.634654 0.000000
O O18 0.250000 0.750000 0.000000
#
# Coordination Sequence:
#
# PCOD9204057 Si02
#       7
#     8   8   8   8   8   8   8
#     4  10  23  42  66  95 133 179 228 279 337 405
#     4  11  24  43  68  98 134 175 222 279 343 407
#     4  11  23  42  67  96 134 178 223 275 334 400
#     4  11  24  42  66 100 138 178 229 281 337 405
#     4  10  20  40  64  88 127 174 220 273 331 393
#     4  11  24  44  71 100 131 173 226 284 345 407
#     4  11  22  39  63  96 134 174 226 278 334 398
#
# _framework density 21.600541
#
# number of rings (size 3 to 8) (size 9 to 14) (size 15 to 20)
#    0.000    1.286    2.857    2.571    0.000    6.286 
#    0.000    1.429    0.000    0.000    0.000    0.000 
#    0.000    0.000    0.000    0.000    0.000    0.000 
#
# Total GULP energy -155938.866799 kJ/mol
# GULP energy per Si atom -5569.245243 kJ/mol
# Density = 2.155138 g / cm^3
# Si number density = 21.600541 Si / 1000 Ang^3
#
#
#
# Elastic Constant Matrix: (Units=GPa)
#
#
# Indices 1 2 3 4 5 6 
#
# 1 125.4278 44.4401 46.9237 0.0000 -22.4578 0.0000
# 2 44.4401 129.8901 30.5919 0.0000 -20.2411 0.0000
# 3 46.9237 30.5919 146.7162 0.0000 -3.9455 0.0000
# 4 0.0000 0.0000 0.0000 12.1254 0.0000 -5.1715
# 5 -22.4578 -20.2411 -3.9455 0.0000 36.8063 0.0000
# 6 0.0000 0.0000 0.0000 -5.1715 0.0000 -289.0336
#
#
#
# Elastic Compliance Matrix: (Units=1/GPa)
#
#
# Indices 1 2 3 4 5 6 
#
# 1 0.010715 -0.002218 -0.002830 0.000000 0.005015 0.000000
# 2 -0.002218 0.009290 -0.001130 0.000000 0.003634 0.000000
# 3 -0.002830 -0.001130 0.007916 0.000000 -0.001499 0.000000
# 4 0.000000 0.000000 0.000000 0.081847 0.000000 -0.001464
# 5 0.005015 0.003634 -0.001499 0.000000 0.032067 0.000000
# 6 0.000000 0.000000 0.000000 -0.001464 0.000000 -0.003434
#
#
# Mechanical properties :
#
#
# Convention : Reuss Voigt Hill
#
# Bulk Modulus (GPa) = 64.24225 71.77173 68.00699
# Shear Modulus (GPa) = 32.06238 -29.34850 1.35694
#
# Velocity S-wave (km/s) = 3.85688 -3.69004 0.79345
# Velocity P-wave (km/s) = 7.04554 3.89149 5.69137
#
# Compressibility (1/GPa) = 0.01556608
#
# Stress axis : x y z
#
# Youngs Moduli (GPa) = 93.32633 107.64010 126.32397
#
# Poissons Ratio (x) = 0.23876 0.35745
# Poissons Ratio (y) = 0.20701 0.14274
# Poissons Ratio (z) = 0.26408 0.12163
#
# Static dielectric constant tensor:
#      x y z
#    x 1.830490 0.000000 -0.036200 
#    y 0.000000 1.821220 0.000000 
#    z -0.036200 0.000000 1.821950 
# 
# From -- ./inp_files/110081.got.cif
#   From: 2010.05.17/outbox.cif.g08.bks.cpg/sg12_56_cif.got.tgz:110081.got - 2010.06.03 13:09:07.
