data_PCOD9204439
_publ_section_title
;
Structure prediction by ZEFSAII (Michael W. Deem and Ramdas Pophale) SiO2 
 PCOD9204439
Probable space group: C 2/M
;
_chemical_formula_sum "Si O2"
_cell_formula_units_Z 56
_cell_length_a 14.046743
_cell_length_b 13.164442
_cell_length_c 26.788276
_cell_angle_alpha 90.000000
_cell_angle_beta 148.424249
_cell_angle_gamma 90.000000
_cell_volume 2593.842198
_symmetry_space_group_name_H-M "C 2/M"
_symmetry_group_IT_number 12
_symmetry_cell_setting 'monoclinic'
loop_
_space_group_symop_operation_xyz
x,y,z
-x,y,-z
-x,-y,-z
x,-y,z
1/2+x,1/2+y,z
1/2-x,1/2+y,-z
1/2-x,1/2-y,-z
1/2+x,1/2-y,z
loop_
_atom_site_type_symbol
_atom_site_label
_atom_site_fract_x
_atom_site_fract_y
_atom_site_fract_z
Si Si1 0.516360 0.190732 0.787652
Si Si2 0.177140 0.116492 0.469846
Si Si3 0.215091 0.391117 0.596545
Si Si4 0.056473 0.619742 0.696492
Si Si5 0.885714 0.880028 0.995668
Si Si6 0.948820 0.120765 0.825661
Si Si7 0.868558 0.824194 0.396339
O O1 0.567883 0.185043 0.751948
O O2 0.508471 0.303854 0.808306
O O3 0.323976 0.128955 0.705194
O O4 0.676244 0.136851 0.889736
O O5 0.212480 0.122625 0.426992
O O6 0.364245 0.136556 0.582954
O O7 0.010030 0.182249 0.414648
O O8 0.125810 0.000000 0.458301
O O9 0.289714 0.500000 0.649744
O O10 0.000000 0.405614 0.500000
O O11 0.214461 0.282532 0.622242
O O12 0.060040 0.500000 0.712795
O O13 0.232203 0.632874 0.739812
O O14 0.951936 0.843035 0.079140
O O15 0.926260 0.000000 0.015347
O O16 0.000000 0.836250 0.000000
O O17 0.985596 0.000000 0.834853
O O18 0.000000 0.863965 0.500000
#
# Coordination Sequence:
#
# PCOD9204439 Si02
#       7
#     8   8   8   8   8   8   8
#     4  12  23  38  64  97 124 161 204 257 307 371
#     4  10  22  40  60  84 125 169 210 256 303 358
#     4   9  21  40  60  81 115 168 217 255 295 350
#     4  10  21  38  63  92 120 161 213 256 299 362
#     4  10  20  41  69  95 122 154 203 260 309 365
#     4  10  23  41  66  96 121 157 206 258 310 363
#     4  11  24  37  56  93 127 164 205 253 304 360
#
# _framework density 21.589594999999999
#
# number of rings (size 3 to 8) (size 9 to 14) (size 15 to 20)
#    0.000    1.714    2.857    0.857    4.000    5.429 
#    0.000    0.000    0.000    3.000    0.000    0.000 
#    0.000    0.000    0.000    0.000    0.000    0.000 
#
# Total GULP energy -156217.072878 kJ/mol
# GULP energy per Si atom -5579.181174 kJ/mol
# Density = 2.154046 g / cm^3
# Si number density = 21.589595 Si / 1000 Ang^3
#
#
#
# Elastic Constant Matrix: (Units=GPa)
#
#
# Indices 1 2 3 4 5 6 
#
# 1 113.1577 43.6601 14.4725 0.0000 -5.7122 0.0000
# 2 43.6601 73.2612 -2.9845 0.0000 -14.2315 0.0000
# 3 14.4725 -2.9845 120.1723 -0.0002 -5.3195 -0.0001
# 4 0.0000 0.0000 -0.0002 17.1280 0.0000 1.6540
# 5 -5.7122 -14.2315 -5.3195 0.0000 26.3689 0.0000
# 6 0.0000 0.0000 -0.0001 1.6540 0.0000 37.5552
#
#
#
# Elastic Compliance Matrix: (Units=1/GPa)
#
#
# Indices 1 2 3 4 5 6 
#
# 1 0.011849 -0.007483 -0.001693 0.000000 -0.001813 0.000000
# 2 -0.007483 0.020041 0.001822 0.000000 0.009563 0.000000
# 3 -0.001693 0.001822 0.008675 0.000000 0.002367 0.000000
# 4 0.000000 0.000000 0.000000 0.058633 0.000000 -0.002582
# 5 -0.001813 0.009563 0.002367 0.000000 0.043169 0.000000
# 6 0.000000 0.000000 0.000000 -0.002582 0.000000 0.026741
#
#
# Mechanical properties :
#
#
# Convention : Reuss Voigt Hill
#
# Bulk Modulus (GPa) = 38.67243 46.32082 42.49662
# Shear Modulus (GPa) = 25.98261 32.97332 29.47796
#
# Velocity S-wave (km/s) = 3.47288 3.91228 3.69911
# Velocity P-wave (km/s) = 5.83375 6.47377 6.16207
#
# Compressibility (1/GPa) = 0.02585822
#
# Stress axis : x y z
#
# Youngs Moduli (GPa) = 84.39260 49.89744 115.26958
#
# Poissons Ratio (x) = 0.37338 0.19517
# Poissons Ratio (y) = 0.63150 -0.21004
# Poissons Ratio (z) = 0.14289 -0.09092
#
# Static dielectric constant tensor:
#      x y z
#    x 1.811440 0.000000 -0.018310 
#    y 0.000000 1.977320 0.000000 
#    z -0.018310 0.000000 1.823270 
# 
# From -- ./inp_files/376394.got.cif
#   From: 2010.05.17/outbox.cif.g08.bks.cpg/sg12_189_cif.got.tgz:376394.got - 2010.06.03 13:09:07.
