data_PCOD9204798
_publ_section_title
;
Structure prediction by ZEFSAII (Michael W. Deem and Ramdas Pophale) SiO2 
 PCOD9204798
Probable space group: C 2/M
;
_chemical_formula_sum "Si O2"
_cell_formula_units_Z 52
_cell_length_a 7.923937
_cell_length_b 23.810668
_cell_length_c 11.218141
_cell_angle_alpha 90.000000
_cell_angle_beta 107.281061
_cell_angle_gamma 90.000000
_cell_volume 2021.029970
_symmetry_space_group_name_H-M "C 2/M"
_symmetry_group_IT_number 12
_symmetry_cell_setting 'monoclinic'
loop_
_space_group_symop_operation_xyz
x,y,z
-x,y,-z
-x,-y,-z
x,-y,z
1/2+x,1/2+y,z
1/2-x,1/2+y,-z
1/2-x,1/2-y,-z
1/2+x,1/2-y,z
loop_
_atom_site_type_symbol
_atom_site_label
_atom_site_fract_x
_atom_site_fract_y
_atom_site_fract_z
Si Si1 0.360616 0.326896 0.829797
Si Si2 0.834653 0.000000 0.050961
Si Si3 0.415503 0.095952 0.096830
Si Si4 0.848897 0.705102 0.608597
Si Si5 0.838863 0.120222 0.564363
Si Si6 0.325037 0.000000 0.751368
Si Si7 0.656275 0.279510 0.795570
Si Si8 0.288061 0.000000 0.469288
O O1 0.213517 0.367913 0.849227
O O2 0.365153 0.342346 0.688499
O O3 0.573801 0.319101 0.880040
O O4 0.300394 0.265849 0.861764
O O5 0.716536 0.947313 0.993403
O O6 0.842010 0.000000 0.194420
O O7 0.000000 0.000000 0.000000
O O8 0.554251 0.055480 0.195954
O O9 0.500000 0.127453 0.000000
O O10 0.750000 0.750000 0.500000
O O11 0.834573 0.647726 0.533117
O O12 0.747777 0.687879 0.707871
O O13 0.020801 0.736835 0.694278
O O14 0.000000 0.122697 0.500000
O O15 0.797852 0.057132 0.595470
O O16 0.258007 0.000000 0.604520
O O17 0.500000 0.000000 0.500000
#
# Coordination Sequence:
#
# PCOD9204798 Si02
#       8
#     8   4   8   8   8   4   8   4
#     4  11  22  37  60  86 118 157 202 239 299 343
#     4   9  19  40  70  95 109 141 198 253 292 348
#     4   9  20  41  65  84 117 150 193 243 300 351
#     4  11  18  33  56  79 113 154 205 242 272 332
#     4  12  24  38  54  82 127 163 194 243 297 346
#     4   9  20  42  61  87 113 153 195 241 284 364
#     4  10  21  33  54  86 113 151 199 244 282 341
#     4  12  28  38  54  88 125 162 199 234 302 362
#
# _framework density 25.729454
#
# number of rings (size 3 to 8) (size 9 to 14) (size 15 to 20)
#    0.000    1.538    4.615    2.538    4.308    1.846 
#    0.000    2.308    0.000    0.000    0.000    0.000 
#    0.000    0.000    0.000    0.000    0.000    0.000 
#
# Total GULP energy -145015.665026 kJ/mol
# GULP energy per Si atom -5577.525578 kJ/mol
# Density = 2.567089 g / cm^3
# Si number density = 25.729454 Si / 1000 Ang^3
#
#
#
# Elastic Constant Matrix: (Units=GPa)
#
#
# Indices 1 2 3 4 5 6 
#
# 1 93.0491 6.9160 28.9947 0.0000 -41.9524 0.0000
# 2 6.9160 105.1719 7.4726 0.0000 -13.6089 0.0000
# 3 28.9947 7.4726 59.0315 0.0000 -18.5628 0.0000
# 4 0.0000 0.0000 0.0000 8.3362 0.0000 -15.4199
# 5 -41.9524 -13.6089 -18.5628 0.0000 56.6505 0.0000
# 6 0.0000 0.0000 0.0000 -15.4199 0.0000 22.7153
#
#
#
# Elastic Compliance Matrix: (Units=1/GPa)
#
#
# Indices 1 2 3 4 5 6 
#
# 1 0.017412 0.000690 -0.005054 0.000000 0.011404 0.000000
# 2 0.000690 0.009857 -0.000760 0.000000 0.002630 0.000000
# 3 -0.005054 -0.000760 0.020385 0.000000 0.002755 0.000000
# 4 0.000000 0.000000 0.000000 -0.469184 0.000000 -0.318498
# 5 0.011404 0.002630 0.002755 0.000000 0.027632 0.000000
# 6 0.000000 0.000000 0.000000 -0.318498 0.000000 -0.172184
#
#
# Mechanical properties :
#
#
# Convention : Reuss Voigt Hill
#
# Bulk Modulus (GPa) = 26.73281 38.22434 32.47858
# Shear Modulus (GPa) = -9.20189 31.79834 11.29823
#
# Velocity S-wave (km/s) = -1.89319 3.51931 2.09778
# Velocity P-wave (km/s) = 2.37353 5.60380 4.30327
#
# Compressibility (1/GPa) = 0.03740721
#
# Stress axis : x y z
#
# Youngs Moduli (GPa) = 57.43067 101.44923 49.05652
#
# Poissons Ratio (x) = -0.06997 0.24791
# Poissons Ratio (y) = -0.03961 0.03726
# Poissons Ratio (z) = 0.29023 0.07706
#
# Static dielectric constant tensor:
#      x y z
#    x 2.132480 0.000000 -0.029730 
#    y 0.000000 2.045900 0.000000 
#    z -0.029730 0.000000 2.084110 
# 
# From -- ./inp_files/123744.got.cif
#   From: 2010.05.17/outbox.cif.g08.bks.cpg/sg12_62_cif.got.tgz:123744.got - 2010.06.03 13:09:07.
