data_PCOD9204401
_publ_section_title
;
Structure prediction by ZEFSAII (Michael W. Deem and Ramdas Pophale) SiO2 
 PCOD9204401
Probable space group: C 2/M
;
_chemical_formula_sum "Si O2"
_cell_formula_units_Z 56
_cell_length_a 20.522487
_cell_length_b 8.865663
_cell_length_c 27.583967
_cell_angle_alpha 90.000000
_cell_angle_beta 144.887824
_cell_angle_gamma 90.000000
_cell_volume 2886.695888
_symmetry_space_group_name_H-M "C 2/M"
_symmetry_group_IT_number 12
_symmetry_cell_setting 'monoclinic'
loop_
_space_group_symop_operation_xyz
x,y,z
-x,y,-z
-x,-y,-z
x,-y,z
1/2+x,1/2+y,z
1/2-x,1/2+y,-z
1/2-x,1/2-y,-z
1/2+x,1/2-y,z
loop_
_atom_site_type_symbol
_atom_site_label
_atom_site_fract_x
_atom_site_fract_y
_atom_site_fract_z
Si Si1 0.031824 0.679192 0.246335
Si Si2 0.447416 0.177999 0.021577
Si Si3 0.381223 0.678698 0.799797
Si Si4 0.188437 0.181116 0.843689
Si Si5 0.761513 0.679559 0.559962
Si Si6 0.457314 0.180554 0.528184
Si Si7 0.158583 0.819010 0.712017
O O1 0.030651 0.500000 0.237024
O O2 0.082576 0.761536 0.230587
O O3 0.115910 0.710455 0.342422
O O4 0.907764 0.738061 0.183991
O O5 0.519210 0.275352 0.102574
O O6 0.457605 0.000000 0.040833
O O7 0.500000 0.194426 0.000000
O O8 0.315262 0.218397 0.938093
O O9 0.363871 0.500000 0.788459
O O10 0.267008 0.758547 0.748804
O O11 0.174136 0.220403 0.778152
O O12 0.175193 0.000000 0.839559
O O13 0.746033 0.500000 0.547833
O O14 0.750000 0.750000 0.500000
O O15 0.664740 0.749258 0.535166
O O16 0.500000 0.217152 0.500000
O O17 0.546630 0.246655 0.620956
O O18 0.451907 0.000000 0.529603
O O19 0.153125 0.000000 0.704893
#
# Coordination Sequence:
#
# PCOD9204401 Si02
#       7
#     8   8   8   8   8   8   8
#     4  11  25  43  63  90 126 166 209 255 309 371
#     4  10  20  41  67  92 125 164 206 252 309 371
#     4  12  25  40  63  94 128 165 208 258 311 366
#     4  10  22  40  65  93 122 159 203 253 308 368
#     4  11  24  42  65  91 122 166 212 258 312 374
#     4  11  24  40  60  90 126 162 204 258 313 367
#     4  11  22  40  65  92 123 162 207 254 309 371
#
# _framework density 19.399342000000001
#
# number of rings (size 3 to 8) (size 9 to 14) (size 15 to 20)
#    0.000    1.143    1.429    4.714    0.000   10.571 
#    0.000    0.000    0.000    0.000    0.000    0.000 
#    0.000    0.000    0.000    0.000    0.000    0.000 
#
# Total GULP energy -156685.791950 kJ/mol
# GULP energy per Si atom -5595.921141 kJ/mol
# Density = 1.935519 g / cm^3
# Si number density = 19.399342 Si / 1000 Ang^3
#
#
#
# Elastic Constant Matrix: (Units=GPa)
#
#
# Indices 1 2 3 4 5 6 
#
# 1 59.5384 7.8807 -16.1965 0.0000 11.7217 0.0000
# 2 7.8807 31.2187 9.3741 0.0000 0.5815 0.0000
# 3 -16.1965 9.3741 51.4496 0.0000 15.3744 0.0000
# 4 0.0000 0.0000 0.0000 32.0665 0.0000 6.6526
# 5 11.7217 0.5815 15.3744 0.0000 34.1403 0.0000
# 6 0.0000 0.0000 0.0000 6.6526 0.0000 35.1406
#
#
#
# Elastic Compliance Matrix: (Units=1/GPa)
#
#
# Indices 1 2 3 4 5 6 
#
# 1 0.024884 -0.010240 0.014097 0.000000 -0.014718 0.000000
# 2 -0.010240 0.038293 -0.012776 0.000000 0.008617 0.000000
# 3 0.014097 -0.012776 0.031872 0.000000 -0.018976 0.000000
# 4 0.000000 0.000000 0.000000 0.032460 0.000000 -0.006145
# 5 -0.014718 0.008617 -0.018976 0.000000 0.042743 0.000000
# 6 0.000000 0.000000 0.000000 -0.006145 0.000000 0.029620
#
#
# Mechanical properties :
#
#
# Convention : Reuss Voigt Hill
#
# Bulk Modulus (GPa) = 12.95144 16.03593 14.49368
# Shear Modulus (GPa) = 20.53837 29.67938 25.10888
#
# Velocity S-wave (km/s) = 3.25732 3.91566 3.60156
# Velocity P-wave (km/s) = 4.56482 5.35979 4.97820
#
# Compressibility (1/GPa) = 0.07721150
#
# Stress axis : x y z
#
# Youngs Moduli (GPa) = 40.18678 26.11457 31.37507
#
# Poissons Ratio (x) = 0.26742 -0.44230
# Poissons Ratio (y) = 0.41153 0.40084
# Poissons Ratio (z) = -0.56652 0.33363
#
# Static dielectric constant tensor:
#      x y z
#    x 1.643530 0.000000 -0.001140 
#    y 0.000000 1.647020 0.000000 
#    z -0.001140 0.000000 1.655150 
# 
# From -- ./inp_files/363236.got.cif
#   From: 2010.05.17/outbox.cif.g08.bks.cpg/sg12_182_cif.got.tgz:363236.got - 2010.06.03 13:09:07.
