data_PCOD9204105
_publ_section_title
;
Structure prediction by ZEFSAII (Michael W. Deem and Ramdas Pophale) SiO2 
 PCOD9204105
Probable space group: C 2/M
;
_chemical_formula_sum "Si O2"
_cell_formula_units_Z 56
_cell_length_a 9.018163
_cell_length_b 27.272280
_cell_length_c 10.025412
_cell_angle_alpha 90.000000
_cell_angle_beta 76.666724
_cell_angle_gamma 90.000000
_cell_volume 2399.245714
_symmetry_space_group_name_H-M "C 2/M"
_symmetry_group_IT_number 12
_symmetry_cell_setting 'monoclinic'
loop_
_space_group_symop_operation_xyz
x,y,z
-x,y,-z
-x,-y,-z
x,-y,z
1/2+x,1/2+y,z
1/2-x,1/2+y,-z
1/2-x,1/2-y,-z
1/2+x,1/2-y,z
loop_
_atom_site_type_symbol
_atom_site_label
_atom_site_fract_x
_atom_site_fract_y
_atom_site_fract_z
Si Si1 0.866182 0.696405 0.835758
Si Si2 0.654474 0.369675 0.526608
Si Si3 0.925087 0.786879 0.286753
Si Si4 0.140917 0.849845 0.079420
Si Si5 0.317698 0.055041 0.019374
Si Si6 0.534707 0.881713 0.639374
Si Si7 0.280467 0.053967 0.711787
O O1 0.723632 0.709318 0.772979
O O2 0.994439 0.736339 0.772683
O O3 0.946163 0.646607 0.772020
O O4 0.779065 0.684687 0.993027
O O5 0.500000 0.389024 0.500000
O O6 0.636102 0.311438 0.563684
O O7 0.787021 0.378717 0.393284
O O8 0.699957 0.401654 0.648709
O O9 0.057577 0.824924 0.219302
O O10 0.216823 0.901368 0.097920
O O11 0.000000 0.853910 0.000000
O O12 0.266508 0.055622 0.874122
O O13 0.287958 0.000000 0.077253
O O14 0.500000 0.063478 0.000000
O O15 0.500000 0.858220 0.500000
O O16 0.459947 0.935097 0.652104
O O17 0.235421 0.000000 0.673974
#
# Coordination Sequence:
#
# PCOD9204105 Si02
#       7
#     8   8   8   8   8   8   8
#     4  11  22  40  63  93 123 175 221 268 329 392
#     4  11  25  42  62  96 131 170 222 275 326 385
#     4  11  24  39  60  92 128 171 219 270 329 389
#     4  10  21  41  64  89 135 170 213 272 327 392
#     4  10  21  38  67 102 131 168 216 262 330 405
#     4  10  20  40  65  89 127 167 219 271 317 384
#     4  10  20  42  71  95 129 173 213 271 333 387
#
# _framework density 23.340668999999998
#
# number of rings (size 3 to 8) (size 9 to 14) (size 15 to 20)
#    0.000    1.571    4.286    1.286    2.000    6.571 
#    0.000    0.714    0.000    0.000    0.000    0.000 
#    0.000    0.000    0.000    0.000    0.000    0.000 
#
# Total GULP energy -156169.786466 kJ/mol
# GULP energy per Si atom -5577.492374 kJ/mol
# Density = 2.328754 g / cm^3
# Si number density = 23.340669 Si / 1000 Ang^3
#
#
#
# Elastic Constant Matrix: (Units=GPa)
#
#
# Indices 1 2 3 4 5 6 
#
# 1 94.1500 18.5357 8.3905 0.0000 -3.9446 0.0000
# 2 18.5357 108.7454 -8.9436 0.0000 1.5497 0.0000
# 3 8.3905 -8.9436 40.0787 0.0000 -5.1339 0.0000
# 4 0.0000 0.0000 0.0000 14.0431 0.0000 -18.4606
# 5 -3.9446 1.5497 -5.1339 0.0000 24.2311 0.0000
# 6 0.0000 0.0000 0.0000 -18.4606 0.0000 13.1932
#
#
#
# Elastic Compliance Matrix: (Units=1/GPa)
#
#
# Indices 1 2 3 4 5 6 
#
# 1 0.011348 -0.002175 -0.002679 0.000000 0.001419 0.000000
# 2 -0.002175 0.009785 0.002583 0.000000 -0.000432 0.000000
# 3 -0.002679 0.002583 0.026737 0.000000 0.005063 0.000000
# 4 0.000000 0.000000 0.000000 -0.084833 0.000000 -0.118702
# 5 0.001419 -0.000432 0.005063 0.000000 0.042601 0.000000
# 6 0.000000 0.000000 0.000000 -0.118702 0.000000 -0.090298
#
#
# Mechanical properties :
#
#
# Convention : Reuss Voigt Hill
#
# Bulk Modulus (GPa) = 23.07943 30.99326 27.03635
# Shear Modulus (GPa) = -76.13095 25.29291 -25.41902
#
# Velocity S-wave (km/s) = -5.71735 3.29544 -3.30365
# Velocity P-wave (km/s) = 5.80298 5.27137 1.71569
#
# Compressibility (1/GPa) = 0.04332862
#
# Stress axis : x y z
#
# Youngs Moduli (GPa) = 88.12342 102.19601 37.40148
#
# Poissons Ratio (x) = 0.22226 0.10021
# Poissons Ratio (y) = 0.19165 -0.09662
# Poissons Ratio (z) = 0.23610 -0.26402
#
# Static dielectric constant tensor:
#      x y z
#    x 1.909270 0.000000 0.010520 
#    y 0.000000 1.937370 0.000000 
#    z 0.010520 0.000000 1.944790 
# 
# From -- ./inp_files/124201.got.cif
#   From: 2010.05.17/outbox.cif.g08.bks.cpg/sg12_63_cif.got.tgz:124201.got - 2010.06.03 13:09:07.
