data_PCOD9204088
_publ_section_title
;
Structure prediction by ZEFSAII (Michael W. Deem and Ramdas Pophale) SiO2 
 PCOD9204088
Probable space group: C 2/M
;
_chemical_formula_sum "Si O2"
_cell_formula_units_Z 64
_cell_length_a 29.807379
_cell_length_b 7.671225
_cell_length_c 14.941939
_cell_angle_alpha 90.000000
_cell_angle_beta 126.709840
_cell_angle_gamma 90.000000
_cell_volume 2739.004366
_symmetry_space_group_name_H-M "C 2/M"
_symmetry_group_IT_number 12
_symmetry_cell_setting 'monoclinic'
loop_
_space_group_symop_operation_xyz
x,y,z
-x,y,-z
-x,-y,-z
x,-y,z
1/2+x,1/2+y,z
1/2-x,1/2+y,-z
1/2-x,1/2-y,-z
1/2+x,1/2-y,z
loop_
_atom_site_type_symbol
_atom_site_label
_atom_site_fract_x
_atom_site_fract_y
_atom_site_fract_z
Si Si1 0.420772 0.300419 0.718026
Si Si2 0.565739 0.709110 0.071209
Si Si3 0.307308 0.795108 0.615925
Si Si4 0.738083 0.707940 0.246093
Si Si5 0.142820 0.213617 0.002392
Si Si6 0.976388 0.301732 0.611992
Si Si7 0.862584 0.300273 0.391364
Si Si8 0.895823 0.797133 0.239537
O O1 0.441491 0.500000 0.747340
O O2 0.415392 0.221326 0.810454
O O3 0.355868 0.296152 0.615928
O O4 0.460007 0.202590 0.696748
O O5 0.576399 0.500000 0.084742
O O6 0.595814 0.772986 0.018086
O O7 0.500000 0.736054 0.000000
O O8 0.250000 0.750000 0.500000
O O9 0.298590 0.737258 0.708580
O O10 0.316794 0.000000 0.623267
O O11 0.744443 0.500000 0.242391
O O12 0.701869 0.769256 0.117199
O O13 0.801018 0.778630 0.334320
O O14 0.142258 0.000000 0.999830
O O15 0.126519 0.269366 0.883058
O O16 0.982640 0.500000 0.586942
O O17 0.920822 0.221629 0.499078
O O18 0.036639 0.215211 0.673803
O O19 0.861996 0.500000 0.426236
O O20 0.870261 0.300008 0.293709
O O21 0.880160 0.000000 0.228696
#
# Coordination Sequence:
#
# PCOD9204088 Si02
#       8
#     8   8   8   8   8   8   8   8
#     4  11  21  36  61  90 120 158 200 242 296 359
#     4   9  16  29  54  85 117 154 195 235 283 353
#     4  12  24  38  58  87 124 161 202 249 299 356
#     4  10  20  40  65  87 118 162 205 248 306 373
#     4   9  18  35  59  88 121 158 202 248 302 367
#     4  11  23  40  60  87 125 162 201 255 312 370
#     4  10  23  41  62  86 116 157 201 252 318 374
#     4  11  23  39  63  91 118 156 206 257 306 366
#
# _framework density 23.366154999999999
#
# number of rings (size 3 to 8) (size 9 to 14) (size 15 to 20)
#    0.000    1.625    1.250    4.125    0.000    6.500 
#    0.000    1.250    0.000    1.500    0.000    0.000 
#    0.000    0.000    0.000    0.000    0.000    0.000 
#
# Total GULP energy -178726.185554 kJ/mol
# GULP energy per Si atom -5585.193299 kJ/mol
# Density = 2.331297 g / cm^3
# Si number density = 23.366155 Si / 1000 Ang^3
#
#
#
# Elastic Constant Matrix: (Units=GPa)
#
#
# Indices 1 2 3 4 5 6 
#
# 1 82.3299 -9.0804 12.3891 0.0000 2.5174 0.0000
# 2 -9.0804 65.5047 -5.7081 0.0000 -12.1948 0.0000
# 3 12.3891 -5.7081 100.5628 0.0000 22.7913 0.0000
# 4 0.0000 0.0000 0.0000 13.5878 0.0000 -7.6363
# 5 2.5174 -12.1948 22.7913 0.0000 73.5363 0.0000
# 6 0.0000 0.0000 0.0000 -7.6363 0.0000 16.5440
#
#
#
# Elastic Compliance Matrix: (Units=1/GPa)
#
#
# Indices 1 2 3 4 5 6 
#
# 1 0.012550 0.001666 -0.001524 0.000000 0.000319 0.000000
# 2 0.001666 0.015984 0.000123 0.000000 0.002556 0.000000
# 3 -0.001524 0.000123 0.010887 0.000000 -0.003302 0.000000
# 4 0.000000 0.000000 0.000000 0.099373 0.000000 0.045868
# 5 0.000319 0.002556 -0.003302 0.000000 0.015035 0.000000
# 6 0.000000 0.000000 0.000000 0.045868 0.000000 0.081616
#
#
# Mechanical properties :
#
#
# Convention : Reuss Voigt Hill
#
# Bulk Modulus (GPa) = 25.03090 27.06652 26.04871
# Shear Modulus (GPa) = 20.14258 37.45342 28.79800
#
# Velocity S-wave (km/s) = 2.93924 4.00796 3.51446
# Velocity P-wave (km/s) = 4.71747 5.74692 5.25745
#
# Compressibility (1/GPa) = 0.03995062
#
# Stress axis : x y z
#
# Youngs Moduli (GPa) = 79.68391 62.56446 91.85250
#
# Poissons Ratio (x) = -0.10425 0.13996
# Poissons Ratio (y) = -0.13277 -0.01128
# Poissons Ratio (z) = 0.12142 -0.00768
#
# Static dielectric constant tensor:
#      x y z
#    x 1.907290 0.000000 0.092590 
#    y 0.000000 1.875180 0.000000 
#    z 0.092590 0.000000 2.096890 
# 
# From -- ./inp_files/250026.got.cif
#   From: 2010.05.17/outbox.cif.g08.bks.cpg/sg12_126_cif.got.tgz:250026.got - 2010.06.03 13:09:07.
