data_PCOD9204468
_publ_section_title
;
Structure prediction by ZEFSAII (Michael W. Deem and Ramdas Pophale) SiO2 
 PCOD9204468
Probable space group: C 2/M
;
_chemical_formula_sum "Si O2"
_cell_formula_units_Z 64
_cell_length_a 9.232333
_cell_length_b 13.920637
_cell_length_c 26.514035
_cell_angle_alpha 90.000000
_cell_angle_beta 68.180147
_cell_angle_gamma 90.000000
_cell_volume 3163.453493
_symmetry_space_group_name_H-M "C 2/M"
_symmetry_group_IT_number 12
_symmetry_cell_setting 'monoclinic'
loop_
_space_group_symop_operation_xyz
x,y,z
-x,y,-z
-x,-y,-z
x,-y,z
1/2+x,1/2+y,z
1/2-x,1/2+y,-z
1/2-x,1/2-y,-z
1/2+x,1/2-y,z
loop_
_atom_site_type_symbol
_atom_site_label
_atom_site_fract_x
_atom_site_fract_y
_atom_site_fract_z
Si Si1 0.138122 0.250064 0.785628
Si Si2 0.418915 0.213363 0.461478
Si Si3 0.073097 0.608669 0.645382
Si Si4 0.031267 0.800502 0.289127
Si Si5 0.832232 0.385515 0.959733
Si Si6 0.559932 0.393145 0.387961
Si Si7 0.702413 0.885863 0.923686
Si Si8 0.191702 0.293080 0.141103
O O1 0.289984 0.311440 0.751090
O O2 0.194833 0.189261 0.826664
O O3 0.081546 0.191309 0.744088
O O4 0.986939 0.312362 0.820653
O O5 0.500000 0.169690 0.500000
O O6 0.250000 0.250000 0.500000
O O7 0.422167 0.142599 0.413462
O O8 0.509382 0.309372 0.432090
O O9 0.013048 0.500000 0.658408
O O10 0.252906 0.609968 0.639944
O O11 0.984759 0.690829 0.688144
O O12 0.993048 0.867229 0.341478
O O13 0.818379 0.500000 0.959140
O O14 0.765849 0.342860 0.916896
O O15 0.018191 0.364753 0.938917
O O16 0.760233 0.357424 0.023112
O O17 0.512784 0.500000 0.410211
O O18 0.796703 0.820430 0.873126
O O19 0.724901 0.000000 0.915065
#
# Coordination Sequence:
#
# PCOD9204468 Si02
#       8
#     8   8   8   8   8   8   8   8
#     4  10  22  35  59  79 117 144 184 230 297 332
#     4  11  22  38  59  89 127 154 177 231 285 322
#     4  10  21  38  63  87 112 152 198 230 269 336
#     4  10  20  42  57  84 110 151 183 245 281 327
#     4   9  18  34  56  80 109 147 186 222 270 341
#     4  10  21  38  64  87 110 154 200 228 266 340
#     4   9  18  34  56  80 109 147 187 222 268 341
#     4  11  19  37  55  86 109 148 179 233 279 343
#
# _framework density 20.231054
#
# number of rings (size 3 to 8) (size 9 to 14) (size 15 to 20)
#    0.000    2.000    3.750    1.125    0.000    1.000 
#    0.000   10.000    0.000    1.500    0.000    0.000 
#    0.000    0.000    0.000    0.000    0.000    0.000 
#
# Total GULP energy -178530.295340 kJ/mol
# GULP energy per Si atom -5579.071729 kJ/mol
# Density = 2.018501 g / cm^3
# Si number density = 20.231054 Si / 1000 Ang^3
#
#
#
# Elastic Constant Matrix: (Units=GPa)
#
#
# Indices 1 2 3 4 5 6 
#
# 1 70.5278 1.8008 30.5648 0.0000 22.5741 0.0000
# 2 1.8008 63.4247 16.7656 0.0000 2.4292 0.0000
# 3 30.5648 16.7656 103.2310 0.0000 35.7008 0.0000
# 4 0.0000 0.0000 0.0000 8.5216 0.0000 -0.2749
# 5 22.5741 2.4292 35.7008 0.0000 50.8856 0.0000
# 6 0.0000 0.0000 0.0000 -0.2749 0.0000 13.1917
#
#
#
# Elastic Compliance Matrix: (Units=1/GPa)
#
#
# Indices 1 2 3 4 5 6 
#
# 1 0.017341 0.000607 -0.003383 0.000000 -0.005348 0.000000
# 2 0.000607 0.016576 -0.003307 0.000000 0.001260 0.000000
# 3 -0.003383 -0.003307 0.014065 0.000000 -0.008209 0.000000
# 4 0.000000 0.000000 0.000000 0.117427 0.000000 0.002447
# 5 -0.005348 0.001260 -0.008209 0.000000 0.027724 0.000000
# 6 0.000000 0.000000 0.000000 0.002447 0.000000 0.075856
#
#
# Mechanical properties :
#
#
# Convention : Reuss Voigt Hill
#
# Bulk Modulus (GPa) = 27.92218 37.27177 32.59697
# Shear Modulus (GPa) = 17.05931 27.05659 22.05795
#
# Velocity S-wave (km/s) = 2.90698 3.66099 3.30555
# Velocity P-wave (km/s) = 5.00989 6.02773 5.54222
#
# Compressibility (1/GPa) = 0.03581382
#
# Stress axis : x y z
#
# Youngs Moduli (GPa) = 57.66532 60.32988 71.09916
#
# Poissons Ratio (x) = -0.03661 0.24056
# Poissons Ratio (y) = -0.03499 0.23516
# Poissons Ratio (z) = 0.19511 0.19954
#
# Static dielectric constant tensor:
#      x y z
#    x 1.722130 0.000000 -0.007060 
#    y 0.000000 1.695680 0.000000 
#    z -0.007060 0.000000 1.680300 
# 
# From -- ./inp_files/356155.got.cif
#   From: 2010.05.17/outbox.cif.g08.bks.cpg/sg12_179_cif.got.tgz:356155.got - 2010.06.03 13:09:07.
