data_PCOD9204316
_publ_section_title
;
Structure prediction by ZEFSAII (Michael W. Deem and Ramdas Pophale) SiO2 
 PCOD9204316
Probable space group: C 2/M
;
_chemical_formula_sum "Si O2"
_cell_formula_units_Z 40
_cell_length_a 19.329264
_cell_length_b 14.274181
_cell_length_c 16.192026
_cell_angle_alpha 90.000000
_cell_angle_beta 154.512114
_cell_angle_gamma 90.000000
_cell_volume 1922.469673
_symmetry_space_group_name_H-M "C 2/M"
_symmetry_group_IT_number 12
_symmetry_cell_setting 'monoclinic'
loop_
_space_group_symop_operation_xyz
x,y,z
-x,y,-z
-x,-y,-z
x,-y,z
1/2+x,1/2+y,z
1/2-x,1/2+y,-z
1/2-x,1/2-y,-z
1/2+x,1/2-y,z
loop_
_atom_site_type_symbol
_atom_site_label
_atom_site_fract_x
_atom_site_fract_y
_atom_site_fract_z
Si Si1 0.099489 0.108085 0.839819
Si Si2 0.768421 0.345494 0.571412
Si Si3 0.322592 0.723500 0.780666
Si Si4 0.075117 0.603346 0.418240
Si Si5 0.785131 0.739121 0.154181
O O1 0.195492 0.160999 0.869880
O O2 0.909254 0.110877 0.616266
O O3 0.148247 0.000000 0.905265
O O4 0.138868 0.176796 0.959512
O O5 0.750000 0.250000 0.500000
O O6 0.826781 0.312811 0.723849
O O7 0.888509 0.399369 0.640381
O O8 0.233674 0.639953 0.636365
O O9 0.226862 0.746406 0.761092
O O10 0.500000 0.697286 0.000000
O O11 0.029501 0.500000 0.397952
O O12 0.940362 0.679161 0.294189
#
# Coordination Sequence:
#
# PCOD9204316 Si02
#       5
#     8   8   8   8   8
#     4  11  23  40  68  94 125 171 215 258 321 389
#     4  10  20  41  62  90 126 172 206 255 317 379
#     4  11  24  40  64  92 131 173 207 263 329 370
#     4  11  23  40  67  97 128 168 212 261 322 384
#     4  11  23  41  65  98 132 164 209 273 318 374
#
# _framework density 20.806570000000001
#
# number of rings (size 3 to 8) (size 9 to 14) (size 15 to 20)
#    0.000    1.200    4.000    4.200    2.800    2.800 
#    0.000    3.000    0.000    3.000    0.000    0.000 
#    0.000    0.000    0.000    0.000    0.000    0.000 
#
# Total GULP energy -111690.719362 kJ/mol
# GULP energy per Si atom -5584.535968 kJ/mol
# Density = 2.075921 g / cm^3
# Si number density = 20.806570 Si / 1000 Ang^3
#
#
#
# Elastic Constant Matrix: (Units=GPa)
#
#
# Indices 1 2 3 4 5 6 
#
# 1 135.2459 31.9576 9.2859 -0.0001 -24.1364 0.0000
# 2 31.9576 84.1810 13.2339 -0.0002 -5.1795 -0.0002
# 3 9.2859 13.2339 79.3267 -0.0001 5.0505 -0.0001
# 4 -0.0001 -0.0002 -0.0001 10.6631 -0.0004 -2.8690
# 5 -24.1364 -5.1795 5.0505 -0.0004 34.6187 -0.0003
# 6 0.0000 -0.0002 -0.0001 -2.8690 -0.0003 5.7589
#
#
#
# Elastic Compliance Matrix: (Units=1/GPa)
#
#
# Indices 1 2 3 4 5 6 
#
# 1 0.009265 -0.002985 -0.000979 0.000000 0.006156 0.000000
# 2 -0.002985 0.013320 -0.001885 0.000000 0.000187 0.000001
# 3 -0.000979 -0.001885 0.013219 0.000000 -0.002893 0.000000
# 4 0.000000 0.000000 0.000000 0.108298 0.000002 0.053953
# 5 0.006156 0.000187 -0.002893 0.000002 0.033628 0.000003
# 6 0.000000 0.000001 0.000000 0.053953 0.000003 0.200524
#
#
# Mechanical properties :
#
#
# Convention : Reuss Voigt Hill
#
# Bulk Modulus (GPa) = 41.47922 45.30094 43.39008
# Shear Modulus (GPa) = 12.56324 26.49321 19.52823
#
# Velocity S-wave (km/s) = 2.45992 3.57222 3.06692
# Velocity P-wave (km/s) = 5.29596 6.23169 5.78279
#
# Compressibility (1/GPa) = 0.02410846
#
# Stress axis : x y z
#
# Youngs Moduli (GPa) = 107.93362 75.07498 75.64736
#
# Poissons Ratio (x) = 0.22407 0.07402
# Poissons Ratio (y) = 0.32215 0.14257
# Poissons Ratio (z) = 0.10562 0.14149
#
# Static dielectric constant tensor:
#      x y z
#    x 1.786630 0.000000 0.027870 
#    y 0.000000 1.781020 0.000000 
#    z 0.027870 0.000000 1.798950 
# 
# From -- ./inp_files/85517.got.cif
#   From: 2010.05.17/outbox.cif.g08.bks.cpg/sg12_43_cif.got.tgz:85517.got - 2010.06.03 13:09:07.
