data_PCOD9204599
_publ_section_title
;
Structure prediction by ZEFSAII (Michael W. Deem and Ramdas Pophale) SiO2 
 PCOD9204599
Probable space group: C 2/M
;
_chemical_formula_sum "Si O2"
_cell_formula_units_Z 32
_cell_length_a 13.774133
_cell_length_b 23.094862
_cell_length_c 5.924138
_cell_angle_alpha 90.000000
_cell_angle_beta 130.547557
_cell_angle_gamma 90.000000
_cell_volume 1431.997275
_symmetry_space_group_name_H-M "C 2/M"
_symmetry_group_IT_number 12
_symmetry_cell_setting 'monoclinic'
loop_
_space_group_symop_operation_xyz
x,y,z
-x,y,-z
-x,-y,-z
x,-y,z
1/2+x,1/2+y,z
1/2-x,1/2+y,-z
1/2-x,1/2-y,-z
1/2+x,1/2-y,z
loop_
_atom_site_type_symbol
_atom_site_label
_atom_site_fract_x
_atom_site_fract_y
_atom_site_fract_z
Si Si1 0.500000 0.097811 0.000000
Si Si2 0.086889 0.861654 0.443778
Si Si3 0.000000 0.244228 0.500000
Si Si4 0.748407 0.065845 0.631741
Si Si5 0.333333 0.155415 0.109408
O O1 0.373777 0.064881 0.723313
O O2 0.546933 0.135680 0.860833
O O3 0.134836 0.900993 0.313863
O O4 0.000000 0.894439 0.500000
O O5 0.010399 0.800958 0.305134
O O6 0.215828 0.840154 0.761272
O O7 0.121786 0.285839 0.705188
O O8 0.705318 0.105022 0.775986
O O9 0.779621 0.000000 0.740877
#
# Coordination Sequence:
#
# PCOD9204599 Si02
#       5
#     4   8   4   8   8
#     4  10  21  40  62  96 124 154 201 258 314 350
#     4   9  24  42  60  93 123 165 199 250 304 355
#     4  10  20  44  62  90 126 158 202 254 298 368
#     4  11  23  40  64  91 123 161 205 252 302 363
#     4  11  21  41  64  96 120 160 204 249 312 355
#
# _framework density 22.346411
#
# number of rings (size 3 to 8) (size 9 to 14) (size 15 to 20)
#    0.750    1.000    2.500    1.125    0.000    8.500 
#    4.500    1.250    0.000    0.000    0.000    0.000 
#    0.000    0.000    0.000    0.000    0.000    0.000 
#
# Total GULP energy -89220.453655 kJ/mol
# GULP energy per Si atom -5576.278353 kJ/mol
# Density = 2.229555 g / cm^3
# Si number density = 22.346411 Si / 1000 Ang^3
#
#
#
# Elastic Constant Matrix: (Units=GPa)
#
#
# Indices 1 2 3 4 5 6 
#
# 1 152.6567 69.8797 11.3268 0.0000 -30.7439 0.0000
# 2 69.8797 174.2871 24.0139 0.0000 -31.1630 0.0000
# 3 11.3268 24.0139 35.6330 0.0000 -3.3171 0.0000
# 4 0.0000 0.0000 0.0000 38.4170 0.0000 30.8217
# 5 -30.7439 -31.1630 -3.3171 0.0000 50.3754 0.0000
# 6 0.0000 0.0000 0.0000 30.8217 0.0000 62.1704
#
#
#
# Elastic Compliance Matrix: (Units=1/GPa)
#
#
# Indices 1 2 3 4 5 6 
#
# 1 0.008542 -0.002724 -0.000554 0.000000 0.003491 0.000000
# 2 -0.002724 0.007941 -0.004209 0.000000 0.002973 0.000000
# 3 -0.000554 -0.004209 0.030993 0.000000 -0.000901 0.000000
# 4 0.000000 0.000000 0.000000 0.043221 0.000000 -0.021427
# 5 0.003491 0.002973 -0.000901 0.000000 0.023762 0.000000
# 6 0.000000 0.000000 0.000000 -0.021427 0.000000 0.026708
#
#
# Mechanical properties :
#
#
# Convention : Reuss Voigt Hill
#
# Bulk Modulus (GPa) = 30.76855 63.66864 47.21860
# Shear Modulus (GPa) = 29.94446 47.34964 38.64705
#
# Velocity S-wave (km/s) = 3.66459 4.60814 4.16318
# Velocity P-wave (km/s) = 5.63067 7.54100 6.65474
#
# Compressibility (1/GPa) = 0.03250071
#
# Stress axis : x y z
#
# Youngs Moduli (GPa) = 117.06947 125.92136 32.26546
#
# Poissons Ratio (x) = 0.34304 0.01789
# Poissons Ratio (y) = 0.31892 0.13581
# Poissons Ratio (z) = 0.06490 0.53003
#
# Static dielectric constant tensor:
#      x y z
#    x 1.865090 0.000000 0.021570 
#    y 0.000000 1.816920 0.000000 
#    z 0.021570 0.000000 1.870620 
# 
# From -- ./inp_files/10887.got.cif
#   From: 2010.05.17/outbox.cif.g08.bks.cpg/sg12_6_cif.got.tgz:10887.got - 2010.06.03 13:09:07.
