data_PCOD9204183
_publ_section_title
;
Structure prediction by ZEFSAII (Michael W. Deem and Ramdas Pophale) SiO2 
 PCOD9204183
Probable space group: C 2/M
;
_chemical_formula_sum "Si O2"
_cell_formula_units_Z 40
_cell_length_a 9.291859
_cell_length_b 29.386410
_cell_length_c 10.872243
_cell_angle_alpha 90.000000
_cell_angle_beta 38.846754
_cell_angle_gamma 90.000000
_cell_volume 1862.094556
_symmetry_space_group_name_H-M "C 2/M"
_symmetry_group_IT_number 12
_symmetry_cell_setting 'monoclinic'
loop_
_space_group_symop_operation_xyz
x,y,z
-x,y,-z
-x,-y,-z
x,-y,z
1/2+x,1/2+y,z
1/2-x,1/2+y,-z
1/2-x,1/2-y,-z
1/2+x,1/2-y,z
loop_
_atom_site_type_symbol
_atom_site_label
_atom_site_fract_x
_atom_site_fract_y
_atom_site_fract_z
Si Si1 0.601494 0.951794 0.793672
Si Si2 0.136429 0.148987 0.156972
Si Si3 0.094313 0.948396 0.072923
Si Si4 0.719408 0.796106 0.442783
Si Si5 0.335133 0.854448 0.282513
O O1 0.731438 0.907284 0.671026
O O2 0.721297 0.000000 0.704939
O O3 0.500000 0.947117 0.000000
O O4 0.367724 0.951800 0.873123
O O5 0.054411 0.096576 0.184143
O O6 0.183998 0.162914 0.268181
O O7 0.954660 0.185235 0.223912
O O8 0.394901 0.150162 0.931292
O O9 0.022129 0.000000 0.164378
O O10 0.000000 0.940081 0.000000
O O11 0.500000 0.793143 0.500000
O O12 0.750000 0.750000 0.500000
O O13 0.685217 0.833439 0.571273
#
# Coordination Sequence:
#
# PCOD9204183 Si02
#       5
#     8   8   8   8   8
#     4   9  15  29  56  91 125 162 204 242 290 352
#     4  10  21  39  67  93 126 164 205 252 302 367
#     4   9  17  29  54  91 129 166 203 245 294 353
#     4  12  28  46  66  89 121 158 202 262 317 369
#     4  10  20  40  66  95 124 164 205 251 304 361
#
# _framework density 21.481186999999998
#
# number of rings (size 3 to 8) (size 9 to 14) (size 15 to 20)
#    0.000    2.000    4.000    1.800    5.600    0.800 
#    0.000    1.000    0.000    3.600    0.000    0.000 
#    0.000    0.000    0.000    0.000    0.000    0.000 
#
# Total GULP energy -111393.965110 kJ/mol
# GULP energy per Si atom -5569.698256 kJ/mol
# Density = 2.143230 g / cm^3
# Si number density = 21.481187 Si / 1000 Ang^3
#
#
#
# Elastic Constant Matrix: (Units=GPa)
#
#
# Indices 1 2 3 4 5 6 
#
# 1 161.6617 29.1481 35.1824 0.0000 -27.8069 0.0000
# 2 29.1481 108.4050 23.3151 0.0000 -18.9751 0.0000
# 3 35.1824 23.3151 56.8471 0.0000 -15.7599 0.0000
# 4 0.0000 0.0000 0.0000 14.1096 0.0000 10.5765
# 5 -27.8069 -18.9751 -15.7599 0.0000 31.3355 0.0000
# 6 0.0000 0.0000 0.0000 10.5765 0.0000 13.6223
#
#
#
# Elastic Compliance Matrix: (Units=1/GPa)
#
#
# Indices 1 2 3 4 5 6 
#
# 1 0.007851 -0.000535 -0.003251 0.000000 0.005008 0.000000
# 2 -0.000535 0.010785 -0.002804 0.000000 0.004645 0.000000
# 3 -0.003251 -0.002804 0.022639 0.000000 0.006803 0.000000
# 4 0.000000 0.000000 0.000000 0.169551 0.000000 -0.131641
# 5 0.005008 0.004645 0.006803 0.000000 0.042591 0.000000
# 6 0.000000 0.000000 0.000000 -0.131641 0.000000 0.175616
#
#
# Mechanical properties :
#
#
# Convention : Reuss Voigt Hill
#
# Bulk Modulus (GPa) = 35.59454 55.80057 45.69755
# Shear Modulus (GPa) = 11.07226 27.76470 19.41848
#
# Velocity S-wave (km/s) = 2.27279 3.59905 3.00988
# Velocity P-wave (km/s) = 4.84701 6.58056 5.77916
#
# Compressibility (1/GPa) = 0.02809420
#
# Stress axis : x y z
#
# Youngs Moduli (GPa) = 127.36900 92.72310 44.17089
#
# Poissons Ratio (x) = 0.04963 0.14361
# Poissons Ratio (y) = 0.06817 0.12386
# Poissons Ratio (z) = 0.41410 0.26001
#
# Static dielectric constant tensor:
#      x y z
#    x 2.103190 0.000000 -0.094230 
#    y 0.000000 1.850060 0.000000 
#    z -0.094230 0.000000 1.928730 
# 
# From -- ./inp_files/124999.got.cif
#   From: 2010.05.17/outbox.cif.g08.bks.cpg/sg12_63_cif.got.tgz:124999.got - 2010.06.03 13:09:07.
