data_PCOD9204182
_publ_section_title
;
Structure prediction by ZEFSAII (Michael W. Deem and Ramdas Pophale) SiO2 
 PCOD9204182
Probable space group: C 2/M
;
_chemical_formula_sum "Si O2"
_cell_formula_units_Z 48
_cell_length_a 8.560901
_cell_length_b 23.916604
_cell_length_c 10.605687
_cell_angle_alpha 90.000000
_cell_angle_beta 69.038664
_cell_angle_gamma 90.000000
_cell_volume 2027.785046
_symmetry_space_group_name_H-M "C 2/M"
_symmetry_group_IT_number 12
_symmetry_cell_setting 'monoclinic'
loop_
_space_group_symop_operation_xyz
x,y,z
-x,y,-z
-x,-y,-z
x,-y,z
1/2+x,1/2+y,z
1/2-x,1/2+y,-z
1/2-x,1/2-y,-z
1/2+x,1/2-y,z
loop_
_atom_site_type_symbol
_atom_site_label
_atom_site_fract_x
_atom_site_fract_y
_atom_site_fract_z
Si Si1 0.727898 0.117602 0.461723
Si Si2 0.130472 0.303371 0.720557
Si Si3 0.992547 0.194898 0.648321
Si Si4 0.085104 0.000000 0.181179
Si Si5 0.358374 0.113596 0.800749
Si Si6 0.169241 0.000000 0.529576
Si Si7 0.461180 0.000000 0.159020
Si Si8 0.000000 0.090913 0.000000
O O1 0.671435 0.164525 0.576584
O O2 0.642439 0.117516 0.351295
O O3 0.920850 0.134811 0.379581
O O4 0.725983 0.055972 0.519056
O O5 0.302204 0.308491 0.745993
O O6 0.091939 0.239304 0.702082
O O7 0.973789 0.336602 0.819460
O O8 0.000000 0.215899 0.500000
O O9 0.909435 0.000000 0.307308
O O10 0.255497 0.000000 0.216357
O O11 0.074361 0.052707 0.091145
O O12 0.446224 0.055030 0.812776
O O13 0.166709 0.120195 0.899813
O O14 0.000000 0.000000 0.500000
O O15 0.500000 0.000000 0.000000
#
# Coordination Sequence:
#
# PCOD9204182 Si02
#       8
#     8   8   8   4   8   4   4   4
#     4  11  23  40  63  99 137 178 212 266 342 407
#     4  11  23  40  67 101 132 172 224 279 336 395
#     4  10  20  40  66  94 133 180 225 265 325 417
#     4  11  23  44  66  86 130 186 227 261 316 418
#     4  12  24  40  65  96 126 172 225 281 321 386
#     4  12  24  37  61 100 140 170 201 272 348 397
#     4  12  25  42  65  94 127 168 230 274 318 399
#     4  11  22  44  68  88 124 184 236 263 326 392
#
# _framework density 23.671149
#
# number of rings (size 3 to 8) (size 9 to 14) (size 15 to 20)
#    0.000    0.833    3.333    7.000    4.667    0.000 
#    0.000    1.667    0.000    4.000    2.167    0.000 
#    0.000    0.000    0.000    0.000    0.000    0.000 
#
# Total GULP energy -134266.955085 kJ/mol
# GULP energy per Si atom -5594.456462 kJ/mol
# Density = 2.361727 g / cm^3
# Si number density = 23.671149 Si / 1000 Ang^3
#
#
#
# Elastic Constant Matrix: (Units=GPa)
#
#
# Indices 1 2 3 4 5 6 
#
# 1 140.7186 25.4981 3.1101 0.0000 -28.3949 0.0000
# 2 25.4981 95.6625 -3.9621 0.0000 -8.3951 0.0000
# 3 3.1101 -3.9621 54.3807 0.0000 -14.4822 0.0000
# 4 0.0000 0.0000 0.0000 -219.4872 0.0000 -93.4348
# 5 -28.3949 -8.3951 -14.4822 0.0000 40.9765 0.0000
# 6 0.0000 0.0000 0.0000 -93.4348 0.0000 9.0730
#
#
#
# Elastic Compliance Matrix: (Units=1/GPa)
#
#
# Indices 1 2 3 4 5 6 
#
# 1 0.008598 -0.001730 0.000965 0.000000 0.005945 0.000000
# 2 -0.001730 0.011105 0.001319 0.000000 0.001542 0.000000
# 3 0.000965 0.001319 0.020621 0.000000 0.008227 0.000000
# 4 0.000000 0.000000 0.000000 -0.000846 0.000000 -0.008715
# 5 0.005945 0.001542 0.008227 0.000000 0.031747 0.000000
# 6 0.000000 0.000000 0.000000 -0.008715 0.000000 0.020472
#
#
# Mechanical properties :
#
#
# Convention : Reuss Voigt Hill
#
# Bulk Modulus (GPa) = 24.13627 37.78380 30.96003
# Shear Modulus (GPa) = 47.89336 -16.14648 15.87344
#
# Velocity S-wave (km/s) = 4.50297 -2.61457 2.59237
# Velocity P-wave (km/s) = 6.10363 2.62335 4.69767
#
# Compressibility (1/GPa) = 0.04143142
#
# Stress axis : x y z
#
# Youngs Moduli (GPa) = 116.30465 90.05344 48.49493
#
# Poissons Ratio (x) = 0.15580 -0.04682
# Poissons Ratio (y) = 0.20122 -0.06395
# Poissons Ratio (z) = -0.11228 -0.11876
#
# Static dielectric constant tensor:
#      x y z
#    x 1.947970 0.000000 -0.052730 
#    y 0.000000 1.838120 0.000000 
#    z -0.052730 0.000000 1.962980 
# 
# From -- ./inp_files/122517.got.cif
#   From: 2010.05.17/outbox.cif.g08.bks.cpg/sg12_62_cif.got.tgz:122517.got - 2010.06.03 13:09:07.
