data_PCOD9204282
_publ_section_title
;
Structure prediction by ZEFSAII (Michael W. Deem and Ramdas Pophale) SiO2 
 PCOD9204282
Probable space group: C 2/M
;
_chemical_formula_sum "Si O2"
_cell_formula_units_Z 32
_cell_length_a 9.365133
_cell_length_b 13.340630
_cell_length_c 10.326889
_cell_angle_alpha 90.000000
_cell_angle_beta 84.115034
_cell_angle_gamma 90.000000
_cell_volume 1283.408486
_symmetry_space_group_name_H-M "C 2/M"
_symmetry_group_IT_number 12
_symmetry_cell_setting 'monoclinic'
loop_
_space_group_symop_operation_xyz
x,y,z
-x,y,-z
-x,-y,-z
x,-y,z
1/2+x,1/2+y,z
1/2-x,1/2+y,-z
1/2-x,1/2-y,-z
1/2+x,1/2-y,z
loop_
_atom_site_type_symbol
_atom_site_label
_atom_site_fract_x
_atom_site_fract_y
_atom_site_fract_z
Si Si1 0.086800 0.720815 0.617419
Si Si2 0.928101 0.385691 0.865662
Si Si3 0.846691 0.880003 0.977342
Si Si4 0.128536 0.117190 0.330851
O O1 0.252148 0.685256 0.607400
O O2 0.000000 0.681137 0.500000
O O3 0.015503 0.672564 0.751327
O O4 0.030741 0.836171 0.635018
O O5 0.914850 0.500000 0.819669
O O6 0.773977 0.339434 0.915105
O O7 0.000000 0.391063 0.000000
O O8 0.830349 0.875103 0.824920
O O9 0.846912 0.000000 0.004854
O O10 0.000000 0.836794 0.000000
O O11 0.135948 0.000000 0.365694
#
# Coordination Sequence:
#
# PCOD9204282 Si02
#       4
#     8   8   8   8
#     4  12  27  47  73 109 145 195 250 294 363 443
#     4  10  20  40  71 106 144 189 240 299 364 428
#     4   9  19  38  67 104 141 182 237 294 359 429
#     4  11  26  49  73 105 151 191 242 309 360 429
#
# _framework density 24.933606000000001
#
# number of rings (size 3 to 8) (size 9 to 14) (size 15 to 20)
#    0.000    1.500    2.500    1.500    3.500    4.500 
#    0.000    1.250    0.000    0.000    0.000    0.000 
#    0.000    0.000    0.000    0.000    0.000    0.000 
#
# Total GULP energy -89554.828292 kJ/mol
# GULP energy per Si atom -5597.176768 kJ/mol
# Density = 2.487686 g / cm^3
# Si number density = 24.933606 Si / 1000 Ang^3
#
#
#
# Elastic Constant Matrix: (Units=GPa)
#
#
# Indices 1 2 3 4 5 6 
#
# 1 153.6988 39.2799 12.8420 0.0000 -1.4554 0.0000
# 2 39.2799 157.5567 13.5205 0.0000 -2.6233 0.0000
# 3 12.8420 13.5205 87.8874 0.0000 7.0528 0.0000
# 4 0.0000 0.0000 0.0000 25.1815 0.0000 8.2441
# 5 -1.4554 -2.6233 7.0528 0.0000 38.6756 0.0000
# 6 0.0000 0.0000 0.0000 8.2441 0.0000 22.4967
#
#
#
# Elastic Compliance Matrix: (Units=1/GPa)
#
#
# Indices 1 2 3 4 5 6 
#
# 1 0.007003 -0.001673 -0.000789 0.000000 0.000294 0.000000
# 2 -0.001673 0.006847 -0.000853 0.000000 0.000557 0.000000
# 3 -0.000789 -0.000853 0.011805 0.000000 -0.002240 0.000000
# 4 0.000000 0.000000 0.000000 0.045126 0.000000 -0.016537
# 5 0.000294 0.000557 -0.002240 0.000000 0.026313 0.000000
# 6 0.000000 0.000000 0.000000 -0.016537 0.000000 0.050511
#
#
# Mechanical properties :
#
#
# Convention : Reuss Voigt Hill
#
# Bulk Modulus (GPa) = 52.57163 58.93641 55.75402
# Shear Modulus (GPa) = 31.13780 39.50413 35.32097
#
# Velocity S-wave (km/s) = 3.53771 3.98474 3.76786
# Velocity P-wave (km/s) = 6.14960 6.69772 6.42951
#
# Compressibility (1/GPa) = 0.01902167
#
# Stress axis : x y z
#
# Youngs Moduli (GPa) = 142.80471 146.05869 84.71259
#
# Poissons Ratio (x) = 0.24438 0.06687
# Poissons Ratio (y) = 0.23893 0.07230
# Poissons Ratio (z) = 0.11273 0.12466
#
# Static dielectric constant tensor:
#      x y z
#    x 2.084130 0.000000 -0.007280 
#    y 0.000000 2.001300 0.000000 
#    z -0.007280 0.000000 1.950250 
# 
# From -- ./inp_files/117449.got.cif
#   From: 2010.05.17/outbox.cif.g08.bks.cpg/sg12_59_cif.got.tgz:117449.got - 2010.06.03 13:09:07.
