data_PCOD9204659
_publ_section_title
;
Structure prediction by ZEFSAII (Michael W. Deem and Ramdas Pophale) SiO2 
 PCOD9204659
Probable space group: C 2/M
;
_chemical_formula_sum "Si O2"
_cell_formula_units_Z 56
_cell_length_a 14.927048
_cell_length_b 13.366374
_cell_length_c 19.571267
_cell_angle_alpha 90.000000
_cell_angle_beta 58.662208
_cell_angle_gamma 90.000000
_cell_volume 3335.211068
_symmetry_space_group_name_H-M "C 2/M"
_symmetry_group_IT_number 12
_symmetry_cell_setting 'monoclinic'
loop_
_space_group_symop_operation_xyz
x,y,z
-x,y,-z
-x,-y,-z
x,-y,z
1/2+x,1/2+y,z
1/2-x,1/2+y,-z
1/2-x,1/2-y,-z
1/2+x,1/2-y,z
loop_
_atom_site_type_symbol
_atom_site_label
_atom_site_fract_x
_atom_site_fract_y
_atom_site_fract_z
Si Si1 0.326563 0.883361 0.084526
Si Si2 0.946133 0.290512 0.447707
Si Si3 0.471172 0.385441 0.337015
Si Si4 0.626578 0.115721 0.303922
Si Si5 0.773126 0.615853 0.594237
Si Si6 0.482733 0.882403 0.893063
Si Si7 0.880458 0.756893 0.818259
O O1 0.403290 0.859240 0.118521
O O2 0.224652 0.814365 0.117296
O O3 0.295245 0.000000 0.104353
O O4 0.400017 0.876387 0.988458
O O5 0.969114 0.183351 0.405349
O O6 0.828040 0.321445 0.512416
O O7 0.000000 0.299113 0.500000
O O8 0.005140 0.366177 0.373101
O O9 0.501809 0.500000 0.337908
O O10 0.351139 0.382615 0.360109
O O11 0.544375 0.335281 0.250868
O O12 0.690349 0.151125 0.345412
O O13 0.651875 0.178231 0.227363
O O14 0.648014 0.000000 0.284548
O O15 0.809683 0.500000 0.573038
O O16 0.443249 0.805267 0.851174
O O17 0.484133 0.000000 0.869668
#
# Coordination Sequence:
#
# PCOD9204659 Si02
#       7
#     8   8   8   8   8   8   8
#     4   9  19  36  56  77 104 137 172 209 253 305
#     4   9  17  31  50  68  88 128 173 211 243 290
#     4  10  21  32  45  71 101 133 163 198 253 309
#     4   9  18  30  47  74 100 125 163 211 257 292
#     4   9  17  31  49  67  95 128 164 207 252 298
#     4   9  19  36  57  79 101 133 176 215 250 297
#     4  11  20  31  54  77 105 134 167 208 253 309
#
# _framework density 16.790541000000001
#
# number of rings (size 3 to 8) (size 9 to 14) (size 15 to 20)
#    0.000    2.571    0.000    3.000    2.000    2.000 
#    0.000    0.000    0.000    0.857    0.000    6.000 
#    0.000    0.000    0.000    0.000    0.000    0.000 
#
# Total GULP energy -155918.090160 kJ/mol
# GULP energy per Si atom -5568.503220 kJ/mol
# Density = 1.675233 g / cm^3
# Si number density = 16.790541 Si / 1000 Ang^3
#
#
#
# Elastic Constant Matrix: (Units=GPa)
#
#
# Indices 1 2 3 4 5 6 
#
# 1 26.1967 6.6115 0.7325 0.0000 -7.1058 0.0000
# 2 6.6115 57.7433 18.6448 0.0000 -3.3907 0.0000
# 3 0.7325 18.6448 39.2301 0.0000 -1.8009 0.0000
# 4 0.0000 0.0000 0.0000 21.1081 0.0000 1.7326
# 5 -7.1058 -3.3907 -1.8009 0.0000 20.5967 0.0000
# 6 0.0000 0.0000 0.0000 1.7326 0.0000 28.2282
#
#
#
# Elastic Compliance Matrix: (Units=1/GPa)
#
#
# Indices 1 2 3 4 5 6 
#
# 1 0.043203 -0.004794 0.002128 0.000000 0.014302 0.000000
# 2 -0.004794 0.021121 -0.009905 0.000000 0.000957 0.000000
# 3 0.002128 -0.009905 0.030239 0.000000 0.001748 0.000000
# 4 0.000000 0.000000 0.000000 0.047615 0.000000 -0.002923
# 5 0.014302 0.000957 0.001748 0.000000 0.053796 0.000000
# 6 0.000000 0.000000 0.000000 -0.002923 0.000000 0.035605
#
#
# Mechanical properties :
#
#
# Convention : Reuss Voigt Hill
#
# Bulk Modulus (GPa) = 14.40480 19.46086 16.93283
# Shear Modulus (GPa) = 17.86607 20.46534 19.16570
#
# Velocity S-wave (km/s) = 3.26553 3.49501 3.38221
# Velocity P-wave (km/s) = 4.77660 5.28226 5.03578
#
# Compressibility (1/GPa) = 0.06942129
#
# Stress axis : x y z
#
# Youngs Moduli (GPa) = 23.14679 47.34556 33.07033
#
# Poissons Ratio (x) = 0.22698 -0.07038
# Poissons Ratio (y) = 0.11097 0.32756
# Poissons Ratio (z) = -0.04926 0.46895
#
# Static dielectric constant tensor:
#      x y z
#    x 1.579390 0.000000 -0.009750 
#    y 0.000000 1.574000 0.000000 
#    z -0.009750 0.000000 1.553260 
# 
# From -- ./inp_files/223341.got.cif
#   From: 2010.05.17/outbox.cif.g08.bks.cpg/sg12_112_cif.got.tgz:223341.got - 2010.06.03 13:09:07.
