data_PCOD9204419
_publ_section_title
;
Structure prediction by ZEFSAII (Michael W. Deem and Ramdas Pophale) SiO2 
 PCOD9204419
Probable space group: C 2/M
;
_chemical_formula_sum "Si O2"
_cell_formula_units_Z 28
_cell_length_a 14.085359
_cell_length_b 11.737458
_cell_length_c 11.922511
_cell_angle_alpha 90.000000
_cell_angle_beta 31.551139
_cell_angle_gamma 90.000000
_cell_volume 1031.399038
_symmetry_space_group_name_H-M "C 2/M"
_symmetry_group_IT_number 12
_symmetry_cell_setting 'monoclinic'
loop_
_space_group_symop_operation_xyz
x,y,z
-x,y,-z
-x,-y,-z
x,-y,z
1/2+x,1/2+y,z
1/2-x,1/2+y,-z
1/2-x,1/2-y,-z
1/2+x,1/2-y,z
loop_
_atom_site_type_symbol
_atom_site_label
_atom_site_fract_x
_atom_site_fract_y
_atom_site_fract_z
Si Si1 0.292501 0.000000 0.179685
Si Si2 0.214755 0.500000 0.279132
Si Si3 0.535397 0.261578 0.710820
Si Si4 0.883917 0.000000 0.866425
Si Si5 0.751382 0.745990 0.802157
O O1 0.217743 0.128350 0.284788
O O2 0.500000 0.000000 0.000000
O O3 0.272698 0.000000 0.065937
O O4 0.698601 0.500000 0.929814
O O5 0.270976 0.632379 0.253676
O O6 0.000000 0.500000 0.500000
O O7 0.750000 0.250000 0.500000
O O8 0.506690 0.393958 0.724843
O O9 0.421893 0.234813 0.939800
O O10 0.416665 0.215679 0.723459
#
# Coordination Sequence:
#
# PCOD9204419 Si02
#       5
#     4   4   8   4   8
#     4  10  20  41  68  86 133 173 207 278 334 372
#     4  10  20  41  68  86 133 173 207 278 334 372
#     4   9  17  33  63  91 126 159 205 269 328 387
#     4   8  18  36  64 102 124 168 230 260 326 416
#     4   9  20  38  60  95 120 166 220 257 324 397
#
# _framework density 27.147590999999998
#
# number of rings (size 3 to 8) (size 9 to 14) (size 15 to 20)
#    0.000    2.857    0.000    1.714    0.000    2.286 
#    5.143    1.429    0.000    0.000    0.000    0.000 
#    0.000    0.000    0.000    5.143    0.000    0.000 
#
# Total GULP energy -78115.060434 kJ/mol
# GULP energy per Si atom -5579.647174 kJ/mol
# Density = 2.708580 g / cm^3
# Si number density = 27.147591 Si / 1000 Ang^3
#
#
#
# Elastic Constant Matrix: (Units=GPa)
#
#
# Indices 1 2 3 4 5 6 
#
# 1 83.3771 34.0271 51.5980 -0.0001 -9.9502 0.0000
# 2 34.0271 259.7102 22.4846 -0.0003 -0.9132 0.0001
# 3 51.5980 22.4846 209.0963 -0.0013 -26.9903 0.0004
# 4 -0.0001 -0.0003 -0.0013 31.3136 0.0004 -2.8999
# 5 -9.9502 -0.9132 -26.9903 0.0004 49.5924 0.0000
# 6 0.0000 0.0001 0.0004 -2.8999 0.0000 20.2367
#
#
#
# Elastic Compliance Matrix: (Units=1/GPa)
#
#
# Indices 1 2 3 4 5 6 
#
# 1 0.014875 -0.001655 -0.003347 0.000000 0.001133 0.000000
# 2 -0.001655 0.004072 -0.000067 0.000000 -0.000294 0.000000
# 3 -0.003347 -0.000067 0.005946 0.000000 0.002564 0.000000
# 4 0.000000 0.000000 0.000000 0.032364 0.000000 0.004638
# 5 0.001133 -0.000294 0.002564 0.000000 0.021781 0.000000
# 6 0.000000 0.000000 0.000000 0.004638 0.000000 0.050080
#
#
# Mechanical properties :
#
#
# Convention : Reuss Voigt Hill
#
# Bulk Modulus (GPa) = 67.77039 85.37811 76.57425
# Shear Modulus (GPa) = 34.67971 49.83347 42.25659
#
# Velocity S-wave (km/s) = 3.57802 4.28910 3.94959
# Velocity P-wave (km/s) = 6.48749 7.48641 7.00478
#
# Compressibility (1/GPa) = 0.01475571
#
# Stress axis : x y z
#
# Youngs Moduli (GPa) = 67.22497 245.57270 168.16746
#
# Poissons Ratio (x) = 0.40649 0.56278
# Poissons Ratio (y) = 0.11127 0.01132
# Poissons Ratio (z) = 0.22497 0.01654
#
# Static dielectric constant tensor:
#      x y z
#    x 2.103010 0.000000 0.101030 
#    y 0.000000 2.302770 0.000000 
#    z 0.101030 0.000000 1.930730 
# 
# From -- ./inp_files/126844.got.cif
#   From: 2010.05.17/outbox.cif.g08.bks.cpg/sg12_64_cif.got.tgz:126844.got - 2010.06.03 13:09:07.
