data_PCOD9204310
_publ_section_title
;
Structure prediction by ZEFSAII (Michael W. Deem and Ramdas Pophale) SiO2 
 PCOD9204310
Probable space group: C 2/M
;
_chemical_formula_sum "Si O2"
_cell_formula_units_Z 56
_cell_length_a 11.603441
_cell_length_b 18.311695
_cell_length_c 15.474112
_cell_angle_alpha 90.000000
_cell_angle_beta 57.107005
_cell_angle_gamma 90.000000
_cell_volume 2760.820243
_symmetry_space_group_name_H-M "C 2/M"
_symmetry_group_IT_number 12
_symmetry_cell_setting 'monoclinic'
loop_
_space_group_symop_operation_xyz
x,y,z
-x,y,-z
-x,-y,-z
x,-y,z
1/2+x,1/2+y,z
1/2-x,1/2+y,-z
1/2-x,1/2-y,-z
1/2+x,1/2-y,z
loop_
_atom_site_type_symbol
_atom_site_label
_atom_site_fract_x
_atom_site_fract_y
_atom_site_fract_z
Si Si1 0.444196 0.080683 0.926056
Si Si2 0.213763 0.086463 0.623211
Si Si3 0.839260 0.672518 0.266252
Si Si4 0.688717 0.327694 0.996202
Si Si5 0.877264 0.306561 0.445830
Si Si6 0.471907 0.338958 0.610537
Si Si7 0.125445 0.833191 0.820731
O O1 0.542233 0.134827 0.835402
O O2 0.451521 0.000000 0.884936
O O3 0.500000 0.078937 0.000000
O O4 0.290926 0.110454 0.987039
O O5 0.341622 0.132941 0.532016
O O6 0.188827 0.104592 0.734109
O O7 0.079495 0.119710 0.628172
O O8 0.226983 0.000000 0.603140
O O9 0.868516 0.658661 0.354917
O O10 0.686522 0.646437 0.304199
O O11 0.846556 0.758357 0.242264
O O12 0.538077 0.338734 0.097330
O O13 0.750000 0.250000 0.000000
O O14 0.684169 0.329582 0.893735
O O15 0.750000 0.250000 0.500000
O O16 0.003284 0.249471 0.398284
O O17 0.500000 0.361115 0.500000
#
# Coordination Sequence:
#
# PCOD9204310 Si02
#       7
#     8   8   8   8   8   8   8
#     4  11  27  46  65  97 137 169 211 277 344 394
#     4  11  24  42  63  97 136 174 222 270 331 404
#     4  12  22  39  68  95 129 165 221 267 331 393
#     4  11  24  44  70  98 130 168 227 277 328 396
#     4  10  20  41  61  95 126 168 215 273 322 384
#     4  11  21  39  66  94 130 173 218 272 335 382
#     4  11  24  41  70 100 127 173 225 277 322 398
#
# _framework density 20.283828
#
# number of rings (size 3 to 8) (size 9 to 14) (size 15 to 20)
#    0.000    1.000    7.143    0.857    6.000    2.571 
#    0.000    1.429    0.000    1.286    0.000    0.000 
#    0.000    0.000    0.000    0.000    0.000    0.000 
#
# Total GULP energy -156474.175779 kJ/mol
# GULP energy per Si atom -5588.363421 kJ/mol
# Density = 2.023766 g / cm^3
# Si number density = 20.283828 Si / 1000 Ang^3
#
#
#
# Elastic Constant Matrix: (Units=GPa)
#
#
# Indices 1 2 3 4 5 6 
#
# 1 82.0816 12.1059 23.4986 0.0000 1.2178 0.0000
# 2 12.1059 101.3917 18.5950 0.0000 1.6419 0.0000
# 3 23.4986 18.5950 91.6562 0.0000 11.7048 0.0000
# 4 0.0000 0.0000 0.0000 25.1951 0.0000 -3.2469
# 5 1.2178 1.6419 11.7048 0.0000 23.9784 0.0000
# 6 0.0000 0.0000 0.0000 -3.2469 0.0000 30.7997
#
#
#
# Elastic Compliance Matrix: (Units=1/GPa)
#
#
# Indices 1 2 3 4 5 6 
#
# 1 0.013267 -0.000990 -0.003331 0.000000 0.001020 0.000000
# 2 -0.000990 0.010320 -0.001873 0.000000 0.000258 0.000000
# 3 -0.003331 -0.001873 0.012911 0.000000 -0.006005 0.000000
# 4 0.000000 0.000000 0.000000 0.040237 0.000000 0.004242
# 5 0.001020 0.000258 -0.006005 0.000000 0.044566 0.000000
# 6 0.000000 0.000000 0.000000 0.004242 0.000000 0.032915
#
#
# Mechanical properties :
#
#
# Convention : Reuss Voigt Hill
#
# Bulk Modulus (GPa) = 41.47373 42.61427 42.04400
# Shear Modulus (GPa) = 28.63015 30.72331 29.67673
#
# Velocity S-wave (km/s) = 3.76104 3.89610 3.82916
# Velocity P-wave (km/s) = 6.27309 6.42604 6.35003
#
# Compressibility (1/GPa) = 0.02411165
#
# Stress axis : x y z
#
# Youngs Moduli (GPa) = 75.37260 96.89705 77.45252
#
# Poissons Ratio (x) = 0.09590 0.25799
# Poissons Ratio (y) = 0.07460 0.14506
# Poissons Ratio (z) = 0.25106 0.18148
#
# Static dielectric constant tensor:
#      x y z
#    x 1.755580 0.000000 -0.028710 
#    y 0.000000 1.853810 0.000000 
#    z -0.028710 0.000000 1.819360 
# 
# From -- ./inp_files/206578.got.cif
#   From: 2010.05.17/outbox.cif.g08.bks.cpg/sg12_104_cif.got.tgz:206578.got - 2010.06.03 13:09:07.
