data_PCOD9204092
_publ_section_title
;
Structure prediction by ZEFSAII (Michael W. Deem and Ramdas Pophale) SiO2 
 PCOD9204092
Probable space group: C 2/M
;
_chemical_formula_sum "Si O2"
_cell_formula_units_Z 56
_cell_length_a 31.816397
_cell_length_b 9.030022
_cell_length_c 11.922040
_cell_angle_alpha 90.000000
_cell_angle_beta 57.425733
_cell_angle_gamma 90.000000
_cell_volume 2886.426015
_symmetry_space_group_name_H-M "C 2/M"
_symmetry_group_IT_number 12
_symmetry_cell_setting 'monoclinic'
loop_
_space_group_symop_operation_xyz
x,y,z
-x,y,-z
-x,-y,-z
x,-y,z
1/2+x,1/2+y,z
1/2-x,1/2+y,-z
1/2-x,1/2-y,-z
1/2+x,1/2-y,z
loop_
_atom_site_type_symbol
_atom_site_label
_atom_site_fract_x
_atom_site_fract_y
_atom_site_fract_z
Si Si1 0.395210 0.823162 0.885036
Si Si2 0.831218 0.324257 0.393432
Si Si3 0.263956 0.327672 0.322104
Si Si4 0.521652 0.322203 0.091981
Si Si5 0.575844 0.677598 0.627189
Si Si6 0.786915 0.173645 0.033915
Si Si7 0.059586 0.825344 0.399649
O O1 0.428584 0.759677 0.939369
O O2 0.421075 0.768367 0.732349
O O3 0.393227 0.000000 0.892758
O O4 0.340186 0.753639 0.963172
O O5 0.836975 0.500000 0.384254
O O6 0.787953 0.283112 0.545471
O O7 0.808773 0.267028 0.309157
O O8 0.882136 0.248886 0.356465
O O9 0.272823 0.500000 0.339432
O O10 0.262476 0.315447 0.191735
O O11 0.530346 0.500000 0.081347
O O12 0.478457 0.286624 0.244548
O O13 0.500000 0.284527 0.000000
O O14 0.580175 0.500000 0.624951
O O15 0.581333 0.722030 0.489217
O O16 0.793995 0.000000 0.996856
O O17 0.750000 0.250000 0.000000
O O18 0.000000 0.814754 0.500000
O O19 0.071074 0.000000 0.363524
#
# Coordination Sequence:
#
# PCOD9204092 Si02
#       7
#     8   8   8   8   8   8   8
#     4  12  26  42  63  93 129 165 206 258 317 374
#     4  10  21  37  61  92 124 155 195 251 309 364
#     4   9  21  42  63  85 118 160 204 249 301 366
#     4  10  22  42  66  91 124 168 214 255 304 371
#     4  10  21  37  61  92 122 158 204 250 304 365
#     4  11  25  45  67  91 123 164 213 261 311 370
#     4  10  20  40  65  88 119 159 207 252 296 359
#
# _framework density 19.401154999999999
#
# number of rings (size 3 to 8) (size 9 to 14) (size 15 to 20)
#    0.000    1.714    1.429    2.143    4.000    3.429 
#    0.000    0.000    0.000    0.000    0.000    0.000 
#    0.000    0.000    0.000    0.000    0.000    0.000 
#
# Total GULP energy -156479.162551 kJ/mol
# GULP energy per Si atom -5588.541520 kJ/mol
# Density = 1.935700 g / cm^3
# Si number density = 19.401155 Si / 1000 Ang^3
#
#
#
# Elastic Constant Matrix: (Units=GPa)
#
#
# Indices 1 2 3 4 5 6 
#
# 1 146.7423 63.9854 30.0692 0.0000 2.7813 0.0000
# 2 63.9854 71.0052 37.4519 0.0000 4.1771 0.0000
# 3 30.0692 37.4519 52.7784 0.0000 11.2555 0.0000
# 4 0.0000 0.0000 0.0000 14.7936 0.0000 2.6345
# 5 2.7813 4.1771 11.2555 0.0000 25.6324 0.0000
# 6 0.0000 0.0000 0.0000 2.6345 0.0000 36.2410
#
#
#
# Elastic Compliance Matrix: (Units=1/GPa)
#
#
# Indices 1 2 3 4 5 6 
#
# 1 0.011277 -0.010826 0.001260 0.000000 -0.000013 0.000000
# 2 -0.010826 0.033222 -0.018208 0.000000 0.003756 0.000000
# 3 0.001260 -0.018208 0.033702 0.000000 -0.011968 0.000000
# 4 0.000000 0.000000 0.000000 0.068483 0.000000 -0.004978
# 5 -0.000013 0.003756 -0.011968 0.000000 0.043658 0.000000
# 6 0.000000 0.000000 0.000000 -0.004978 0.000000 0.027955
#
#
# Mechanical properties :
#
#
# Convention : Reuss Voigt Hill
#
# Bulk Modulus (GPa) = 44.14279 59.28211 51.71245
# Shear Modulus (GPa) = 17.76851 24.60136 21.18494
#
# Velocity S-wave (km/s) = 3.02958 3.56481 3.30804
# Velocity P-wave (km/s) = 5.91945 6.89682 6.42674
#
# Compressibility (1/GPa) = 0.02265376
#
# Stress axis : x y z
#
# Youngs Moduli (GPa) = 88.67263 30.10029 29.67201
#
# Poissons Ratio (x) = 0.32588 -0.03739
# Poissons Ratio (y) = 0.96001 0.54026
# Poissons Ratio (z) = -0.11175 0.54805
#
# Static dielectric constant tensor:
#      x y z
#    x 1.654780 0.000000 0.008580 
#    y 0.000000 1.648540 0.000000 
#    z 0.008580 0.000000 1.685630 
# 
# From -- ./inp_files/187171.got.cif
#   From: 2010.05.17/outbox.cif.g08.bks.cpg/sg12_94_cif.got.tgz:187171.got - 2010.06.03 13:09:07.
