data_PCOD9204077
_publ_section_title
;
Structure prediction by ZEFSAII (Michael W. Deem and Ramdas Pophale) SiO2 
 PCOD9204077
Probable space group: C 2/M
;
_chemical_formula_sum "Si O2"
_cell_formula_units_Z 48
_cell_length_a 13.873732
_cell_length_b 11.249468
_cell_length_c 22.094050
_cell_angle_alpha 90.000000
_cell_angle_beta 41.075897
_cell_angle_gamma 90.000000
_cell_volume 2265.710645
_symmetry_space_group_name_H-M "C 2/M"
_symmetry_group_IT_number 12
_symmetry_cell_setting 'monoclinic'
loop_
_space_group_symop_operation_xyz
x,y,z
-x,y,-z
-x,-y,-z
x,-y,z
1/2+x,1/2+y,z
1/2-x,1/2+y,-z
1/2-x,1/2-y,-z
1/2+x,1/2-y,z
loop_
_atom_site_type_symbol
_atom_site_label
_atom_site_fract_x
_atom_site_fract_y
_atom_site_fract_z
Si Si1 0.818790 0.752580 0.034447
Si Si2 0.174549 0.000000 0.906641
Si Si3 0.568212 0.262060 0.325477
Si Si4 0.581858 0.000000 0.757032
Si Si5 0.065159 0.000000 0.402475
Si Si6 0.053381 0.133423 0.208938
Si Si7 0.917648 0.731837 0.166988
Si Si8 0.928069 0.500000 0.698143
O O1 0.725776 0.654255 0.113707
O O2 0.780408 0.878275 0.082422
O O3 0.750000 0.750000 0.000000
O O4 0.990845 0.739437 0.938292
O O5 0.256992 0.000000 0.802794
O O6 0.000000 0.000000 0.000000
O O7 0.523401 0.375852 0.387790
O O8 0.508900 0.283980 0.285820
O O9 0.745089 0.270029 0.238889
O O10 0.537635 0.122819 0.353409
O O11 0.537830 0.885469 0.816971
O O12 0.758665 0.000000 0.673019
O O13 0.515482 0.000000 0.721100
O O14 0.000000 0.000000 0.500000
O O15 0.965977 0.163033 0.189268
O O16 0.028913 0.000000 0.239948
#
# Coordination Sequence:
#
# PCOD9204077 Si02
#       8
#     8   4   8   4   4   8   8   4
#     4  10  22  33  49  76 117 163 206 254 289 327
#     4  12  22  34  53  78 120 166 210 253 289 331
#     4  11  22  39  65  89 117 161 195 247 307 363
#     4  10  20  40  65  84 118 159 198 248 311 358
#     4  10  24  48  69  91 121 153 192 242 320 407
#     4  11  22  36  53  83 120 159 214 248 292 350
#     4  10  22  36  55  82 120 165 209 248 295 347
#     4  12  20  38  60  93 122 156 210 253 290 353
#
# _framework density 21.185403999999998
#
# number of rings (size 3 to 8) (size 9 to 14) (size 15 to 20)
#    0.000    1.333    4.167    2.000    7.000    0.000 
#    0.000    2.083    0.000    0.000    0.000    0.000 
#    0.000    0.000    0.000    0.000    0.000    0.000 
#
# Total GULP energy -133971.175722 kJ/mol
# GULP energy per Si atom -5582.132322 kJ/mol
# Density = 2.113719 g / cm^3
# Si number density = 21.185404 Si / 1000 Ang^3
#
#
#
# Elastic Constant Matrix: (Units=GPa)
#
#
# Indices 1 2 3 4 5 6 
#
# 1 56.1459 13.1256 1.3899 0.0000 12.8010 0.0000
# 2 13.1256 156.3244 30.2197 0.0000 15.3011 0.0000
# 3 1.3899 30.2197 60.7801 0.0000 26.1733 0.0000
# 4 0.0000 0.0000 0.0000 18.1644 0.0000 7.6530
# 5 12.8010 15.3011 26.1733 0.0000 20.3866 0.0000
# 6 0.0000 0.0000 0.0000 7.6530 0.0000 30.1886
#
#
#
# Elastic Compliance Matrix: (Units=1/GPa)
#
#
# Indices 1 2 3 4 5 6 
#
# 1 0.025539 -0.001701 0.014800 0.000000 -0.033761 0.000000
# 2 -0.001701 0.007219 -0.003751 0.000000 0.000465 0.000000
# 3 0.014800 -0.003751 0.046448 0.000000 -0.066110 0.000000
# 4 0.000000 0.000000 0.000000 0.061636 0.000000 -0.015625
# 5 -0.033761 0.000465 -0.066110 0.000000 0.154777 0.000000
# 6 0.000000 0.000000 0.000000 -0.015625 0.000000 0.037086
#
#
# Mechanical properties :
#
#
# Convention : Reuss Voigt Hill
#
# Bulk Modulus (GPa) = 10.21426 40.30231 25.25829
# Shear Modulus (GPa) = 14.42407 28.98226 21.70316
#
# Velocity S-wave (km/s) = 2.61214 3.70270 3.20416
# Velocity P-wave (km/s) = 3.73223 6.11105 5.06332
#
# Compressibility (1/GPa) = 0.09790230
#
# Stress axis : x y z
#
# Youngs Moduli (GPa) = 39.15544 138.51702 21.52964
#
# Poissons Ratio (x) = 0.23560 -0.31863
# Poissons Ratio (y) = 0.06660 0.08075
# Poissons Ratio (z) = -0.57949 0.51955
#
# Static dielectric constant tensor:
#      x y z
#    x 1.825640 0.000000 -0.033130 
#    y 0.000000 1.789510 0.000000 
#    z -0.033130 0.000000 1.741010 
# 
# From -- ./inp_files/212823.got.cif
#   From: 2010.05.17/outbox.cif.g08.bks.cpg/sg12_107_cif.got.tgz:212823.got - 2010.06.03 13:09:07.
