data_PCOD9204129
_publ_section_title
;
Structure prediction by ZEFSAII (Michael W. Deem and Ramdas Pophale) SiO2 
 PCOD9204129
Probable space group: C 2/M
;
_chemical_formula_sum "Si O2"
_cell_formula_units_Z 40
_cell_length_a 18.001109
_cell_length_b 22.234265
_cell_length_c 14.908082
_cell_angle_alpha 90.000000
_cell_angle_beta 163.021194
_cell_angle_gamma 90.000000
_cell_volume 1742.422013
_symmetry_space_group_name_H-M "C 2/M"
_symmetry_group_IT_number 12
_symmetry_cell_setting 'monoclinic'
loop_
_space_group_symop_operation_xyz
x,y,z
-x,y,-z
-x,-y,-z
x,-y,z
1/2+x,1/2+y,z
1/2-x,1/2+y,-z
1/2-x,1/2-y,-z
1/2+x,1/2-y,z
loop_
_atom_site_type_symbol
_atom_site_label
_atom_site_fract_x
_atom_site_fract_y
_atom_site_fract_z
Si Si1 0.793729 0.929165 0.331369
Si Si2 0.322385 0.566976 0.568766
Si Si3 0.002816 0.679450 0.264083
Si Si4 0.228739 0.626082 0.824035
Si Si5 0.994252 0.245145 0.089621
O O1 0.902980 0.925993 0.558235
O O2 0.000000 0.902528 0.500000
O O3 0.767697 0.000000 0.276270
O O4 0.500000 0.907810 0.000000
O O5 0.213536 0.500000 0.453360
O O6 0.131182 0.620445 0.369926
O O7 0.557663 0.577576 0.906851
O O8 0.881932 0.715770 0.041597
O O9 0.222841 0.723699 0.556077
O O10 0.845420 0.655175 0.165879
O O11 0.000000 0.601784 0.500000
O O12 0.338945 0.683508 0.898869
O O13 0.000000 0.276169 0.000000
#
# Coordination Sequence:
#
# PCOD9204129 Si02
#       5
#     8   8   8   8   8
#     4   9  19  37  62  88 124 176 224 274 334 392
#     4  10  24  41  61  94 133 175 224 271 321 402
#     4  10  22  39  64  93 124 168 214 270 333 395
#     4  11  22  40  66  93 129 173 215 271 338 394
#     4  10  20  40  65  93 125 158 211 276 336 404
#
# _framework density 22.95655
#
# number of rings (size 3 to 8) (size 9 to 14) (size 15 to 20)
#    0.000    2.000    2.000    0.600    2.800    2.000 
#    0.000    1.000    0.000    0.000    0.000    0.000 
#    0.000    0.000    0.000    0.000    0.000    0.000 
#
# Total GULP energy -111718.006999 kJ/mol
# GULP energy per Si atom -5585.900350 kJ/mol
# Density = 2.290430 g / cm^3
# Si number density = 22.956550 Si / 1000 Ang^3
#
#
#
# Elastic Constant Matrix: (Units=GPa)
#
#
# Indices 1 2 3 4 5 6 
#
# 1 109.0610 30.8992 4.9718 0.0011 4.6307 0.0002
# 2 30.8992 81.9385 18.3439 0.0003 -10.0612 0.0000
# 3 4.9718 18.3439 65.4576 0.0060 -9.0199 0.0028
# 4 0.0011 0.0003 0.0060 3.7577 0.0032 -9.6935
# 5 4.6307 -10.0612 -9.0199 0.0032 36.4665 0.0010
# 6 0.0002 0.0000 0.0028 -9.6935 0.0010 27.4941
#
#
#
# Elastic Compliance Matrix: (Units=1/GPa)
#
#
# Indices 1 2 3 4 5 6 
#
# 1 0.010483 -0.004272 0.000057 -0.000006 -0.002496 -0.000002
# 2 -0.004272 0.015042 -0.003359 0.000027 0.003862 0.000010
# 3 0.000057 -0.003359 0.016653 -0.000372 0.003185 -0.000133
# 4 -0.000006 0.000027 -0.000372 2.940768 -0.000369 1.036817
# 5 -0.002496 0.003862 0.003185 -0.000369 0.029593 -0.000131
# 6 -0.000002 0.000010 -0.000133 1.036817 -0.000131 0.401918
#
#
# Mechanical properties :
#
#
# Convention : Reuss Voigt Hill
#
# Bulk Modulus (GPa) = 36.99636 40.54298 38.76967
# Shear Modulus (GPa) = 1.45407 27.02647 14.24027
#
# Velocity S-wave (km/s) = 0.79673 3.43489 2.49331
# Velocity P-wave (km/s) = 4.12276 5.78190 5.02133
#
# Compressibility (1/GPa) = 0.02702969
#
# Stress axis : x y z
#
# Youngs Moduli (GPa) = 95.39242 66.48265 60.04963
#
# Poissons Ratio (x) = 0.28404 -0.00343
# Poissons Ratio (y) = 0.40756 0.20168
# Poissons Ratio (z) = -0.00545 0.22329
#
# Static dielectric constant tensor:
#      x y z
#    x 1.891630 0.000000 0.006170 
#    y 0.000000 1.818650 0.000000 
#    z 0.006170 0.000000 1.883990 
# 
# From -- ./inp_files/7728.got.cif
#   From: 2010.05.17/outbox.cif.g08.bks.cpg/sg12_4_cif.got.tgz:7728.got - 2010.06.03 13:09:07.
