data_PCOD9204586
_publ_section_title
;
Structure prediction by ZEFSAII (Michael W. Deem and Ramdas Pophale) SiO2 
 PCOD9204586
Probable space group: C 2/M
;
_chemical_formula_sum "Si O2"
_cell_formula_units_Z 50
_cell_length_a 8.162758
_cell_length_b 23.299120
_cell_length_c 11.361349
_cell_angle_alpha 90.000000
_cell_angle_beta 72.786488
_cell_angle_gamma 90.000000
_cell_volume 2063.975623
_symmetry_space_group_name_H-M "C 2/M"
_symmetry_group_IT_number 12
_symmetry_cell_setting 'monoclinic'
loop_
_space_group_symop_operation_xyz
x,y,z
-x,y,-z
-x,-y,-z
x,-y,z
1/2+x,1/2+y,z
1/2-x,1/2+y,-z
1/2-x,1/2-y,-z
1/2+x,1/2-y,z
loop_
_atom_site_type_symbol
_atom_site_label
_atom_site_fract_x
_atom_site_fract_y
_atom_site_fract_z
Si Si1 0.825098 0.276359 0.866776
Si Si2 0.485444 0.437209 0.362009
Si Si3 0.000000 0.000000 0.000000
Si Si4 0.328046 0.671008 0.456879
Si Si5 0.220571 0.401221 0.092626
Si Si6 0.318877 0.783693 0.301175
Si Si7 0.659827 0.931985 0.842602
O O1 0.733580 0.338054 0.868656
O O2 0.825627 0.227889 0.764810
O O3 0.023467 0.292755 0.819661
O O4 0.750000 0.250000 0.000000
O O5 0.500000 0.441593 0.500000
O O6 0.438235 0.500000 0.325140
O O7 0.350698 0.386346 0.376909
O O8 0.673092 0.422080 0.272687
O O9 0.133723 0.949059 0.923810
O O10 0.500000 0.679618 0.500000
O O11 0.306815 0.724436 0.376568
O O12 0.187554 0.671093 0.591065
O O13 0.027569 0.420523 0.171860
O O14 0.192694 0.397914 0.956270
O O15 0.666003 0.000000 0.874271
#
# Coordination Sequence:
#
# PCOD9204586 Si02
#       7
#     8   8   2   8   8   8   8
#     4  12  29  43  65 102 141 185 225 292 346 416
#     4   9  20  35  64 104 129 161 219 284 341 392
#     4  12  24  46  60 100 130 174 228 270 352 408
#     4  10  21  41  73  94 130 178 225 291 328 411
#     4  11  25  40  68  94 138 179 227 277 344 416
#     4  11  25  46  65 100 133 180 240 273 353 400
#     4  10  20  43  67 100 127 176 231 277 326 421
#
# _framework density 24.225093000000001
#
# number of rings (size 3 to 8) (size 9 to 14) (size 15 to 20)
#    0.000    1.440    3.200    0.960   13.440    0.000 
#    0.000    0.000    0.000    0.000    0.000    2.240 
#    0.000    0.000    0.000    0.000    0.000    0.000 
#
# Total GULP energy -139228.948181 kJ/mol
# GULP energy per Si atom -5569.157927 kJ/mol
# Density = 2.416996 g / cm^3
# Si number density = 24.225093 Si / 1000 Ang^3
#
#
#
# Elastic Constant Matrix: (Units=GPa)
#
#
# Indices 1 2 3 4 5 6 
#
# 1 17.7976 5.0482 32.2292 0.0000 -10.5339 0.0000
# 2 5.0482 127.4710 43.6604 0.0000 -14.8353 0.0000
# 3 32.2292 43.6604 157.8345 0.0000 -32.5934 0.0000
# 4 0.0000 0.0000 0.0000 25.0912 0.0000 0.1884
# 5 -10.5339 -14.8353 -32.5934 0.0000 35.3747 0.0000
# 6 0.0000 0.0000 0.0000 0.1884 0.0000 24.1822
#
#
#
# Elastic Compliance Matrix: (Units=1/GPa)
#
#
# Indices 1 2 3 4 5 6 
#
# 1 0.095223 0.003881 -0.017692 0.000000 0.013682 0.000000
# 2 0.003881 0.008914 -0.002776 0.000000 0.002336 0.000000
# 3 -0.017692 -0.002776 0.011594 0.000000 0.004250 0.000000
# 4 0.000000 0.000000 0.000000 0.039857 0.000000 -0.000310
# 5 0.013682 0.002336 0.004250 0.000000 0.037238 0.000000
# 6 0.000000 0.000000 0.000000 -0.000310 0.000000 0.041355
#
#
# Mechanical properties :
#
#
# Convention : Reuss Voigt Hill
#
# Bulk Modulus (GPa) = 12.11290 51.66430 31.88860
# Shear Modulus (GPa) = 16.95637 31.74065 24.34851
#
# Velocity S-wave (km/s) = 2.64853 3.62365 3.17376
# Velocity P-wave (km/s) = 3.78998 6.23545 5.15969
#
# Compressibility (1/GPa) = 0.08255659
#
# Stress axis : x y z
#
# Youngs Moduli (GPa) = 10.50166 112.18462 86.25215
#
# Poissons Ratio (x) = -0.43540 1.52601
# Poissons Ratio (y) = -0.04076 0.23942
# Poissons Ratio (z) = 0.18580 0.31140
#
# Static dielectric constant tensor:
#      x y z
#    x 2.046420 0.000000 -0.044380 
#    y 0.000000 2.084590 0.000000 
#    z -0.044380 0.000000 1.958030 
# 
# From -- ./inp_files/124177.got.cif
#   From: 2010.05.17/outbox.cif.g08.bks.cpg/sg12_63_cif.got.tgz:124177.got - 2010.06.03 13:09:07.
