data_PCOD9204714
_publ_section_title
;
Structure prediction by ZEFSAII (Michael W. Deem and Ramdas Pophale) SiO2 
 PCOD9204714
Probable space group: C 2/M
;
_chemical_formula_sum "Si O2"
_cell_formula_units_Z 44
_cell_length_a 23.142734
_cell_length_b 11.275719
_cell_length_c 9.956642
_cell_angle_alpha 90.000000
_cell_angle_beta 118.077778
_cell_angle_gamma 90.000000
_cell_volume 2292.412382
_symmetry_space_group_name_H-M "C 2/M"
_symmetry_group_IT_number 12
_symmetry_cell_setting 'monoclinic'
loop_
_space_group_symop_operation_xyz
x,y,z
-x,y,-z
-x,-y,-z
x,-y,z
1/2+x,1/2+y,z
1/2-x,1/2+y,-z
1/2-x,1/2-y,-z
1/2+x,1/2-y,z
loop_
_atom_site_type_symbol
_atom_site_label
_atom_site_fract_x
_atom_site_fract_y
_atom_site_fract_z
Si Si1 0.931392 0.250545 0.874928
Si Si2 0.794753 0.135932 0.224519
Si Si3 0.376959 0.000000 0.480040
Si Si4 0.378222 0.000000 0.164625
Si Si5 0.825304 0.249919 0.528440
Si Si6 0.519645 0.000000 0.193435
Si Si7 0.332307 0.754590 0.009067
O O1 0.880725 0.213706 0.699680
O O2 0.953393 0.382875 0.851101
O O3 0.888064 0.245700 0.960568
O O4 0.000000 0.191637 0.000000
O O5 0.830297 0.168034 0.401666
O O6 0.833313 0.157075 0.127250
O O7 0.771825 0.000000 0.207855
O O8 0.736011 0.231155 0.144079
O O9 0.387649 0.000000 0.333713
O O10 0.340679 0.883190 0.494891
O O11 0.447564 0.000000 0.625497
O O12 0.339965 0.880971 0.089355
O O13 0.442867 0.000000 0.141559
O O14 0.750000 0.250000 0.500000
#
# Coordination Sequence:
#
# PCOD9204714 Si02
#       7
#     8   8   4   4   8   4   8
#     4  11  21  37  60  94 125 156 198 251 319 373
#     4  11  24  41  60  89 123 167 207 250 307 363
#     4  10  23  37  56  96 130 156 204 252 312 375
#     4  12  18  36  60  97 129 154 188 253 313 389
#     4  11  23  39  61  91 125 162 206 257 309 362
#     4  10  21  32  61  96 128 158 183 249 330 375
#     4  11  22  37  63  94 126 156 200 252 308 374
#
# _framework density 19.193753999999998
#
# number of rings (size 3 to 8) (size 9 to 14) (size 15 to 20)
#    0.000    1.091    6.364    1.091    1.273    0.000 
#    0.000    1.818    0.000    3.273    0.000    0.000 
#    0.000    0.000    0.000    0.000    0.000    0.000 
#
# Total GULP energy -122567.017044 kJ/mol
# GULP energy per Si atom -5571.228047 kJ/mol
# Density = 1.915007 g / cm^3
# Si number density = 19.193754 Si / 1000 Ang^3
#
#
#
# Elastic Constant Matrix: (Units=GPa)
#
#
# Indices 1 2 3 4 5 6 
#
# 1 95.4428 8.4357 44.3269 0.0000 -1.0449 0.0000
# 2 8.4357 35.5447 13.1617 0.0000 0.0693 0.0000
# 3 44.3269 13.1617 175.5784 0.0000 1.3962 0.0000
# 4 0.0000 0.0000 0.0000 18.3887 0.0000 1.2675
# 5 -1.0449 0.0693 1.3962 0.0000 31.8331 0.0000
# 6 0.0000 0.0000 0.0000 1.2675 0.0000 17.3233
#
#
#
# Elastic Compliance Matrix: (Units=1/GPa)
#
#
# Indices 1 2 3 4 5 6 
#
# 1 0.011985 -0.001773 -0.002897 0.000000 0.000524 0.000000
# 2 -0.001773 0.029199 -0.001741 0.000000 -0.000045 0.000000
# 3 -0.002897 -0.001741 0.006560 0.000000 -0.000379 0.000000
# 4 0.000000 0.000000 0.000000 0.054657 0.000000 -0.003999
# 5 0.000524 -0.000045 -0.000379 0.000000 0.031448 0.000000
# 6 0.000000 0.000000 0.000000 -0.003999 0.000000 0.058018
#
#
# Mechanical properties :
#
#
# Convention : Reuss Voigt Hill
#
# Bulk Modulus (GPa) = 28.63418 48.71271 38.67344
# Shear Modulus (GPa) = 23.11279 29.55180 26.33230
#
# Velocity S-wave (km/s) = 3.47390 3.92810 3.70796
# Velocity P-wave (km/s) = 5.57149 6.78291 6.20683
#
# Compressibility (1/GPa) = 0.03492330
#
# Stress axis : x y z
#
# Youngs Moduli (GPa) = 83.43465 34.24776 152.42972
#
# Poissons Ratio (x) = 0.06071 0.44161
# Poissons Ratio (y) = 0.14790 0.26537
# Poissons Ratio (z) = 0.24172 0.05962
#
# Static dielectric constant tensor:
#      x y z
#    x 1.676630 0.000000 0.021930 
#    y 0.000000 1.656760 0.000000 
#    z 0.021930 0.000000 1.717160 
# 
# From -- ./inp_files/94260.got.cif
#   From: 2010.05.17/outbox.cif.g08.bks.cpg/sg12_48_cif.got.tgz:94260.got - 2010.06.03 13:09:07.
