data_PCOD9204247
_publ_section_title
;
Structure prediction by ZEFSAII (Michael W. Deem and Ramdas Pophale) SiO2 
 PCOD9204247
Probable space group: C 2/M
;
_chemical_formula_sum "Si O2"
_cell_formula_units_Z 48
_cell_length_a 11.062573
_cell_length_b 15.639140
_cell_length_c 25.783200
_cell_angle_alpha 90.000000
_cell_angle_beta 148.784838
_cell_angle_gamma 90.000000
_cell_volume 2311.787691
_symmetry_space_group_name_H-M "C 2/M"
_symmetry_group_IT_number 12
_symmetry_cell_setting 'monoclinic'
loop_
_space_group_symop_operation_xyz
x,y,z
-x,y,-z
-x,-y,-z
x,-y,z
1/2+x,1/2+y,z
1/2-x,1/2+y,-z
1/2-x,1/2-y,-z
1/2+x,1/2-y,z
loop_
_atom_site_type_symbol
_atom_site_label
_atom_site_fract_x
_atom_site_fract_y
_atom_site_fract_z
Si Si1 0.086527 0.899744 0.731894
Si Si2 0.194610 0.500000 0.021907
Si Si3 0.238366 0.402793 0.381468
Si Si4 0.248616 0.759428 0.437287
Si Si5 0.953015 0.662031 0.791293
Si Si6 0.231050 0.500000 0.913415
Si Si7 0.220002 0.840212 0.892848
O O1 0.314118 0.854889 0.792338
O O2 0.127977 0.889117 0.807966
O O3 0.879578 0.843450 0.631499
O O4 0.069772 0.000000 0.711692
O O5 0.323460 0.410163 0.078355
O O6 0.143730 0.500000 0.941771
O O7 0.000000 0.500000 0.000000
O O8 0.500000 0.410301 0.500000
O O9 0.144738 0.500000 0.346985
O O10 0.119337 0.328336 0.371628
O O11 0.229788 0.359460 0.321698
O O12 0.500000 0.760477 0.500000
O O13 0.250000 0.750000 0.500000
O O14 0.134979 0.585880 0.852681
O O15 0.076918 0.752635 0.839101
O O16 0.500000 0.500000 0.000000
O O17 0.500000 0.821241 0.000000
#
# Coordination Sequence:
#
# PCOD9204247 Si02
#       7
#     8   4   8   8   8   4   8
#     4  12  24  43  74 103 139 191 239 288 356 432
#     4  10  22  46  70  95 135 187 236 290 357 420
#     4  10  20  40  68  97 134 180 229 281 349 420
#     4  11  25  45  73 106 143 184 234 296 355 425
#     4  12  23  42  68 102 139 189 235 288 358 424
#     4  12  26  42  67 103 145 179 240 304 349 412
#     4  11  24  41  69  99 138 185 243 290 351 420
#
# _framework density 20.763152999999999
#
# number of rings (size 3 to 8) (size 9 to 14) (size 15 to 20)
#    0.000    0.833    4.167    4.500    0.000    6.333 
#    0.000    0.000    0.000    0.000    0.000    0.000 
#    0.000    0.000    0.000    0.000    0.000    0.000 
#
# Total GULP energy -133666.174709 kJ/mol
# GULP energy per Si atom -5569.423946 kJ/mol
# Density = 2.071590 g / cm^3
# Si number density = 20.763153 Si / 1000 Ang^3
#
#
#
# Elastic Constant Matrix: (Units=GPa)
#
#
# Indices 1 2 3 4 5 6 
#
# 1 46.2034 13.8167 19.0489 -0.0001 -5.2349 -0.0001
# 2 13.8167 179.9388 42.9475 -0.0001 1.6447 0.0002
# 3 19.0489 42.9475 93.2760 -0.0002 -6.2089 -0.0009
# 4 -0.0001 -0.0001 -0.0002 43.4507 0.0000 -5.4737
# 5 -5.2349 1.6447 -6.2089 0.0000 38.9386 -0.0002
# 6 -0.0001 0.0002 -0.0009 -5.4737 -0.0002 38.4875
#
#
#
# Elastic Compliance Matrix: (Units=1/GPa)
#
#
# Indices 1 2 3 4 5 6 
#
# 1 0.023972 -0.000827 -0.004344 0.000000 0.002565 0.000000
# 2 -0.000827 0.006293 -0.002783 0.000000 -0.000821 0.000000
# 3 -0.004344 -0.002783 0.012996 0.000000 0.001606 0.000000
# 4 0.000000 0.000000 0.000000 0.023434 0.000000 0.003333
# 5 0.002565 -0.000821 0.001606 0.000000 0.026317 0.000000
# 6 0.000000 0.000000 0.000000 0.003333 0.000000 0.026456
#
#
# Mechanical properties :
#
#
# Convention : Reuss Voigt Hill
#
# Bulk Modulus (GPa) = 36.55946 52.33823 44.44885
# Shear Modulus (GPa) = 34.60308 40.41570 37.50939
#
# Velocity S-wave (km/s) = 4.08678 4.41671 4.25495
# Velocity P-wave (km/s) = 6.31784 7.16043 6.75229
#
# Compressibility (1/GPa) = 0.02735270
#
# Stress axis : x y z
#
# Youngs Moduli (GPa) = 41.71456 158.91340 76.94488
#
# Poissons Ratio (x) = 0.13148 0.33425
# Poissons Ratio (y) = 0.03451 0.21414
# Poissons Ratio (z) = 0.18121 0.44227
#
# Static dielectric constant tensor:
#      x y z
#    x 1.859010 0.000000 -0.028300 
#    y 0.000000 1.777610 0.000000 
#    z -0.028300 0.000000 1.831420 
# 
# From -- ./inp_files/358524.got.cif
#   From: 2010.05.17/outbox.cif.g08.bks.cpg/sg12_180_cif.got.tgz:358524.got - 2010.06.03 13:09:07.
