data_PCOD9204539
_publ_section_title
;
Structure prediction by ZEFSAII (Michael W. Deem and Ramdas Pophale) SiO2 
 PCOD9204539
Probable space group: C 2/M
;
_chemical_formula_sum "Si O2"
_cell_formula_units_Z 40
_cell_length_a 20.105456
_cell_length_b 13.242471
_cell_length_c 11.496020
_cell_angle_alpha 90.000000
_cell_angle_beta 147.490862
_cell_angle_gamma 90.000000
_cell_volume 1644.961348
_symmetry_space_group_name_H-M "C 2/M"
_symmetry_group_IT_number 12
_symmetry_cell_setting 'monoclinic'
loop_
_space_group_symop_operation_xyz
x,y,z
-x,y,-z
-x,-y,-z
x,-y,z
1/2+x,1/2+y,z
1/2-x,1/2+y,-z
1/2-x,1/2-y,-z
1/2+x,1/2-y,z
loop_
_atom_site_type_symbol
_atom_site_label
_atom_site_fract_x
_atom_site_fract_y
_atom_site_fract_z
Si Si1 0.207734 0.500000 0.452290
Si Si2 0.517563 0.183003 0.153286
Si Si3 0.623720 0.000000 0.573995
Si Si4 0.569006 0.220702 0.484506
Si Si5 0.251884 0.646550 0.182591
Si Si6 0.587944 0.500000 0.427726
Si Si7 0.200145 0.000000 0.951210
O O1 0.126830 0.599985 0.302612
O O2 0.216995 0.500000 0.603609
O O3 0.339221 0.500000 0.584992
O O4 0.540434 0.246863 0.306263
O O5 0.500000 0.233664 0.000000
O O6 0.387313 0.127315 0.985451
O O7 0.544567 0.899086 0.445306
O O8 0.701950 0.000000 0.803991
O O9 0.500000 0.260277 0.500000
O O10 0.711860 0.238793 0.733721
O O11 0.354402 0.592681 0.414104
O O12 0.275517 0.599118 0.092285
O O13 0.441465 0.500000 0.216067
#
# Coordination Sequence:
#
# PCOD9204539 Si02
#       7
#     4   8   4   8   8   4   4
#     4  10  20  42  67  93 127 169 217 266 316 375
#     4  11  22  40  67  94 126 170 215 265 316 379
#     4  10  24  42  63  95 131 167 216 265 316 380
#     4  11  24  42  66  96 134 166 213 270 321 375
#     4  11  23  40  68  96 127 169 215 264 318 384
#     4  11  21  39  67  92 134 168 214 261 314 384
#     4  11  23  40  65  99 129 172 213 256 327 386
#
# _framework density 24.316680999999999
#
# number of rings (size 3 to 8) (size 9 to 14) (size 15 to 20)
#    0.000    1.200    2.000    5.400    0.000    7.600 
#    0.000    0.000    0.000    0.000    0.000    0.000 
#    0.000    0.000    0.000    0.000    0.000    0.000 
#
# Total GULP energy -111639.813114 kJ/mol
# GULP energy per Si atom -5581.990656 kJ/mol
# Density = 2.426133 g / cm^3
# Si number density = 24.316681 Si / 1000 Ang^3
#
#
#
# Elastic Constant Matrix: (Units=GPa)
#
#
# Indices 1 2 3 4 5 6 
#
# 1 219.5391 7.8028 75.3298 0.0000 -22.7870 0.0000
# 2 7.8028 36.7469 13.8459 0.0000 -15.0498 0.0000
# 3 75.3298 13.8459 115.9294 0.0000 -25.8597 0.0000
# 4 0.0000 0.0000 0.0000 7.4143 0.0000 1.5480
# 5 -22.7870 -15.0498 -25.8597 0.0000 69.0886 0.0000
# 6 0.0000 0.0000 0.0000 1.5480 0.0000 10.5391
#
#
#
# Elastic Compliance Matrix: (Units=1/GPa)
#
#
# Indices 1 2 3 4 5 6 
#
# 1 0.005887 0.000417 -0.003734 0.000000 0.000635 0.000000
# 2 0.000417 0.030486 -0.002619 0.000000 0.005798 0.000000
# 3 -0.003734 -0.002619 0.011961 0.000000 0.002675 0.000000
# 4 0.000000 0.000000 0.000000 0.139141 0.000000 -0.020438
# 5 0.000635 0.005798 0.002675 0.000000 0.016948 0.000000
# 6 0.000000 0.000000 0.000000 -0.020438 0.000000 0.097887
#
#
# Mechanical properties :
#
#
# Convention : Reuss Voigt Hill
#
# Bulk Modulus (GPa) = 27.42425 62.90805 45.16615
# Shear Modulus (GPa) = 15.32163 35.75754 25.53958
#
# Velocity S-wave (km/s) = 2.51288 3.83886 3.24433
# Velocity P-wave (km/s) = 4.44093 6.75097 5.71391
#
# Compressibility (1/GPa) = 0.03646408
#
# Stress axis : x y z
#
# Youngs Moduli (GPa) = 169.86050 32.80196 83.60176
#
# Poissons Ratio (x) = -0.01367 0.31213
# Poissons Ratio (y) = -0.07079 0.21891
# Poissons Ratio (z) = 0.63418 0.08589
#
# Static dielectric constant tensor:
#      x y z
#    x 1.961370 0.000000 -0.016850 
#    y 0.000000 2.551950 0.000000 
#    z -0.016850 0.000000 1.870490 
# 
# From -- ./inp_files/168901.got.cif
#   From: 2010.05.17/outbox.cif.g08.bks.cpg/sg12_85_cif.got.tgz:168901.got - 2010.06.03 13:09:07.
