data_PCOD9204371
_publ_section_title
;
Structure prediction by ZEFSAII (Michael W. Deem and Ramdas Pophale) SiO2 
 PCOD9204371
Probable space group: C 2/M
;
_chemical_formula_sum "Si O2"
_cell_formula_units_Z 56
_cell_length_a 33.249822
_cell_length_b 8.431866
_cell_length_c 23.022281
_cell_angle_alpha 90.000000
_cell_angle_beta 25.760920
_cell_angle_gamma 90.000000
_cell_volume 2805.226898
_symmetry_space_group_name_H-M "C 2/M"
_symmetry_group_IT_number 12
_symmetry_cell_setting 'monoclinic'
loop_
_space_group_symop_operation_xyz
x,y,z
-x,y,-z
-x,-y,-z
x,-y,z
1/2+x,1/2+y,z
1/2-x,1/2+y,-z
1/2-x,1/2-y,-z
1/2+x,1/2-y,z
loop_
_atom_site_type_symbol
_atom_site_label
_atom_site_fract_x
_atom_site_fract_y
_atom_site_fract_z
Si Si1 0.473512 0.191559 0.626698
Si Si2 0.101506 0.808664 0.845450
Si Si3 0.338947 0.184456 0.116063
Si Si4 0.349633 0.692107 0.349031
Si Si5 0.650107 0.810470 0.108405
Si Si6 0.955508 0.813155 0.864237
Si Si7 0.146113 0.308394 0.331884
O O1 0.427643 0.250920 0.745144
O O2 0.404965 0.225551 0.662295
O O3 0.575283 0.243155 0.474786
O O4 0.478843 0.000000 0.623277
O O5 0.168019 0.744017 0.808977
O O6 0.128967 0.756199 0.745175
O O7 0.102821 0.000000 0.844069
O O8 0.000000 0.756822 0.000000
O O9 0.241911 0.220101 0.211957
O O10 0.362234 0.000000 0.083648
O O11 0.415406 0.281336 0.980624
O O12 0.349813 0.500000 0.349207
O O13 0.250000 0.750000 0.500000
O O14 0.437872 0.744545 0.273327
O O15 0.613695 0.763646 0.092268
O O16 0.653736 0.000000 0.106958
O O17 0.750000 0.750000 0.000000
O O18 0.955317 0.000000 0.853404
O O19 0.160253 0.500000 0.316656
#
# Coordination Sequence:
#
# PCOD9204371 Si02
#       7
#     8   8   8   8   8   8   8
#     4   8  17  34  57  81 111 151 199 242 285 344
#     4  10  20  41  66  86 114 157 203 241 291 363
#     4  12  24  36  57  92 122 149 192 251 307 355
#     4  10  23  42  66  92 123 163 205 255 313 369
#     4  11  22  37  58  89 123 160 203 250 301 359
#     4  11  23  42  62  84 117 163 208 251 302 367
#     4   9  17  35  60  83 110 153 197 239 290 355
#
# _framework density 19.962734000000001
#
# number of rings (size 3 to 8) (size 9 to 14) (size 15 to 20)
#    0.000    1.857    1.429    3.857    0.000    4.286 
#    0.000    7.857    0.000    0.000    0.000    0.000 
#    0.000    0.000    0.000    0.000    0.000    0.000 
#
# Total GULP energy -156302.984774 kJ/mol
# GULP energy per Si atom -5582.249456 kJ/mol
# Density = 1.991730 g / cm^3
# Si number density = 19.962734 Si / 1000 Ang^3
#
#
#
# Elastic Constant Matrix: (Units=GPa)
#
#
# Indices 1 2 3 4 5 6 
#
# 1 80.0331 12.3831 39.2788 -0.0055 1.8793 0.0006
# 2 12.3831 25.9914 10.0867 -0.0135 -2.1560 0.0007
# 3 39.2788 10.0867 103.3974 -0.0198 -3.5872 0.0013
# 4 -0.0055 -0.0135 -0.0198 27.9015 0.0032 -3.1647
# 5 1.8793 -2.1560 -3.5872 0.0032 35.0098 -0.0003
# 6 0.0006 0.0007 0.0013 -3.1647 -0.0003 18.5076
#
#
#
# Elastic Compliance Matrix: (Units=1/GPa)
#
#
# Indices 1 2 3 4 5 6 
#
# 1 0.016192 -0.005667 -0.005661 -0.000003 -0.001798 -0.000001
# 2 -0.005667 0.042121 -0.001862 0.000018 0.002707 0.000002
# 3 -0.005661 -0.001862 0.012053 0.000006 0.001424 0.000001
# 4 -0.000003 0.000018 0.000006 0.036549 -0.000001 0.006250
# 5 -0.001798 0.002707 0.001424 -0.000001 0.028973 0.000000
# 6 -0.000001 0.000002 0.000001 0.006250 0.000000 0.055101
#
#
# Mechanical properties :
#
#
# Convention : Reuss Voigt Hill
#
# Bulk Modulus (GPa) = 22.73416 36.99102 29.86259
# Shear Modulus (GPa) = 21.54889 26.12866 23.83878
#
# Velocity S-wave (km/s) = 3.28907 3.62176 3.45942
# Velocity P-wave (km/s) = 5.08301 6.00498 5.56313
#
# Compressibility (1/GPa) = 0.04398667
#
# Stress axis : x y z
#
# Youngs Moduli (GPa) = 61.75899 23.74089 82.96769
#
# Poissons Ratio (x) = 0.13453 0.46965
# Poissons Ratio (y) = 0.34997 0.15452
# Poissons Ratio (z) = 0.34959 0.04422
#
# Static dielectric constant tensor:
#      x y z
#    x 1.717060 0.000000 0.007360 
#    y 0.000000 1.686570 0.000000 
#    z 0.007360 0.000000 1.721340 
# 
# From -- ./inp_files/329439.got.cif
#   From: 2010.05.17/outbox.cif.g08.bks.cpg/sg12_165_cif.got.tgz:329439.got - 2010.06.03 13:09:07.
