data_PCOD9204717
_publ_section_title
;
Structure prediction by ZEFSAII (Michael W. Deem and Ramdas Pophale) SiO2 
 PCOD9204717
Probable space group: C 2/M
;
_chemical_formula_sum "Si O2"
_cell_formula_units_Z 48
_cell_length_a 5.164628
_cell_length_b 32.148016
_cell_length_c 14.211586
_cell_angle_alpha 90.000000
_cell_angle_beta 92.187020
_cell_angle_gamma 90.000000
_cell_volume 2357.867020
_symmetry_space_group_name_H-M "C 2/M"
_symmetry_group_IT_number 12
_symmetry_cell_setting 'monoclinic'
loop_
_space_group_symop_operation_xyz
x,y,z
-x,y,-z
-x,-y,-z
x,-y,z
1/2+x,1/2+y,z
1/2-x,1/2+y,-z
1/2-x,1/2-y,-z
1/2+x,1/2-y,z
loop_
_atom_site_type_symbol
_atom_site_label
_atom_site_fract_x
_atom_site_fract_y
_atom_site_fract_z
Si Si1 0.471461 0.648224 0.339057
Si Si2 0.950966 0.941192 0.604632
Si Si3 0.813527 0.234799 0.606275
Si Si4 0.467613 0.954367 0.731988
Si Si5 0.456710 0.138173 0.222889
Si Si6 0.987315 0.722870 0.886479
O O1 0.549372 0.608609 0.399970
O O2 0.555193 0.690378 0.388973
O O3 0.170881 0.645671 0.307882
O O4 0.659904 0.644496 0.250946
O O5 0.685098 0.953106 0.652568
O O6 0.000000 0.956609 0.500000
O O7 0.188916 0.952126 0.677001
O O8 0.750000 0.250000 0.500000
O O9 0.534882 0.235545 0.651481
O O10 0.507040 0.911898 0.793551
O O11 0.490033 0.000000 0.779436
O O12 0.514734 0.175447 0.151184
O O13 0.734508 0.749950 0.857720
O O14 0.000000 0.720532 0.000000
#
# Coordination Sequence:
#
# PCOD9204717 Si02
#       6
#     8   8   8   8   8   8
#     4  10  21  35  50  71 104 139 181 221 266 315
#     4  10  21  34  52  74 100 139 179 233 276 322
#     4  10  21  33  44  65  90 133 176 217 260 307
#     4  10  21  37  54  78 105 138 181 226 280 323
#     4  10  21  37  56  80 107 140 176 219 265 320
#     4  10  21  37  60  88 116 144 173 214 264 318
#
# _framework density 20.357379999999999
#
# number of rings (size 3 to 8) (size 9 to 14) (size 15 to 20)
#    0.000    2.000    0.000    3.000    2.333    6.000 
#    6.000    0.000    0.000    0.500    0.000    0.000 
#    0.000   12.000    0.000    0.000    0.000    2.000 
#
# Total GULP energy -133824.899126 kJ/mol
# GULP energy per Si atom -5576.037464 kJ/mol
# Density = 2.031105 g / cm^3
# Si number density = 20.357380 Si / 1000 Ang^3
#
#
#
# Elastic Constant Matrix: (Units=GPa)
#
#
# Indices 1 2 3 4 5 6 
#
# 1 109.6156 14.0911 -3.1613 0.0000 -7.0437 0.0000
# 2 14.0911 199.3619 26.2525 0.0000 -0.6727 0.0000
# 3 -3.1613 26.2525 38.3737 0.0000 1.7304 0.0000
# 4 0.0000 0.0000 0.0000 70.7472 0.0000 -42.0662
# 5 -7.0437 -0.6727 1.7304 0.0000 13.6699 0.0000
# 6 0.0000 0.0000 0.0000 -42.0662 0.0000 27.8854
#
#
#
# Elastic Compliance Matrix: (Units=1/GPa)
#
#
# Indices 1 2 3 4 5 6 
#
# 1 0.009564 -0.000808 0.001127 0.000000 0.004746 0.000000
# 2 -0.000808 0.005589 -0.003906 0.000000 0.000353 0.000000
# 3 0.001127 -0.003906 0.028972 0.000000 -0.003279 0.000000
# 4 0.000000 0.000000 0.000000 0.137200 0.000000 0.206971
# 5 0.004746 0.000353 -0.003279 0.000000 0.076031 0.000000
# 6 0.000000 0.000000 0.000000 0.206971 0.000000 0.348085
#
#
# Mechanical properties :
#
#
# Convention : Reuss Voigt Hill
#
# Bulk Modulus (GPa) = 27.06319 46.85731 36.96025
# Shear Modulus (GPa) = 8.00086 43.13842 25.56964
#
# Velocity S-wave (km/s) = 1.98462 4.60831 3.54791
# Velocity P-wave (km/s) = 4.30982 7.16818 5.91427
#
# Compressibility (1/GPa) = 0.03695056
#
# Stress axis : x y z
#
# Youngs Moduli (GPa) = 104.55700 178.93351 34.51567
#
# Poissons Ratio (x) = 0.14465 -0.03890
# Poissons Ratio (y) = 0.08452 0.13481
# Poissons Ratio (z) = -0.11783 0.69889
#
# Static dielectric constant tensor:
#      x y z
#    x 1.785040 0.000000 -0.056980 
#    y 0.000000 1.802770 0.000000 
#    z -0.056980 0.000000 1.738100 
# 
# From -- ./inp_files/192399.got.cif
#   From: 2010.05.17/outbox.cif.g08.bks.cpg/sg12_97_cif.got.tgz:192399.got - 2010.06.03 13:09:07.
