data_PCOD9204686
_publ_section_title
;
Structure prediction by ZEFSAII (Michael W. Deem and Ramdas Pophale) SiO2 
 PCOD9204686
Probable space group: C 2/M
;
_chemical_formula_sum "Si O2"
_cell_formula_units_Z 64
_cell_length_a 12.878545
_cell_length_b 13.952662
_cell_length_c 29.728485
_cell_angle_alpha 90.000000
_cell_angle_beta 41.780202
_cell_angle_gamma 90.000000
_cell_volume 3559.180913
_symmetry_space_group_name_H-M "C 2/M"
_symmetry_group_IT_number 12
_symmetry_cell_setting 'monoclinic'
loop_
_space_group_symop_operation_xyz
x,y,z
-x,y,-z
-x,-y,-z
x,-y,z
1/2+x,1/2+y,z
1/2-x,1/2+y,-z
1/2-x,1/2-y,-z
1/2+x,1/2-y,z
loop_
_atom_site_type_symbol
_atom_site_label
_atom_site_fract_x
_atom_site_fract_y
_atom_site_fract_z
Si Si1 0.371089 0.886398 0.940514
Si Si2 0.376133 0.307320 0.575523
Si Si3 0.032758 0.114229 0.695747
Si Si4 0.140169 0.610743 0.379844
Si Si5 0.179730 0.271956 0.951767
Si Si6 0.345297 0.113281 0.419448
Si Si7 0.769930 0.385191 0.155448
Si Si8 0.408964 0.385586 0.423900
O O1 0.282064 0.819346 0.933526
O O2 0.558521 0.872973 0.878561
O O3 0.338096 0.000000 0.946945
O O4 0.322037 0.845823 0.005529
O O5 0.500000 0.348398 0.500000
O O6 0.400348 0.194030 0.572207
O O7 0.213020 0.337430 0.607166
O O8 0.431133 0.351735 0.604536
O O9 0.869182 0.149847 0.767329
O O10 0.174903 0.126175 0.685017
O O11 0.087600 0.147888 0.628669
O O12 0.012814 0.000000 0.696865
O O13 0.116524 0.500000 0.402662
O O14 0.024150 0.626757 0.375848
O O15 0.236581 0.327346 0.889059
O O16 0.000000 0.243710 0.000000
O O17 0.236646 0.144882 0.497247
O O18 0.319655 0.000000 0.422220
O O19 0.751843 0.500000 0.152768
O O20 0.401477 0.500000 0.426183
#
# Coordination Sequence:
#
# PCOD9204686 Si02
#       8
#     8   8   8   8   8   8   8   8
#     4   9  17  30  51  79 108 136 166 202 243 285
#     4  10  21  32  52  72  97 122 162 205 259 313
#     4   9  19  34  51  72  99 132 171 211 251 294
#     4  10  22  35  49  71 100 129 161 206 259 307
#     4   9  17  30  51  80 108 132 165 204 243 285
#     4   9  19  35  53  72  96 126 160 206 263 316
#     4   9  17  33  53  72  98 134 173 207 239 284
#     4   9  18  33  53  75  98 124 163 213 259 304
#
# _framework density 17.981665
#
# number of rings (size 3 to 8) (size 9 to 14) (size 15 to 20)
#    0.000    2.750    0.000    0.750    3.500    4.500 
#    2.250    0.000    0.000    0.000    0.000    0.875 
#    0.000    0.000    0.000    0.000    0.000    0.000 
#
# Total GULP energy -178174.420824 kJ/mol
# GULP energy per Si atom -5567.950651 kJ/mol
# Density = 1.794074 g / cm^3
# Si number density = 17.981665 Si / 1000 Ang^3
#
#
#
# Elastic Constant Matrix: (Units=GPa)
#
#
# Indices 1 2 3 4 5 6 
#
# 1 97.7474 19.6165 -30.9601 0.0000 -15.2138 0.0000
# 2 19.6165 45.5945 -63.4828 -0.0001 -12.3098 0.0000
# 3 -30.9601 -63.4828 -87.8785 -0.0001 -12.8274 0.0000
# 4 0.0000 -0.0001 -0.0001 12.7031 0.0000 -2.7577
# 5 -15.2138 -12.3098 -12.8274 0.0000 12.8427 0.0000
# 6 0.0000 0.0000 0.0000 -2.7577 0.0000 29.8481
#
#
#
# Elastic Compliance Matrix: (Units=1/GPa)
#
#
# Indices 1 2 3 4 5 6 
#
# 1 0.011981 -0.005246 -0.001544 0.000000 0.007622 0.000000
# 2 -0.005246 0.013307 -0.007610 0.000000 -0.001060 0.000000
# 3 -0.001544 -0.007610 -0.003497 0.000000 -0.012616 0.000000
# 4 0.000000 0.000000 0.000000 0.080332 0.000000 0.007422
# 5 0.007622 -0.001060 -0.012616 0.000000 0.073278 0.000000
# 6 0.000000 0.000000 0.000000 0.007422 0.000000 0.034189
#
#
# Mechanical properties :
#
#
# Convention : Reuss Voigt Hill
#
# Bulk Modulus (GPa) = -142.68644 -10.46549 -76.57596
# Shear Modulus (GPa) = 21.18155 19.76476 20.47315
#
# Velocity S-wave (km/s) = 3.43585 3.31896 3.37791
# Velocity P-wave (km/s) = 7.98644 2.97566 5.24064
#
# Compressibility (1/GPa) = -0.00700837
#
# Stress axis : x y z
#
# Youngs Moduli (GPa) = 83.46777 75.14645 -285.99946
#
# Poissons Ratio (x) = 0.39422 -0.44151
# Poissons Ratio (y) = 0.43788 -2.17649
# Poissons Ratio (z) = 0.12885 0.57187
#
# Static dielectric constant tensor:
#      x y z
#    x 1.648280 0.000000 -0.028450 
#    y 0.000000 1.634400 0.000000 
#    z -0.028450 0.000000 1.610400 
# 
# From -- ./inp_files/374075.got.cif
#   From: 2010.05.17/outbox.cif.g08.bks.cpg/sg12_188_cif.got.tgz:374075.got - 2010.06.03 13:09:07.
