data_PCOD9204747
_publ_section_title
;
Structure prediction by ZEFSAII (Michael W. Deem and Ramdas Pophale) SiO2 
 PCOD9204747
Probable space group: C 2/M
;
_chemical_formula_sum "Si O2"
_cell_formula_units_Z 50
_cell_length_a 29.082056
_cell_length_b 7.694680
_cell_length_c 15.409439
_cell_angle_alpha 90.000000
_cell_angle_beta 130.197131
_cell_angle_gamma 90.000000
_cell_volume 2633.893862
_symmetry_space_group_name_H-M "C 2/M"
_symmetry_group_IT_number 12
_symmetry_cell_setting 'monoclinic'
loop_
_space_group_symop_operation_xyz
x,y,z
-x,y,-z
-x,-y,-z
x,-y,z
1/2+x,1/2+y,z
1/2-x,1/2+y,-z
1/2-x,1/2-y,-z
1/2+x,1/2-y,z
loop_
_atom_site_type_symbol
_atom_site_label
_atom_site_fract_x
_atom_site_fract_y
_atom_site_fract_z
Si Si1 0.168040 0.205568 0.566784
Si Si2 0.198607 0.793319 0.241307
Si Si3 0.001307 0.295316 0.237936
Si Si4 0.543808 0.704620 0.480319
Si Si5 0.080533 0.198823 0.008996
Si Si6 0.367955 0.289316 0.666084
Si Si7 0.500000 0.000000 0.000000
O O1 0.233815 0.228558 0.685360
O O2 0.111408 0.278591 0.551676
O O3 0.163623 0.271092 0.461816
O O4 0.157034 0.000000 0.545924
O O5 0.167051 0.726368 0.291620
O O6 0.204221 0.000000 0.258159
O O7 0.151153 0.761448 0.106945
O O8 0.990350 0.500000 0.230562
O O9 0.014818 0.222729 0.349587
O O10 0.062700 0.269628 0.256617
O O11 0.946768 0.208036 0.120524
O O12 0.500000 0.781241 0.500000
O O13 0.550270 0.500000 0.508788
O O14 0.044944 0.346221 0.017257
O O15 0.071535 0.000000 0.031641
O O16 0.368812 0.500000 0.669747
#
# Coordination Sequence:
#
# PCOD9204747 Si02
#       7
#     8   8   8   8   8   8   2
#     4   9  18  31  52  77 107 141 180 231 282 341
#     4  10  21  33  50  73 108 155 190 225 272 330
#     4  11  21  34  54  82 112 146 189 239 287 333
#     4   9  19  38  62  85 108 140 180 231 300 356
#     4  11  23  37  53  79 116 155 198 243 280 328
#     4   9  18  33  49  72 105 148 189 227 276 325
#     4  12  22  36  56  82 106 156 208 236 272 320
#
# _framework density 18.9833
#
# number of rings (size 3 to 8) (size 9 to 14) (size 15 to 20)
#    0.000    2.080    0.800    4.080    1.120    4.800 
#    0.000    0.000    0.000    0.960    0.000    0.000 
#    0.000    0.000    0.000    0.000    0.000    0.000 
#
# Total GULP energy -139208.245218 kJ/mol
# GULP energy per Si atom -5568.329809 kJ/mol
# Density = 1.894009 g / cm^3
# Si number density = 18.983300 Si / 1000 Ang^3
#
#
#
# Elastic Constant Matrix: (Units=GPa)
#
#
# Indices 1 2 3 4 5 6 
#
# 1 112.2637 -8.4230 59.0518 0.0000 8.7523 0.0000
# 2 -8.4230 44.0828 -17.1596 0.0000 -0.5242 0.0000
# 3 59.0518 -17.1596 103.7420 0.0000 30.0537 0.0000
# 4 0.0000 0.0000 0.0000 37.3818 0.0000 10.6393
# 5 8.7523 -0.5242 30.0537 0.0000 17.8834 0.0000
# 6 0.0000 0.0000 0.0000 10.6393 0.0000 15.4994
#
#
#
# Elastic Compliance Matrix: (Units=1/GPa)
#
#
# Indices 1 2 3 4 5 6 
#
# 1 0.014225 -0.001963 -0.012449 0.000000 0.013901 0.000000
# 2 -0.001963 0.025853 0.009540 0.000000 -0.014314 0.000000
# 3 -0.012449 0.009540 0.032071 0.000000 -0.047524 0.000000
# 4 0.000000 0.000000 0.000000 0.033246 0.000000 -0.022821
# 5 0.013901 -0.014314 -0.047524 0.000000 0.128561 0.000000
# 6 0.000000 0.000000 0.000000 -0.022821 0.000000 0.080184
#
#
# Mechanical properties :
#
#
# Convention : Reuss Voigt Hill
#
# Bulk Modulus (GPa) = 16.02402 36.33632 26.18017
# Shear Modulus (GPa) = 14.50605 29.26088 21.88346
#
# Velocity S-wave (km/s) = 2.76732 3.93033 3.39894
# Velocity P-wave (km/s) = 4.32090 6.30709 5.40600
#
# Compressibility (1/GPa) = 0.06240630
#
# Stress axis : x y z
#
# Youngs Moduli (GPa) = 70.30004 38.68032 31.18089
#
# Poissons Ratio (x) = 0.07591 0.38816
# Poissons Ratio (y) = 0.13796 -0.29747
# Poissons Ratio (z) = 0.87515 -0.36901
#
# Static dielectric constant tensor:
#      x y z
#    x 1.656550 0.000000 0.000370 
#    y 0.000000 1.693600 0.000000 
#    z 0.000370 0.000000 1.695140 
# 
# From -- ./inp_files/244397.got.cif
#   From: 2010.05.17/outbox.cif.g08.bks.cpg/sg12_123_cif.got.tgz:244397.got - 2010.06.03 13:09:07.
