data_PCOD9204537
_publ_section_title
;
Structure prediction by ZEFSAII (Michael W. Deem and Ramdas Pophale) SiO2 
 PCOD9204537
Probable space group: C 2/M
;
_chemical_formula_sum "Si O2"
_cell_formula_units_Z 56
_cell_length_a 18.921134
_cell_length_b 31.859948
_cell_length_c 7.891896
_cell_angle_alpha 90.000000
_cell_angle_beta 33.598649
_cell_angle_gamma 90.000000
_cell_volume 2632.635219
_symmetry_space_group_name_H-M "C 2/M"
_symmetry_group_IT_number 12
_symmetry_cell_setting 'monoclinic'
loop_
_space_group_symop_operation_xyz
x,y,z
-x,y,-z
-x,-y,-z
x,-y,z
1/2+x,1/2+y,z
1/2-x,1/2+y,-z
1/2-x,1/2-y,-z
1/2+x,1/2-y,z
loop_
_atom_site_type_symbol
_atom_site_label
_atom_site_fract_x
_atom_site_fract_y
_atom_site_fract_z
Si Si1 0.825861 0.547904 0.717207
Si Si2 0.121547 0.788912 0.131032
Si Si3 0.128666 0.301466 0.138204
Si Si4 0.920889 0.548666 0.994641
Si Si5 0.499772 0.365982 0.796677
Si Si6 0.423304 0.455170 0.973590
Si Si7 0.230910 0.613455 0.872016
O O1 0.813896 0.500000 0.815431
O O2 0.972340 0.552983 0.366567
O O3 0.731105 0.546672 0.741572
O O4 0.783752 0.585691 0.926700
O O5 0.132603 0.742394 0.026362
O O6 0.000000 0.787363 0.500000
O O7 0.091504 0.828230 0.073274
O O8 0.250778 0.797670 0.975740
O O9 0.000000 0.300096 0.500000
O O10 0.133576 0.347761 0.050641
O O11 0.884341 0.500000 0.082096
O O12 0.801448 0.578294 0.201990
O O13 0.000000 0.561277 0.000000
O O14 0.460873 0.412119 0.811800
O O15 0.637404 0.363333 0.434335
O O16 0.500000 0.366435 0.000000
O O17 0.460432 0.500000 0.819305
O O18 0.500000 0.455062 0.000000
#
# Coordination Sequence:
#
# PCOD9204537 Si02
#       7
#     8   8   8   8   8   8   8
#     4  10  21  38  63  93 126 166 213 268 319 373
#     4  10  20  42  67  89 128 166 211 256 325 396
#     4  10  21  37  68  99 120 160 210 267 319 381
#     4  10  23  40  62  91 131 174 208 258 326 387
#     4  11  25  41  62  90 126 173 211 263 329 381
#     4   9  20  36  58  88 126 167 209 251 308 381
#     4  12  23  40  63  95 123 162 222 271 318 384
#
# _framework density 21.271462
#
# number of rings (size 3 to 8) (size 9 to 14) (size 15 to 20)
#    0.000    1.714    1.429    2.571    4.000    2.286 
#    0.000    2.857    0.000    0.000    0.000    0.000 
#    0.000    0.000    0.000    0.000    0.000    0.000 
#
# Total GULP energy -155951.582632 kJ/mol
# GULP energy per Si atom -5569.699380 kJ/mol
# Density = 2.122305 g / cm^3
# Si number density = 21.271462 Si / 1000 Ang^3
#
#
#
# Elastic Constant Matrix: (Units=GPa)
#
#
# Indices 1 2 3 4 5 6 
#
# 1 64.2135 31.3040 6.7486 0.0000 -9.4351 0.0000
# 2 31.3040 154.9580 15.2833 0.0000 1.6408 0.0000
# 3 6.7486 15.2833 57.1180 0.0000 -11.6285 0.0000
# 4 0.0000 0.0000 0.0000 43.9802 0.0000 5.5449
# 5 -9.4351 1.6408 -11.6285 0.0000 30.5804 0.0000
# 6 0.0000 0.0000 0.0000 5.5449 0.0000 53.4670
#
#
#
# Elastic Compliance Matrix: (Units=1/GPa)
#
#
# Indices 1 2 3 4 5 6 
#
# 1 0.018259 -0.003754 0.000038 0.000000 0.005849 0.000000
# 2 -0.003754 0.007436 -0.002019 0.000000 -0.002325 0.000000
# 3 0.000038 -0.002019 0.019584 0.000000 0.007567 0.000000
# 4 0.000000 0.000000 0.000000 0.023039 0.000000 -0.002389
# 5 0.005849 -0.002325 0.007567 0.000000 0.037508 0.000000
# 6 0.000000 0.000000 0.000000 -0.002389 0.000000 0.018951
#
#
# Mechanical properties :
#
#
# Convention : Reuss Voigt Hill
#
# Bulk Modulus (GPa) = 29.57947 42.55125 36.06536
# Shear Modulus (GPa) = 33.89469 40.46908 37.18189
#
# Velocity S-wave (km/s) = 3.99612 4.36650 4.18541
# Velocity P-wave (km/s) = 5.93530 6.74308 6.35205
#
# Compressibility (1/GPa) = 0.03380723
#
# Stress axis : x y z
#
# Youngs Moduli (GPa) = 54.76843 134.48879 51.06204
#
# Poissons Ratio (x) = 0.50490 -0.00194
# Poissons Ratio (y) = 0.20561 0.10311
# Poissons Ratio (z) = -0.00209 0.27158
#
# Static dielectric constant tensor:
#      x y z
#    x 1.815640 0.000000 -0.011350 
#    y 0.000000 1.823480 0.000000 
#    z -0.011350 0.000000 1.878040 
# 
# From -- ./inp_files/91564.got.cif
#   From: 2010.05.17/outbox.cif.g08.bks.cpg/sg12_46_cif.got.tgz:91564.got - 2010.06.03 13:09:07.
