data_PCOD9204215
_publ_section_title
;
Structure prediction by ZEFSAII (Michael W. Deem and Ramdas Pophale) SiO2 
 PCOD9204215
Probable space group: C 2/M
;
_chemical_formula_sum "Si O2"
_cell_formula_units_Z 46
_cell_length_a 8.919956
_cell_length_b 20.438897
_cell_length_c 18.923125
_cell_angle_alpha 90.000000
_cell_angle_beta 46.349801
_cell_angle_gamma 90.000000
_cell_volume 2496.272579
_symmetry_space_group_name_H-M "C 2/M"
_symmetry_group_IT_number 12
_symmetry_cell_setting 'monoclinic'
loop_
_space_group_symop_operation_xyz
x,y,z
-x,y,-z
-x,-y,-z
x,-y,z
1/2+x,1/2+y,z
1/2-x,1/2+y,-z
1/2-x,1/2-y,-z
1/2+x,1/2-y,z
loop_
_atom_site_type_symbol
_atom_site_label
_atom_site_fract_x
_atom_site_fract_y
_atom_site_fract_z
Si Si1 0.500000 0.741106 0.500000
Si Si2 0.682243 0.925411 0.221370
Si Si3 0.952786 0.692784 0.365656
Si Si4 0.237135 0.218350 0.175396
Si Si5 0.500000 0.000000 0.000000
Si Si6 0.042926 0.608605 0.111722
Si Si7 0.558383 0.331114 0.085474
O O1 0.707781 0.698101 0.433478
O O2 0.501259 0.785898 0.569333
O O3 0.550405 0.876627 0.313259
O O4 0.586034 0.921886 0.174029
O O5 0.912503 0.894652 0.141638
O O6 0.687943 0.000000 0.243919
O O7 0.064978 0.745984 0.278655
O O8 0.349768 0.158089 0.177132
O O9 0.412417 0.273117 0.105453
O O10 0.141353 0.192253 0.134285
O O11 0.487932 0.942908 0.941369
O O12 0.246736 0.650632 0.025437
#
# Coordination Sequence:
#
# PCOD9204215 Si02
#       7
#     4   8   8   8   2   8   8
#     4  10  20  40  68  86 114 134 186 248 314 368
#     4  11  24  39  59  84 123 159 201 238 288 348
#     4  10  21  39  62  92 110 146 186 246 307 360
#     4  11  21  38  60  87 119 148 203 252 291 337
#     4  12  24  40  54  84 124 174 212 230 284 334
#     4  12  23  39  57  82 124 167 206 242 279 333
#     4  11  23  36  57  87 119 163 204 246 283 327
#
# _framework density 18.427475000000001
#
# number of rings (size 3 to 8) (size 9 to 14) (size 15 to 20)
#    0.000    1.043    2.609    6.261    1.217    3.478 
#    0.000    0.870    0.000    0.000    0.000    0.000 
#    0.000    0.000    0.000    0.000    0.000    0.000 
#
# Total GULP energy -128384.756966 kJ/mol
# GULP energy per Si atom -5581.945955 kJ/mol
# Density = 1.838553 g / cm^3
# Si number density = 18.427475 Si / 1000 Ang^3
#
#
#
# Elastic Constant Matrix: (Units=GPa)
#
#
# Indices 1 2 3 4 5 6 
#
# 1 77.8697 30.8914 17.0918 0.0000 -7.3398 0.0000
# 2 30.8914 104.5883 15.6262 0.0000 -6.9148 0.0000
# 3 17.0918 15.6262 53.4217 0.0000 -4.8270 0.0000
# 4 0.0000 0.0000 0.0000 7.1715 0.0000 5.9734
# 5 -7.3398 -6.9148 -4.8270 0.0000 23.6672 0.0000
# 6 0.0000 0.0000 0.0000 5.9734 0.0000 15.4318
#
#
#
# Elastic Compliance Matrix: (Units=1/GPa)
#
#
# Indices 1 2 3 4 5 6 
#
# 1 0.015417 -0.003829 -0.003547 0.000000 0.002939 0.000000
# 2 -0.003829 0.011081 -0.001865 0.000000 0.001670 0.000000
# 3 -0.003547 -0.001865 0.020631 0.000000 0.002563 0.000000
# 4 0.000000 0.000000 0.000000 0.205791 0.000000 -0.079658
# 5 0.002939 0.001670 0.002563 0.000000 0.044174 0.000000
# 6 0.000000 0.000000 0.000000 -0.079658 0.000000 0.095635
#
#
# Mechanical properties :
#
#
# Convention : Reuss Voigt Hill
#
# Bulk Modulus (GPa) = 34.90877 40.34428 37.62653
# Shear Modulus (GPa) = 11.88323 20.73879 16.31101
#
# Velocity S-wave (km/s) = 2.54217 3.35838 2.97837
# Velocity P-wave (km/s) = 5.25375 6.08107 5.68248
#
# Compressibility (1/GPa) = 0.02864609
#
# Stress axis : x y z
#
# Youngs Moduli (GPa) = 64.86531 90.24126 48.47093
#
# Poissons Ratio (x) = 0.34556 0.17191
# Poissons Ratio (y) = 0.24839 0.09042
# Poissons Ratio (z) = 0.23006 0.16833
#
# Static dielectric constant tensor:
#      x y z
#    x 1.654030 0.000000 -0.002640 
#    y 0.000000 1.622990 0.000000 
#    z -0.002640 0.000000 1.621630 
# 
# From -- ./inp_files/257949.got.cif
#   From: 2010.05.17/outbox.cif.g08.bks.cpg/sg12_129_cif.got.tgz:257949.got - 2010.06.03 13:09:07.
