data_PCOD9204557
_publ_section_title
;
Structure prediction by ZEFSAII (Michael W. Deem and Ramdas Pophale) SiO2 
 PCOD9204557
Probable space group: C 2/M
;
_chemical_formula_sum "Si O2"
_cell_formula_units_Z 36
_cell_length_a 23.040612
_cell_length_b 14.511941
_cell_length_c 6.901154
_cell_angle_alpha 90.000000
_cell_angle_beta 138.543062
_cell_angle_gamma 90.000000
_cell_volume 1527.694773
_symmetry_space_group_name_H-M "C 2/M"
_symmetry_group_IT_number 12
_symmetry_cell_setting 'monoclinic'
loop_
_space_group_symop_operation_xyz
x,y,z
-x,y,-z
-x,-y,-z
x,-y,z
1/2+x,1/2+y,z
1/2-x,1/2+y,-z
1/2-x,1/2-y,-z
1/2+x,1/2-y,z
loop_
_atom_site_type_symbol
_atom_site_label
_atom_site_fract_x
_atom_site_fract_y
_atom_site_fract_z
Si Si1 0.248205 0.500000 0.271429
Si Si2 0.816787 0.195314 0.402324
Si Si3 0.644923 0.300998 0.041059
Si Si4 0.612687 0.000000 0.637594
Si Si5 0.478456 0.812354 0.715740
Si Si6 0.794062 0.000000 0.842206
O O1 0.294304 0.590446 0.304089
O O2 0.258978 0.500000 0.530237
O O3 0.148359 0.500000 0.947427
O O4 0.730107 0.255537 0.159415
O O5 0.837942 0.197544 0.684452
O O6 0.899787 0.238534 0.506825
O O7 0.647419 0.407977 0.986411
O O8 0.561937 0.233587 0.821023
O O9 0.557490 0.090712 0.450476
O O10 0.703728 0.000000 0.739930
O O11 0.500000 0.824258 0.000000
#
# Coordination Sequence:
#
# PCOD9204557 Si02
#       6
#     4   8   8   4   8   4
#     4  10  24  37  66  94 128 164 216 259 322 382
#     4   9  18  37  58  88 127 169 201 262 319 370
#     4   9  18  35  64  91 122 166 212 257 317 375
#     4  12  23  41  66  96 125 174 210 262 323 372
#     4  10  21  36  64  95 125 165 217 260 314 379
#     4  10  20  42  70  90 125 174 209 261 319 378
#
# _framework density 23.564919
#
# number of rings (size 3 to 8) (size 9 to 14) (size 15 to 20)
#    0.000    2.222    2.222    0.333    3.111    2.667 
#    0.000    6.667    0.000    1.333    0.000    0.000 
#    0.000    0.000    0.000    0.000    0.000    0.000 
#
# Total GULP energy -100807.779917 kJ/mol
# GULP energy per Si atom -5600.432218 kJ/mol
# Density = 2.351128 g / cm^3
# Si number density = 23.564919 Si / 1000 Ang^3
#
#
#
# Elastic Constant Matrix: (Units=GPa)
#
#
# Indices 1 2 3 4 5 6 
#
# 1 118.2455 30.1416 25.7805 0.0000 7.2047 0.0000
# 2 30.1416 236.0544 66.1510 0.0000 27.8747 0.0000
# 3 25.7805 66.1510 115.9027 0.0000 6.5581 0.0000
# 4 0.0000 0.0000 0.0000 37.8232 0.0000 35.9174
# 5 7.2047 27.8747 6.5581 0.0000 50.4117 0.0000
# 6 0.0000 0.0000 0.0000 35.9174 0.0000 -29.4249
#
#
#
# Elastic Compliance Matrix: (Units=1/GPa)
#
#
# Indices 1 2 3 4 5 6 
#
# 1 0.009010 -0.000611 -0.001613 0.000000 -0.000740 0.000000
# 2 -0.000611 0.005399 -0.002802 0.000000 -0.002533 0.000000
# 3 -0.001613 -0.002802 0.010563 0.000000 0.000406 0.000000
# 4 0.000000 0.000000 0.000000 0.012245 0.000000 0.014947
# 5 -0.000740 -0.002533 0.000406 0.000000 0.021290 0.000000
# 6 0.000000 0.000000 0.000000 0.014947 0.000000 -0.015740
#
#
# Mechanical properties :
#
#
# Convention : Reuss Voigt Hill
#
# Bulk Modulus (GPa) = 67.03080 79.37208 73.20144
# Shear Modulus (GPa) = 86.51627 34.97064 60.74346
#
# Velocity S-wave (km/s) = 6.06578 3.85647 5.08262
# Velocity P-wave (km/s) = 8.80711 7.32019 8.09785
#
# Compressibility (1/GPa) = 0.01491852
#
# Stress axis : x y z
#
# Youngs Moduli (GPa) = 110.99317 185.22953 94.66901
#
# Poissons Ratio (x) = 0.11316 0.15275
# Poissons Ratio (y) = 0.06780 0.26527
# Poissons Ratio (z) = 0.17909 0.51902
#
# Static dielectric constant tensor:
#      x y z
#    x 1.934380 0.000000 -0.095550 
#    y 0.000000 1.837860 0.000000 
#    z -0.095550 0.000000 1.904400 
# 
# From -- ./inp_files/105127.got.cif
#   From: 2010.05.17/outbox.cif.g08.bks.cpg/sg12_53_cif.got.tgz:105127.got - 2010.06.03 13:09:07.
