data_PCOD9204577
_publ_section_title
;
Structure prediction by ZEFSAII (Michael W. Deem and Ramdas Pophale) SiO2 
 PCOD9204577
Probable space group: C 2/M
;
_chemical_formula_sum "Si O2"
_cell_formula_units_Z 50
_cell_length_a 19.718478
_cell_length_b 13.597050
_cell_length_c 9.033672
_cell_angle_alpha 90.000000
_cell_angle_beta 104.136265
_cell_angle_gamma 90.000000
_cell_volume 2348.700783
_symmetry_space_group_name_H-M "C 2/M"
_symmetry_group_IT_number 12
_symmetry_cell_setting 'monoclinic'
loop_
_space_group_symop_operation_xyz
x,y,z
-x,y,-z
-x,-y,-z
x,-y,z
1/2+x,1/2+y,z
1/2-x,1/2+y,-z
1/2-x,1/2-y,-z
1/2+x,1/2-y,z
loop_
_atom_site_type_symbol
_atom_site_label
_atom_site_fract_x
_atom_site_fract_y
_atom_site_fract_z
Si Si1 0.410456 0.000000 0.309294
Si Si2 0.826515 0.793299 0.010171
Si Si3 0.140942 0.290795 0.686052
Si Si4 0.424412 0.000000 0.662062
Si Si5 0.923085 0.817790 0.612855
Si Si6 0.000000 0.000000 0.500000
Si Si7 0.434751 0.822828 0.869043
Si Si8 0.714888 0.612452 0.295668
O O1 0.379783 0.894390 0.246585
O O2 0.399184 0.000000 0.480925
O O3 0.491443 0.000000 0.309809
O O4 0.857699 0.796539 0.191895
O O5 0.750000 0.750000 0.000000
O O6 0.875576 0.720474 0.942973
O O7 0.814395 0.881830 0.889341
O O8 0.089034 0.258569 0.528463
O O9 0.217904 0.316166 0.663836
O O10 0.403927 0.094025 0.746585
O O11 0.959462 0.762770 0.769753
O O12 0.846328 0.849434 0.630813
O O13 0.962772 0.913241 0.580358
O O14 0.500000 0.859251 0.000000
O O15 0.733662 0.500000 0.340311
#
# Coordination Sequence:
#
# PCOD9204577 Si02
#       8
#     4   8   8   4   8   2   8   8
#     4  11  22  35  64 100 122 166 212 259 319 385
#     4   9  22  40  62  90 126 171 208 264 317 378
#     4  11  21  41  69  92 127 166 215 264 324 382
#     4  11  23  38  58  97 134 165 206 260 320 387
#     4  11  25  43  64  91 127 169 219 265 321 381
#     4  12  28  42  66  92 132 168 218 280 308 378
#     4  11  23  41  65  93 131 170 210 262 325 387
#     4  10  20  43  64  93 125 166 215 267 326 380
#
# _framework density 21.288364000000001
#
# number of rings (size 3 to 8) (size 9 to 14) (size 15 to 20)
#    0.000    1.440    3.200    1.680    4.480    0.640 
#    2.880    0.400    0.000    0.000    0.000    0.000 
#    0.000    0.000    0.000    0.000    0.000    0.000 
#
# Total GULP energy -139311.204309 kJ/mol
# GULP energy per Si atom -5572.448172 kJ/mol
# Density = 2.123991 g / cm^3
# Si number density = 21.288364 Si / 1000 Ang^3
#
#
#
# Elastic Constant Matrix: (Units=GPa)
#
#
# Indices 1 2 3 4 5 6 
#
# 1 47.2908 -3.9211 2.8457 0.0000 -14.5278 0.0000
# 2 -3.9211 81.2445 11.2550 0.0000 -9.0364 0.0000
# 3 2.8457 11.2550 83.4895 0.0000 -5.2751 0.0000
# 4 0.0000 0.0000 0.0000 25.2435 0.0000 -3.2079
# 5 -14.5278 -9.0364 -5.2751 0.0000 24.0316 0.0000
# 6 0.0000 0.0000 0.0000 -3.2079 0.0000 16.9064
#
#
#
# Elastic Compliance Matrix: (Units=1/GPa)
#
#
# Indices 1 2 3 4 5 6 
#
# 1 0.026760 0.003256 -0.000255 0.000000 0.017345 0.000000
# 2 0.003256 0.013417 -0.001497 0.000000 0.006685 0.000000
# 3 -0.000255 -0.001497 0.012314 0.000000 0.001986 0.000000
# 4 0.000000 0.000000 0.000000 0.040593 0.000000 0.007702
# 5 0.017345 0.006685 0.001986 0.000000 0.055047 0.000000
# 6 0.000000 0.000000 0.000000 0.007702 0.000000 0.060611
#
#
# Mechanical properties :
#
#
# Convention : Reuss Voigt Hill
#
# Bulk Modulus (GPa) = 18.01893 25.82044 21.91969
# Shear Modulus (GPa) = 22.29831 26.69265 24.49548
#
# Velocity S-wave (km/s) = 3.23993 3.54483 3.39580
# Velocity P-wave (km/s) = 4.74118 5.37677 5.06895
#
# Compressibility (1/GPa) = 0.05549718
#
# Stress axis : x y z
#
# Youngs Moduli (GPa) = 37.36973 74.53449 81.21132
#
# Poissons Ratio (x) = -0.24269 0.02072
# Poissons Ratio (y) = -0.12168 0.12160
# Poissons Ratio (z) = 0.00953 0.11160
#
# Static dielectric constant tensor:
#      x y z
#    x 1.784220 0.000000 0.052630 
#    y 0.000000 1.759220 0.000000 
#    z 0.052630 0.000000 1.862200 
# 
# From -- ./inp_files/85925.got.cif
#   From: 2010.05.17/outbox.cif.g08.bks.cpg/sg12_43_cif.got.tgz:85925.got - 2010.06.03 13:09:07.
