data_PCOD9204349
_publ_section_title
;
Structure prediction by ZEFSAII (Michael W. Deem and Ramdas Pophale) SiO2 
 PCOD9204349
Probable space group: C 2/M
;
_chemical_formula_sum "Si O2"
_cell_formula_units_Z 40
_cell_length_a 11.093461
_cell_length_b 24.747343
_cell_length_c 9.186262
_cell_angle_alpha 90.000000
_cell_angle_beta 122.156138
_cell_angle_gamma 90.000000
_cell_volume 2135.075164
_symmetry_space_group_name_H-M "C 2/M"
_symmetry_group_IT_number 12
_symmetry_cell_setting 'monoclinic'
loop_
_space_group_symop_operation_xyz
x,y,z
-x,y,-z
-x,-y,-z
x,-y,z
1/2+x,1/2+y,z
1/2-x,1/2+y,-z
1/2-x,1/2-y,-z
1/2+x,1/2-y,z
loop_
_atom_site_type_symbol
_atom_site_label
_atom_site_fract_x
_atom_site_fract_y
_atom_site_fract_z
Si Si1 0.120457 0.412236 0.702491
Si Si2 0.120008 0.500000 0.955479
Si Si3 0.071575 0.783619 0.202322
Si Si4 0.067049 0.000000 0.704724
Si Si5 0.073866 0.906213 0.205733
Si Si6 0.883951 0.286547 0.299866
O O1 0.104812 0.449169 0.834894
O O2 0.267447 0.427156 0.718597
O O3 0.137779 0.349147 0.759799
O O4 0.000000 0.417422 0.500000
O O5 0.266512 0.500000 0.142731
O O6 0.000000 0.500000 0.000000
O O7 0.080036 0.844820 0.267977
O O8 0.234605 0.765356 0.272574
O O9 0.963245 0.747971 0.227410
O O10 0.000000 0.787363 0.000000
O O11 0.000000 0.000000 0.500000
O O12 0.007627 0.946310 0.742717
O O13 0.000000 0.906232 0.000000
O O14 0.000000 0.288215 0.500000
#
# Coordination Sequence:
#
# PCOD9204349 Si02
#       6
#     8   4   8   4   8   8
#     4  10  22  40  65  87 119 164 204 235 296 369
#     4  12  26  42  58  92 127 150 195 259 308 350
#     4  10  21  37  62  90 120 157 204 244 299 355
#     4  12  26  41  62  92 119 153 200 256 309 345
#     4  10  20  41  65  84 114 163 208 242 290 366
#     4  10  21  39  60  92 121 159 199 247 296 357
#
# _framework density 18.734705000000002
#
# number of rings (size 3 to 8) (size 9 to 14) (size 15 to 20)
#    0.000    1.600    2.000    2.400    2.800    1.600 
#    3.600    0.000    0.000    0.000    0.000    0.000 
#    0.000    0.000    0.000    0.000    0.000    0.000 
#
# Total GULP energy -111495.785311 kJ/mol
# GULP energy per Si atom -5574.789266 kJ/mol
# Density = 1.869206 g / cm^3
# Si number density = 18.734705 Si / 1000 Ang^3
#
#
#
# Elastic Constant Matrix: (Units=GPa)
#
#
# Indices 1 2 3 4 5 6 
#
# 1 174.2220 66.9527 46.1110 0.0000 13.8606 0.0000
# 2 66.9527 87.3241 26.1118 0.0000 -22.2477 0.0000
# 3 46.1110 26.1118 80.1956 0.0000 5.8050 0.0000
# 4 0.0000 0.0000 0.0000 115.2345 0.0000 -10.6452
# 5 13.8606 -22.2477 5.8050 0.0000 40.9084 0.0000
# 6 0.0000 0.0000 0.0000 -10.6452 0.0000 23.0203
#
#
#
# Elastic Compliance Matrix: (Units=1/GPa)
#
#
# Indices 1 2 3 4 5 6 
#
# 1 0.010825 -0.009780 -0.002414 0.000000 -0.008644 0.000000
# 2 -0.009780 0.024356 -0.003542 0.000000 0.017062 0.000000
# 3 -0.002414 -0.003542 0.015248 0.000000 -0.003272 0.000000
# 4 0.000000 0.000000 0.000000 0.009065 0.000000 0.004192
# 5 -0.008644 0.017062 -0.003272 0.000000 0.037117 0.000000
# 6 0.000000 0.000000 0.000000 0.004192 0.000000 0.045378
#
#
# Mechanical properties :
#
#
# Convention : Reuss Voigt Hill
#
# Bulk Modulus (GPa) = 52.75250 68.89919 60.82585
# Shear Modulus (GPa) = 27.81177 49.33705 38.57441
#
# Velocity S-wave (km/s) = 3.85711 5.13729 4.54252
# Velocity P-wave (km/s) = 6.93218 8.48794 7.74920
#
# Compressibility (1/GPa) = 0.01895645
#
# Stress axis : x y z
#
# Youngs Moduli (GPa) = 92.38108 41.05754 65.58361
#
# Poissons Ratio (x) = 0.40154 0.15832
# Poissons Ratio (y) = 0.90347 0.23231
# Poissons Ratio (z) = 0.22301 0.14543
#
# Static dielectric constant tensor:
#      x y z
#    x 1.662680 0.000000 0.045530 
#    y 0.000000 1.691040 0.000000 
#    z 0.045530 0.000000 1.655290 
# 
# From -- ./inp_files/50981.got.cif
#   From: 2010.05.17/outbox.cif.g08.bks.cpg/sg12_26_cif.got.tgz:50981.got - 2010.06.03 13:09:07.
