data_PCOD9204238
_publ_section_title
;
Structure prediction by ZEFSAII (Michael W. Deem and Ramdas Pophale) SiO2 
 PCOD9204238
Probable space group: C 2/M
;
_chemical_formula_sum "Si O2"
_cell_formula_units_Z 52
_cell_length_a 8.897599
_cell_length_b 16.890814
_cell_length_c 17.499560
_cell_angle_alpha 90.000000
_cell_angle_beta 92.111133
_cell_angle_gamma 90.000000
_cell_volume 2628.183366
_symmetry_space_group_name_H-M "C 2/M"
_symmetry_group_IT_number 12
_symmetry_cell_setting 'monoclinic'
loop_
_space_group_symop_operation_xyz
x,y,z
-x,y,-z
-x,-y,-z
x,-y,z
1/2+x,1/2+y,z
1/2-x,1/2+y,-z
1/2-x,1/2-y,-z
1/2+x,1/2-y,z
loop_
_atom_site_type_symbol
_atom_site_label
_atom_site_fract_x
_atom_site_fract_y
_atom_site_fract_z
Si Si1 0.833069 0.712075 0.752852
Si Si2 0.759861 0.685418 0.396840
Si Si3 0.330418 0.589760 0.154583
Si Si4 0.500000 0.284137 0.500000
Si Si5 0.407211 0.912702 0.279210
Si Si6 0.829335 0.869130 0.849347
Si Si7 0.679266 0.837367 0.002754
O O1 0.791265 0.757591 0.674316
O O2 0.705792 0.651288 0.778533
O O3 0.849711 0.778286 0.819450
O O4 0.979252 0.657505 0.742790
O O5 0.613497 0.669654 0.446002
O O6 0.887603 0.730215 0.447740
O O7 0.836275 0.609963 0.359281
O O8 0.290439 0.500000 0.173821
O O9 0.505870 0.595781 0.139235
O O10 0.237515 0.617972 0.078885
O O11 0.270374 0.909814 0.217192
O O12 0.476602 0.000000 0.280474
O O13 0.739960 0.876262 0.926419
O O14 0.500000 0.832788 0.000000
O O15 0.750000 0.750000 0.000000
#
# Coordination Sequence:
#
# PCOD9204238 Si02
#       7
#     8   8   8   4   8   8   8
#     4  11  22  40  65  94 123 172 216 254 308 377
#     4  10  21  39  68  96 121 167 205 257 296 383
#     4  12  26  41  64  97 131 165 213 270 322 368
#     4  10  20  40  68  96 124 154 216 250 304 364
#     4  11  23  40  62  94 132 166 206 259 316 369
#     4  11  23  41  66  91 125 171 216 263 309 379
#     4  12  25  42  66  92 123 170 219 267 317 375
#
# _framework density 19.785530999999999
#
# number of rings (size 3 to 8) (size 9 to 14) (size 15 to 20)
#    0.000    0.923    3.077    5.077    2.154    2.154 
#    0.000    0.769    0.000    0.000    0.000    0.000 
#    0.000    0.000    0.000    0.000    0.000    0.000 
#
# Total GULP energy -145339.528457 kJ/mol
# GULP energy per Si atom -5589.981864 kJ/mol
# Density = 1.974050 g / cm^3
# Si number density = 19.785531 Si / 1000 Ang^3
#
#
#
# Elastic Constant Matrix: (Units=GPa)
#
#
# Indices 1 2 3 4 5 6 
#
# 1 129.8871 9.6067 25.9220 0.0000 -11.0038 0.0000
# 2 9.6067 98.2107 6.7278 0.0000 -4.5683 0.0000
# 3 25.9220 6.7278 77.2974 0.0000 -12.5973 0.0000
# 4 0.0000 0.0000 0.0000 4.3830 0.0000 5.2923
# 5 -11.0038 -4.5683 -12.5973 0.0000 44.1569 0.0000
# 6 0.0000 0.0000 0.0000 5.2923 0.0000 -17.5783
#
#
#
# Elastic Compliance Matrix: (Units=1/GPa)
#
#
# Indices 1 2 3 4 5 6 
#
# 1 0.008359 -0.000583 -0.002541 0.000000 0.001298 0.000000
# 2 -0.000583 0.010314 -0.000579 0.000000 0.000757 0.000000
# 3 -0.002541 -0.000579 0.014396 0.000000 0.003414 0.000000
# 4 0.000000 0.000000 0.000000 0.167327 0.000000 0.050377
# 5 0.001298 0.000757 0.003414 0.000000 0.024022 0.000000
# 6 0.000000 0.000000 0.000000 0.050377 0.000000 -0.041721
#
#
# Mechanical properties :
#
#
# Convention : Reuss Voigt Hill
#
# Bulk Modulus (GPa) = 38.96651 43.32313 41.14482
# Shear Modulus (GPa) = 25.16890 23.73490 24.45190
#
# Velocity S-wave (km/s) = 3.57050 3.46729 3.51928
# Velocity P-wave (km/s) = 6.06095 6.16226 6.11182
#
# Compressibility (1/GPa) = 0.02566306
#
# Stress axis : x y z
#
# Youngs Moduli (GPa) = 119.62864 96.95480 69.46410
#
# Poissons Ratio (x) = 0.05655 0.17651
# Poissons Ratio (y) = 0.06977 0.04021
# Poissons Ratio (z) = 0.30398 0.05612
#
# Static dielectric constant tensor:
#      x y z
#    x 1.689810 0.000000 -0.025820 
#    y 0.000000 1.703030 0.000000 
#    z -0.025820 0.000000 1.703050 
# 
# From -- ./inp_files/256621.got.cif
#   From: 2010.05.17/outbox.cif.g08.bks.cpg/sg12_129_cif.got.tgz:256621.got - 2010.06.03 13:09:07.
