data_PCOD9204018
_publ_section_title
;
Structure prediction by ZEFSAII (Michael W. Deem and Ramdas Pophale) SiO2 
 PCOD9204018
Probable space group: C 2/M
;
_chemical_formula_sum "Si O2"
_cell_formula_units_Z 44
_cell_length_a 11.538975
_cell_length_b 21.365489
_cell_length_c 12.959817
_cell_angle_alpha 90.000000
_cell_angle_beta 142.173752
_cell_angle_gamma 90.000000
_cell_volume 1959.430798
_symmetry_space_group_name_H-M "C 2/M"
_symmetry_group_IT_number 12
_symmetry_cell_setting 'monoclinic'
loop_
_space_group_symop_operation_xyz
x,y,z
-x,y,-z
-x,-y,-z
x,-y,z
1/2+x,1/2+y,z
1/2-x,1/2+y,-z
1/2-x,1/2-y,-z
1/2+x,1/2-y,z
loop_
_atom_site_type_symbol
_atom_site_label
_atom_site_fract_x
_atom_site_fract_y
_atom_site_fract_z
Si Si1 0.195978 0.598176 0.334136
Si Si2 0.058294 0.500000 0.714435
Si Si3 0.063630 0.162339 0.876709
Si Si4 0.405516 0.428206 0.278529
Si Si5 0.440786 0.781156 0.673820
Si Si6 0.290349 0.867613 0.245445
O O1 0.396136 0.596798 0.535991
O O2 0.249601 0.576533 0.257788
O O3 0.113530 0.667428 0.278974
O O4 0.053018 0.553759 0.294061
O O5 0.161001 0.441740 0.722388
O O6 0.144130 0.111005 0.855665
O O7 0.063854 0.227494 0.815224
O O8 0.846973 0.146872 0.755736
O O9 0.176318 0.152775 0.061596
O O10 0.435934 0.500000 0.272137
O O11 0.250000 0.750000 0.500000
O O12 0.534307 0.820500 0.646058
#
# Coordination Sequence:
#
# PCOD9204018 Si02
#       6
#     8   4   8   8   8   8
#     4  10  20  40  63  93 130 162 205 275 310 377
#     4  10  20  44  62  90 128 167 211 264 324 367
#     4  11  25  43  64  95 127 172 211 259 319 386
#     4  11  21  37  66  95 127 163 215 259 322 376
#     4  11  23  43  67  95 126 166 216 259 323 374
#     4  10  26  44  66  89 133 170 209 264 316 386
#
# _framework density 22.455501000000002
#
# number of rings (size 3 to 8) (size 9 to 14) (size 15 to 20)
#    0.000    1.455    3.636    1.091    5.091    1.455 
#    0.000    4.545    0.000    0.000    0.000    0.000 
#    0.000    0.000    0.000    0.000    0.000    0.000 
#
# Total GULP energy -122477.467227 kJ/mol
# GULP energy per Si atom -5567.157601 kJ/mol
# Density = 2.240439 g / cm^3
# Si number density = 22.455501 Si / 1000 Ang^3
#
#
#
# Elastic Constant Matrix: (Units=GPa)
#
#
# Indices 1 2 3 4 5 6 
#
# 1 85.9127 -26.8558 -7.3687 0.0000 8.7149 0.0000
# 2 -26.8558 283.6291 19.3318 0.0000 14.4168 0.0000
# 3 -7.3687 19.3318 45.8166 0.0000 2.9465 0.0000
# 4 0.0000 0.0000 0.0000 -1.5469 0.0000 -0.7143
# 5 8.7149 14.4168 2.9465 0.0000 29.7510 0.0000
# 6 0.0000 0.0000 0.0000 -0.7143 0.0000 22.7665
#
#
#
# Elastic Compliance Matrix: (Units=1/GPa)
#
#
# Indices 1 2 3 4 5 6 
#
# 1 0.012659 0.001307 0.001775 0.000000 -0.004517 0.000000
# 2 0.001307 0.003844 -0.001275 0.000000 -0.002119 0.000000
# 3 0.001775 -0.001275 0.022789 0.000000 -0.002159 0.000000
# 4 0.000000 0.000000 0.000000 -0.637207 0.000000 -0.019992
# 5 -0.004517 -0.002119 -0.002159 0.000000 0.036176 0.000000
# 6 0.000000 0.000000 0.000000 -0.019992 0.000000 0.043297
#
#
# Mechanical properties :
#
#
# Convention : Reuss Voigt Hill
#
# Bulk Modulus (GPa) = 23.30734 42.84144 33.07439
# Shear Modulus (GPa) = -9.84730 38.87753 14.51512
#
# Velocity S-wave (km/s) = -2.09637 4.16542 2.54519
# Velocity P-wave (km/s) = 2.13124 6.50032 4.83716
#
# Compressibility (1/GPa) = 0.04290494
#
# Stress axis : x y z
#
# Youngs Moduli (GPa) = 78.99621 260.13382 43.88158
#
# Poissons Ratio (x) = -0.34006 -0.07788
# Poissons Ratio (y) = -0.10327 0.05597
# Poissons Ratio (z) = -0.14021 0.33179
#
# Static dielectric constant tensor:
#      x y z
#    x 1.811010 0.000000 0.053980 
#    y 0.000000 1.839630 0.000000 
#    z 0.053980 0.000000 1.948370 
# 
# From -- ./inp_files/207822.got.cif
#   From: 2010.05.17/outbox.cif.g08.bks.cpg/sg12_104_cif.got.tgz:207822.got - 2010.06.03 13:09:07.
