data_PCOD9204503
_publ_section_title
;
Structure prediction by ZEFSAII (Michael W. Deem and Ramdas Pophale) SiO2 
 PCOD9204503
Probable space group: C 2/M
;
_chemical_formula_sum "Si O2"
_cell_formula_units_Z 52
_cell_length_a 18.177262
_cell_length_b 11.927243
_cell_length_c 16.633314
_cell_angle_alpha 90.000000
_cell_angle_beta 45.812190
_cell_angle_gamma 90.000000
_cell_volume 2585.843051
_symmetry_space_group_name_H-M "C 2/M"
_symmetry_group_IT_number 12
_symmetry_cell_setting 'monoclinic'
loop_
_space_group_symop_operation_xyz
x,y,z
-x,y,-z
-x,-y,-z
x,-y,z
1/2+x,1/2+y,z
1/2-x,1/2+y,-z
1/2-x,1/2-y,-z
1/2+x,1/2-y,z
loop_
_atom_site_type_symbol
_atom_site_label
_atom_site_fract_x
_atom_site_fract_y
_atom_site_fract_z
Si Si1 0.907019 0.245895 0.005183
Si Si2 0.946909 0.000000 0.950011
Si Si3 0.629775 0.263228 0.581791
Si Si4 0.751935 0.794621 0.746307
Si Si5 0.116883 0.374828 0.436743
Si Si6 0.561694 0.132737 0.780056
Si Si7 0.591919 0.500000 0.363651
Si Si8 0.036741 0.000000 0.700233
O O1 0.888616 0.118069 0.993083
O O2 0.957424 0.318615 0.896801
O O3 0.807587 0.295080 0.123739
O O4 0.000000 0.244063 0.000000
O O5 0.010375 0.000000 0.816380
O O6 0.000000 0.000000 0.000000
O O7 0.750000 0.250000 0.500000
O O8 0.611504 0.224321 0.505777
O O9 0.571651 0.174951 0.682216
O O10 0.597795 0.386853 0.632684
O O11 0.805343 0.675225 0.688429
O O12 0.661204 0.816738 0.750622
O O13 0.836703 0.891311 0.677988
O O14 0.151553 0.500000 0.437632
O O15 0.000000 0.386119 0.500000
O O16 0.565506 0.000000 0.785423
O O17 0.500000 0.500000 0.500000
O O18 0.551795 0.500000 0.301600
#
# Coordination Sequence:
#
# PCOD9204503 Si02
#       8
#     8   4   8   8   8   8   4   4
#     4   9  21  37  64  95 128 164 213 275 329 395
#     4  10  20  42  64  96 130 168 216 273 342 389
#     4  12  25  39  66  99 130 168 221 280 337 399
#     4  11  22  40  67  96 128 179 219 266 332 403
#     4  11  25  44  65  92 135 176 219 272 341 407
#     4  11  22  38  63  99 134 162 213 278 337 389
#     4  12  26  44  69  96 141 184 229 270 327 414
#     4  12  26  44  68  96 135 177 224 279 338 398
#
# _framework density 20.109494999999999
#
# number of rings (size 3 to 8) (size 9 to 14) (size 15 to 20)
#    0.000    1.077    3.846    2.769    4.308    0.923 
#    1.385    0.769    0.000    0.000    0.000    0.000 
#    0.000    0.000    0.000    0.000    0.000    0.000 
#
# Total GULP energy -145059.979342 kJ/mol
# GULP energy per Si atom -5579.229975 kJ/mol
# Density = 2.006372 g / cm^3
# Si number density = 20.109495 Si / 1000 Ang^3
#
#
#
# Elastic Constant Matrix: (Units=GPa)
#
#
# Indices 1 2 3 4 5 6 
#
# 1 43.9875 9.4652 23.4346 0.0000 1.5040 0.0000
# 2 9.4652 108.9812 43.3096 0.0000 -15.7185 0.0000
# 3 23.4346 43.3096 151.9479 0.0000 -6.1002 0.0000
# 4 0.0000 0.0000 0.0000 51.5857 0.0000 13.7268
# 5 1.5040 -15.7185 -6.1002 0.0000 23.6306 0.0000
# 6 0.0000 0.0000 0.0000 13.7268 0.0000 12.9260
#
#
#
# Elastic Compliance Matrix: (Units=1/GPa)
#
#
# Indices 1 2 3 4 5 6 
#
# 1 0.025054 -0.001205 -0.003655 0.000000 -0.003340 0.000000
# 2 -0.001205 0.011386 -0.002781 0.000000 0.006932 0.000000
# 3 -0.003655 -0.002781 0.007955 0.000000 0.000436 0.000000
# 4 0.000000 0.000000 0.000000 0.027021 0.000000 -0.028695
# 5 -0.003340 0.006932 0.000436 0.000000 0.047254 0.000000
# 6 0.000000 0.000000 0.000000 -0.028695 0.000000 0.107836
#
#
# Mechanical properties :
#
#
# Convention : Reuss Voigt Hill
#
# Bulk Modulus (GPa) = 34.34891 50.81503 42.58197
# Shear Modulus (GPa) = 19.88131 32.87559 26.37845
#
# Velocity S-wave (km/s) = 3.14770 4.04769 3.62573
# Velocity P-wave (km/s) = 5.50715 6.86797 6.22486
#
# Compressibility (1/GPa) = 0.02911300
#
# Stress axis : x y z
#
# Youngs Moduli (GPa) = 39.91329 87.83005 125.70660
#
# Poissons Ratio (x) = 0.10587 0.45941
# Poissons Ratio (y) = 0.04811 0.34959
# Poissons Ratio (z) = 0.14587 0.24426
#
# Static dielectric constant tensor:
#      x y z
#    x 1.716880 0.000000 0.033620 
#    y 0.000000 1.876900 0.000000 
#    z 0.033620 0.000000 1.705710 
# 
# From -- ./inp_files/283257.got.cif
#   From: 2010.05.17/outbox.cif.g08.bks.cpg/sg12_142_cif.got.tgz:283257.got - 2010.06.03 13:09:07.
