data_PCOD9204946
_publ_section_title
;
Structure prediction by ZEFSAII (Michael W. Deem and Ramdas Pophale) SiO2 
 PCOD9204946
Probable space group: C 2/M
;
_chemical_formula_sum "Si O2"
_cell_formula_units_Z 60
_cell_length_a 5.415818
_cell_length_b 30.303311
_cell_length_c 17.325388
_cell_angle_alpha 90.000000
_cell_angle_beta 58.197093
_cell_angle_gamma 90.000000
_cell_volume 2416.504155
_symmetry_space_group_name_H-M "C 2/M"
_symmetry_group_IT_number 12
_symmetry_cell_setting 'monoclinic'
loop_
_space_group_symop_operation_xyz
x,y,z
-x,y,-z
-x,-y,-z
x,-y,z
1/2+x,1/2+y,z
1/2-x,1/2+y,-z
1/2-x,1/2-y,-z
1/2+x,1/2-y,z
loop_
_atom_site_type_symbol
_atom_site_label
_atom_site_fract_x
_atom_site_fract_y
_atom_site_fract_z
Si Si1 0.500000 0.905236 0.000000
Si Si2 0.175352 0.223722 0.616997
Si Si3 0.774031 0.224834 0.835185
Si Si4 0.771963 0.661692 0.920004
Si Si5 0.073268 0.384066 0.248413
Si Si6 0.881480 0.547179 0.163520
Si Si7 0.447920 0.630120 0.417898
Si Si8 0.224042 0.051027 0.649244
O O1 0.287036 0.877838 0.980517
O O2 0.682056 0.934363 0.910086
O O3 0.971620 0.251244 0.591365
O O4 0.975712 0.221045 0.726401
O O5 0.222207 0.173262 0.583205
O O6 0.995213 0.244480 0.860553
O O7 0.598457 0.180290 0.879318
O O8 0.757475 0.653484 0.828849
O O9 0.500000 0.688052 0.000000
O O10 0.146110 0.412869 0.312143
O O11 0.070739 0.419905 0.181462
O O12 0.754301 0.366327 0.321826
O O13 0.024928 0.500000 0.133579
O O14 0.592001 0.544425 0.261690
O O15 0.500000 0.633528 0.500000
O O16 0.316779 0.581622 0.419851
O O17 0.345141 0.000000 0.621810
#
# Coordination Sequence:
#
# PCOD9204946 Si02
#       8
#     4   8   8   8   8   8   8   8
#     4  10  21  34  52  88 122 162 212 272 332 400
#     4  10  23  45  72 105 139 181 231 293 359 422
#     4  10  23  41  65  93 129 176 226 281 345 412
#     4  11  23  37  59  89 126 170 219 274 336 404
#     4  10  21  40  62  91 128 173 220 282 335 406
#     4   9  18  35  58  86 121 165 215 271 334 399
#     4  11  25  43  68 100 134 176 225 282 352 422
#     4  10  22  40  66  95 132 179 228 278 342 413
#
# _framework density 24.829253000000001
#
# number of rings (size 3 to 8) (size 9 to 14) (size 15 to 20)
#    0.000    1.867    1.333    1.400    3.733    3.467 
#    0.000    0.667    0.000    6.400    0.000    0.000 
#    0.000    0.000    0.000    0.000    0.000    0.000 
#
# Total GULP energy -167360.197365 kJ/mol
# GULP energy per Si atom -5578.673245 kJ/mol
# Density = 2.477274 g / cm^3
# Si number density = 24.829253 Si / 1000 Ang^3
#
#
#
# Elastic Constant Matrix: (Units=GPa)
#
#
# Indices 1 2 3 4 5 6 
#
# 1 83.9663 30.1787 32.3105 0.0000 -15.6801 0.0000
# 2 30.1787 99.7970 36.9589 0.0000 9.4150 0.0000
# 3 32.3105 36.9589 115.4845 0.0000 -2.3016 0.0000
# 4 0.0000 0.0000 0.0000 28.8114 0.0000 31.4710
# 5 -15.6801 9.4150 -2.3016 0.0000 36.7095 0.0000
# 6 0.0000 0.0000 0.0000 31.4710 0.0000 38.7957
#
#
#
# Elastic Compliance Matrix: (Units=1/GPa)
#
#
# Indices 1 2 3 4 5 6 
#
# 1 0.016130 -0.004546 -0.002901 0.000000 0.007874 0.000000
# 2 -0.004546 0.013024 -0.003005 0.000000 -0.005471 0.000000
# 3 -0.002901 -0.003005 0.010436 0.000000 0.000186 0.000000
# 4 0.000000 0.000000 0.000000 0.304675 0.000000 -0.247152
# 5 0.007874 -0.005471 0.000186 0.000000 0.032019 0.000000
# 6 0.000000 0.000000 0.000000 -0.247152 0.000000 0.226265
#
#
# Mechanical properties :
#
#
# Convention : Reuss Voigt Hill
#
# Bulk Modulus (GPa) = 53.51703 55.34932 54.43318
# Shear Modulus (GPa) = 7.94050 34.18330 21.06190
#
# Velocity S-wave (km/s) = 1.79025 3.71446 2.91567
# Velocity P-wave (km/s) = 5.08666 6.38253 5.77108
#
# Compressibility (1/GPa) = 0.01868564
#
# Stress axis : x y z
#
# Youngs Moduli (GPa) = 61.99519 76.78005 95.81914
#
# Poissons Ratio (x) = 0.34906 0.27798
# Poissons Ratio (y) = 0.28185 0.28796
# Poissons Ratio (z) = 0.17985 0.23074
#
# Static dielectric constant tensor:
#      x y z
#    x 2.191140 0.000000 -0.096650 
#    y 0.000000 2.176750 0.000000 
#    z -0.096650 0.000000 2.017240 
# 
# From -- ./inp_files/253994.got.cif
#   From: 2010.05.17/outbox.cif.g08.bks.cpg/sg12_127_cif.got.tgz:253994.got - 2010.06.03 13:09:07.
