data_PCOD9204063
_publ_section_title
;
Structure prediction by ZEFSAII (Michael W. Deem and Ramdas Pophale) SiO2 
 PCOD9204063
Probable space group: C 2/M
;
_chemical_formula_sum "Si O2"
_cell_formula_units_Z 56
_cell_length_a 26.848555
_cell_length_b 13.526475
_cell_length_c 8.290407
_cell_angle_alpha 90.000000
_cell_angle_beta 60.304346
_cell_angle_gamma 90.000000
_cell_volume 2615.385868
_symmetry_space_group_name_H-M "C 2/M"
_symmetry_group_IT_number 12
_symmetry_cell_setting 'monoclinic'
loop_
_space_group_symop_operation_xyz
x,y,z
-x,y,-z
-x,-y,-z
x,-y,z
1/2+x,1/2+y,z
1/2-x,1/2+y,-z
1/2-x,1/2-y,-z
1/2+x,1/2-y,z
loop_
_atom_site_type_symbol
_atom_site_label
_atom_site_fract_x
_atom_site_fract_y
_atom_site_fract_z
Si Si1 0.154410 0.759078 0.077320
Si Si2 0.938665 0.110018 0.919258
Si Si3 0.288154 0.885413 0.266312
Si Si4 0.066960 0.611739 0.380679
Si Si5 0.333760 0.617333 0.630630
Si Si6 0.442648 0.314224 0.257129
Si Si7 0.103297 0.390591 0.693329
O O1 0.120926 0.843238 0.034936
O O2 0.105170 0.684442 0.216634
O O3 0.180022 0.816202 0.190333
O O4 0.193490 0.693706 0.897774
O O5 0.994015 0.172390 0.774368
O O6 0.944886 0.000000 0.845537
O O7 0.939109 0.112306 0.112217
O O8 0.220347 0.872669 0.403666
O O9 0.331966 0.875461 0.345882
O O10 0.295042 0.000000 0.197369
O O11 0.068476 0.500000 0.311666
O O12 0.094844 0.609483 0.514420
O O13 0.000000 0.639501 0.500000
O O14 0.340181 0.500000 0.657170
O O15 0.392222 0.659176 0.460819
O O16 0.432815 0.205129 0.198740
O O17 0.084669 0.500000 0.781280
#
# Coordination Sequence:
#
# PCOD9204063 Si02
#       7
#     8   8   8   8   8   8   8
#     4  12  22  39  62  90 128 163 207 257 318 363
#     4  11  24  40  63  92 126 162 205 256 316 378
#     4  10  23  43  63  91 125 166 214 262 310 367
#     4  10  21  38  60  91 125 159 201 253 315 379
#     4  11  24  41  64  90 124 168 218 260 305 368
#     4  11  21  43  64  89 125 163 205 259 314 370
#     4  10  20  40  64  91 122 159 209 257 306 374
#
# _framework density 21.411754999999999
#
# number of rings (size 3 to 8) (size 9 to 14) (size 15 to 20)
#    0.000    1.286    2.857    3.857    0.000    0.571 
#    0.000    3.571    0.000    0.000    0.000    0.000 
#    0.000    0.000    0.000    0.000    0.000    0.000 
#
# Total GULP energy -156304.354092 kJ/mol
# GULP energy per Si atom -5582.298360 kJ/mol
# Density = 2.136302 g / cm^3
# Si number density = 21.411755 Si / 1000 Ang^3
#
#
#
# Elastic Constant Matrix: (Units=GPa)
#
#
# Indices 1 2 3 4 5 6 
#
# 1 55.5269 3.6705 17.3733 0.0000 -0.0120 0.0000
# 2 3.6705 104.1530 0.6413 0.0000 -9.6271 0.0000
# 3 17.3733 0.6413 38.5009 0.0000 -3.3588 0.0000
# 4 0.0000 0.0000 0.0000 24.2344 0.0000 0.4536
# 5 -0.0120 -9.6271 -3.3588 0.0000 22.6709 0.0000
# 6 0.0000 0.0000 0.0000 0.4536 0.0000 17.7862
#
#
#
# Elastic Compliance Matrix: (Units=1/GPa)
#
#
# Indices 1 2 3 4 5 6 
#
# 1 0.021086 -0.000848 -0.009656 0.000000 -0.001780 0.000000
# 2 -0.000848 0.010029 0.000595 0.000000 0.004347 0.000000
# 3 -0.009656 0.000595 0.030740 0.000000 0.004802 0.000000
# 4 0.000000 0.000000 0.000000 0.041283 0.000000 -0.001053
# 5 -0.001780 0.004347 0.004802 0.000000 0.046665 0.000000
# 6 0.000000 0.000000 0.000000 -0.001053 0.000000 0.056250
#
#
# Mechanical properties :
#
#
# Convention : Reuss Voigt Hill
#
# Bulk Modulus (GPa) = 23.78899 26.83900 25.31399
# Shear Modulus (GPa) = 20.84331 24.70469 22.77400
#
# Velocity S-wave (km/s) = 3.12340 3.40044 3.26486
# Velocity P-wave (km/s) = 4.91344 5.28954 5.10495
#
# Compressibility (1/GPa) = 0.04203626
#
# Stress axis : x y z
#
# Youngs Moduli (GPa) = 47.42442 99.70846 32.53120
#
# Poissons Ratio (x) = 0.08457 0.31413
# Poissons Ratio (y) = 0.04022 -0.01935
# Poissons Ratio (z) = 0.45794 -0.05931
#
# Static dielectric constant tensor:
#      x y z
#    x 1.792420 0.000000 0.023830 
#    y 0.000000 1.819690 0.000000 
#    z 0.023830 0.000000 1.751280 
# 
# From -- ./inp_files/104427.got.cif
#   From: 2010.05.17/outbox.cif.g08.bks.cpg/sg12_53_cif.got.tgz:104427.got - 2010.06.03 13:09:07.
