data_PCOD9204405
_publ_section_title
;
Structure prediction by ZEFSAII (Michael W. Deem and Ramdas Pophale) SiO2 
 PCOD9204405
Probable space group: C 2/M
;
_chemical_formula_sum "Si O2"
_cell_formula_units_Z 56
_cell_length_a 16.044919
_cell_length_b 19.037030
_cell_length_c 9.833707
_cell_angle_alpha 90.000000
_cell_angle_beta 115.259541
_cell_angle_gamma 90.000000
_cell_volume 2716.482464
_symmetry_space_group_name_H-M "C 2/M"
_symmetry_group_IT_number 12
_symmetry_cell_setting 'monoclinic'
loop_
_space_group_symop_operation_xyz
x,y,z
-x,y,-z
-x,-y,-z
x,-y,z
1/2+x,1/2+y,z
1/2-x,1/2+y,-z
1/2-x,1/2-y,-z
1/2+x,1/2-y,z
loop_
_atom_site_type_symbol
_atom_site_label
_atom_site_fract_x
_atom_site_fract_y
_atom_site_fract_z
Si Si1 0.652325 0.664828 0.959996
Si Si2 0.603388 0.201531 0.069318
Si Si3 0.342730 0.916826 0.079374
Si Si4 0.333638 0.079359 0.384263
Si Si5 0.151284 0.710825 0.412982
Si Si6 0.388129 0.419928 0.808928
Si Si7 0.490274 0.335009 0.646605
O O1 0.741937 0.618459 0.993222
O O2 0.589745 0.675446 0.784404
O O3 0.666759 0.741074 0.037688
O O4 0.599948 0.621511 0.042074
O O5 0.597549 0.129831 0.980518
O O6 0.639382 0.192633 0.246156
O O7 0.500000 0.232042 0.000000
O O8 0.340637 0.000000 0.049872
O O9 0.370302 0.907832 0.256719
O O10 0.357337 0.141218 0.502935
O O11 0.222373 0.081016 0.292601
O O12 0.360395 0.000000 0.444998
O O13 0.250000 0.750000 0.500000
O O14 0.069918 0.764160 0.396873
O O15 0.417018 0.500000 0.842951
O O16 0.436026 0.385134 0.712927
O O17 0.500000 0.361988 0.500000
#
# Coordination Sequence:
#
# PCOD9204405 Si02
#       7
#     8   8   8   8   8   8   8
#     4  11  21  43  65  94 132 175 223 272 323 394
#     4  12  24  42  68  99 133 170 224 284 333 390
#     4  10  24  43  69 100 131 175 226 273 334 402
#     4   9  20  40  66  94 127 173 225 270 320 395
#     4  12  23  41  67  94 131 179 223 271 336 399
#     4  10  20  41  67  92 130 177 219 259 324 399
#     4  12  26  38  60  99 137 166 217 277 332 388
#
# _framework density 20.614894
#
# number of rings (size 3 to 8) (size 9 to 14) (size 15 to 20)
#    0.000    1.143    4.286    3.000    4.000    2.857 
#    0.000    1.429    0.000    2.143    0.000    0.000 
#    0.000    0.000    0.000    0.000    0.000    0.000 
#
# Total GULP energy -156534.901091 kJ/mol
# GULP energy per Si atom -5590.532182 kJ/mol
# Density = 2.056797 g / cm^3
# Si number density = 20.614894 Si / 1000 Ang^3
#
#
#
# Elastic Constant Matrix: (Units=GPa)
#
#
# Indices 1 2 3 4 5 6 
#
# 1 35.8819 12.7958 11.6819 0.0000 -13.0660 0.0000
# 2 12.7958 140.5510 57.8757 0.0000 1.7099 0.0000
# 3 11.6819 57.8757 132.6911 0.0000 -8.0009 0.0000
# 4 0.0000 0.0000 0.0000 37.8925 0.0000 -5.7797
# 5 -13.0660 1.7099 -8.0009 0.0000 21.9002 0.0000
# 6 0.0000 0.0000 0.0000 -5.7797 0.0000 23.2538
#
#
#
# Elastic Compliance Matrix: (Units=1/GPa)
#
#
# Indices 1 2 3 4 5 6 
#
# 1 0.037433 -0.003513 -0.000409 0.000000 0.022458 0.000000
# 2 -0.003513 0.009098 -0.003914 0.000000 -0.004236 0.000000
# 3 -0.000409 -0.003914 0.009493 0.000000 0.003529 0.000000
# 4 0.000000 0.000000 0.000000 0.027430 0.000000 0.006818
# 5 0.022458 -0.004236 0.003529 0.000000 0.060680 0.000000
# 6 0.000000 0.000000 0.000000 0.006818 0.000000 0.044698
#
#
# Mechanical properties :
#
#
# Convention : Reuss Voigt Hill
#
# Bulk Modulus (GPa) = 24.78274 52.64785 38.71530
# Shear Modulus (GPa) = 22.94049 31.72735 27.33392
#
# Velocity S-wave (km/s) = 3.33950 3.92733 3.64528
# Velocity P-wave (km/s) = 5.18821 6.79407 6.04471
#
# Compressibility (1/GPa) = 0.04035067
#
# Stress axis : x y z
#
# Youngs Moduli (GPa) = 26.71455 109.91348 105.34614
#
# Poissons Ratio (x) = 0.38608 0.04312
# Poissons Ratio (y) = 0.09384 0.41237
# Poissons Ratio (z) = 0.01094 0.43025
#
# Static dielectric constant tensor:
#      x y z
#    x 1.776510 0.000000 0.017540 
#    y 0.000000 1.732330 0.000000 
#    z 0.017540 0.000000 1.707060 
# 
# From -- ./inp_files/76000.got.cif
#   From: 2010.05.17/outbox.cif.g08.bks.cpg/sg12_38_cif.got.tgz:76000.got - 2010.06.03 13:09:07.
