data_PCOD9204568
_publ_section_title
;
Structure prediction by ZEFSAII (Michael W. Deem and Ramdas Pophale) SiO2 
 PCOD9204568
Probable space group: C 2/M
;
_chemical_formula_sum "Si O2"
_cell_formula_units_Z 40
_cell_length_a 15.538199
_cell_length_b 21.456089
_cell_length_c 7.709057
_cell_angle_alpha 90.000000
_cell_angle_beta 43.910208
_cell_angle_gamma 90.000000
_cell_volume 1782.452113
_symmetry_space_group_name_H-M "C 2/M"
_symmetry_group_IT_number 12
_symmetry_cell_setting 'monoclinic'
loop_
_space_group_symop_operation_xyz
x,y,z
-x,y,-z
-x,-y,-z
x,-y,z
1/2+x,1/2+y,z
1/2-x,1/2+y,-z
1/2-x,1/2-y,-z
1/2+x,1/2-y,z
loop_
_atom_site_type_symbol
_atom_site_label
_atom_site_fract_x
_atom_site_fract_y
_atom_site_fract_z
Si Si1 0.000000 0.000000 0.500000
Si Si2 0.606301 0.931526 0.491676
Si Si3 0.740878 0.816255 0.780039
Si Si4 0.000000 0.611948 0.000000
Si Si5 0.789867 0.824647 0.121160
Si Si6 0.539996 0.393449 0.718946
Si Si7 0.500000 0.500000 0.000000
O O1 0.021059 0.944717 0.322952
O O2 0.500000 0.923055 0.500000
O O3 0.546798 0.927440 0.768295
O O4 0.702222 0.876078 0.331241
O O5 0.661569 0.000000 0.379807
O O6 0.612419 0.845940 0.905851
O O7 0.738175 0.742183 0.753833
O O8 0.850571 0.854305 0.527264
O O9 0.758685 0.822959 0.961313
O O10 0.932856 0.845113 0.926347
O O11 0.586697 0.443389 0.792971
#
# Coordination Sequence:
#
# PCOD9204568 Si02
#       7
#     2   8   8   4   8   8   2
#     4  10  20  42  76  98 134 184 242 296 366 428
#     4  11  26  48  74 106 149 197 245 299 366 448
#     4  11  26  46  75 106 149 191 248 305 374 443
#     4  12  27  49  72 111 143 202 242 308 366 449
#     4  11  25  46  77 105 144 195 246 309 371 448
#     4  11  24  46  71 110 140 194 241 313 366 437
#     4  10  28  44  68 108 154 182 252 306 374 434
#
# _framework density 22.440996999999999
#
# number of rings (size 3 to 8) (size 9 to 14) (size 15 to 20)
#    0.000    1.000    4.000    0.300    8.400    1.600 
#    5.400    0.000    0.000    0.000    0.000    0.000 
#    0.000    0.000    0.000    0.000    0.000    0.000 
#
# Total GULP energy -111349.428100 kJ/mol
# GULP energy per Si atom -5567.471405 kJ/mol
# Density = 2.238992 g / cm^3
# Si number density = 22.440997 Si / 1000 Ang^3
#
#
#
# Elastic Constant Matrix: (Units=GPa)
#
#
# Indices 1 2 3 4 5 6 
#
# 1 96.0263 37.0689 20.7587 0.0000 1.1777 0.0000
# 2 37.0689 218.1637 90.6655 0.0000 -10.0363 0.0000
# 3 20.7587 90.6655 123.6091 0.0000 -7.8634 0.0000
# 4 0.0000 0.0000 0.0000 56.9777 0.0000 -11.1525
# 5 1.1777 -10.0363 -7.8634 0.0000 22.5188 0.0000
# 6 0.0000 0.0000 0.0000 -11.1525 0.0000 -165.5138
#
#
#
# Elastic Compliance Matrix: (Units=1/GPa)
#
#
# Indices 1 2 3 4 5 6 
#
# 1 0.011242 -0.001664 -0.000769 0.000000 -0.001598 0.000000
# 2 -0.001664 0.006876 -0.004667 0.000000 0.001522 0.000000
# 3 -0.000769 -0.004667 0.011774 0.000000 0.002072 0.000000
# 4 0.000000 0.000000 0.000000 0.017322 0.000000 -0.001167
# 5 -0.001598 0.001522 0.002072 0.000000 0.045893 0.000000
# 6 0.000000 0.000000 0.000000 -0.001167 0.000000 -0.005963
#
#
# Mechanical properties :
#
#
# Convention : Reuss Voigt Hill
#
# Bulk Modulus (GPa) = 63.72796 81.64280 72.68538
# Shear Modulus (GPa) = 46.91507 2.08361 24.49934
#
# Velocity S-wave (km/s) = 4.57726 0.96462 3.30771
# Velocity P-wave (km/s) = 7.50965 6.14009 6.85914
#
# Compressibility (1/GPa) = 0.01569170
#
# Stress axis : x y z
#
# Youngs Moduli (GPa) = 88.95174 145.43104 84.93062
#
# Poissons Ratio (x) = 0.24201 0.06532
# Poissons Ratio (y) = 0.14802 0.39639
# Poissons Ratio (z) = 0.06841 0.67876
#
# Static dielectric constant tensor:
#      x y z
#    x -2.740360 0.000000 1.192350 
#    y 0.000000 1.776120 0.000000 
#    z 1.192350 0.000000 1.591010 
# 
# From -- ./inp_files/77234.got.cif
#   From: 2010.05.17/outbox.cif.g08.bks.cpg/sg12_39_cif.got.tgz:77234.got - 2010.06.03 13:09:07.
