data_PCOD9204073
_publ_section_title
;
Structure prediction by ZEFSAII (Michael W. Deem and Ramdas Pophale) SiO2 
 PCOD9204073
Probable space group: C 2/M
;
_chemical_formula_sum "Si O2"
_cell_formula_units_Z 44
_cell_length_a 15.767386
_cell_length_b 21.753079
_cell_length_c 19.752085
_cell_angle_alpha 90.000000
_cell_angle_beta 17.195149
_cell_angle_gamma 90.000000
_cell_volume 2002.800669
_symmetry_space_group_name_H-M "C 2/M"
_symmetry_group_IT_number 12
_symmetry_cell_setting 'monoclinic'
loop_
_space_group_symop_operation_xyz
x,y,z
-x,y,-z
-x,-y,-z
x,-y,z
1/2+x,1/2+y,z
1/2-x,1/2+y,-z
1/2-x,1/2-y,-z
1/2+x,1/2-y,z
loop_
_atom_site_type_symbol
_atom_site_label
_atom_site_fract_x
_atom_site_fract_y
_atom_site_fract_z
Si Si1 0.260339 0.000000 0.250966
Si Si2 0.148503 0.000000 0.111234
Si Si3 0.817603 0.126412 0.385379
Si Si4 0.448903 0.500000 0.119254
Si Si5 0.000000 0.611268 0.000000
Si Si6 0.391821 0.797928 0.960440
Si Si7 0.459370 0.203139 0.301006
Si Si8 0.000000 0.395745 0.500000
O O1 0.000000 0.000000 0.500000
O O2 0.259470 0.061062 0.204756
O O3 0.555095 0.000000 0.072082
O O4 0.953781 0.058887 0.278017
O O5 0.182496 0.000000 0.002689
O O6 0.633342 0.139809 0.593244
O O7 0.610833 0.140014 0.480194
O O8 0.092921 0.169826 0.167351
O O9 0.255935 0.440276 0.281287
O O10 0.500000 0.500000 0.000000
O O11 0.989764 0.657722 0.945131
O O12 0.280875 0.730201 0.066722
O O13 0.583445 0.797936 0.747161
O O14 0.250000 0.250000 0.500000
#
# Coordination Sequence:
#
# PCOD9204073 Si02
#       8
#     4   4   8   4   4   8   8   4
#     4  11  25  45  64 103 140 181 237 275 338 418
#     4  10  20  42  67  93 139 177 214 282 330 407
#     4  10  20  40  64  94 131 170 217 271 337 390
#     4   9  19  37  57  89 124 164 212 254 321 382
#     4  11  24  46  66 102 136 181 228 288 330 411
#     4  10  21  43  65  92 135 170 227 275 334 398
#     4   9  21  42  66  94 123 174 221 279 335 400
#     4   9  20  36  56  92 120 154 210 259 306 402
#
# _framework density 21.969235999999999
#
# number of rings (size 3 to 8) (size 9 to 14) (size 15 to 20)
#    0.000    2.182    1.818    0.545    0.000    5.818 
#   13.091    1.818    0.000    0.000    0.000    0.000 
#    0.000    0.000    0.000    0.000    0.000    0.000 
#
# Total GULP energy -122558.297575 kJ/mol
# GULP energy per Si atom -5570.831708 kJ/mol
# Density = 2.191923 g / cm^3
# Si number density = 21.969236 Si / 1000 Ang^3
#
#
#
# Elastic Constant Matrix: (Units=GPa)
#
#
# Indices 1 2 3 4 5 6 
#
# 1 133.1767 30.8974 51.6981 -0.5344 35.1634 0.0713
# 2 30.8974 78.6553 29.3357 -0.8876 22.7074 0.4016
# 3 51.6981 29.3357 88.9414 1.2738 47.0396 -0.9904
# 4 -0.5344 -0.8876 1.2738 51.2165 -0.1298 -8.7323
# 5 35.1634 22.7074 47.0396 -0.1298 48.8134 0.2002
# 6 0.0713 0.4016 -0.9904 -8.7323 0.2002 43.7043
#
#
#
# Elastic Compliance Matrix: (Units=1/GPa)
#
#
# Indices 1 2 3 4 5 6 
#
# 1 0.010144 -0.001742 -0.003852 0.000157 -0.002785 -0.000044
# 2 -0.001742 0.015271 -0.001910 0.000265 -0.004007 -0.000109
# 3 -0.003852 -0.001910 0.024865 -0.000649 -0.020303 0.000551
# 4 0.000157 0.000265 -0.000649 0.020234 0.000427 0.004024
# 5 -0.002785 -0.004007 -0.020303 0.000427 0.043924 -0.000535
# 6 -0.000044 -0.000109 0.000551 0.004024 -0.000535 0.023701
#
#
# Mechanical properties :
#
#
# Convention : Reuss Voigt Hill
#
# Bulk Modulus (GPa) = 28.35065 58.29289 43.32177
# Shear Modulus (GPa) = 30.32047 41.33633 35.82840
#
# Velocity S-wave (km/s) = 3.71904 4.34240 4.04275
# Velocity P-wave (km/s) = 5.60129 7.19259 6.44623
#
# Compressibility (1/GPa) = 0.03527255
#
# Stress axis : x y z
#
# Youngs Moduli (GPa) = 98.57905 65.48447 40.21676
#
# Poissons Ratio (x) = 0.11410 0.15490
# Poissons Ratio (y) = 0.17176 0.07680
# Poissons Ratio (z) = 0.37970 0.12506
#
# Static dielectric constant tensor:
#      x y z
#    x 1.885220 -0.000990 -0.006250 
#    y -0.000990 2.048850 0.000980 
#    z -0.006250 0.000980 1.795490 
# 
# From -- ./inp_files/272792.got.cif
#   From: 2010.05.17/outbox.cif.g08.bks.cpg/sg12_137_cif.got.tgz:272792.got - 2010.06.03 13:09:07.
