data_PCOD9204653
_publ_section_title
;
Structure prediction by ZEFSAII (Michael W. Deem and Ramdas Pophale) SiO2 
 PCOD9204653
Probable space group: C 2/M
;
_chemical_formula_sum "Si O2"
_cell_formula_units_Z 64
_cell_length_a 23.655321
_cell_length_b 13.372670
_cell_length_c 11.612780
_cell_angle_alpha 90.000000
_cell_angle_beta 78.769377
_cell_angle_gamma 90.000000
_cell_volume 3603.182841
_symmetry_space_group_name_H-M "C 2/M"
_symmetry_group_IT_number 12
_symmetry_cell_setting 'monoclinic'
loop_
_space_group_symop_operation_xyz
x,y,z
-x,y,-z
-x,-y,-z
x,-y,z
1/2+x,1/2+y,z
1/2-x,1/2+y,-z
1/2-x,1/2-y,-z
1/2+x,1/2-y,z
loop_
_atom_site_type_symbol
_atom_site_label
_atom_site_fract_x
_atom_site_fract_y
_atom_site_fract_z
Si Si1 0.737621 0.735584 0.821895
Si Si2 0.725135 0.383827 0.615638
Si Si3 0.527999 0.121754 0.870109
Si Si4 0.227350 0.114692 0.353368
Si Si5 0.366558 0.881947 0.308321
Si Si6 0.312572 0.118591 0.969114
Si Si7 0.420969 0.879355 0.769993
Si Si8 0.135718 0.380697 0.440299
O O1 0.703784 0.682388 0.730212
O O2 0.785703 0.807152 0.741786
O O3 0.767284 0.649864 0.887111
O O4 0.702506 0.809077 0.919349
O O5 0.710053 0.500000 0.634874
O O6 0.709947 0.354735 0.490176
O O7 0.794869 0.375601 0.597695
O O8 0.591936 0.155753 0.809177
O O9 0.484143 0.150827 0.785485
O O10 0.528487 0.000000 0.879589
O O11 0.500000 0.158545 0.000000
O O12 0.297513 0.117435 0.323690
O O13 0.209632 0.000000 0.340434
O O14 0.380669 0.837912 0.428516
O O15 0.380618 0.000000 0.309077
O O16 0.374865 0.140027 0.889568
O O17 0.308822 0.000000 0.999264
O O18 0.397423 0.840136 0.657642
O O19 0.421802 0.000000 0.760404
O O20 0.123671 0.500000 0.448388
#
# Coordination Sequence:
#
# PCOD9204653 Si02
#       8
#     8   8   8   8   8   8   8   8
#     4  11  19  28  45  63  80 114 157 181 211 261
#     4   9  16  29  45  63  87 112 144 182 219 256
#     4   9  17  25  36  55  77 106 142 173 201 244
#     4   9  18  29  44  64  89 117 144 180 216 251
#     4   8  15  26  38  57  81 107 140 173 204 240
#     4  10  21  32  42  60  87 117 150 187 216 248
#     4   9  16  27  41  54  75 110 143 173 210 245
#     4   8  13  24  41  55  75 106 137 171 206 242
#
# _framework density 17.762073000000001
#
# number of rings (size 3 to 8) (size 9 to 14) (size 15 to 20)
#    0.000    2.875    1.250    2.625    1.750    0.500 
#    0.000    2.500    0.000    0.000    0.000    0.000 
#    0.000    0.000    0.000   23.625    0.000   67.250 
#
# Total GULP energy -178139.981358 kJ/mol
# GULP energy per Si atom -5566.874417 kJ/mol
# Density = 1.772165 g / cm^3
# Si number density = 17.762073 Si / 1000 Ang^3
#
#
#
# Elastic Constant Matrix: (Units=GPa)
#
#
# Indices 1 2 3 4 5 6 
#
# 1 30.9774 -3.5975 7.8300 0.0000 -4.9763 0.0000
# 2 -3.5975 51.2973 13.5706 0.0000 -8.6637 0.0000
# 3 7.8300 13.5706 85.2999 0.0000 -4.5657 0.0000
# 4 0.0000 0.0000 0.0000 25.0571 0.0000 1.6936
# 5 -4.9763 -8.6637 -4.5657 0.0000 16.4509 0.0000
# 6 0.0000 0.0000 0.0000 1.6936 0.0000 8.4901
#
#
#
# Elastic Compliance Matrix: (Units=1/GPa)
#
#
# Indices 1 2 3 4 5 6 
#
# 1 0.035880 0.005610 -0.003499 0.000000 0.012837 0.000000
# 2 0.005610 0.022976 -0.003484 0.000000 0.012830 0.000000
# 3 -0.003499 -0.003484 0.012632 0.000000 0.000613 0.000000
# 4 0.000000 0.000000 0.000000 0.040454 0.000000 -0.008070
# 5 0.012837 0.012830 0.000613 0.000000 0.071597 0.000000
# 6 0.000000 0.000000 0.000000 -0.008070 0.000000 0.119394
#
#
# Mechanical properties :
#
#
# Convention : Reuss Voigt Hill
#
# Bulk Modulus (GPa) = 14.54716 22.57567 18.56142
# Shear Modulus (GPa) = 15.21645 19.98438 17.60042
#
# Velocity S-wave (km/s) = 2.93009 3.35791 3.15127
# Velocity P-wave (km/s) = 4.43340 5.26989 4.86964
#
# Compressibility (1/GPa) = 0.06874194
#
# Stress axis : x y z
#
# Youngs Moduli (GPa) = 27.87101 43.52348 79.16691
#
# Poissons Ratio (x) = -0.24416 0.27700
# Poissons Ratio (y) = -0.15635 0.27578
# Poissons Ratio (z) = 0.09752 0.15162
#
# Static dielectric constant tensor:
#      x y z
#    x 1.629330 0.000000 0.031300 
#    y 0.000000 1.658470 0.000000 
#    z 0.031300 0.000000 1.695100 
# 
# From -- ./inp_files/183020.got.cif
#   From: 2010.05.17/outbox.cif.g08.bks.cpg/sg12_92_cif.got.tgz:183020.got - 2010.06.03 13:09:07.
