data_PCOD9204201
_publ_section_title
;
Structure prediction by ZEFSAII (Michael W. Deem and Ramdas Pophale) SiO2 
 PCOD9204201
Probable space group: C 2/M
;
_chemical_formula_sum "Si O2"
_cell_formula_units_Z 40
_cell_length_a 8.651413
_cell_length_b 14.735911
_cell_length_c 19.271326
_cell_angle_alpha 90.000000
_cell_angle_beta 49.071612
_cell_angle_gamma 90.000000
_cell_volume 1856.208503
_symmetry_space_group_name_H-M "C 2/M"
_symmetry_group_IT_number 12
_symmetry_cell_setting 'monoclinic'
loop_
_space_group_symop_operation_xyz
x,y,z
-x,y,-z
-x,-y,-z
x,-y,z
1/2+x,1/2+y,z
1/2-x,1/2+y,-z
1/2-x,1/2-y,-z
1/2+x,1/2-y,z
loop_
_atom_site_type_symbol
_atom_site_label
_atom_site_fract_x
_atom_site_fract_y
_atom_site_fract_z
Si Si1 0.423148 0.807001 0.911919
Si Si2 0.585298 0.500000 0.260254
Si Si3 0.182002 0.000000 0.389495
Si Si4 0.110504 0.800543 0.213218
Si Si5 0.500000 0.198759 0.500000
Si Si6 0.543683 0.000000 0.070132
Si Si7 0.099451 0.674422 0.621573
O O1 0.650195 0.811151 0.877241
O O2 0.470432 0.761486 0.824655
O O3 0.345221 0.909717 0.937570
O O4 0.250000 0.750000 0.000000
O O5 0.571805 0.500000 0.347274
O O6 0.516586 0.401890 0.250364
O O7 0.826916 0.500000 0.172904
O O8 0.327582 0.912936 0.357071
O O9 0.000000 0.000000 0.500000
O O10 0.067088 0.740038 0.293920
O O11 0.698048 0.263103 0.439671
O O12 0.526565 0.147661 0.565453
O O13 0.500000 0.000000 0.000000
#
# Coordination Sequence:
#
# PCOD9204201 Si02
#       7
#     8   4   4   8   4   4   8
#     4  11  22  40  65  97 131 171 216 260 319 386
#     4  10  22  40  63  91 123 171 219 255 326 406
#     4  12  24  41  65  96 123 177 223 269 331 411
#     4  11  23  41  65  92 127 171 213 271 319 390
#     4  10  22  38  62  86 124 162 210 268 322 382
#     4  10  20  40  67  94 128 173 213 252 313 402
#     4  11  22  41  62  92 125 167 214 266 331 385
#
# _framework density 21.549305
#
# number of rings (size 3 to 8) (size 9 to 14) (size 15 to 20)
#    0.000    1.200    1.000    7.800    2.800    0.400 
#    0.000    8.000    0.000    0.000    0.000    0.000 
#    0.000    0.000    0.000    0.000    0.000    0.000 
#
# Total GULP energy -111579.668237 kJ/mol
# GULP energy per Si atom -5578.983412 kJ/mol
# Density = 2.150026 g / cm^3
# Si number density = 21.549305 Si / 1000 Ang^3
#
#
#
# Elastic Constant Matrix: (Units=GPa)
#
#
# Indices 1 2 3 4 5 6 
#
# 1 63.3453 24.3785 13.5333 0.0000 14.6237 -0.0001
# 2 24.3785 184.8385 32.9616 0.0001 13.3867 -0.0001
# 3 13.5333 32.9616 105.0504 0.0003 2.3606 -0.0001
# 4 0.0000 0.0001 0.0003 25.1697 0.0000 6.5625
# 5 14.6237 13.3867 2.3606 0.0000 48.7906 0.0000
# 6 -0.0001 -0.0001 -0.0001 6.5625 0.0000 25.4358
#
#
#
# Elastic Compliance Matrix: (Units=1/GPa)
#
#
# Indices 1 2 3 4 5 6 
#
# 1 0.017915 -0.001718 -0.001661 0.000000 -0.004818 0.000000
# 2 -0.001718 0.006005 -0.001639 0.000000 -0.001054 0.000000
# 3 -0.001661 -0.001639 0.010237 0.000000 0.000452 0.000000
# 4 0.000000 0.000000 0.000000 0.042596 0.000000 -0.010990
# 5 -0.004818 -0.001054 0.000452 0.000000 0.022207 0.000000
# 6 0.000000 0.000000 0.000000 -0.010990 0.000000 0.042150
#
#
# Mechanical properties :
#
#
# Convention : Reuss Voigt Hill
#
# Bulk Modulus (GPa) = 41.45610 54.99791 48.22700
# Shear Modulus (GPa) = 31.40979 38.70325 35.05652
#
# Velocity S-wave (km/s) = 3.82197 4.24256 4.03774
# Velocity P-wave (km/s) = 6.22544 7.04105 6.64577
#
# Compressibility (1/GPa) = 0.02412190
#
# Stress axis : x y z
#
# Youngs Moduli (GPa) = 55.82047 166.51919 97.68114
#
# Poissons Ratio (x) = 0.28603 0.16221
# Poissons Ratio (y) = 0.09588 0.16013
# Poissons Ratio (z) = 0.09270 0.27298
#
# Static dielectric constant tensor:
#      x y z
#    x 1.823200 0.000000 0.023680 
#    y 0.000000 1.856500 0.000000 
#    z 0.023680 0.000000 1.810620 
# 
# From -- ./inp_files/299726.got.cif
#   From: 2010.05.17/outbox.cif.g08.bks.cpg/sg12_150_cif.got.tgz:299726.got - 2010.06.03 13:09:07.
