data_PCOD9204170
_publ_section_title
;
Structure prediction by ZEFSAII (Michael W. Deem and Ramdas Pophale) SiO2 
 PCOD9204170
Probable space group: C 2/M
;
_chemical_formula_sum "Si O2"
_cell_formula_units_Z 40
_cell_length_a 9.868440
_cell_length_b 25.493043
_cell_length_c 16.356134
_cell_angle_alpha 90.000000
_cell_angle_beta 31.788535
_cell_angle_gamma 90.000000
_cell_volume 2167.628422
_symmetry_space_group_name_H-M "C 2/M"
_symmetry_group_IT_number 12
_symmetry_cell_setting 'monoclinic'
loop_
_space_group_symop_operation_xyz
x,y,z
-x,y,-z
-x,-y,-z
x,-y,z
1/2+x,1/2+y,z
1/2-x,1/2+y,-z
1/2-x,1/2-y,-z
1/2+x,1/2-y,z
loop_
_atom_site_type_symbol
_atom_site_label
_atom_site_fract_x
_atom_site_fract_y
_atom_site_fract_z
Si Si1 0.243629 0.294406 0.817507
Si Si2 0.540895 0.908364 0.888145
Si Si3 0.785749 0.500000 0.318852
Si Si4 0.528587 0.389781 0.887675
Si Si5 0.275042 0.500000 0.184204
Si Si6 0.267816 0.291571 0.315805
O O1 0.205378 0.355352 0.813597
O O2 0.501063 0.286660 0.737753
O O3 0.240571 0.258520 0.739279
O O4 0.000000 0.280675 0.000000
O O5 0.663797 0.949456 0.763473
O O6 0.500000 0.930966 0.000000
O O7 0.259086 0.893308 0.999792
O O8 0.500000 0.500000 0.500000
O O9 0.001846 0.500000 0.279082
O O10 0.672903 0.445159 0.797276
O O11 0.672773 0.341953 0.771055
O O12 0.500000 0.382250 0.000000
O O13 0.500000 0.500000 0.000000
O O14 0.000000 0.297263 0.500000
#
# Coordination Sequence:
#
# PCOD9204170 Si02
#       6
#     8   8   4   8   4   8
#     4  11  24  43  66  94 125 170 222 251 315 388
#     4  11  22  43  67  96 126 166 218 261 306 381
#     4  12  25  40  66 102 131 164 209 266 322 366
#     4  11  21  42  71  90 123 172 217 256 305 390
#     4  10  20  40  66  92 121 167 218 240 311 381
#     4  12  26  42  63  97 131 164 208 272 325 364
#
# _framework density 18.453347000000001
#
# number of rings (size 3 to 8) (size 9 to 14) (size 15 to 20)
#    0.000    0.800    8.000    2.100    2.800    2.400 
#    0.000    0.500    0.000    0.000    0.000    0.000 
#    0.000    0.000    0.000    0.000    0.000    0.000 
#
# Total GULP energy -111779.353949 kJ/mol
# GULP energy per Si atom -5588.967697 kJ/mol
# Density = 1.841135 g / cm^3
# Si number density = 18.453347 Si / 1000 Ang^3
#
#
#
# Elastic Constant Matrix: (Units=GPa)
#
#
# Indices 1 2 3 4 5 6 
#
# 1 132.2598 44.5235 45.5245 0.0023 -22.1149 0.0058
# 2 44.5235 123.4488 52.4799 0.0000 4.9202 0.0001
# 3 45.5245 52.4799 136.5597 0.0077 -13.9168 0.0200
# 4 0.0023 0.0000 0.0077 -22.5642 -0.0037 -69.4529
# 5 -22.1149 4.9202 -13.9168 -0.0037 29.6457 -0.0095
# 6 0.0058 0.0001 0.0200 -69.4529 -0.0095 -150.0428
#
#
#
# Elastic Compliance Matrix: (Units=1/GPa)
#
#
# Indices 1 2 3 4 5 6 
#
# 1 0.010519 -0.003528 -0.001356 0.000000 0.007795 0.000000
# 2 -0.003528 0.011229 -0.003778 0.000000 -0.006269 0.000000
# 3 -0.001356 -0.003778 0.009649 0.000001 0.004145 0.000000
# 4 0.000000 0.000000 0.000001 0.104334 -0.000002 -0.048295
# 5 0.007795 -0.006269 0.004145 -0.000002 0.042533 -0.000001
# 6 0.000000 0.000000 0.000000 -0.048295 -0.000001 0.015690
#
#
# Mechanical properties :
#
#
# Convention : Reuss Voigt Hill
#
# Bulk Modulus (GPa) = 71.06130 75.25823 73.15977
# Shear Modulus (GPa) = 23.15145 -11.94288 5.60428
#
# Velocity S-wave (km/s) = 3.54587 -2.54676 1.74459
# Velocity P-wave (km/s) = 7.44019 5.67658 6.61740
#
# Compressibility (1/GPa) = 0.01407236
#
# Stress axis : x y z
#
# Youngs Moduli (GPa) = 95.06769 89.05656 103.63432
#
# Poissons Ratio (x) = 0.31417 0.14058
# Poissons Ratio (y) = 0.33538 0.39153
# Poissons Ratio (z) = 0.12896 0.33646
#
# Static dielectric constant tensor:
#      x y z
#    x 1.632630 0.000000 0.011050 
#    y 0.000000 1.652620 0.000000 
#    z 0.011050 0.000000 1.588600 
# 
# From -- ./inp_files/201143.got.cif
#   From: 2010.05.17/outbox.cif.g08.bks.cpg/sg12_101_cif.got.tgz:201143.got - 2010.06.03 13:09:07.
