data_PCOD9204725
_publ_section_title
;
Structure prediction by ZEFSAII (Michael W. Deem and Ramdas Pophale) SiO2 
 PCOD9204725
Probable space group: C 2/M
;
_chemical_formula_sum "Si O2"
_cell_formula_units_Z 64
_cell_length_a 20.164436
_cell_length_b 19.106841
_cell_length_c 25.950915
_cell_angle_alpha 90.000000
_cell_angle_beta 159.593047
_cell_angle_gamma 90.000000
_cell_volume 3486.276983
_symmetry_space_group_name_H-M "C 2/M"
_symmetry_group_IT_number 12
_symmetry_cell_setting 'monoclinic'
loop_
_space_group_symop_operation_xyz
x,y,z
-x,y,-z
-x,-y,-z
x,-y,z
1/2+x,1/2+y,z
1/2-x,1/2+y,-z
1/2-x,1/2-y,-z
1/2+x,1/2-y,z
loop_
_atom_site_type_symbol
_atom_site_label
_atom_site_fract_x
_atom_site_fract_y
_atom_site_fract_z
Si Si1 0.077902 0.643664 0.120816
Si Si2 0.839261 0.825048 0.049582
Si Si3 0.903873 0.826092 0.665013
Si Si4 0.718418 0.579657 0.644284
Si Si5 0.806058 0.082634 0.192142
Si Si6 0.595816 0.703230 0.022129
Si Si7 0.491670 0.080674 0.224945
Si Si8 0.518027 0.817495 0.334273
O O1 0.171144 0.637654 0.243712
O O2 0.236625 0.615512 0.196146
O O3 0.891530 0.594397 0.982875
O O4 0.003435 0.721053 0.055337
O O5 0.003166 0.838342 0.211257
O O6 0.750000 0.750000 0.000000
O O7 0.903434 0.824535 0.036148
O O8 0.664847 0.879611 0.923614
O O9 0.678213 0.835329 0.492652
O O10 0.922701 0.744702 0.661860
O O11 0.026782 0.873867 0.714408
O O12 0.500000 0.585484 0.500000
O O13 0.775986 0.500000 0.701830
O O14 0.794189 0.587654 0.641674
O O15 0.849447 0.000000 0.228544
O O16 0.811524 0.709655 0.199611
O O17 0.500000 0.662803 0.000000
O O18 0.487366 0.114283 0.277638
O O19 0.442458 0.000000 0.190006
#
# Coordination Sequence:
#
# PCOD9204725 Si02
#       8
#     8   8   8   8   8   8   8   8
#     4  11  19  33  52  78 118 161 202 234 285 356
#     4  11  20  37  63  86 114 160 210 260 308 367
#     4  11  21  37  58  83 115 158 210 255 308 357
#     4  10  21  33  46  74 119 163 200 238 289 358
#     4  11  21  33  55  86 120 158 196 241 296 366
#     4  11  20  39  61  85 115 157 205 256 305 365
#     4  10  21  37  59  85 118 161 209 257 312 375
#     4  10  22  38  59  82 117 158 205 264 314 360
#
# _framework density 18.357692
#
# number of rings (size 3 to 8) (size 9 to 14) (size 15 to 20)
#    0.000    1.375    5.000    3.000    1.750    2.000 
#    0.000    0.625    0.000    6.000    0.000    0.000 
#    0.000    9.000    0.000    0.000    0.000    0.000 
#
# Total GULP energy -178205.925883 kJ/mol
# GULP energy per Si atom -5568.935184 kJ/mol
# Density = 1.831591 g / cm^3
# Si number density = 18.357692 Si / 1000 Ang^3
#
#
#
# Elastic Constant Matrix: (Units=GPa)
#
#
# Indices 1 2 3 4 5 6 
#
# 1 84.7427 24.0757 35.8387 0.0029 2.5446 0.0026
# 2 24.0757 83.9466 15.9220 0.0321 7.3441 0.0089
# 3 35.8387 15.9220 90.1018 0.1110 -11.3746 0.0263
# 4 0.0029 0.0321 0.1110 13.8203 -0.0007 -3.4050
# 5 2.5446 7.3441 -11.3746 -0.0007 15.5580 -0.0117
# 6 0.0026 0.0089 0.0263 -3.4050 -0.0117 12.4382
#
#
#
# Elastic Compliance Matrix: (Units=1/GPa)
#
#
# Indices 1 2 3 4 5 6 
#
# 1 0.015462 -0.002695 -0.006426 0.000060 -0.005955 0.000023
# 2 -0.002695 0.013814 -0.002354 -0.000017 -0.007801 -0.000016
# 3 -0.006426 -0.002354 0.015802 -0.000133 0.013715 -0.000054
# 4 0.000060 -0.000017 -0.000133 0.077592 -0.000080 0.021241
# 5 -0.005955 -0.007801 0.013715 -0.000080 0.078960 0.000031
# 6 0.000023 -0.000016 -0.000054 0.021241 0.000031 0.086213
#
#
# Mechanical properties :
#
#
# Convention : Reuss Voigt Hill
#
# Bulk Modulus (GPa) = 45.18934 45.60709 45.39821
# Shear Modulus (GPa) = 15.71492 20.56029 18.13760
#
# Velocity S-wave (km/s) = 2.92899 3.35024 3.14667
# Velocity P-wave (km/s) = 6.00900 6.31372 6.16324
#
# Compressibility (1/GPa) = 0.02212911
#
# Stress axis : x y z
#
# Youngs Moduli (GPa) = 64.67281 72.38927 63.28261
#
# Poissons Ratio (x) = 0.19508 0.40665
# Poissons Ratio (y) = 0.17428 0.14897
# Poissons Ratio (z) = 0.41558 0.17041
#
# Static dielectric constant tensor:
#      x y z
#    x 1.686700 -0.000010 0.013170 
#    y -0.000010 1.629020 -0.000060 
#    z 0.013170 -0.000060 1.708400 
# 
# From -- ./inp_files/366841.got.cif
#   From: 2010.05.17/outbox.cif.g08.bks.cpg/sg12_184_cif.got.tgz:366841.got - 2010.06.03 13:09:07.
