data_PCOD9204954
_publ_section_title
;
Structure prediction by ZEFSAII (Michael W. Deem and Ramdas Pophale) SiO2 
 PCOD9204954
Probable space group: C 2/M
;
_chemical_formula_sum "Si O2"
_cell_formula_units_Z 58
_cell_length_a 23.194772
_cell_length_b 15.006385
_cell_length_c 8.295111
_cell_angle_alpha 90.000000
_cell_angle_beta 94.953854
_cell_angle_gamma 90.000000
_cell_volume 2876.491401
_symmetry_space_group_name_H-M "C 2/M"
_symmetry_group_IT_number 12
_symmetry_cell_setting 'monoclinic'
loop_
_space_group_symop_operation_xyz
x,y,z
-x,y,-z
-x,-y,-z
x,-y,z
1/2+x,1/2+y,z
1/2-x,1/2+y,-z
1/2-x,1/2-y,-z
1/2+x,1/2-y,z
loop_
_atom_site_type_symbol
_atom_site_label
_atom_site_fract_x
_atom_site_fract_y
_atom_site_fract_z
Si Si1 0.415832 0.731494 0.671351
Si Si2 0.347192 0.897984 0.748499
Si Si3 0.000000 0.000000 0.000000
Si Si4 0.325979 0.604522 0.799868
Si Si5 0.731218 0.393889 0.867288
Si Si6 0.208961 0.398789 0.618779
Si Si7 0.528557 0.315111 0.848431
Si Si8 0.359350 0.268100 0.305520
O O1 0.398569 0.828742 0.734159
O O2 0.382188 0.661669 0.777866
O O3 0.482977 0.708658 0.697878
O O4 0.389505 0.721592 0.486902
O O5 0.298565 0.868123 0.865226
O O6 0.311752 0.897327 0.570528
O O7 0.365184 0.000000 0.784453
O O8 0.972579 0.080010 0.108892
O O9 0.341597 0.500000 0.797744
O O10 0.276274 0.624734 0.656581
O O11 0.295045 0.622138 0.962464
O O12 0.728468 0.500000 0.834103
O O13 0.691255 0.339257 0.736068
O O14 0.202870 0.500000 0.679656
O O15 0.169993 0.328675 0.703732
O O16 0.591498 0.282520 0.815779
O O17 0.500000 0.270768 0.000000
#
# Coordination Sequence:
#
# PCOD9204954 Si02
#       8
#     8   8   2   8   8   8   8   8
#     4  11  22  36  57  83 110 142 185 230 273 323
#     4   9  19  37  57  80 111 146 182 225 273 323
#     4   8  24  44  62  76 106 152 182 224 264 326
#     4  10  21  34  53  81 115 149 184 222 273 330
#     4  10  21  34  53  81 115 149 184 222 273 330
#     4   9  19  37  57  80 111 146 182 225 273 323
#     4  10  23  41  60  78 108 141 184 220 269 322
#     4  11  22  36  57  83 110 142 185 230 273 323
#
# _framework density 20.163454000000002
#
# number of rings (size 3 to 8) (size 9 to 14) (size 15 to 20)
#    0.414    1.655    0.000    2.897    1.931    7.172 
#    0.000    1.379    0.000    4.138    0.000    0.000 
#    0.000    0.000    0.000    0.000    0.000    0.000 
#
# Total GULP energy -161718.295277 kJ/mol
# GULP energy per Si atom -5576.492941 kJ/mol
# Density = 2.011756 g / cm^3
# Si number density = 20.163454 Si / 1000 Ang^3
#
#
#
# Elastic Constant Matrix: (Units=GPa)
#
#
# Indices 1 2 3 4 5 6 
#
# 1 64.0446 34.7389 1.6272 0.0000 -14.7284 0.0000
# 2 34.7389 46.4911 12.2172 0.0000 -9.0460 0.0000
# 3 1.6272 12.2172 40.6827 0.0000 -7.1410 0.0000
# 4 0.0000 0.0000 0.0000 17.9137 0.0000 -14.3202
# 5 -14.7284 -9.0460 -7.1410 0.0000 33.8924 0.0000
# 6 0.0000 0.0000 0.0000 -14.3202 0.0000 2.7837
#
#
#
# Elastic Compliance Matrix: (Units=1/GPa)
#
#
# Indices 1 2 3 4 5 6 
#
# 1 0.029360 -0.022144 0.006934 0.000000 0.008310 0.000000
# 2 -0.022144 0.040877 -0.011593 0.000000 -0.001155 0.000000
# 3 0.006934 -0.011593 0.028837 0.000000 0.005995 0.000000
# 4 0.000000 0.000000 0.000000 -0.017936 0.000000 -0.092268
# 5 0.008310 -0.001155 0.005995 0.000000 0.034071 0.000000
# 6 0.000000 0.000000 0.000000 -0.092268 0.000000 -0.115420
#
#
# Mechanical properties :
#
#
# Convention : Reuss Voigt Hill
#
# Bulk Modulus (GPa) = 21.99274 27.59833 24.79553
# Shear Modulus (GPa) = 72.94013 17.76029 45.35021
#
# Velocity S-wave (km/s) = 6.02104 2.97107 4.74764
# Velocity P-wave (km/s) = 7.69858 5.04844 6.50980
#
# Compressibility (1/GPa) = 0.04546955
#
# Stress axis : x y z
#
# Youngs Moduli (GPa) = 34.06003 24.46358 34.67801
#
# Poissons Ratio (x) = 0.54171 -0.24046
# Poissons Ratio (y) = 0.75421 0.40201
# Poissons Ratio (z) = -0.23617 0.28360
#
# Static dielectric constant tensor:
#      x y z
#    x 1.694870 0.000000 0.016380 
#    y 0.000000 1.698930 0.000000 
#    z 0.016380 0.000000 1.779190 
# 
# From -- ./inp_files/96427.got.cif
#   From: 2010.05.17/outbox.cif.g08.bks.cpg/sg12_49_cif.got.tgz:96427.got - 2010.06.03 13:09:07.
