data_PCOD9204990
_publ_section_title
;
Structure prediction by ZEFSAII (Michael W. Deem and Ramdas Pophale) SiO2 
 PCOD9204990
Probable space group: C 2/M
;
_chemical_formula_sum "Si O2"
_cell_formula_units_Z 56
_cell_length_a 12.124290
_cell_length_b 19.733001
_cell_length_c 23.907617
_cell_angle_alpha 90.000000
_cell_angle_beta 154.213913
_cell_angle_gamma 90.000000
_cell_volume 2488.212366
_symmetry_space_group_name_H-M "C 2/M"
_symmetry_group_IT_number 12
_symmetry_cell_setting 'monoclinic'
loop_
_space_group_symop_operation_xyz
x,y,z
-x,y,-z
-x,-y,-z
x,-y,z
1/2+x,1/2+y,z
1/2-x,1/2+y,-z
1/2-x,1/2-y,-z
1/2+x,1/2-y,z
loop_
_atom_site_type_symbol
_atom_site_label
_atom_site_fract_x
_atom_site_fract_y
_atom_site_fract_z
Si Si1 0.581979 0.327138 0.315438
Si Si2 0.466224 0.208469 0.924180
Si Si3 0.458253 0.422618 0.044906
Si Si4 0.453368 0.319779 0.826956
Si Si5 0.211087 0.673399 0.389517
Si Si6 0.904419 0.423460 0.760876
Si Si7 0.165642 0.079606 0.452250
O O1 0.277442 0.338325 0.178466
O O2 0.664587 0.324642 0.288200
O O3 0.622872 0.250550 0.356734
O O4 0.703451 0.383735 0.410049
O O5 0.410298 0.252159 0.843270
O O6 0.500000 0.246672 0.000000
O O7 0.742733 0.177948 0.042357
O O8 0.537608 0.500000 0.085889
O O9 0.152955 0.418843 0.912517
O O10 0.500000 0.401882 0.000000
O O11 0.605784 0.379208 0.157269
O O12 0.500000 0.677146 0.500000
O O13 0.074254 0.633675 0.276722
O O14 0.205800 0.626757 0.441968
O O15 0.905860 0.500000 0.736394
O O16 0.636164 0.417073 0.669759
O O17 0.236829 0.000000 0.486071
#
# Coordination Sequence:
#
# PCOD9204990 Si02
#       7
#     8   8   8   8   8   8   8
#     4  11  23  36  58  90 113 153 186 238 293 350
#     4   9  20  35  55  84 117 148 189 224 280 342
#     4  10  21  35  54  84 119 156 194 228 270 341
#     4  10  21  34  55  83 120 153 181 229 282 341
#     4  10  22  37  60  86 113 141 193 253 295 334
#     4   9  19  36  60  86 113 149 193 243 290 329
#     4  10  21  40  62  83 113 150 195 244 291 343
#
# _framework density 22.506119000000002
#
# number of rings (size 3 to 8) (size 9 to 14) (size 15 to 20)
#    0.000    2.143    0.000    2.143   12.000    2.286 
#    0.000    0.000    0.000    5.571    0.000    0.000 
#    0.000    0.000    0.000    0.000    0.000    0.000 
#
# Total GULP energy -156356.192921 kJ/mol
# GULP energy per Si atom -5584.149747 kJ/mol
# Density = 2.245489 g / cm^3
# Si number density = 22.506119 Si / 1000 Ang^3
#
#
#
# Elastic Constant Matrix: (Units=GPa)
#
#
# Indices 1 2 3 4 5 6 
#
# 1 102.8636 40.3257 31.6206 -0.0024 -33.8243 0.0037
# 2 40.3257 113.4586 21.9046 0.0017 -32.7028 -0.0042
# 3 31.6206 21.9046 50.6297 0.0203 -4.2644 -0.0053
# 4 -0.0024 0.0017 0.0203 34.9427 -0.0045 -12.8315
# 5 -33.8243 -32.7028 -4.2644 -0.0045 44.4947 0.0054
# 6 0.0037 -0.0042 -0.0053 -12.8315 0.0054 29.5837
#
#
#
# Elastic Compliance Matrix: (Units=1/GPa)
#
#
# Indices 1 2 3 4 5 6 
#
# 1 0.016440 -0.000969 -0.008928 0.000007 0.010929 -0.000003
# 2 -0.000969 0.012192 -0.004009 0.000003 0.007840 0.000001
# 3 -0.008928 -0.004009 0.026455 -0.000017 -0.007198 -0.000001
# 4 0.000007 0.000003 -0.000017 0.034040 0.000007 0.014764
# 5 0.010929 0.007840 -0.007198 0.000007 0.035855 -0.000005
# 6 -0.000003 0.000001 -0.000001 0.014764 -0.000005 0.040206
#
#
# Mechanical properties :
#
#
# Convention : Reuss Voigt Hill
#
# Bulk Modulus (GPa) = 36.66338 50.51708 43.59023
# Shear Modulus (GPa) = 24.74122 33.34430 29.04276
#
# Velocity S-wave (km/s) = 3.31918 3.85329 3.59616
# Velocity P-wave (km/s) = 5.56912 6.50321 6.05421
#
# Compressibility (1/GPa) = 0.02727517
#
# Stress axis : x y z
#
# Youngs Moduli (GPa) = 60.82796 82.02087 37.79980
#
# Poissons Ratio (x) = 0.07950 0.33746
# Poissons Ratio (y) = 0.05896 0.15154
# Poissons Ratio (z) = 0.54304 0.32883
#
# Static dielectric constant tensor:
#      x y z
#    x 1.869580 0.000000 0.020680 
#    y 0.000000 1.824460 0.000000 
#    z 0.020680 0.000000 1.856570 
# 
# From -- ./inp_files/336784.got.cif
#   From: 2010.05.17/outbox.cif.g08.bks.cpg/sg12_169_cif.got.tgz:336784.got - 2010.06.03 13:09:07.
