data_PCOD9204083
_publ_section_title
;
Structure prediction by ZEFSAII (Michael W. Deem and Ramdas Pophale) SiO2 
 PCOD9204083
Probable space group: C 2/M
;
_chemical_formula_sum "Si O2"
_cell_formula_units_Z 52
_cell_length_a 7.195648
_cell_length_b 22.453645
_cell_length_c 16.692138
_cell_angle_alpha 90.000000
_cell_angle_beta 126.516315
_cell_angle_gamma 90.000000
_cell_volume 2167.484081
_symmetry_space_group_name_H-M "C 2/M"
_symmetry_group_IT_number 12
_symmetry_cell_setting 'monoclinic'
loop_
_space_group_symop_operation_xyz
x,y,z
-x,y,-z
-x,-y,-z
x,-y,z
1/2+x,1/2+y,z
1/2-x,1/2+y,-z
1/2-x,1/2-y,-z
1/2+x,1/2-y,z
loop_
_atom_site_type_symbol
_atom_site_label
_atom_site_fract_x
_atom_site_fract_y
_atom_site_fract_z
Si Si1 0.223923 0.000000 0.933783
Si Si2 0.261585 0.000000 0.601096
Si Si3 0.221152 0.873727 0.008761
Si Si4 0.536566 0.308998 0.823644
Si Si5 0.358573 0.631561 0.630700
Si Si6 0.869088 0.631280 0.585450
Si Si7 0.944703 0.671943 0.209472
Si Si8 0.459628 0.500000 0.294090
O O1 0.117514 0.000000 0.817756
O O2 0.500000 0.000000 0.000000
O O3 0.162578 0.939834 0.964339
O O4 0.374907 0.939818 0.599731
O O5 0.000000 0.000000 0.500000
O O6 0.246763 0.000000 0.693630
O O7 0.422229 0.870996 0.126675
O O8 0.000000 0.848842 0.000000
O O9 0.235499 0.834391 0.932309
O O10 0.538557 0.334348 0.733913
O O11 0.297297 0.331231 0.802915
O O12 0.535375 0.238272 0.819250
O O13 0.332611 0.645268 0.529917
O O14 0.404078 0.561058 0.652790
O O15 0.108919 0.647693 0.603867
O O16 0.867833 0.658404 0.673939
#
# Coordination Sequence:
#
# PCOD9204083 Si02
#       8
#     4   4   8   8   8   8   8   4
#     4  12  27  40  59  97 125 155 193 257 312 350
#     4  12  23  37  58  90 125 156 193 248 307 356
#     4  10  22  43  64  86 119 159 204 244 298 369
#     4  10  21  40  61  89 116 160 204 246 299 353
#     4  10  20  40  65  85 121 162 206 244 289 366
#     4  10  22  39  60  91 122 159 203 244 297 357
#     4  10  23  38  62  88 119 158 201 250 296 354
#     4  12  23  39  60  89 121 161 198 246 311 358
#
# _framework density 23.990949000000001
#
# number of rings (size 3 to 8) (size 9 to 14) (size 15 to 20)
#    0.000    1.538    3.077    1.154    2.154    4.308 
#    0.000    0.000    0.000    0.000    0.000    0.000 
#    0.000    0.000    0.000    0.000    0.000    0.000 
#
# Total GULP energy -145373.904815 kJ/mol
# GULP energy per Si atom -5591.304031 kJ/mol
# Density = 2.393634 g / cm^3
# Si number density = 23.990949 Si / 1000 Ang^3
#
#
#
# Elastic Constant Matrix: (Units=GPa)
#
#
# Indices 1 2 3 4 5 6 
#
# 1 60.1324 -22.9606 40.9804 0.0000 -11.7773 0.0000
# 2 -22.9606 76.4677 61.5785 0.0000 -21.3878 0.0000
# 3 40.9804 61.5785 263.4513 0.0000 -46.8568 0.0000
# 4 0.0000 0.0000 0.0000 15.1079 0.0000 -29.3194
# 5 -11.7773 -21.3878 -46.8568 0.0000 41.6458 0.0000
# 6 0.0000 0.0000 0.0000 -29.3194 0.0000 39.1939
#
#
#
# Elastic Compliance Matrix: (Units=1/GPa)
#
#
# Indices 1 2 3 4 5 6 
#
# 1 0.029799 0.017202 -0.006983 0.000000 0.009404 0.000000
# 2 0.017202 0.026935 -0.007058 0.000000 0.010756 0.000000
# 3 -0.006983 -0.007058 0.006921 0.000000 0.002187 0.000000
# 4 0.000000 0.000000 0.000000 -0.146523 0.000000 -0.109608
# 5 0.009404 0.010756 0.002187 0.000000 0.034656 0.000000
# 6 0.000000 0.000000 0.000000 -0.109608 0.000000 -0.056479
#
#
# Mechanical properties :
#
#
# Convention : Reuss Voigt Hill
#
# Bulk Modulus (GPa) = 14.29092 62.13866 38.21479
# Shear Modulus (GPa) = -57.02180 40.55305 -8.23438
#
# Velocity S-wave (km/s) = -4.88054 4.11584 -1.85465
# Velocity P-wave (km/s) = 5.07837 6.96735 3.37300
#
# Compressibility (1/GPa) = 0.06997450
#
# Stress axis : x y z
#
# Youngs Moduli (GPa) = 33.55793 37.12650 144.49088
#
# Poissons Ratio (x) = -0.63864 1.00904
# Poissons Ratio (y) = -0.57725 1.01988
# Poissons Ratio (z) = 0.23435 0.26206
#
# Static dielectric constant tensor:
#      x y z
#    x 1.945430 0.000000 -0.000610 
#    y 0.000000 2.044690 0.000000 
#    z -0.000610 0.000000 1.976860 
# 
# From -- ./inp_files/258446.got.cif
#   From: 2010.05.17/outbox.cif.g08.bks.cpg/sg12_130_cif.got.tgz:258446.got - 2010.06.03 13:09:07.
