data_PCOD9204927
_publ_section_title
;
Structure prediction by ZEFSAII (Michael W. Deem and Ramdas Pophale) SiO2 
 PCOD9204927
Probable space group: C 2/M
;
_chemical_formula_sum "Si O2"
_cell_formula_units_Z 42
_cell_length_a 21.836040
_cell_length_b 16.894720
_cell_length_c 6.496577
_cell_angle_alpha 90.000000
_cell_angle_beta 113.254220
_cell_angle_gamma 90.000000
_cell_volume 2201.975880
_symmetry_space_group_name_H-M "C 2/M"
_symmetry_group_IT_number 12
_symmetry_cell_setting 'monoclinic'
loop_
_space_group_symop_operation_xyz
x,y,z
-x,y,-z
-x,-y,-z
x,-y,z
1/2+x,1/2+y,z
1/2-x,1/2+y,-z
1/2-x,1/2-y,-z
1/2+x,1/2-y,z
loop_
_atom_site_type_symbol
_atom_site_label
_atom_site_fract_x
_atom_site_fract_y
_atom_site_fract_z
Si Si1 0.312370 0.590018 0.313859
Si Si2 0.696517 0.188253 0.023696
Si Si3 0.500000 0.500000 0.500000
Si Si4 0.433062 0.633475 0.173626
Si Si5 0.126184 0.210244 0.283165
Si Si6 0.930432 0.297091 0.410133
O O1 0.319272 0.500000 0.394985
O O2 0.239051 0.611662 0.138969
O O3 0.365800 0.601867 0.199894
O O4 0.330341 0.653380 0.513319
O O5 0.667232 0.234444 0.181849
O O6 0.750000 0.250000 0.000000
O O7 0.636346 0.170196 0.786443
O O8 0.487663 0.569885 0.309638
O O9 0.444712 0.718390 0.293467
O O10 0.418617 0.653164 0.918454
O O11 0.086928 0.267522 0.384961
O O12 0.000000 0.344217 0.500000
#
# Coordination Sequence:
#
# PCOD9204927 Si02
#       6
#     8   8   2   8   8   8
#     4  11  22  36  53  86 117 145 193 243 284 340
#     4  11  20  37  61  82 115 150 190 246 289 338
#     4  12  20  36  50  76 130 160 184 222 272 344
#     4  10  21  34  52  77 116 155 189 227 267 334
#     4  10  21  37  60  80 110 155 197 232 288 337
#     4  10  21  38  55  83 111 145 197 240 279 345
#
# _framework density 19.073779999999999
#
# number of rings (size 3 to 8) (size 9 to 14) (size 15 to 20)
#    0.000    1.524    7.619    0.571    1.333    3.048 
#    0.000    3.810    0.000    0.571    0.000    1.333 
#    0.000    0.000    0.000    0.000    0.000    0.000 
#
# Total GULP energy -116906.573320 kJ/mol
# GULP energy per Si atom -5566.979682 kJ/mol
# Density = 1.903037 g / cm^3
# Si number density = 19.073780 Si / 1000 Ang^3
#
#
#
# Elastic Constant Matrix: (Units=GPa)
#
#
# Indices 1 2 3 4 5 6 
#
# 1 95.6193 5.0347 45.1996 0.0000 -2.3825 0.0000
# 2 5.0347 17.5822 -3.0041 0.0000 -5.0893 0.0000
# 3 45.1996 -3.0041 109.6412 0.0000 -7.3040 0.0000
# 4 0.0000 0.0000 0.0000 25.1588 0.0000 5.0117
# 5 -2.3825 -5.0893 -7.3040 0.0000 31.8443 0.0000
# 6 0.0000 0.0000 0.0000 5.0117 0.0000 0.9292
#
#
#
# Elastic Compliance Matrix: (Units=1/GPa)
#
#
# Indices 1 2 3 4 5 6 
#
# 1 0.013419 -0.005154 -0.005749 0.000000 -0.001138 0.000000
# 2 -0.005154 0.062193 0.004535 0.000000 0.010594 0.000000
# 3 -0.005749 0.004535 0.011815 0.000000 0.003005 0.000000
# 4 0.000000 0.000000 0.000000 -0.534585 0.000000 2.883170
# 5 -0.001138 0.010594 0.003005 0.000000 0.033700 0.000000
# 6 0.000000 0.000000 0.000000 2.883170 0.000000-14.473619
#
#
# Mechanical properties :
#
#
# Convention : Reuss Voigt Hill
#
# Bulk Modulus (GPa) = 13.38875 35.25591 24.32233
# Shear Modulus (GPa) = -0.33671 23.29397 11.47863
#
# Velocity S-wave (km/s) = -0.42061 3.49844 2.45583
# Velocity P-wave (km/s) = 2.60745 5.90278 4.56299
#
# Compressibility (1/GPa) = 0.07468956
#
# Stress axis : x y z
#
# Youngs Moduli (GPa) = 74.52282 16.07901 84.63768
#
# Poissons Ratio (x) = 0.08288 0.48658
# Poissons Ratio (y) = 0.38411 -0.38380
# Poissons Ratio (z) = 0.42843 -0.07291
#
# Static dielectric constant tensor:
#      x y z
#    x 1.766500 0.000000 0.053370 
#    y 0.000000 1.616860 0.000000 
#    z 0.053370 0.000000 1.719130 
# 
# From -- ./inp_files/20348.got.cif
#   From: 2010.05.17/outbox.cif.g08.bks.cpg/sg12_11_cif.got.tgz:20348.got - 2010.06.03 13:09:07.
