data_PCOD9204593
_publ_section_title
;
Structure prediction by ZEFSAII (Michael W. Deem and Ramdas Pophale) SiO2 
 PCOD9204593
Probable space group: C 2/M
;
_chemical_formula_sum "Si O2"
_cell_formula_units_Z 60
_cell_length_a 19.072780
_cell_length_b 9.353584
_cell_length_c 16.810806
_cell_angle_alpha 90.000000
_cell_angle_beta 113.060459
_cell_angle_gamma 90.000000
_cell_volume 2759.382204
_symmetry_space_group_name_H-M "C 2/M"
_symmetry_group_IT_number 12
_symmetry_cell_setting 'monoclinic'
loop_
_space_group_symop_operation_xyz
x,y,z
-x,y,-z
-x,-y,-z
x,-y,z
1/2+x,1/2+y,z
1/2-x,1/2+y,-z
1/2-x,1/2-y,-z
1/2+x,1/2-y,z
loop_
_atom_site_type_symbol
_atom_site_label
_atom_site_fract_x
_atom_site_fract_y
_atom_site_fract_z
Si Si1 0.120783 0.165887 0.362212
Si Si2 0.423898 0.338390 0.917733
Si Si3 0.091696 0.832351 0.533602
Si Si4 0.220284 0.500000 0.009211
Si Si5 0.821734 0.670248 0.756713
Si Si6 0.553974 0.660393 0.766790
Si Si7 0.832027 0.670091 0.288959
Si Si8 0.854597 0.208414 0.048764
O O1 0.119419 0.192447 0.455822
O O2 0.168722 0.272970 0.329180
O O3 0.033226 0.180435 0.295231
O O4 0.144079 0.000000 0.358369
O O5 0.430863 0.500000 0.888246
O O6 0.393335 0.228365 0.839337
O O7 0.500000 0.298020 0.000000
O O8 0.361903 0.342418 0.961394
O O9 0.133556 0.727729 0.612702
O O10 0.000000 0.813432 0.500000
O O11 0.107047 0.000000 0.559891
O O12 0.159996 0.374805 0.959056
O O13 0.284887 0.623844 0.057082
O O14 0.815498 0.500000 0.758997
O O15 0.747589 0.748751 0.758464
O O16 0.575132 0.500000 0.748196
O O17 0.607655 0.775878 0.749218
O O18 0.570670 0.670094 0.867569
O O19 0.822065 0.500000 0.283180
#
# Coordination Sequence:
#
# PCOD9204593 Si02
#       8
#     8   8   8   4   8   8   8   8
#     4  10  22  44  72  97 130 174 215 265 328 401
#     4  11  24  45  69  92 127 175 226 271 329 394
#     4  10  20  43  73 103 134 171 213 264 333 400
#     4  10  24  38  58  90 128 162 216 260 338 376
#     4  12  28  45  66  96 136 178 226 277 330 388
#     4  11  22  41  68  97 131 170 221 269 332 394
#     4  12  27  42  66 102 136 176 221 276 329 392
#     4  11  23  39  61  91 123 172 209 272 319 391
#
# _framework density 21.743997
#
# number of rings (size 3 to 8) (size 9 to 14) (size 15 to 20)
#    0.000    1.067    2.667    3.200    5.600    4.267 
#    2.400    0.000    0.000    0.000    0.000    0.000 
#    0.000    0.000    0.000    0.000    0.000    0.000 
#
# Total GULP energy -167326.780755 kJ/mol
# GULP energy per Si atom -5577.559358 kJ/mol
# Density = 2.169451 g / cm^3
# Si number density = 21.743997 Si / 1000 Ang^3
#
#
#
# Elastic Constant Matrix: (Units=GPa)
#
#
# Indices 1 2 3 4 5 6 
#
# 1 41.7890 42.9345 10.6854 0.0000 2.4251 0.0000
# 2 42.9345 193.7965 30.4022 0.0000 0.8859 0.0000
# 3 10.6854 30.4022 75.1863 0.0000 -15.4400 0.0000
# 4 0.0000 0.0000 0.0000 29.3197 0.0000 -0.1492
# 5 2.4251 0.8859 -15.4400 0.0000 29.3311 0.0000
# 6 0.0000 0.0000 0.0000 -0.1492 0.0000 23.6453
#
#
#
# Elastic Compliance Matrix: (Units=1/GPa)
#
#
# Indices 1 2 3 4 5 6 
#
# 1 0.031562 -0.006566 -0.002608 0.000000 -0.003784 0.000000
# 2 -0.006566 0.006935 -0.002021 0.000000 -0.000731 0.000000
# 3 -0.002608 -0.002021 0.016308 0.000000 0.008861 0.000000
# 4 0.000000 0.000000 0.000000 0.034108 0.000000 0.000215
# 5 -0.003784 -0.000731 0.008861 0.000000 0.039093 0.000000
# 6 0.000000 0.000000 0.000000 0.000215 0.000000 0.042293
#
#
# Mechanical properties :
#
#
# Convention : Reuss Voigt Hill
#
# Bulk Modulus (GPa) = 30.84939 53.20178 42.02558
# Shear Modulus (GPa) = 24.57078 31.57587 28.07333
#
# Velocity S-wave (km/s) = 3.36520 3.81486 3.59706
# Velocity P-wave (km/s) = 5.41459 6.62757 6.05155
#
# Compressibility (1/GPa) = 0.03241555
#
# Stress axis : x y z
#
# Youngs Moduli (GPa) = 31.68354 144.19345 61.32014
#
# Poissons Ratio (x) = 0.94678 0.15990
# Poissons Ratio (y) = 0.20804 0.12394
# Poissons Ratio (z) = 0.08262 0.29143
#
# Static dielectric constant tensor:
#      x y z
#    x 1.869660 0.000000 -0.029410 
#    y 0.000000 1.741040 0.000000 
#    z -0.029410 0.000000 1.820970 
# 
# From -- ./inp_files/281499.got.cif
#   From: 2010.05.17/outbox.cif.g08.bks.cpg/sg12_141_cif.got.tgz:281499.got - 2010.06.03 13:09:07.
