data_PCOD9204921
_publ_section_title
;
Structure prediction by ZEFSAII (Michael W. Deem and Ramdas Pophale) SiO2 
 PCOD9204921
Probable space group: C 2/M
;
_chemical_formula_sum "Si O2"
_cell_formula_units_Z 48
_cell_length_a 22.120354
_cell_length_b 13.985343
_cell_length_c 16.995078
_cell_angle_alpha 90.000000
_cell_angle_beta 147.307770
_cell_angle_gamma 90.000000
_cell_volume 2839.772823
_symmetry_space_group_name_H-M "C 2/M"
_symmetry_group_IT_number 12
_symmetry_cell_setting 'monoclinic'
loop_
_space_group_symop_operation_xyz
x,y,z
-x,y,-z
-x,-y,-z
x,-y,z
1/2+x,1/2+y,z
1/2-x,1/2+y,-z
1/2-x,1/2-y,-z
1/2+x,1/2-y,z
loop_
_atom_site_type_symbol
_atom_site_label
_atom_site_fract_x
_atom_site_fract_y
_atom_site_fract_z
Si Si1 0.516914 0.792519 0.643581
Si Si2 0.340424 0.704943 0.333254
Si Si3 0.831517 0.000000 0.252464
Si Si4 0.583831 0.798375 0.030574
Si Si5 0.135732 0.211394 0.917532
Si Si6 0.952082 0.500000 0.254089
Si Si7 0.559434 0.000000 0.941596
Si Si8 0.182244 0.000000 0.944758
O O1 0.411706 0.746863 0.483184
O O2 0.621046 0.771177 0.698326
O O3 0.541715 0.737871 0.751328
O O4 0.510482 0.904202 0.659392
O O5 0.368543 0.596453 0.336731
O O6 0.208277 0.701879 0.203348
O O7 0.695796 0.000000 0.096235
O O8 0.862114 0.000000 0.194008
O O9 0.529887 0.902000 0.952212
O O10 0.500000 0.748733 0.000000
O O11 0.607767 0.758655 0.969607
O O12 0.144107 0.098939 0.939259
O O13 0.250000 0.250000 0.000000
O O14 0.983411 0.500000 0.195484
O O15 0.816946 0.500000 0.099106
#
# Coordination Sequence:
#
# PCOD9204921 Si02
#       8
#     8   8   4   8   8   4   4   4
#     4  11  21  33  56  83 119 145 185 229 287 333
#     4  10  21  34  51  86 118 147 182 235 287 334
#     4   9  16  31  54  82 114 142 178 240 284 328
#     4  11  21  37  59  86 114 147 191 238 283 334
#     4  12  19  36  57  86 113 148 188 230 281 336
#     4  11  18  32  55  84 108 149 185 237 275 330
#     4   9  17  32  60  82 106 138 195 238 279 326
#     4  11  18  29  59  85 109 143 196 235 271 331
#
# _framework density 16.902761000000002
#
# number of rings (size 3 to 8) (size 9 to 14) (size 15 to 20)
#    0.000    1.333    6.667    1.250    0.000    3.333 
#    0.000    2.083    0.000    0.000    0.000    0.000 
#    0.000    0.000    0.000    0.000    0.000    0.000 
#
# Total GULP energy -133701.689815 kJ/mol
# GULP energy per Si atom -5570.903742 kJ/mol
# Density = 1.686429 g / cm^3
# Si number density = 16.902761 Si / 1000 Ang^3
#
#
#
# Elastic Constant Matrix: (Units=GPa)
#
#
# Indices 1 2 3 4 5 6 
#
# 1 94.8317 29.4460 35.7361 0.0000 -11.9630 0.0000
# 2 29.4460 118.9504 39.0701 0.0000 -18.5775 0.0000
# 3 35.7361 39.0701 111.3450 0.0000 -17.0550 0.0000
# 4 0.0000 0.0000 0.0000 28.8178 0.0000 -7.2122
# 5 -11.9630 -18.5775 -17.0550 0.0000 21.7931 0.0000
# 6 0.0000 0.0000 0.0000 -7.2122 0.0000 7.0297
#
#
#
# Elastic Compliance Matrix: (Units=1/GPa)
#
#
# Indices 1 2 3 4 5 6 
#
# 1 0.012576 -0.001640 -0.002974 0.000000 0.003178 0.000000
# 2 -0.001640 0.010526 -0.002194 0.000000 0.006356 0.000000
# 3 -0.002974 -0.002194 0.011554 0.000000 0.005539 0.000000
# 4 0.000000 0.000000 0.000000 0.046689 0.000000 0.047901
# 5 0.003178 0.006356 0.005539 0.000000 0.057384 0.000000
# 6 0.000000 0.000000 0.000000 0.047901 0.000000 0.191400
#
#
# Mechanical properties :
#
#
# Convention : Reuss Voigt Hill
#
# Bulk Modulus (GPa) = 47.52732 59.29237 53.40984
# Shear Modulus (GPa) = 14.25490 26.25311 20.25400
#
# Velocity S-wave (km/s) = 2.90719 3.94532 3.46535
# Velocity P-wave (km/s) = 6.28078 7.47722 6.90496
#
# Compressibility (1/GPa) = 0.02104053
#
# Stress axis : x y z
#
# Youngs Moduli (GPa) = 79.51763 95.00286 86.55177
#
# Poissons Ratio (x) = 0.15580 0.25740
# Poissons Ratio (y) = 0.13041 0.18986
# Poissons Ratio (z) = 0.23648 0.20840
#
# Static dielectric constant tensor:
#      x y z
#    x 1.595030 0.000000 0.005510 
#    y 0.000000 1.608980 0.000000 
#    z 0.005510 0.000000 1.595320 
# 
# From -- ./inp_files/233515.got.cif
#   From: 2010.05.17/outbox.cif.g08.bks.cpg/sg12_117_cif.got.tgz:233515.got - 2010.06.03 13:09:07.
