data_PCOD9204412
_publ_section_title
;
Structure prediction by ZEFSAII (Michael W. Deem and Ramdas Pophale) SiO2 
 PCOD9204412
Probable space group: C 2/M
;
_chemical_formula_sum "Si O2"
_cell_formula_units_Z 48
_cell_length_a 18.981170
_cell_length_b 31.271851
_cell_length_c 8.808656
_cell_angle_alpha 90.000000
_cell_angle_beta 149.764814
_cell_angle_gamma 90.000000
_cell_volume 2632.869575
_symmetry_space_group_name_H-M "C 2/M"
_symmetry_group_IT_number 12
_symmetry_cell_setting 'monoclinic'
loop_
_space_group_symop_operation_xyz
x,y,z
-x,y,-z
-x,-y,-z
x,-y,z
1/2+x,1/2+y,z
1/2-x,1/2+y,-z
1/2-x,1/2-y,-z
1/2+x,1/2-y,z
loop_
_atom_site_type_symbol
_atom_site_label
_atom_site_fract_x
_atom_site_fract_y
_atom_site_fract_z
Si Si1 0.144277 0.549739 0.174631
Si Si2 0.344699 0.380917 0.646753
Si Si3 0.868339 0.744802 0.348340
Si Si4 0.914610 0.617230 0.191806
Si Si5 0.372385 0.343933 0.367004
Si Si6 0.397463 0.820967 0.668249
O O1 0.174862 0.500000 0.206922
O O2 0.263163 0.574135 0.492083
O O3 0.126569 0.576007 0.985002
O O4 0.000000 0.553440 0.000000
O O5 0.366185 0.367529 0.513655
O O6 0.237994 0.346459 0.522364
O O7 0.500000 0.382486 0.000000
O O8 0.894846 0.793906 0.443096
O O9 0.849086 0.716475 0.462854
O O10 0.000000 0.726983 0.500000
O O11 0.750000 0.750000 0.000000
O O12 0.000000 0.605647 0.500000
O O13 0.007602 0.646720 0.253821
O O14 0.777617 0.644624 0.984697
O O15 0.500000 0.358107 0.500000
O O16 0.500000 0.807275 0.000000
#
# Coordination Sequence:
#
# PCOD9204412 Si02
#       6
#     8   8   8   8   8   8
#     4  10  20  41  67  95 126 154 203 261 313 381
#     4  11  24  39  63  91 123 163 206 258 311 376
#     4  11  25  40  59  87 127 170 212 263 319 366
#     4  11  21  39  66  90 123 167 206 256 310 377
#     4  10  23  40  56  87 124 165 207 250 316 366
#     4  12  22  42  64  90 120 166 225 262 312 366
#
# _framework density 18.231058999999998
#
# number of rings (size 3 to 8) (size 9 to 14) (size 15 to 20)
#    0.000    1.167    5.000    2.500    7.000    2.000 
#    0.000    0.000    0.000    8.000    0.000    0.000 
#    0.000    0.000    0.000    0.000    0.000    0.000 
#
# Total GULP energy -133932.608839 kJ/mol
# GULP energy per Si atom -5580.525368 kJ/mol
# Density = 1.818956 g / cm^3
# Si number density = 18.231059 Si / 1000 Ang^3
#
#
#
# Elastic Constant Matrix: (Units=GPa)
#
#
# Indices 1 2 3 4 5 6 
#
# 1 108.7387 51.0257 58.3813 0.0000 15.0342 0.0000
# 2 51.0257 100.2045 44.6488 0.0000 1.4875 0.0000
# 3 58.3813 44.6488 154.6854 0.0000 0.7619 0.0000
# 4 0.0000 0.0000 0.0000 16.0721 0.0000 0.3383
# 5 15.0342 1.4875 0.7619 0.0000 39.2814 0.0000
# 6 0.0000 0.0000 0.0000 0.3383 0.0000 22.5307
#
#
#
# Elastic Compliance Matrix: (Units=1/GPa)
#
#
# Indices 1 2 3 4 5 6 
#
# 1 0.014672 -0.005665 -0.003876 0.000000 -0.005326 0.000000
# 2 -0.005665 0.013645 -0.001809 0.000000 0.001687 0.000000
# 3 -0.003876 -0.001809 0.008443 0.000000 0.001388 0.000000
# 4 0.000000 0.000000 0.000000 0.062239 0.000000 -0.000935
# 5 -0.005326 0.001687 0.001388 0.000000 0.027405 0.000000
# 6 0.000000 0.000000 0.000000 -0.000935 0.000000 0.044398
#
#
# Mechanical properties :
#
#
# Convention : Reuss Voigt Hill
#
# Bulk Modulus (GPa) = 71.12239 74.63780 72.88009
# Shear Modulus (GPa) = 25.22839 29.54834 27.38837
#
# Velocity S-wave (km/s) = 3.72400 4.03025 3.88015
# Velocity P-wave (km/s) = 7.58863 7.91745 7.75478
#
# Compressibility (1/GPa) = 0.01406027
#
# Stress axis : x y z
#
# Youngs Moduli (GPa) = 68.15642 73.28541 118.44252
#
# Poissons Ratio (x) = 0.41517 0.45910
# Poissons Ratio (y) = 0.38611 0.21424
# Poissons Ratio (z) = 0.26418 0.13256
#
# Static dielectric constant tensor:
#      x y z
#    x 1.585250 0.000000 0.075140 
#    y 0.000000 1.635780 0.000000 
#    z 0.075140 0.000000 1.650220 
# 
# From -- ./inp_files/42235.got.cif
#   From: 2010.05.17/outbox.cif.g08.bks.cpg/sg12_22_cif.got.tgz:42235.got - 2010.06.03 13:09:07.
