data_PCOD9204449
_publ_section_title
;
Structure prediction by ZEFSAII (Michael W. Deem and Ramdas Pophale) SiO2 
 PCOD9204449
Probable space group: C 2/M
;
_chemical_formula_sum "Si O2"
_cell_formula_units_Z 40
_cell_length_a 17.104390
_cell_length_b 25.073782
_cell_length_c 8.509042
_cell_angle_alpha 90.000000
_cell_angle_beta 33.678149
_cell_angle_gamma 90.000000
_cell_volume 2023.628937
_symmetry_space_group_name_H-M "C 2/M"
_symmetry_group_IT_number 12
_symmetry_cell_setting 'monoclinic'
loop_
_space_group_symop_operation_xyz
x,y,z
-x,y,-z
-x,-y,-z
x,-y,z
1/2+x,1/2+y,z
1/2-x,1/2+y,-z
1/2-x,1/2-y,-z
1/2+x,1/2-y,z
loop_
_atom_site_type_symbol
_atom_site_label
_atom_site_fract_x
_atom_site_fract_y
_atom_site_fract_z
Si Si1 0.368208 0.062422 0.330817
Si Si2 0.408696 0.757651 0.296593
Si Si3 0.555213 0.336381 0.236400
Si Si4 0.060621 0.060673 0.722728
Si Si5 0.870642 0.351429 0.601832
O O1 0.227683 0.067085 0.461795
O O2 0.352999 0.100579 0.506294
O O3 0.380865 0.000000 0.357170
O O4 0.500000 0.076351 0.000000
O O5 0.250000 0.750000 0.500000
O O6 0.483850 0.703539 0.229851
O O7 0.407478 0.799100 0.440054
O O8 0.500000 0.779593 0.000000
O O9 0.500000 0.320203 0.500000
O O10 0.501381 0.395522 0.287513
O O11 0.723920 0.338641 0.935636
O O12 0.026871 0.000000 0.732646
O O13 0.000000 0.068883 0.000000
O O14 0.000000 0.363722 0.500000
#
# Coordination Sequence:
#
# PCOD9204449 Si02
#       5
#     8   8   8   8   8
#     4  10  22  42  68  97 128 168 218 265 311 374
#     4  12  25  45  71  92 121 167 217 266 316 376
#     4  12  27  43  63  97 135 165 211 266 319 384
#     4  10  20  41  70  92 123 171 218 262 310 369
#     4  12  27  43  64  96 133 170 209 261 326 383
#
# _framework density 19.766470000000002
#
# number of rings (size 3 to 8) (size 9 to 14) (size 15 to 20)
#    0.000    0.800    4.000    3.000    5.600    2.400 
#    0.000    0.000    0.000    0.000    0.000    0.000 
#    0.000    0.000    0.000    0.000    0.000    0.000 
#
# Total GULP energy -111856.108245 kJ/mol
# GULP energy per Si atom -5592.805412 kJ/mol
# Density = 1.972148 g / cm^3
# Si number density = 19.766470 Si / 1000 Ang^3
#
#
#
# Elastic Constant Matrix: (Units=GPa)
#
#
# Indices 1 2 3 4 5 6 
#
# 1 63.8967 26.6093 23.9221 0.0001 -9.3976 -0.0001
# 2 26.6093 72.5608 15.5088 0.0000 -2.2085 0.0000
# 3 23.9221 15.5088 159.1353 0.0002 -9.8287 -0.0001
# 4 0.0001 0.0000 0.0002 20.0283 -0.0001 0.1079
# 5 -9.3976 -2.2085 -9.8287 -0.0001 30.6857 0.0001
# 6 -0.0001 0.0000 -0.0001 0.1079 0.0001 12.4170
#
#
#
# Elastic Compliance Matrix: (Units=1/GPa)
#
#
# Indices 1 2 3 4 5 6 
#
# 1 0.019945 -0.006728 -0.002036 0.000000 0.004972 0.000000
# 2 -0.006728 0.016354 -0.000650 0.000000 -0.001092 0.000000
# 3 -0.002036 -0.000650 0.006745 0.000000 0.001490 0.000000
# 4 0.000000 0.000000 0.000000 0.049932 0.000000 -0.000434
# 5 0.004972 -0.001092 0.001490 0.000000 0.034510 0.000000
# 6 0.000000 0.000000 0.000000 -0.000434 0.000000 0.080539
#
#
# Mechanical properties :
#
#
# Convention : Reuss Voigt Hill
#
# Bulk Modulus (GPa) = 41.29069 47.51925 44.40497
# Shear Modulus (GPa) = 21.28338 27.92969 24.60653
#
# Velocity S-wave (km/s) = 3.28493 3.76304 3.53209
# Velocity P-wave (km/s) = 5.94326 6.55539 6.25682
#
# Compressibility (1/GPa) = 0.02421854
#
# Stress axis : x y z
#
# Youngs Moduli (GPa) = 50.13687 61.14538 148.25048
#
# Poissons Ratio (x) = 0.41138 0.30177
# Poissons Ratio (y) = 0.33732 0.09635
# Poissons Ratio (z) = 0.10206 0.03974
#
# Static dielectric constant tensor:
#      x y z
#    x 1.668770 0.000000 -0.057640 
#    y 0.000000 1.689960 0.000000 
#    z -0.057640 0.000000 1.624470 
# 
# From -- ./inp_files/39242.got.cif
#   From: 2010.05.17/outbox.cif.g08.bks.cpg/sg12_20_cif.got.tgz:39242.got - 2010.06.03 13:09:07.
