data_PCOD9204307
_publ_section_title
;
Structure prediction by ZEFSAII (Michael W. Deem and Ramdas Pophale) SiO2 
 PCOD9204307
Probable space group: C 2/M
;
_chemical_formula_sum "Si O2"
_cell_formula_units_Z 48
_cell_length_a 9.622208
_cell_length_b 17.722610
_cell_length_c 21.771961
_cell_angle_alpha 90.000000
_cell_angle_beta 37.595698
_cell_angle_gamma 90.000000
_cell_volume 2265.117816
_symmetry_space_group_name_H-M "C 2/M"
_symmetry_group_IT_number 12
_symmetry_cell_setting 'monoclinic'
loop_
_space_group_symop_operation_xyz
x,y,z
-x,y,-z
-x,-y,-z
x,-y,z
1/2+x,1/2+y,z
1/2-x,1/2+y,-z
1/2-x,1/2-y,-z
1/2+x,1/2-y,z
loop_
_atom_site_type_symbol
_atom_site_label
_atom_site_fract_x
_atom_site_fract_y
_atom_site_fract_z
Si Si1 0.743193 0.085283 0.713446
Si Si2 0.181949 0.334021 0.343464
Si Si3 0.731464 0.586143 0.508309
Si Si4 0.489718 0.833034 0.903525
Si Si5 0.360403 0.317896 0.876687
Si Si6 0.819708 0.697616 0.375743
O O1 0.601055 0.102767 0.823478
O O2 0.663288 0.141882 0.687990
O O3 0.818346 0.151623 0.523989
O O4 0.706749 0.000000 0.704793
O O5 0.420538 0.358002 0.229897
O O6 0.228885 0.275669 0.381612
O O7 0.995589 0.395449 0.430137
O O8 0.053601 0.291372 0.331691
O O9 0.722555 0.500000 0.487753
O O10 0.516806 0.593192 0.628858
O O11 0.428495 0.763301 0.880678
O O12 0.679051 0.806651 0.885986
O O13 0.271372 0.856912 0.020533
#
# Coordination Sequence:
#
# PCOD9204307 Si02
#       6
#     8   8   8   8   8   8
#     4  11  22  41  63  89 125 172 220 250 309 396
#     4  10  21  37  64  95 124 162 210 265 315 374
#     4   9  22  42  63  89 132 177 207 255 321 384
#     4  10  22  38  65  92 118 167 203 257 319 377
#     4  10  20  41  61  92 128 151 206 267 321 367
#     4  10  21  37  63  96 126 163 211 262 315 365
#
# _framework density 21.190950000000001
#
# number of rings (size 3 to 8) (size 9 to 14) (size 15 to 20)
#    1.000    1.000    1.667    2.000    0.000    2.000 
#    3.000    4.167    0.000    3.000    0.000    0.000 
#    0.000    0.000    0.000    0.000    0.000    0.000 
#
# Total GULP energy -133811.962164 kJ/mol
# GULP energy per Si atom -5575.498424 kJ/mol
# Density = 2.114272 g / cm^3
# Si number density = 21.190950 Si / 1000 Ang^3
#
#
#
# Elastic Constant Matrix: (Units=GPa)
#
#
# Indices 1 2 3 4 5 6 
#
# 1 59.2719 8.4510 20.6650 -0.0024 -8.3471 -0.0027
# 2 8.4510 35.1491 27.6152 0.0104 3.2247 -0.0012
# 3 20.6650 27.6152 161.3038 0.0106 2.0233 -0.0075
# 4 -0.0024 0.0104 0.0106 28.2898 -0.0001 -4.2247
# 5 -8.3471 3.2247 2.0233 -0.0001 30.7209 -0.0010
# 6 -0.0027 -0.0012 -0.0075 -4.2247 -0.0010 2.3672
#
#
#
# Elastic Compliance Matrix: (Units=1/GPa)
#
#
# Indices 1 2 3 4 5 6 
#
# 1 0.018823 -0.003571 -0.001871 0.000008 0.005612 0.000030
# 2 -0.003571 0.033843 -0.005284 -0.000016 -0.004175 -0.000033
# 3 -0.001871 -0.005284 0.007349 0.000002 -0.000438 0.000022
# 4 0.000008 -0.000016 0.000002 0.048193 0.000007 0.086012
# 5 0.005612 -0.004175 -0.000438 0.000007 0.034543 0.000030
# 6 0.000030 -0.000033 0.000022 0.086012 0.000030 0.575958
#
#
# Mechanical properties :
#
#
# Convention : Reuss Voigt Hill
#
# Bulk Modulus (GPa) = 25.93064 41.02079 33.47572
# Shear Modulus (GPa) = 6.63997 25.54180 16.09089
#
# Velocity S-wave (km/s) = 1.77206 3.47553 2.75858
# Velocity P-wave (km/s) = 4.05588 5.95865 5.09684
#
# Compressibility (1/GPa) = 0.03856442
#
# Stress axis : x y z
#
# Youngs Moduli (GPa) = 53.12624 29.54791 136.06828
#
# Poissons Ratio (x) = 0.10552 0.25452
# Poissons Ratio (y) = 0.18971 0.71900
# Poissons Ratio (z) = 0.09937 0.15613
#
# Static dielectric constant tensor:
#      x y z
#    x 1.799490 0.000000 -0.027380 
#    y 0.000000 1.723000 0.000000 
#    z -0.027380 0.000000 1.834780 
# 
# From -- ./inp_files/333547.got.cif
#   From: 2010.05.17/outbox.cif.g08.bks.cpg/sg12_167_cif.got.tgz:333547.got - 2010.06.03 13:09:07.
