data_PCOD9204667
_publ_section_title
;
Structure prediction by ZEFSAII (Michael W. Deem and Ramdas Pophale) SiO2 
 PCOD9204667
Probable space group: C 2/M
;
_chemical_formula_sum "Si O2"
_cell_formula_units_Z 48
_cell_length_a 15.506930
_cell_length_b 20.868057
_cell_length_c 8.665948
_cell_angle_alpha 90.000000
_cell_angle_beta 63.658479
_cell_angle_gamma 90.000000
_cell_volume 2513.112624
_symmetry_space_group_name_H-M "C 2/M"
_symmetry_group_IT_number 12
_symmetry_cell_setting 'monoclinic'
loop_
_space_group_symop_operation_xyz
x,y,z
-x,y,-z
-x,-y,-z
x,-y,z
1/2+x,1/2+y,z
1/2-x,1/2+y,-z
1/2-x,1/2-y,-z
1/2+x,1/2-y,z
loop_
_atom_site_type_symbol
_atom_site_label
_atom_site_fract_x
_atom_site_fract_y
_atom_site_fract_z
Si Si1 0.227569 0.805461 0.895184
Si Si2 0.438930 0.784514 0.696673
Si Si3 0.377504 0.771681 0.294593
Si Si4 0.889309 0.865981 0.763402
Si Si5 0.805736 0.149471 0.509312
Si Si6 0.557325 0.575109 0.801665
O O1 0.336772 0.819966 0.759812
O O2 0.160593 0.768533 0.823767
O O3 0.250000 0.750000 0.000000
O O4 0.178243 0.862166 0.031113
O O5 0.500000 0.802655 0.500000
O O6 0.512031 0.793631 0.783601
O O7 0.421612 0.707889 0.717834
O O8 0.304841 0.829846 0.386084
O O9 0.358601 0.718362 0.443072
O O10 0.837195 0.882174 0.645323
O O11 0.981156 0.908895 0.727008
O O12 0.844302 0.108673 0.333259
O O13 0.573013 0.500000 0.808874
O O14 0.500000 0.599502 0.000000
#
# Coordination Sequence:
#
# PCOD9204667 Si02
#       6
#     8   8   8   8   8   8
#     4  10  21  32  46  77 109 147 184 224 271 338
#     4  11  18  31  50  75 109 151 183 219 271 336
#     4  11  19  32  53  76 111 152 181 222 289 331
#     4  11  20  35  50  77 113 144 184 232 270 332
#     4  11  20  34  52  76 109 143 185 227 277 332
#     4  11  24  39  57  79 106 150 197 236 284 333
#
# _framework density 19.099820999999999
#
# number of rings (size 3 to 8) (size 9 to 14) (size 15 to 20)
#    0.000    1.167    6.667    2.500    0.000    3.333 
#    0.000    0.000    0.000    0.000    0.000    1.167 
#    0.000    8.000    0.000    0.167    0.000    0.000 
#
# Total GULP energy -133667.049944 kJ/mol
# GULP energy per Si atom -5569.460414 kJ/mol
# Density = 1.905635 g / cm^3
# Si number density = 19.099821 Si / 1000 Ang^3
#
#
#
# Elastic Constant Matrix: (Units=GPa)
#
#
# Indices 1 2 3 4 5 6 
#
# 1 84.7128 3.2748 33.7805 0.0000 10.3471 0.0000
# 2 3.2748 26.8081 11.2478 0.0000 -6.2829 0.0000
# 3 33.7805 11.2478 105.5104 0.0000 -0.6779 0.0000
# 4 0.0000 0.0000 0.0000 19.7713 0.0000 -5.9938
# 5 10.3471 -6.2829 -0.6779 0.0000 38.0341 0.0000
# 6 0.0000 0.0000 0.0000 -5.9938 0.0000 17.3183
#
#
#
# Elastic Compliance Matrix: (Units=1/GPa)
#
#
# Indices 1 2 3 4 5 6 
#
# 1 0.014108 -0.000802 -0.004457 0.000000 -0.004050 0.000000
# 2 -0.000802 0.040705 -0.004038 0.000000 0.006870 0.000000
# 3 -0.004457 -0.004038 0.011340 0.000000 0.000748 0.000000
# 4 0.000000 0.000000 0.000000 0.056507 0.000000 0.019557
# 5 -0.004050 0.006870 0.000748 0.000000 0.028542 0.000000
# 6 0.000000 0.000000 0.000000 0.019557 0.000000 0.064511
#
#
# Mechanical properties :
#
#
# Convention : Reuss Voigt Hill
#
# Bulk Modulus (GPa) = 21.02753 34.84861 27.93807
# Shear Modulus (GPa) = 19.98714 26.27328 23.13021
#
# Velocity S-wave (km/s) = 3.23841 3.71290 3.48374
# Velocity P-wave (km/s) = 5.00162 6.05524 5.55348
#
# Compressibility (1/GPa) = 0.04755670
#
# Stress axis : x y z
#
# Youngs Moduli (GPa) = 70.88337 24.56719 88.18288
#
# Poissons Ratio (x) = 0.01971 0.39305
# Poissons Ratio (y) = 0.05688 0.35610
# Poissons Ratio (z) = 0.31594 0.09921
#
# Static dielectric constant tensor:
#      x y z
#    x 1.823680 0.000000 -0.019070 
#    y 0.000000 1.624620 0.000000 
#    z -0.019070 0.000000 1.818700 
# 
# From -- ./inp_files/64722.got.cif
#   From: 2010.05.17/outbox.cif.g08.bks.cpg/sg12_33_cif.got.tgz:64722.got - 2010.06.03 13:09:07.
