data_PCOD9204294
_publ_section_title
;
Structure prediction by ZEFSAII (Michael W. Deem and Ramdas Pophale) SiO2 
 PCOD9204294
Probable space group: C 2/M
;
_chemical_formula_sum "Si O2"
_cell_formula_units_Z 50
_cell_length_a 19.354365
_cell_length_b 15.212924
_cell_length_c 8.781640
_cell_angle_alpha 90.000000
_cell_angle_beta 95.512413
_cell_angle_gamma 90.000000
_cell_volume 2573.677702
_symmetry_space_group_name_H-M "C 2/M"
_symmetry_group_IT_number 12
_symmetry_cell_setting 'monoclinic'
loop_
_space_group_symop_operation_xyz
x,y,z
-x,y,-z
-x,-y,-z
x,-y,z
1/2+x,1/2+y,z
1/2-x,1/2+y,-z
1/2-x,1/2-y,-z
1/2+x,1/2-y,z
loop_
_atom_site_type_symbol
_atom_site_label
_atom_site_fract_x
_atom_site_fract_y
_atom_site_fract_z
Si Si1 0.818894 0.744100 0.359824
Si Si2 0.926789 0.601089 0.911920
Si Si3 0.416289 0.642103 0.793517
Si Si4 0.666633 0.751461 0.977608
Si Si5 0.713902 0.397887 0.434287
Si Si6 0.500000 0.500000 0.000000
Si Si7 0.559192 0.809488 0.390304
O O1 0.852808 0.757347 0.203360
O O2 0.762678 0.665184 0.340786
O O3 0.789199 0.837689 0.413335
O O4 0.872059 0.711604 0.499370
O O5 0.918056 0.500000 0.950413
O O6 0.930629 0.614820 0.731473
O O7 0.864269 0.658118 0.964432
O O8 0.000000 0.631879 0.000000
O O9 0.361718 0.602433 0.660629
O O10 0.453433 0.722974 0.715577
O O11 0.369155 0.679549 0.922147
O O12 0.469793 0.575681 0.877047
O O13 0.750000 0.750000 0.000000
O O14 0.736038 0.500000 0.457603
O O15 0.500000 0.827102 0.500000
#
# Coordination Sequence:
#
# PCOD9204294 Si02
#       7
#     8   8   8   8   8   2   8
#     4  10  22  38  62  90 121 165 209 259 318 377
#     4  10  23  42  66  94 128 164 212 267 314 379
#     4  10  23  40  62  92 126 166 212 265 309 384
#     4  11  22  42  66  91 128 169 215 261 319 383
#     4  10  20  41  59  86 126 162 208 262 316 372
#     4  12  24  40  66  92 130 168 214 264 324 372
#     4  10  22  40  64  91 126 166 209 258 323 383
#
# _framework density 19.427451000000001
#
# number of rings (size 3 to 8) (size 9 to 14) (size 15 to 20)
#    0.000    1.760    2.400    0.960    8.960    1.600 
#    2.880    0.400    0.000    0.000    0.000    0.000 
#    0.000    0.000    0.000    0.000    0.000    0.000 
#
# Total GULP energy -139204.897329 kJ/mol
# GULP energy per Si atom -5568.195893 kJ/mol
# Density = 1.938323 g / cm^3
# Si number density = 19.427451 Si / 1000 Ang^3
#
#
#
# Elastic Constant Matrix: (Units=GPa)
#
#
# Indices 1 2 3 4 5 6 
#
# 1 61.2481 23.1119 22.0016 0.0000 -6.8975 0.0000
# 2 23.1119 96.3541 17.6984 0.0000 -1.3883 0.0000
# 3 22.0016 17.6984 99.0923 0.0000 -14.1820 0.0000
# 4 0.0000 0.0000 0.0000 12.1334 0.0000 14.5565
# 5 -6.8975 -1.3883 -14.1820 0.0000 43.0998 0.0000
# 6 0.0000 0.0000 0.0000 14.5565 0.0000 14.5067
#
#
#
# Elastic Compliance Matrix: (Units=1/GPa)
#
#
# Indices 1 2 3 4 5 6 
#
# 1 0.019220 -0.003979 -0.003290 0.000000 0.001865 0.000000
# 2 -0.003979 0.011558 -0.001279 0.000000 -0.000685 0.000000
# 3 -0.003290 -0.001279 0.011511 0.000000 0.003220 0.000000
# 4 0.000000 0.000000 0.000000 -0.404353 0.000000 0.405742
# 5 0.001865 -0.000685 0.003220 0.000000 0.024538 0.000000
# 6 0.000000 0.000000 0.000000 0.405742 0.000000 -0.338201
#
#
# Mechanical properties :
#
#
# Convention : Reuss Voigt Hill
#
# Bulk Modulus (GPa) = 39.69229 42.47980 41.08604
# Shear Modulus (GPa) = -7.68955 26.87351 9.59198
#
# Velocity S-wave (km/s) = -1.99165 3.72328 2.22442
# Velocity P-wave (km/s) = 3.89698 6.35587 5.27179
#
# Compressibility (1/GPa) = 0.02519381
#
# Stress axis : x y z
#
# Youngs Moduli (GPa) = 52.02804 86.52114 86.87091
#
# Poissons Ratio (x) = 0.34428 0.28580
# Poissons Ratio (y) = 0.20703 0.11110
# Poissons Ratio (z) = 0.17117 0.11065
#
# Static dielectric constant tensor:
#      x y z
#    x 1.700900 0.000000 0.022400 
#    y 0.000000 1.663200 0.000000 
#    z 0.022400 0.000000 1.685190 
# 
# From -- ./inp_files/85909.got.cif
#   From: 2010.05.17/outbox.cif.g08.bks.cpg/sg12_43_cif.got.tgz:85909.got - 2010.06.03 13:09:07.
