data_PCOD9204722
_publ_section_title
;
Structure prediction by ZEFSAII (Michael W. Deem and Ramdas Pophale) SiO2 
 PCOD9204722
Probable space group: C 2/M
;
_chemical_formula_sum "Si O2"
_cell_formula_units_Z 64
_cell_length_a 15.271693
_cell_length_b 24.577745
_cell_length_c 19.513076
_cell_angle_alpha 90.000000
_cell_angle_beta 150.572855
_cell_angle_gamma 90.000000
_cell_volume 3598.456550
_symmetry_space_group_name_H-M "C 2/M"
_symmetry_group_IT_number 12
_symmetry_cell_setting 'monoclinic'
loop_
_space_group_symop_operation_xyz
x,y,z
-x,y,-z
-x,-y,-z
x,-y,z
1/2+x,1/2+y,z
1/2-x,1/2+y,-z
1/2-x,1/2-y,-z
1/2+x,1/2-y,z
loop_
_atom_site_type_symbol
_atom_site_label
_atom_site_fract_x
_atom_site_fract_y
_atom_site_fract_z
Si Si1 0.642020 0.669019 0.541807
Si Si2 0.149897 0.242061 0.229058
Si Si3 0.793807 0.368179 0.515013
Si Si4 0.723327 0.223220 0.055917
Si Si5 0.451964 0.062100 0.394676
Si Si6 0.459499 0.234256 0.338250
Si Si7 0.986348 0.860656 0.196242
Si Si8 0.528228 0.562929 0.096479
O O1 0.500000 0.646921 0.500000
O O2 0.774874 0.708997 0.673187
O O3 0.739300 0.628086 0.557153
O O4 0.537349 0.708970 0.418412
O O5 0.312086 0.218796 0.294422
O O6 0.079002 0.192487 0.225943
O O7 0.485881 0.233137 0.073471
O O8 0.881931 0.308591 0.562480
O O9 0.625863 0.378890 0.350094
O O10 0.951898 0.407928 0.601090
O O11 0.849413 0.255050 0.194490
O O12 0.802574 0.162254 0.103564
O O13 0.750000 0.250000 0.000000
O O14 0.500000 0.089236 0.500000
O O15 0.241065 0.061730 0.247646
O O16 0.518799 0.000000 0.441559
O O17 0.960097 0.902496 0.115186
O O18 0.461919 0.500000 0.053047
O O19 0.500000 0.585460 0.000000
#
# Coordination Sequence:
#
# PCOD9204722 Si02
#       8
#     8   8   8   8   8   8   8   8
#     4  10  21  35  51  75 105 140 182 225 266 316
#     4  10  21  33  48  75 107 140 176 222 266 314
#     4  12  20  32  57  78 102 143 186 224 262 328
#     4  10  21  33  45  71 107 140 175 220 258 309
#     4  10  21  35  54  82 110 137 174 222 273 323
#     4  11  20  32  52  73 104 140 179 216 266 321
#     4  11  20  32  53  75 103 142 185 213 263 322
#     4  10  22  38  54  78 113 142 172 221 273 325
#
# _framework density 17.785402999999999
#
# number of rings (size 3 to 8) (size 9 to 14) (size 15 to 20)
#    0.000    1.500    3.750    3.000    0.000    5.000 
#    0.000    0.000    0.000    0.375    0.000    0.000 
#    0.000    3.000    0.000    0.250    0.000    0.000 
#
# Total GULP energy -178443.131082 kJ/mol
# GULP energy per Si atom -5576.347846 kJ/mol
# Density = 1.774492 g / cm^3
# Si number density = 17.785403 Si / 1000 Ang^3
#
#
#
# Elastic Constant Matrix: (Units=GPa)
#
#
# Indices 1 2 3 4 5 6 
#
# 1 78.1354 12.9578 -5.1380 0.0041 -10.1684 0.0059
# 2 12.9578 27.3313 -7.4200 0.0016 -9.1801 0.0023
# 3 -5.1380 -7.4200 85.7149 0.0075 -12.2235 0.0087
# 4 0.0041 0.0016 0.0075 6.8463 0.0043 -29.6148
# 5 -10.1684 -9.1801 -12.2235 0.0043 28.4373 0.0057
# 6 0.0059 0.0023 0.0087 -29.6148 0.0057 -42.8473
#
#
#
# Elastic Compliance Matrix: (Units=1/GPa)
#
#
# Indices 1 2 3 4 5 6 
#
# 1 0.014220 -0.005205 0.000945 0.000000 0.003811 0.000002
# 2 -0.005205 0.045838 0.005860 0.000000 0.015455 0.000005
# 3 0.000945 0.005860 0.013368 -0.000001 0.007976 0.000005
# 4 0.000000 0.000000 -0.000001 0.036610 -0.000001 -0.025304
# 5 0.003811 0.015455 0.007976 -0.000001 0.044945 0.000010
# 6 0.000002 0.000005 0.000005 -0.025304 0.000010 -0.005850
#
#
# Mechanical properties :
#
#
# Convention : Reuss Voigt Hill
#
# Bulk Modulus (GPa) = 13.05049 21.33123 17.19086
# Shear Modulus (GPa) = 29.15932 11.20606 20.18269
#
# Velocity S-wave (km/s) = 4.05348 2.51284 3.37232
# Velocity P-wave (km/s) = 5.40937 4.52094 4.98498
#
# Compressibility (1/GPa) = 0.07662547
#
# Stress axis : x y z
#
# Youngs Moduli (GPa) = 70.32581 21.81610 74.80599
#
# Poissons Ratio (x) = 0.11355 -0.07071
# Poissons Ratio (y) = 0.36605 -0.43836
# Poissons Ratio (z) = -0.06647 -0.12784
#
# Static dielectric constant tensor:
#      x y z
#    x 1.667070 0.000000 0.002600 
#    y 0.000000 1.630670 0.000000 
#    z 0.002600 0.000000 1.664860 
# 
# From -- ./inp_files/218519.got.cif
#   From: 2010.05.17/outbox.cif.g08.bks.cpg/sg12_110_cif.got.tgz:218519.got - 2010.06.03 13:09:07.
