data_PCOD9204492
_publ_section_title
;
Structure prediction by ZEFSAII (Michael W. Deem and Ramdas Pophale) SiO2 
 PCOD9204492
Probable space group: C 2/M
;
_chemical_formula_sum "Si O2"
_cell_formula_units_Z 60
_cell_length_a 8.753481
_cell_length_b 21.341720
_cell_length_c 22.220091
_cell_angle_alpha 90.000000
_cell_angle_beta 133.824280
_cell_angle_gamma 90.000000
_cell_volume 2994.831754
_symmetry_space_group_name_H-M "C 2/M"
_symmetry_group_IT_number 12
_symmetry_cell_setting 'monoclinic'
loop_
_space_group_symop_operation_xyz
x,y,z
-x,y,-z
-x,-y,-z
x,-y,z
1/2+x,1/2+y,z
1/2-x,1/2+y,-z
1/2-x,1/2-y,-z
1/2+x,1/2-y,z
loop_
_atom_site_type_symbol
_atom_site_label
_atom_site_fract_x
_atom_site_fract_y
_atom_site_fract_z
Si Si1 0.297252 0.782827 0.208548
Si Si2 0.646030 0.332879 0.453696
Si Si3 0.555097 0.575000 0.687069
Si Si4 0.452504 0.111977 0.162691
Si Si5 0.452702 0.611805 0.792289
Si Si6 0.270898 0.500000 0.826905
Si Si7 0.267909 0.223750 0.603875
Si Si8 0.899405 0.663856 0.911051
O O1 0.360939 0.826996 0.170399
O O2 0.515646 0.769779 0.301970
O O3 0.185311 0.720887 0.153189
O O4 0.155149 0.823654 0.215436
O O5 0.576630 0.397589 0.405026
O O6 0.765062 0.289460 0.438583
O O7 0.425433 0.296317 0.407062
O O8 0.767694 0.328924 0.550462
O O9 0.562957 0.500000 0.688948
O O10 0.447251 0.599121 0.719322
O O11 0.798228 0.600332 0.752763
O O12 0.446946 0.123744 0.089819
O O13 0.320664 0.054359 0.151981
O O14 0.350602 0.555271 0.801358
O O15 0.701063 0.620187 0.873724
O O16 0.000000 0.687522 0.000000
#
# Coordination Sequence:
#
# PCOD9204492 Si02
#       8
#     8   8   8   8   8   4   8   8
#     4  11  22  38  65  93 124 165 210 263 326 395
#     4  10  22  36  59  92 127 173 212 266 325 361
#     4  11  20  39  64  89 128 174 218 268 307 378
#     4  10  21  38  65  90 122 170 217 257 314 383
#     4  10  23  39  64  92 125 167 221 261 315 384
#     4  10  20  42  63  92 120 171 227 264 300 379
#     4  10  21  38  58  92 129 163 217 267 314 387
#     4  11  25  42  63  97 131 161 204 273 339 394
#
# _framework density 20.034514000000001
#
# number of rings (size 3 to 8) (size 9 to 14) (size 15 to 20)
#    0.000    1.600    2.667    2.400    3.733    2.133 
#    0.000    5.333    5.867    0.800    0.000    0.000 
#    0.000    0.000    0.000    0.000    0.000    0.000 
#
# Total GULP energy -167001.942548 kJ/mol
# GULP energy per Si atom -5566.731418 kJ/mol
# Density = 1.998891 g / cm^3
# Si number density = 20.034514 Si / 1000 Ang^3
#
#
#
# Elastic Constant Matrix: (Units=GPa)
#
#
# Indices 1 2 3 4 5 6 
#
# 1 92.3220 28.8392 -8.1564 0.0000 -11.7039 0.0000
# 2 28.8392 79.5702 23.5943 0.0000 -12.7733 0.0000
# 3 -8.1564 23.5943 36.0104 0.0001 -7.0062 0.0000
# 4 0.0000 0.0000 0.0001 7.1816 0.0000 -8.4759
# 5 -11.7039 -12.7733 -7.0062 0.0000 4.4373 0.0000
# 6 0.0000 0.0000 0.0000 -8.4759 0.0000 20.5617
#
#
#
# Elastic Compliance Matrix: (Units=1/GPa)
#
#
# Indices 1 2 3 4 5 6 
#
# 1 0.030321 0.000855 0.032255 -0.000003 0.133363 -0.000001
# 2 0.000855 0.023648 -0.002335 -0.000001 0.066640 0.000000
# 3 0.032255 -0.002335 0.074840 -0.000006 0.196520 -0.000003
# 4 -0.000003 -0.000001 -0.000006 0.271173 -0.000022 0.111783
# 5 0.133363 0.066640 0.196520 -0.000022 1.079237 -0.000010
# 6 -0.000001 0.000000 -0.000003 0.111783 -0.000010 0.094713
#
#
# Mechanical properties :
#
#
# Convention : Reuss Voigt Hill
#
# Bulk Modulus (GPa) = 5.25326 32.93966 19.09646
# Shear Modulus (GPa) = 3.17292 17.34449 10.25871
#
# Velocity S-wave (km/s) = 1.25983 2.94552 2.26531
# Velocity P-wave (km/s) = 2.17808 5.29578 4.04903
#
# Compressibility (1/GPa) = 0.19035787
#
# Stress axis : x y z
#
# Youngs Moduli (GPa) = 32.98055 42.28739 13.36181
#
# Poissons Ratio (x) = -0.03615 -0.43098
# Poissons Ratio (y) = -0.02819 0.03120
# Poissons Ratio (z) = -1.06377 0.09874
#
# Static dielectric constant tensor:
#      x y z
#    x 1.737070 0.000000 -0.003410 
#    y 0.000000 1.676720 0.000000 
#    z -0.003410 0.000000 1.742460 
# 
# From -- ./inp_files/301911.got.cif
#   From: 2010.05.17/outbox.cif.g08.bks.cpg/sg12_151_cif.got.tgz:301911.got - 2010.06.03 13:09:07.
