data_PCOD9204148
_publ_section_title
;
Structure prediction by ZEFSAII (Michael W. Deem and Ramdas Pophale) SiO2 
 PCOD9204148
Probable space group: C 2/M
;
_chemical_formula_sum "Si O2"
_cell_formula_units_Z 64
_cell_length_a 13.902955
_cell_length_b 29.030952
_cell_length_c 8.830238
_cell_angle_alpha 90.000000
_cell_angle_beta 60.991136
_cell_angle_gamma 90.000000
_cell_volume 3116.899599
_symmetry_space_group_name_H-M "C 2/M"
_symmetry_group_IT_number 12
_symmetry_cell_setting 'monoclinic'
loop_
_space_group_symop_operation_xyz
x,y,z
-x,y,-z
-x,-y,-z
x,-y,z
1/2+x,1/2+y,z
1/2-x,1/2+y,-z
1/2-x,1/2-y,-z
1/2+x,1/2-y,z
loop_
_atom_site_type_symbol
_atom_site_label
_atom_site_fract_x
_atom_site_fract_y
_atom_site_fract_z
Si Si1 0.056292 0.446485 0.799505
Si Si2 0.363317 0.692823 0.395103
Si Si3 0.250470 0.259748 0.750430
Si Si4 0.251363 0.905118 0.541043
Si Si5 0.590133 0.101482 0.311330
Si Si6 0.560806 0.641110 0.115792
Si Si7 0.196112 0.317619 0.061077
Si Si8 0.485599 0.447323 0.330648
O O1 0.087757 0.500000 0.790761
O O2 0.161590 0.418574 0.656334
O O3 0.964794 0.439773 0.739074
O O4 0.000000 0.431561 0.000000
O O5 0.336504 0.715990 0.574393
O O6 0.331024 0.729426 0.290494
O O7 0.284149 0.648220 0.440439
O O8 0.484766 0.673415 0.278675
O O9 0.311237 0.225173 0.818497
O O10 0.187050 0.297231 0.900200
O O11 0.307552 0.912276 0.661786
O O12 0.140625 0.934567 0.610098
O O13 0.500000 0.119165 0.500000
O O14 0.617393 0.141729 0.173131
O O15 0.559122 0.590212 0.188218
O O16 0.500000 0.639708 0.000000
O O17 0.681065 0.661980 0.014247
O O18 0.500000 0.441990 0.500000
O O19 0.510292 0.500000 0.270750
#
# Coordination Sequence:
#
# PCOD9204148 Si02
#       8
#     8   8   8   8   8   8   8   8
#     4  10  23  40  62  95 124 159 211 261 311 370
#     4  10  21  41  61  91 121 164 204 252 307 371
#     4  10  22  39  62  85 125 156 209 252 299 370
#     4  10  20  40  66  86 129 168 201 256 313 371
#     4  10  22  42  64  91 126 170 208 255 310 374
#     4  11  22  40  62  89 128 161 201 252 317 370
#     4  11  22  41  60  93 124 161 203 259 308 363
#     4  10  23  40  63  96 124 162 212 252 304 383
#
# _framework density 20.533225000000002
#
# number of rings (size 3 to 8) (size 9 to 14) (size 15 to 20)
#    0.000    1.750    2.500    1.125    5.250    3.000 
#    4.500    4.375    0.000    0.000    0.000    0.000 
#    0.000    0.000    0.000    0.000    0.000    0.000 
#
# Total GULP energy -178843.327767 kJ/mol
# GULP energy per Si atom -5588.853993 kJ/mol
# Density = 2.048649 g / cm^3
# Si number density = 20.533225 Si / 1000 Ang^3
#
#
#
# Elastic Constant Matrix: (Units=GPa)
#
#
# Indices 1 2 3 4 5 6 
#
# 1 50.1869 23.7571 14.0266 0.0000 3.1433 0.0000
# 2 23.7571 86.9823 50.1568 0.0000 5.7737 0.0000
# 3 14.0266 50.1568 107.1153 0.0000 10.0943 0.0000
# 4 0.0000 0.0000 0.0000 31.7162 0.0000 14.7667
# 5 3.1433 5.7737 10.0943 0.0000 16.8088 0.0000
# 6 0.0000 0.0000 0.0000 14.7667 0.0000 2.8106
#
#
#
# Elastic Compliance Matrix: (Units=1/GPa)
#
#
# Indices 1 2 3 4 5 6 
#
# 1 0.022963 -0.006180 0.000097 0.000000 -0.002230 0.000000
# 2 -0.006180 0.017429 -0.007310 0.000000 -0.000441 0.000000
# 3 0.000097 -0.007310 0.013262 0.000000 -0.005471 0.000000
# 4 0.000000 0.000000 0.000000 -0.021802 0.000000 0.114547
# 5 -0.002230 -0.000441 -0.005471 0.000000 0.063347 0.000000
# 6 0.000000 0.000000 0.000000 0.114547 0.000000 -0.246026
#
#
# Mechanical properties :
#
#
# Convention : Reuss Voigt Hill
#
# Bulk Modulus (GPa) = 37.21960 46.68506 41.95233
# Shear Modulus (GPa) = -43.44624 20.69004 -11.37810
#
# Velocity S-wave (km/s) = -4.60488 3.17777 -2.35655
# Velocity P-wave (km/s) = 3.17921 6.02080 3.61543
#
# Compressibility (1/GPa) = 0.02686756
#
# Stress axis : x y z
#
# Youngs Moduli (GPa) = 43.54750 57.37525 75.40474
#
# Poissons Ratio (x) = 0.35456 -0.00729
# Poissons Ratio (y) = 0.26911 0.55124
# Poissons Ratio (z) = -0.00421 0.41944
#
# Static dielectric constant tensor:
#      x y z
#    x 1.720300 0.000000 0.013180 
#    y 0.000000 1.715690 0.000000 
#    z 0.013180 0.000000 1.735720 
# 
# From -- ./inp_files/68252.got.cif
#   From: 2010.05.17/outbox.cif.g08.bks.cpg/sg12_35_cif.got.tgz:68252.got - 2010.06.03 13:09:07.
