data_PCOD9204114
_publ_section_title
;
Structure prediction by ZEFSAII (Michael W. Deem and Ramdas Pophale) SiO2 
 PCOD9204114
Probable space group: C 2/M
;
_chemical_formula_sum "Si O2"
_cell_formula_units_Z 56
_cell_length_a 9.069181
_cell_length_b 21.838072
_cell_length_c 23.383527
_cell_angle_alpha 90.000000
_cell_angle_beta 39.014051
_cell_angle_gamma 90.000000
_cell_volume 2915.383382
_symmetry_space_group_name_H-M "C 2/M"
_symmetry_group_IT_number 12
_symmetry_cell_setting 'monoclinic'
loop_
_space_group_symop_operation_xyz
x,y,z
-x,y,-z
-x,-y,-z
x,-y,z
1/2+x,1/2+y,z
1/2-x,1/2+y,-z
1/2-x,1/2-y,-z
1/2+x,1/2-y,z
loop_
_atom_site_type_symbol
_atom_site_label
_atom_site_fract_x
_atom_site_fract_y
_atom_site_fract_z
Si Si1 0.943099 0.215225 0.303717
Si Si2 0.748843 0.846915 0.605095
Si Si3 0.934471 0.769137 0.177141
Si Si4 0.136431 0.908821 0.625100
Si Si5 0.210867 0.833902 0.895932
Si Si6 0.367784 0.928634 0.252888
Si Si7 0.941863 0.434624 0.423631
O O1 0.828449 0.281413 0.348095
O O2 0.922477 0.198879 0.242927
O O3 0.838895 0.164306 0.376285
O O4 0.214054 0.223479 0.238457
O O5 0.734996 0.896323 0.659482
O O6 0.577844 0.875259 0.609388
O O7 0.000000 0.842864 0.500000
O O8 0.894370 0.812945 0.134348
O O9 0.164139 0.726089 0.113138
O O10 0.244487 0.929777 0.532403
O O11 0.309641 0.934850 0.620313
O O12 0.865341 0.925266 0.716315
O O13 0.409745 0.886245 0.830132
O O14 0.000000 0.853906 0.000000
O O15 0.431133 0.000000 0.240692
O O16 0.906086 0.500000 0.403842
#
# Coordination Sequence:
#
# PCOD9204114 Si02
#       7
#     8   8   8   8   8   8   8
#     4  11  21  38  59  92 123 156 203 250 316 363
#     4  12  24  38  61  88 127 168 215 261 302 362
#     4  10  20  40  65  90 126 152 192 250 314 383
#     4  11  22  38  59  83 122 162 212 262 306 358
#     4  11  23  42  69 100 121 154 201 257 321 378
#     4  12  24  42  63  87 124 170 208 254 308 368
#     4  11  24  38  55  83 119 170 223 255 291 354
#
# _framework density 19.208452999999999
#
# number of rings (size 3 to 8) (size 9 to 14) (size 15 to 20)
#    0.000    0.857    5.714    3.429    2.000    1.429 
#    0.000    0.000    0.000    0.000    0.000    1.000 
#    0.000    0.000    0.000    0.000    0.000    0.000 
#
# Total GULP energy -156251.266605 kJ/mol
# GULP energy per Si atom -5580.402379 kJ/mol
# Density = 1.916473 g / cm^3
# Si number density = 19.208453 Si / 1000 Ang^3
#
#
#
# Elastic Constant Matrix: (Units=GPa)
#
#
# Indices 1 2 3 4 5 6 
#
# 1 86.4438 18.8802 38.1562 -0.0009 -8.5908 -0.0008
# 2 18.8802 114.9825 28.6242 0.0018 2.7263 -0.0013
# 3 38.1562 28.6242 99.0707 0.0028 -12.4416 -0.0010
# 4 -0.0009 0.0018 0.0028 -4.7448 -0.0007 6.2818
# 5 -8.5908 2.7263 -12.4416 -0.0007 20.3011 0.0015
# 6 -0.0008 -0.0013 -0.0010 6.2818 0.0015 15.9271
#
#
#
# Elastic Compliance Matrix: (Units=1/GPa)
#
#
# Indices 1 2 3 4 5 6 
#
# 1 0.014249 -0.001245 -0.004713 -0.000004 0.003309 0.000002
# 2 -0.001245 0.009671 -0.002756 0.000003 -0.003515 0.000000
# 3 -0.004713 -0.002756 0.013544 0.000004 0.006676 -0.000002
# 4 -0.000004 0.000003 0.000004 -0.138458 -0.000008 0.054609
# 5 0.003309 -0.003515 0.006676 -0.000008 0.055222 -0.000001
# 6 0.000002 0.000000 -0.000002 0.054609 -0.000001 0.041248
#
#
# Mechanical properties :
#
#
# Convention : Reuss Voigt Hill
#
# Bulk Modulus (GPa) = 49.90996 52.42425 51.16711
# Shear Modulus (GPa) = 255.34763 20.61910 137.98337
#
# Velocity S-wave (km/s) = 11.54225 3.27989 8.48473
# Velocity P-wave (km/s) = 14.27134 6.45718 11.07624
#
# Compressibility (1/GPa) = 0.02003608
#
# Stress axis : x y z
#
# Youngs Moduli (GPa) = 70.17964 103.40364 73.83582
#
# Poissons Ratio (x) = 0.12874 0.34797
# Poissons Ratio (y) = 0.08737 0.20350
# Poissons Ratio (z) = 0.33074 0.28499
#
# Static dielectric constant tensor:
#      x y z
#    x 1.744180 0.000000 -0.006640 
#    y 0.000000 1.679660 0.000000 
#    z -0.006640 0.000000 1.646780 
# 
# From -- ./inp_files/333967.got.cif
#   From: 2010.05.17/outbox.cif.g08.bks.cpg/sg12_167_cif.got.tgz:333967.got - 2010.06.03 13:09:07.
