data_PCOD9204208
_publ_section_title
;
Structure prediction by ZEFSAII (Michael W. Deem and Ramdas Pophale) SiO2 
 PCOD9204208
Probable space group: C 2/M
;
_chemical_formula_sum "Si O2"
_cell_formula_units_Z 42
_cell_length_a 16.592599
_cell_length_b 16.776286
_cell_length_c 9.348193
_cell_angle_alpha 90.000000
_cell_angle_beta 122.966583
_cell_angle_gamma 90.000000
_cell_volume 2183.200886
_symmetry_space_group_name_H-M "C 2/M"
_symmetry_group_IT_number 12
_symmetry_cell_setting 'monoclinic'
loop_
_space_group_symop_operation_xyz
x,y,z
-x,y,-z
-x,-y,-z
x,-y,z
1/2+x,1/2+y,z
1/2-x,1/2+y,-z
1/2-x,1/2-y,-z
1/2+x,1/2-y,z
loop_
_atom_site_type_symbol
_atom_site_label
_atom_site_fract_x
_atom_site_fract_y
_atom_site_fract_z
Si Si1 0.150818 0.909977 0.494563
Si Si2 0.632308 0.856446 0.240030
Si Si3 0.467376 0.251337 0.618176
Si Si4 0.000000 0.500000 0.000000
Si Si5 0.387493 0.588241 0.878849
Si Si6 0.154243 0.763628 0.995893
O O1 0.260185 0.889879 0.638191
O O2 0.085305 0.834494 0.473693
O O3 0.140654 0.911631 0.313144
O O4 0.125091 0.000000 0.521754
O O5 0.600395 0.802992 0.345951
O O6 0.633671 0.800697 0.100037
O O7 0.560643 0.929458 0.144201
O O8 0.500000 0.212313 0.500000
O O9 0.562182 0.267532 0.803790
O O10 0.375055 0.500000 0.927196
O O11 0.330902 0.653010 0.910659
O O12 0.500000 0.609021 0.000000
O O13 0.250000 0.750000 0.000000
#
# Coordination Sequence:
#
# PCOD9204208 Si02
#       6
#     8   8   8   2   8   8
#     4  11  23  40  71 101 132 174 222 278 333 397
#     4  12  24  48  71  94 134 177 228 273 335 401
#     4  12  25  42  67 101 134 175 220 277 337 395
#     4  12  24  48  78  92 130 184 224 280 328 404
#     4  10  20  40  67  96 132 174 221 277 338 393
#     4  12  24  42  67  96 133 182 222 270 336 404
#
# _framework density 19.23781
#
# number of rings (size 3 to 8) (size 9 to 14) (size 15 to 20)
#    0.000    0.571    6.667    1.714    2.667    0.381 
#    1.714    0.476    0.000    0.000    0.000    0.000 
#    0.000    0.000    0.000    0.000    0.000    0.000 
#
# Total GULP energy -117044.789486 kJ/mol
# GULP energy per Si atom -5573.561404 kJ/mol
# Density = 1.919402 g / cm^3
# Si number density = 19.237810 Si / 1000 Ang^3
#
#
#
# Elastic Constant Matrix: (Units=GPa)
#
#
# Indices 1 2 3 4 5 6 
#
# 1 38.8962 91.5200 19.5388 0.0000 -7.9674 0.0000
# 2 91.5200 93.5992 9.6471 0.0000 -14.1603 0.0000
# 3 19.5388 9.6471 84.4119 0.0000 9.3198 0.0000
# 4 0.0000 0.0000 0.0000 28.1246 0.0000 11.2261
# 5 -7.9674 -14.1603 9.3198 0.0000 41.9881 0.0000
# 6 0.0000 0.0000 0.0000 11.2261 0.0000 23.6780
#
#
#
# Elastic Compliance Matrix: (Units=1/GPa)
#
#
# Indices 1 2 3 4 5 6 
#
# 1 -0.019099 0.018810 0.002020 0.000000 0.002271 0.000000
# 2 0.018810 -0.007010 -0.003779 0.000000 0.002044 0.000000
# 3 0.002020 -0.003779 0.012208 0.000000 -0.003601 0.000000
# 4 0.000000 0.000000 0.000000 0.043855 0.000000 -0.020792
# 5 0.002271 0.002044 -0.003601 0.000000 0.025736 0.000000
# 6 0.000000 0.000000 0.000000 -0.020792 0.000000 0.052091
#
#
# Mechanical properties :
#
#
# Convention : Reuss Voigt Hill
#
# Bulk Modulus (GPa) = 49.49631 50.92434 50.21032
# Shear Modulus (GPa) = 62.17914 25.17158 43.67536
#
# Velocity S-wave (km/s) = 5.69135 3.62117 4.76992
# Velocity P-wave (km/s) = 8.30501 6.63417 7.51616
#
# Compressibility (1/GPa) = 0.02020353
#
# Stress axis : x y z
#
# Youngs Moduli (GPa) = -52.35871 -142.65951 81.91079
#
# Poissons Ratio (x) = 2.68344 -0.16549
# Poissons Ratio (y) = 0.98487 0.30950
# Poissons Ratio (z) = 0.10578 -0.53904
#
# Static dielectric constant tensor:
#      x y z
#    x 1.738040 0.000000 0.002990 
#    y 0.000000 1.691340 0.000000 
#    z 0.002990 0.000000 1.662490 
# 
# From -- ./inp_files/61323.got.cif
#   From: 2010.05.17/outbox.cif.g08.bks.cpg/sg12_31_cif.got.tgz:61323.got - 2010.06.03 13:09:07.
