data_PCOD9204899
_publ_section_title
;
Structure prediction by ZEFSAII (Michael W. Deem and Ramdas Pophale) SiO2 
 PCOD9204899
Probable space group: C 2/M
;
_chemical_formula_sum "Si O2"
_cell_formula_units_Z 64
_cell_length_a 13.519918
_cell_length_b 32.415085
_cell_length_c 8.517820
_cell_angle_alpha 90.000000
_cell_angle_beta 90.131079
_cell_angle_gamma 90.000000
_cell_volume 3732.918808
_symmetry_space_group_name_H-M "C 2/M"
_symmetry_group_IT_number 12
_symmetry_cell_setting 'monoclinic'
loop_
_space_group_symop_operation_xyz
x,y,z
-x,y,-z
-x,-y,-z
x,-y,z
1/2+x,1/2+y,z
1/2-x,1/2+y,-z
1/2-x,1/2-y,-z
1/2+x,1/2-y,z
loop_
_atom_site_type_symbol
_atom_site_label
_atom_site_fract_x
_atom_site_fract_y
_atom_site_fract_z
Si Si1 0.042968 0.134955 0.834160
Si Si2 0.284059 0.191995 0.128600
Si Si3 0.668657 0.633528 0.318657
Si Si4 0.948389 0.727099 0.348784
Si Si5 0.562268 0.544951 0.752390
Si Si6 0.176545 0.808851 0.620898
Si Si7 0.151321 0.271617 0.185789
Si Si8 0.153643 0.044709 0.407433
O O1 0.948821 0.134453 0.716419
O O2 0.077142 0.087050 0.848109
O O3 0.126946 0.163385 0.758029
O O4 0.000000 0.149754 0.000000
O O5 0.227059 0.150443 0.168685
O O6 0.366442 0.200540 0.260627
O O7 0.202645 0.228367 0.142419
O O8 0.335046 0.198069 0.961606
O O9 0.684607 0.664216 0.464663
O O10 0.702783 0.587477 0.360032
O O11 0.895658 0.769637 0.400455
O O12 0.000000 0.707304 0.500000
O O13 0.038714 0.735646 0.231075
O O14 0.582959 0.500000 0.827756
O O15 0.624290 0.547763 0.590891
O O16 0.448900 0.543978 0.691480
O O17 0.281876 0.790948 0.675539
O O18 0.202663 0.000000 0.382349
#
# Coordination Sequence:
#
# PCOD9204899 Si02
#       8
#     8   8   8   8   8   8   8   8
#     4  11  20  28  42  67  96 128 161 197 238 278
#     4  10  21  34  51  70  95 128 159 197 244 284
#     4  11  19  32  49  70  96 123 166 203 232 281
#     4  11  21  34  51  69  93 124 163 198 238 279
#     4   8  14  26  41  61  89 124 159 190 231 280
#     4  11  21  32  50  69  92 125 165 202 233 274
#     4  10  21  36  48  68  98 128 158 199 244 285
#     4   8  14  26  46  66  91 123 155 194 237 278
#
# _framework density 17.144760999999999
#
# number of rings (size 3 to 8) (size 9 to 14) (size 15 to 20)
#    0.000    2.000    1.250    5.250    0.000    4.250 
#    0.000    0.000    0.000    0.000    0.000    0.000 
#    0.000    7.500    0.000    0.000    0.000    0.375 
#
# Total GULP energy -178569.774899 kJ/mol
# GULP energy per Si atom -5580.305466 kJ/mol
# Density = 1.710574 g / cm^3
# Si number density = 17.144761 Si / 1000 Ang^3
#
#
#
# Elastic Constant Matrix: (Units=GPa)
#
#
# Indices 1 2 3 4 5 6 
#
# 1 50.7983 20.6869 1.0278 0.0000 -6.6535 0.0000
# 2 20.6869 75.7353 11.5765 0.0000 -1.3237 0.0000
# 3 1.0278 11.5765 39.6349 0.0000 -7.7181 0.0000
# 4 0.0000 0.0000 0.0000 18.5587 0.0000 -5.7344
# 5 -6.6535 -1.3237 -7.7181 0.0000 17.5278 0.0000
# 6 0.0000 0.0000 0.0000 -5.7344 0.0000 12.7450
#
#
#
# Elastic Compliance Matrix: (Units=1/GPa)
#
#
# Indices 1 2 3 4 5 6 
#
# 1 0.023690 -0.006803 0.003307 0.000000 0.009935 0.000000
# 2 -0.006803 0.015785 -0.005146 0.000000 -0.003656 0.000000
# 3 0.003307 -0.005146 0.029331 0.000000 0.013782 0.000000
# 4 0.000000 0.000000 0.000000 0.062584 0.000000 0.028159
# 5 0.009935 -0.003656 0.013782 0.000000 0.066617 0.000000
# 6 0.000000 0.000000 0.000000 0.028159 0.000000 0.091132
#
#
# Mechanical properties :
#
#
# Convention : Reuss Voigt Hill
#
# Bulk Modulus (GPa) = 19.40856 25.86122 22.63489
# Shear Modulus (GPa) = 15.45134 18.62478 17.03806
#
# Velocity S-wave (km/s) = 3.00530 3.29952 3.15584
# Velocity P-wave (km/s) = 4.83606 5.44358 5.14879
#
# Compressibility (1/GPa) = 0.05152366
#
# Stress axis : x y z
#
# Youngs Moduli (GPa) = 42.21102 63.35227 34.09318
#
# Poissons Ratio (x) = 0.43098 -0.11276
# Poissons Ratio (y) = 0.28716 0.17544
# Poissons Ratio (z) = -0.13961 0.32601
#
# Static dielectric constant tensor:
#      x y z
#    x 1.559670 0.000000 0.004920 
#    y 0.000000 1.610790 0.000000 
#    z 0.004920 0.000000 1.636650 
# 
# From -- ./inp_files/67858.got.cif
#   From: 2010.05.17/outbox.cif.g08.bks.cpg/sg12_34_cif.got.tgz:67858.got - 2010.06.03 13:09:07.
