data_PCOD9204603
_publ_section_title
;
Structure prediction by ZEFSAII (Michael W. Deem and Ramdas Pophale) SiO2 
 PCOD9204603
Probable space group: C 2/M
;
_chemical_formula_sum "Si O2"
_cell_formula_units_Z 42
_cell_length_a 5.437203
_cell_length_b 14.310137
_cell_length_c 27.815498
_cell_angle_alpha 90.000000
_cell_angle_beta 67.172113
_cell_angle_gamma 90.000000
_cell_volume 1994.728160
_symmetry_space_group_name_H-M "C 2/M"
_symmetry_group_IT_number 12
_symmetry_cell_setting 'monoclinic'
loop_
_space_group_symop_operation_xyz
x,y,z
-x,y,-z
-x,-y,-z
x,-y,z
1/2+x,1/2+y,z
1/2-x,1/2+y,-z
1/2-x,1/2-y,-z
1/2+x,1/2-y,z
loop_
_atom_site_type_symbol
_atom_site_label
_atom_site_fract_x
_atom_site_fract_y
_atom_site_fract_z
Si Si1 0.199997 0.867470 0.899104
Si Si2 0.817366 0.000000 0.316306
Si Si3 0.686678 0.500000 0.382167
Si Si4 0.717755 0.662736 0.142340
Si Si5 0.874956 0.197835 0.563004
Si Si6 0.500000 0.500000 0.000000
Si Si7 0.475303 0.699365 0.264210
O O1 0.206306 0.753657 0.895990
O O2 0.510104 0.891773 0.869421
O O3 0.008103 0.891693 0.869328
O O4 0.090415 0.918258 0.954195
O O5 0.911687 0.906291 0.282851
O O6 0.495910 0.000000 0.342339
O O7 0.968178 0.000000 0.356222
O O8 0.646310 0.593484 0.415953
O O9 0.601424 0.699345 0.201178
O O10 0.083492 0.255407 0.580085
O O11 0.000000 0.196863 0.500000
O O12 0.199556 0.756949 0.281972
#
# Coordination Sequence:
#
# PCOD9204603 Si02
#       7
#     8   4   4   8   8   2   8
#     4  10  22  39  63  89 122 154 202 240 328 375
#     4  12  30  40  65 106 136 181 234 270 362 422
#     4  12  25  46  61 100 150 187 214 295 354 408
#     4  10  20  44  65  84 111 169 203 256 309 386
#     4  10  22  41  71 102 132 187 247 285 331 406
#     4  12  28  38  58 106 128 158 192 270 312 414
#     4  12  23  46  72  98 129 173 229 292 332 394
#
# _framework density 21.055503000000002
#
# number of rings (size 3 to 8) (size 9 to 14) (size 15 to 20)
#    0.000    1.143    3.810    2.571    0.000   11.429 
#    0.000    3.810    0.000    0.000    0.000    0.000 
#    0.000    0.000    0.000    0.000    0.000    0.000 
#
# Total GULP energy -117022.043603 kJ/mol
# GULP energy per Si atom -5572.478267 kJ/mol
# Density = 2.100758 g / cm^3
# Si number density = 21.055503 Si / 1000 Ang^3
#
#
#
# Elastic Constant Matrix: (Units=GPa)
#
#
# Indices 1 2 3 4 5 6 
#
# 1 148.0233 -5.5281 -4.0014 0.0000 -7.9050 0.0000
# 2 -5.5281 121.5874 10.0135 0.0000 2.5606 0.0000
# 3 -4.0014 10.0135 31.7177 0.0000 2.5044 0.0000
# 4 0.0000 0.0000 0.0000 -66.3002 0.0000 -30.0246
# 5 -7.9050 2.5606 2.5044 0.0000 20.1702 0.0000
# 6 0.0000 0.0000 0.0000 -30.0246 0.0000 18.6142
#
#
#
# Elastic Compliance Matrix: (Units=1/GPa)
#
#
# Indices 1 2 3 4 5 6 
#
# 1 0.006919 0.000210 0.000600 0.000000 0.002610 0.000000
# 2 0.000210 0.008462 -0.002592 0.000000 -0.000670 0.000000
# 3 0.000600 -0.002592 0.032698 0.000000 -0.003495 0.000000
# 4 0.000000 0.000000 0.000000 -0.008716 0.000000 -0.014059
# 5 0.002610 -0.000670 -0.003495 0.000000 0.051120 0.000000
# 6 0.000000 0.000000 0.000000 -0.014059 0.000000 0.031045
#
#
# Mechanical properties :
#
#
# Convention : Reuss Voigt Hill
#
# Bulk Modulus (GPa) = 22.46371 33.58848 28.02610
# Shear Modulus (GPa) = 35.73224 14.55315 25.14269
#
# Velocity S-wave (km/s) = 4.12400 2.63188 3.45935
# Velocity P-wave (km/s) = 5.77654 5.02222 5.41254
#
# Compressibility (1/GPa) = 0.04451624
#
# Stress axis : x y z
#
# Youngs Moduli (GPa) = 144.52569 118.18004 30.58275
#
# Poissons Ratio (x) = -0.02484 -0.01836
# Poissons Ratio (y) = -0.03037 0.07927
# Poissons Ratio (z) = -0.08678 0.30632
#
# Static dielectric constant tensor:
#      x y z
#    x 1.833700 0.000000 -0.004550 
#    y 0.000000 1.739300 0.000000 
#    z -0.004550 0.000000 1.716520 
# 
# From -- ./inp_files/354813.got.cif
#   From: 2010.05.17/outbox.cif.g08.bks.cpg/sg12_178_cif.got.tgz:354813.got - 2010.06.03 13:09:07.
