data_PCOD9204804
_publ_section_title
;
Structure prediction by ZEFSAII (Michael W. Deem and Ramdas Pophale) SiO2 
 PCOD9204804
Probable space group: C 2/M
;
_chemical_formula_sum "Si O2"
_cell_formula_units_Z 44
_cell_length_a 10.726953
_cell_length_b 27.796869
_cell_length_c 12.228127
_cell_angle_alpha 90.000000
_cell_angle_beta 139.052611
_cell_angle_gamma 90.000000
_cell_volume 2389.549001
_symmetry_space_group_name_H-M "C 2/M"
_symmetry_group_IT_number 12
_symmetry_cell_setting 'monoclinic'
loop_
_space_group_symop_operation_xyz
x,y,z
-x,y,-z
-x,-y,-z
x,-y,z
1/2+x,1/2+y,z
1/2-x,1/2+y,-z
1/2-x,1/2-y,-z
1/2+x,1/2-y,z
loop_
_atom_site_type_symbol
_atom_site_label
_atom_site_fract_x
_atom_site_fract_y
_atom_site_fract_z
Si Si1 0.500000 0.858688 0.500000
Si Si2 0.364851 0.883197 0.638194
Si Si3 0.691257 0.946353 0.197223
Si Si4 0.590440 0.310651 0.180602
Si Si5 0.614946 0.198243 0.187239
Si Si6 0.561228 0.644337 0.705921
O O1 0.456725 0.888737 0.580767
O O2 0.308292 0.828595 0.343581
O O3 0.360426 0.928622 0.715063
O O4 0.452884 0.838541 0.764517
O O5 0.148863 0.866491 0.475389
O O6 0.823542 0.905069 0.233925
O O7 0.775136 0.000000 0.253102
O O8 0.500000 0.947085 0.000000
O O9 0.590756 0.253429 0.202919
O O10 0.462201 0.337349 0.186049
O O11 0.500000 0.318240 0.000000
O O12 0.828397 0.184142 0.292269
O O13 0.500000 0.188975 0.000000
#
# Coordination Sequence:
#
# PCOD9204804 Si02
#       6
#     4   8   8   8   8   8
#     4  10  24  36  55  82 118 162 189 232 286 342
#     4  10  21  37  56  84 116 152 191 235 286 336
#     4  10  21  38  65  89 107 142 186 241 297 339
#     4  10  24  35  55  84 116 164 198 230 285 339
#     4  10  21  33  55  81 112 155 198 240 277 324
#     4  10  21  36  55  85 114 150 191 237 286 334
#
# _framework density 18.413516000000001
#
# number of rings (size 3 to 8) (size 9 to 14) (size 15 to 20)
#    0.000    2.000    0.000    4.364   10.182    4.364 
#    0.000    0.455    0.000    1.636    0.000    0.000 
#    0.000    0.000    0.000    0.000    0.000    0.000 
#
# Total GULP energy -122738.019480 kJ/mol
# GULP energy per Si atom -5579.000885 kJ/mol
# Density = 1.837161 g / cm^3
# Si number density = 18.413516 Si / 1000 Ang^3
#
#
#
# Elastic Constant Matrix: (Units=GPa)
#
#
# Indices 1 2 3 4 5 6 
#
# 1 113.1435 52.4215 31.6484 0.0000 -24.9844 0.0000
# 2 52.4215 121.4913 35.3945 0.0000 -21.3060 0.0000
# 3 31.6484 35.3945 75.0576 0.0000 -12.7200 0.0000
# 4 0.0000 0.0000 0.0000 44.1519 0.0000 -3.4191
# 5 -24.9844 -21.3060 -12.7200 0.0000 28.4040 0.0000
# 6 0.0000 0.0000 0.0000 -3.4191 0.0000 9.5883
#
#
#
# Elastic Compliance Matrix: (Units=1/GPa)
#
#
# Indices 1 2 3 4 5 6 
#
# 1 0.012812 -0.003482 -0.002481 0.000000 0.007547 0.000000
# 2 -0.003482 0.011377 -0.003213 0.000000 0.004032 0.000000
# 3 -0.002481 -0.003213 0.016347 0.000000 0.002727 0.000000
# 4 0.000000 0.000000 0.000000 0.023292 0.000000 0.008306
# 5 0.007547 0.004032 0.002727 0.000000 0.046090 0.000000
# 6 0.000000 0.000000 0.000000 0.008306 0.000000 0.107256
#
#
# Mechanical properties :
#
#
# Convention : Reuss Voigt Hill
#
# Bulk Modulus (GPa) = 45.08082 60.95791 53.01936
# Shear Modulus (GPa) = 20.58275 29.11070 24.84672
#
# Velocity S-wave (km/s) = 3.34699 3.98042 3.67737
# Velocity P-wave (km/s) = 6.28268 7.36898 6.84740
#
# Compressibility (1/GPa) = 0.02218238
#
# Stress axis : x y z
#
# Youngs Moduli (GPa) = 78.05132 87.89919 61.17341
#
# Poissons Ratio (x) = 0.30605 0.15180
# Poissons Ratio (y) = 0.27176 0.19658
# Poissons Ratio (z) = 0.19368 0.28246
#
# Static dielectric constant tensor:
#      x y z
#    x 1.658010 0.000000 0.009120 
#    y 0.000000 1.616450 0.000000 
#    z 0.009120 0.000000 1.677770 
# 
# From -- ./inp_files/137076.got.cif
#   From: 2010.05.17/outbox.cif.g08.bks.cpg/sg12_69_cif.got.tgz:137076.got - 2010.06.03 13:09:07.
