data_PCOD9204679
_publ_section_title
;
Structure prediction by ZEFSAII (Michael W. Deem and Ramdas Pophale) SiO2 
 PCOD9204679
Probable space group: C 2/M
;
_chemical_formula_sum "Si O2"
_cell_formula_units_Z 44
_cell_length_a 25.029755
_cell_length_b 18.909292
_cell_length_c 5.327536
_cell_angle_alpha 90.000000
_cell_angle_beta 73.224133
_cell_angle_gamma 90.000000
_cell_volume 2414.183906
_symmetry_space_group_name_H-M "C 2/M"
_symmetry_group_IT_number 12
_symmetry_cell_setting 'monoclinic'
loop_
_space_group_symop_operation_xyz
x,y,z
-x,y,-z
-x,-y,-z
x,-y,z
1/2+x,1/2+y,z
1/2-x,1/2+y,-z
1/2-x,1/2-y,-z
1/2+x,1/2-y,z
loop_
_atom_site_type_symbol
_atom_site_label
_atom_site_fract_x
_atom_site_fract_y
_atom_site_fract_z
Si Si1 0.000000 0.354107 0.000000
Si Si2 0.561975 0.781848 0.539340
Si Si3 0.770201 0.500000 0.764166
Si Si4 0.923969 0.576923 0.752522
Si Si5 0.231698 0.841648 0.760519
Si Si6 0.341054 0.000000 0.170090
Si Si7 0.821534 0.778002 0.666642
O O1 0.048705 0.302282 0.844191
O O2 0.982678 0.405019 0.800334
O O3 0.500000 0.767345 0.500000
O O4 0.587017 0.854270 0.390812
O O5 0.611531 0.727077 0.439779
O O6 0.739074 0.425705 0.770507
O O7 0.816711 0.500000 0.479101
O O8 0.794845 0.500000 0.012661
O O9 0.924011 0.500000 0.626831
O O10 0.880471 0.566112 0.041232
O O11 0.202556 0.820744 0.538612
O O12 0.290567 0.798701 0.690784
O O13 0.197507 0.812562 0.045867
#
# Coordination Sequence:
#
# PCOD9204679 Si02
#       7
#     4   8   4   8   8   4   8
#     4  10  21  32  50  76 114 155 210 240 278 329
#     4  10  22  36  55  80 117 154 204 245 286 353
#     4  12  22  42  58  94 112 145 210 240 297 348
#     4   9  21  32  47  77 110 164 194 237 283 320
#     4  10  23  38  64  85 117 156 189 250 290 358
#     4  10  24  31  59  79 120 152 190 242 281 334
#     4  10  22  40  59  87 121 154 194 234 307 346
#
# _framework density 18.225622000000001
#
# number of rings (size 3 to 8) (size 9 to 14) (size 15 to 20)
#    0.545    1.455    0.000    2.455   10.182    5.455 
#    0.000    0.000    0.000    0.000    0.000    3.818 
#    0.000    0.000    0.000    0.000    0.000    0.000 
#
# Total GULP energy -122563.312760 kJ/mol
# GULP energy per Si atom -5571.059671 kJ/mol
# Density = 1.818414 g / cm^3
# Si number density = 18.225622 Si / 1000 Ang^3
#
#
#
# Elastic Constant Matrix: (Units=GPa)
#
#
# Indices 1 2 3 4 5 6 
#
# 1 84.7887 27.1282 20.3608 0.0000 -12.8791 0.0000
# 2 27.1282 76.1658 5.1502 0.0000 -5.3704 0.0000
# 3 20.3608 5.1502 73.1014 0.0000 -2.4958 0.0000
# 4 0.0000 0.0000 0.0000 10.8696 0.0000 -5.3803
# 5 -12.8791 -5.3704 -2.4958 0.0000 25.2673 0.0000
# 6 0.0000 0.0000 0.0000 -5.3803 0.0000 15.7444
#
#
#
# Elastic Compliance Matrix: (Units=1/GPa)
#
#
# Indices 1 2 3 4 5 6 
#
# 1 0.015144 -0.004697 -0.003670 0.000000 0.006358 0.000000
# 2 -0.004697 0.014838 0.000290 0.000000 0.000788 0.000000
# 3 -0.003670 0.000290 0.014669 0.000000 -0.000360 0.000000
# 4 0.000000 0.000000 0.000000 0.110729 0.000000 0.037839
# 5 0.006358 0.000788 -0.000360 0.000000 0.042950 0.000000
# 6 0.000000 0.000000 0.000000 0.037839 0.000000 0.076445
#
#
# Mechanical properties :
#
#
# Convention : Reuss Voigt Hill
#
# Bulk Modulus (GPa) = 35.09224 37.70382 36.39803
# Shear Modulus (GPa) = 16.64284 22.47071 19.55677
#
# Velocity S-wave (km/s) = 3.02513 3.51510 3.27928
# Velocity P-wave (km/s) = 5.61231 6.09974 5.86109
#
# Compressibility (1/GPa) = 0.02849633
#
# Stress axis : x y z
#
# Youngs Moduli (GPa) = 66.03245 67.39313 68.17046
#
# Poissons Ratio (x) = 0.31657 0.25019
# Poissons Ratio (y) = 0.31018 -0.01976
# Poissons Ratio (z) = 0.24234 -0.01954
#
# Static dielectric constant tensor:
#      x y z
#    x 1.672120 0.000000 -0.009900 
#    y 0.000000 1.599200 0.000000 
#    z -0.009900 0.000000 1.690690 
# 
# From -- ./inp_files/24715.got.cif
#   From: 2010.05.17/outbox.cif.g08.bks.cpg/sg12_13_cif.got.tgz:24715.got - 2010.06.03 13:09:07.
