data_PCOD9204005
_publ_section_title
;
Structure prediction by ZEFSAII (Michael W. Deem and Ramdas Pophale) SiO2 
 PCOD9204005
Probable space group: C 2/M
;
_chemical_formula_sum "Si O2"
_cell_formula_units_Z 32
_cell_length_a 11.497238
_cell_length_b 22.130553
_cell_length_c 7.748982
_cell_angle_alpha 90.000000
_cell_angle_beta 36.795727
_cell_angle_gamma 90.000000
_cell_volume 1180.948811
_symmetry_space_group_name_H-M "C 2/M"
_symmetry_group_IT_number 12
_symmetry_cell_setting 'monoclinic'
loop_
_space_group_symop_operation_xyz
x,y,z
-x,y,-z
-x,-y,-z
x,-y,z
1/2+x,1/2+y,z
1/2-x,1/2+y,-z
1/2-x,1/2-y,-z
1/2+x,1/2-y,z
loop_
_atom_site_type_symbol
_atom_site_label
_atom_site_fract_x
_atom_site_fract_y
_atom_site_fract_z
Si Si1 0.083576 0.889569 0.085139
Si Si2 0.477261 0.876095 0.757091
Si Si3 0.539170 0.746996 0.158367
Si Si4 0.238275 0.066584 0.331666
O O1 0.983785 0.931203 0.344724
O O2 0.317893 0.889735 0.799151
O O3 0.996970 0.823341 0.237287
O O4 0.000000 0.905619 0.000000
O O5 0.318997 0.882073 0.106107
O O6 0.556711 0.807490 0.649109
O O7 0.639744 0.920349 0.636686
O O8 0.500000 0.754192 0.000000
O O9 0.750000 0.750000 0.000000
O O10 0.287452 0.000000 0.207167
#
# Coordination Sequence:
#
# PCOD9204005 Si02
#       4
#     8   8   8   8
#     4  10  23  39  58  90 126 158 196 246 310 370
#     4  10  20  40  63  88 119 155 208 256 296 353
#     4   9  17  35  59  87 121 156 196 248 310 363
#     4  11  23  39  64  89 116 163 211 249 294 352
#
# _framework density 27.096858000000001
#
# number of rings (size 3 to 8) (size 9 to 14) (size 15 to 20)
#    0.000    2.000    2.500    2.250    0.000    5.500 
#    0.000    1.250    0.000    0.000    0.000    0.000 
#    0.000    0.000    0.000    0.000    0.000    0.000 
#
# Total GULP energy -89293.045132 kJ/mol
# GULP energy per Si atom -5580.815321 kJ/mol
# Density = 2.703518 g / cm^3
# Si number density = 27.096858 Si / 1000 Ang^3
#
#
#
# Elastic Constant Matrix: (Units=GPa)
#
#
# Indices 1 2 3 4 5 6 
#
# 1 165.2759 6.1527 0.5630 0.0000 -5.3649 0.0000
# 2 6.1527 86.8867 0.9799 0.0000 11.7314 0.0000
# 3 0.5630 0.9799 72.7173 0.0000 -28.7139 0.0000
# 4 0.0000 0.0000 0.0000 19.7315 0.0000 -4.5349
# 5 -5.3649 11.7314 -28.7139 0.0000 50.1739 0.0000
# 6 0.0000 0.0000 0.0000 -4.5349 0.0000 33.0504
#
#
#
# Elastic Compliance Matrix: (Units=1/GPa)
#
#
# Indices 1 2 3 4 5 6 
#
# 1 0.006102 -0.000569 0.000350 0.000000 0.000986 0.000000
# 2 -0.000569 0.012088 -0.001678 0.000000 -0.003847 0.000000
# 3 0.000350 -0.001678 0.018012 0.000000 0.010738 0.000000
# 4 0.000000 0.000000 0.000000 0.052331 0.000000 0.007180
# 5 0.000986 -0.003847 0.010738 0.000000 0.027081 0.000000
# 6 0.000000 0.000000 0.000000 0.007180 0.000000 0.031242
#
#
# Mechanical properties :
#
#
# Convention : Reuss Voigt Hill
#
# Bulk Modulus (GPa) = 30.85685 37.80791 34.33238
# Shear Modulus (GPa) = 30.96893 41.73679 36.35286
#
# Velocity S-wave (km/s) = 3.38434 3.92890 3.66675
# Velocity P-wave (km/s) = 5.16566 5.87919 5.53394
#
# Compressibility (1/GPa) = 0.03240771
#
# Stress axis : x y z
#
# Youngs Moduli (GPa) = 163.86773 82.72716 55.51947
#
# Poissons Ratio (x) = 0.04709 -0.01941
# Poissons Ratio (y) = 0.09327 0.09314
# Poissons Ratio (z) = -0.05729 0.13879
#
# Static dielectric constant tensor:
#      x y z
#    x 2.318610 0.000000 0.015140 
#    y 0.000000 2.005260 0.000000 
#    z 0.015140 0.000000 2.174630 
# 
# From -- ./inp_files/50263.got.cif
#   From: 2010.05.17/outbox.cif.g08.bks.cpg/sg12_26_cif.got.tgz:50263.got - 2010.06.03 13:09:07.
