data_PCOD9204786
_publ_section_title
;
Structure prediction by ZEFSAII (Michael W. Deem and Ramdas Pophale) SiO2 
 PCOD9204786
Probable space group: C 2/M
;
_chemical_formula_sum "Si O2"
_cell_formula_units_Z 64
_cell_length_a 11.850864
_cell_length_b 28.408297
_cell_length_c 11.217219
_cell_angle_alpha 90.000000
_cell_angle_beta 88.994595
_cell_angle_gamma 90.000000
_cell_volume 3775.839676
_symmetry_space_group_name_H-M "C 2/M"
_symmetry_group_IT_number 12
_symmetry_cell_setting 'monoclinic'
loop_
_space_group_symop_operation_xyz
x,y,z
-x,y,-z
-x,-y,-z
x,-y,z
1/2+x,1/2+y,z
1/2-x,1/2+y,-z
1/2-x,1/2-y,-z
1/2+x,1/2-y,z
loop_
_atom_site_type_symbol
_atom_site_label
_atom_site_fract_x
_atom_site_fract_y
_atom_site_fract_z
Si Si1 0.926578 0.855527 0.829516
Si Si2 0.161923 0.707741 0.255656
Si Si3 0.131650 0.637848 0.474629
Si Si4 0.471049 0.554437 0.696734
Si Si5 0.943165 0.288975 0.113245
Si Si6 0.146376 0.187174 0.921579
Si Si7 0.237342 0.692464 0.694855
Si Si8 0.312646 0.555159 0.467328
O O1 0.940498 0.910359 0.802845
O O2 0.852666 0.833954 0.725035
O O3 0.050778 0.833442 0.836343
O O4 0.867367 0.840403 0.954548
O O5 0.141682 0.668474 0.354702
O O6 0.234966 0.686685 0.145814
O O7 0.231439 0.752114 0.307171
O O8 0.043028 0.724292 0.203061
O O9 0.180379 0.670923 0.579522
O O10 0.209619 0.591456 0.465716
O O11 0.000000 0.627013 0.500000
O O12 0.471876 0.500000 0.732843
O O13 0.380249 0.559559 0.591222
O O14 0.593081 0.565612 0.635727
O O15 0.886171 0.241938 0.060136
O O16 0.848893 0.314366 0.193071
O O17 0.000000 0.314773 0.000000
O O18 0.279764 0.500000 0.455916
#
# Coordination Sequence:
#
# PCOD9204786 Si02
#       8
#     8   8   8   8   8   8   8   8
#     4  11  18  35  55  81 111 138 185 225 267 327
#     4  11  22  37  52  76 114 150 186 227 271 319
#     4  12  23  38  54  81 113 141 183 234 280 330
#     4   9  18  34  60  86 111 140 175 225 279 341
#     4  11  19  35  53  73 104 148 195 229 254 310
#     4  10  21  33  53  81 105 145 190 224 261 311
#     4  11  22  35  53  77 111 150 181 228 277 321
#     4   9  19  37  59  84 109 140 181 223 281 339
#
# _framework density 16.949871000000002
#
# number of rings (size 3 to 8) (size 9 to 14) (size 15 to 20)
#    0.000    1.500    5.000    2.625    0.000    2.250 
#    0.000    1.250    0.000    0.750    0.000    0.000 
#    0.000    4.500    0.000    0.000    0.000    0.000 
#
# Total GULP energy -178528.061962 kJ/mol
# GULP energy per Si atom -5579.001936 kJ/mol
# Density = 1.691129 g / cm^3
# Si number density = 16.949871 Si / 1000 Ang^3
#
#
#
# Elastic Constant Matrix: (Units=GPa)
#
#
# Indices 1 2 3 4 5 6 
#
# 1 102.3534 41.7718 28.2430 0.0000 0.5617 0.0000
# 2 41.7718 88.6368 41.0685 0.0000 -9.1377 0.0000
# 3 28.2430 41.0685 59.0956 0.0000 -3.8629 0.0000
# 4 0.0000 0.0000 0.0000 25.8025 0.0000 1.2059
# 5 0.5617 -9.1377 -3.8629 0.0000 24.5308 0.0000
# 6 0.0000 0.0000 0.0000 1.2059 0.0000 22.7338
#
#
#
# Elastic Compliance Matrix: (Units=1/GPa)
#
#
# Indices 1 2 3 4 5 6 
#
# 1 0.012543 -0.004895 -0.002759 0.000000 -0.002545 0.000000
# 2 -0.004895 0.019039 -0.010529 0.000000 0.005546 0.000000
# 3 -0.002759 -0.010529 0.025569 0.000000 0.000167 0.000000
# 4 0.000000 0.000000 0.000000 0.038852 0.000000 -0.002061
# 5 -0.002545 0.005546 0.000167 0.000000 0.042916 0.000000
# 6 0.000000 0.000000 0.000000 -0.002061 0.000000 0.044097
#
#
# Mechanical properties :
#
#
# Convention : Reuss Voigt Hill
#
# Bulk Modulus (GPa) = 48.11413 52.47248 50.29331
# Shear Modulus (GPa) = 22.09352 23.88027 22.98689
#
# Velocity S-wave (km/s) = 3.61427 3.75757 3.68662
# Velocity P-wave (km/s) = 6.77237 7.06049 6.91793
#
# Compressibility (1/GPa) = 0.02078391
#
# Stress axis : x y z
#
# Youngs Moduli (GPa) = 79.72466 52.52293 39.11049
#
# Poissons Ratio (x) = 0.25711 0.10791
# Poissons Ratio (y) = 0.39027 0.41181
# Poissons Ratio (z) = 0.21997 0.55303
#
# Static dielectric constant tensor:
#      x y z
#    x 1.587610 0.000000 0.004420 
#    y 0.000000 1.558920 0.000000 
#    z 0.004420 0.000000 1.583680 
# 
# From -- ./inp_files/136641.got.cif
#   From: 2010.05.17/outbox.cif.g08.bks.cpg/sg12_69_cif.got.tgz:136641.got - 2010.06.03 13:09:07.
