data_PCOD9204235
_publ_section_title
;
Structure prediction by ZEFSAII (Michael W. Deem and Ramdas Pophale) SiO2 
 PCOD9204235
Probable space group: C 2/M
;
_chemical_formula_sum "Si O2"
_cell_formula_units_Z 40
_cell_length_a 15.817132
_cell_length_b 13.926406
_cell_length_c 8.089615
_cell_angle_alpha 90.000000
_cell_angle_beta 114.863802
_cell_angle_gamma 90.000000
_cell_volume 1616.777519
_symmetry_space_group_name_H-M "C 2/M"
_symmetry_group_IT_number 12
_symmetry_cell_setting 'monoclinic'
loop_
_space_group_symop_operation_xyz
x,y,z
-x,y,-z
-x,-y,-z
x,-y,z
1/2+x,1/2+y,z
1/2-x,1/2+y,-z
1/2-x,1/2-y,-z
1/2+x,1/2-y,z
loop_
_atom_site_type_symbol
_atom_site_label
_atom_site_fract_x
_atom_site_fract_y
_atom_site_fract_z
Si Si1 0.512479 0.612422 0.815109
Si Si2 0.711862 0.608837 0.855725
Si Si3 0.894898 0.397883 0.475325
Si Si4 0.100303 0.613529 0.121401
Si Si5 0.658952 0.292961 0.513593
O O1 0.504129 0.500000 0.750416
O O2 0.618447 0.644745 0.866258
O O3 0.432059 0.677283 0.665036
O O4 0.500000 0.612146 0.000000
O O5 0.723491 0.500000 0.925316
O O6 0.814844 0.654270 0.918993
O O7 0.683861 0.613839 0.638975
O O8 0.847912 0.500000 0.394341
O O9 0.890134 0.386089 0.671139
O O10 0.860111 0.296782 0.379558
O O11 0.000000 0.404618 0.500000
O O12 0.097329 0.500000 0.074863
O O13 0.000000 0.657010 0.000000
O O14 0.750000 0.250000 0.500000
#
# Coordination Sequence:
#
# PCOD9204235 Si02
#       5
#     8   8   8   8   8
#     4  10  23  44  69  98 131 166 213 274 329 383
#     4  10  20  40  68  95 125 168 215 262 323 389
#     4  10  21  38  58  84 121 161 207 258 309 369
#     4   9  18  35  58  87 122 160 204 252 312 382
#     4  12  23  39  63  95 126 171 212 266 316 383
#
# _framework density 24.740573000000001
#
# number of rings (size 3 to 8) (size 9 to 14) (size 15 to 20)
#    0.000    1.800    2.000    2.400    0.000    3.200 
#    3.600    1.000    0.000    0.000    0.000    0.000 
#    0.000    0.000    0.000    0.000    0.000    0.000 
#
# Total GULP energy -111434.966370 kJ/mol
# GULP energy per Si atom -5571.748319 kJ/mol
# Density = 2.468426 g / cm^3
# Si number density = 24.740573 Si / 1000 Ang^3
#
#
#
# Elastic Constant Matrix: (Units=GPa)
#
#
# Indices 1 2 3 4 5 6 
#
# 1 262.1441 28.6061 48.5672 0.0000 5.8550 0.0000
# 2 28.6061 131.0840 13.2130 0.0000 7.8397 0.0000
# 3 48.5672 13.2130 45.2084 0.0000 5.4008 0.0000
# 4 0.0000 0.0000 0.0000 10.7881 0.0000 1.7922
# 5 5.8550 7.8397 5.4008 0.0000 32.8903 0.0000
# 6 0.0000 0.0000 0.0000 1.7922 0.0000 26.9419
#
#
#
# Elastic Compliance Matrix: (Units=1/GPa)
#
#
# Indices 1 2 3 4 5 6 
#
# 1 0.004800 -0.000549 -0.005008 0.000000 0.000099 0.000000
# 2 -0.000549 0.007999 -0.001563 0.000000 -0.001552 0.000000
# 3 -0.005008 -0.001563 0.028362 0.000000 -0.003393 0.000000
# 4 0.000000 0.000000 0.000000 0.093730 0.000000 -0.006235
# 5 0.000099 -0.001552 -0.003393 0.000000 0.031314 0.000000
# 6 0.000000 0.000000 0.000000 -0.006235 0.000000 0.037532
#
#
# Mechanical properties :
#
#
# Convention : Reuss Voigt Hill
#
# Bulk Modulus (GPa) = 37.14496 68.80101 52.97299
# Shear Modulus (GPa) = 22.03122 37.32743 29.67932
#
# Velocity S-wave (km/s) = 2.98734 3.88848 3.46731
# Velocity P-wave (km/s) = 5.19089 6.93035 6.12271
#
# Compressibility (1/GPa) = 0.02692155
#
# Stress axis : x y z
#
# Youngs Moduli (GPa) = 208.32270 125.01873 35.25802
#
# Poissons Ratio (x) = 0.06859 0.17658
# Poissons Ratio (y) = 0.11429 0.05511
# Poissons Ratio (z) = 1.04335 0.19540
#
# Static dielectric constant tensor:
#      x y z
#    x 1.858020 0.000000 0.046790 
#    y 0.000000 2.119830 0.000000 
#    z 0.046790 0.000000 1.943810 
# 
# From -- ./inp_files/59203.got.cif
#   From: 2010.05.17/outbox.cif.g08.bks.cpg/sg12_30_cif.got.tgz:59203.got - 2010.06.03 13:09:07.
