data_PCOD9204636
_publ_section_title
;
Structure prediction by ZEFSAII (Michael W. Deem and Ramdas Pophale) SiO2 
 PCOD9204636
Probable space group: C 2/M
;
_chemical_formula_sum "Si O2"
_cell_formula_units_Z 60
_cell_length_a 20.894974
_cell_length_b 14.240697
_cell_length_c 16.556280
_cell_angle_alpha 90.000000
_cell_angle_beta 40.832322
_cell_angle_gamma 90.000000
_cell_volume 3221.160300
_symmetry_space_group_name_H-M "C 2/M"
_symmetry_group_IT_number 12
_symmetry_cell_setting 'monoclinic'
loop_
_space_group_symop_operation_xyz
x,y,z
-x,y,-z
-x,-y,-z
x,-y,z
1/2+x,1/2+y,z
1/2-x,1/2+y,-z
1/2-x,1/2-y,-z
1/2+x,1/2-y,z
loop_
_atom_site_type_symbol
_atom_site_label
_atom_site_fract_x
_atom_site_fract_y
_atom_site_fract_z
Si Si1 0.090150 0.888759 0.072683
Si Si2 0.992409 0.302363 0.602235
Si Si3 0.808586 0.612552 0.516016
Si Si4 0.002515 0.108390 0.327311
Si Si5 0.000000 0.205941 0.000000
Si Si6 0.291541 0.888833 0.809228
Si Si7 0.774340 0.105505 0.576257
Si Si8 0.292425 0.727730 0.260286
O O1 0.043643 0.858384 0.201499
O O2 0.040056 0.850706 0.039307
O O3 0.076844 0.000000 0.083302
O O4 0.206377 0.869545 0.955638
O O5 0.973272 0.191418 0.633454
O O6 0.900696 0.358527 0.726617
O O7 0.000000 0.323678 0.500000
O O8 0.093032 0.337043 0.546931
O O9 0.813187 0.500000 0.523500
O O10 0.792033 0.631481 0.437296
O O11 0.719104 0.656394 0.653079
O O12 0.885086 0.105415 0.438562
O O13 0.035585 0.000000 0.312524
O O14 0.097815 0.253693 0.871507
O O15 0.260338 0.827146 0.761756
O O16 0.288427 0.000000 0.792947
O O17 0.761905 0.179009 0.659352
O O18 0.749952 0.000000 0.625489
#
# Coordination Sequence:
#
# PCOD9204636 Si02
#       8
#     8   8   8   8   4   8   8   8
#     4   9  19  35  54  82 115 145 183 229 280 331
#     4  12  23  36  56  82 113 151 192 230 273 331
#     4  11  22  34  57  85 113 144 180 232 286 335
#     4  10  21  38  60  84 110 147 189 235 281 327
#     4  10  21  30  57  86 114 144 182 220 284 340
#     4  10  21  37  56  82 116 149 186 229 278 332
#     4  10  21  37  57  84 113 144 185 232 281 332
#     4  11  20  36  56  83 113 147 180 229 282 334
#
# _framework density 18.626828
#
# number of rings (size 3 to 8) (size 9 to 14) (size 15 to 20)
#    0.000    1.600    2.667    2.200    1.867    4.000 
#    0.000    1.000    0.000    0.000    0.000    0.000 
#    0.000    0.000    0.000    0.000    0.000    0.000 
#
# Total GULP energy -167300.835501 kJ/mol
# GULP energy per Si atom -5576.694517 kJ/mol
# Density = 1.858443 g / cm^3
# Si number density = 18.626828 Si / 1000 Ang^3
#
#
#
# Elastic Constant Matrix: (Units=GPa)
#
#
# Indices 1 2 3 4 5 6 
#
# 1 31.5967 16.2990 20.8845 0.0000 -14.6795 0.0000
# 2 16.2990 82.4074 36.3019 0.0000 0.6366 0.0000
# 3 20.8845 36.3019 115.1408 0.0000 -16.1354 0.0000
# 4 0.0000 0.0000 0.0000 97.0794 0.0000 -9.4554
# 5 -14.6795 0.6366 -16.1354 0.0000 16.7707 0.0000
# 6 0.0000 0.0000 0.0000 -9.4554 0.0000 21.1256
#
#
#
# Elastic Compliance Matrix: (Units=1/GPa)
#
#
# Indices 1 2 3 4 5 6 
#
# 1 0.065397 -0.013660 0.000623 0.000000 0.058360 0.000000
# 2 -0.013660 0.017408 -0.005524 0.000000 -0.017932 0.000000
# 3 0.000623 -0.005524 0.012043 0.000000 0.012342 0.000000
# 4 0.000000 0.000000 0.000000 0.010770 0.000000 0.004821
# 5 0.058360 -0.017932 0.012342 0.000000 0.123266 0.000000
# 6 0.000000 0.000000 0.000000 0.004821 0.000000 0.049494
#
#
# Mechanical properties :
#
#
# Convention : Reuss Voigt Hill
#
# Bulk Modulus (GPa) = 17.32281 41.79064 29.55673
# Shear Modulus (GPa) = 14.93692 37.37245 26.15468
#
# Velocity S-wave (km/s) = 2.83486 4.48412 3.75125
# Velocity P-wave (km/s) = 4.47609 7.02098 5.88768
#
# Compressibility (1/GPa) = 0.05772736
#
# Stress axis : x y z
#
# Youngs Moduli (GPa) = 15.29130 57.44345 83.03499
#
# Poissons Ratio (x) = 0.78467 -0.05176
# Poissons Ratio (y) = 0.20888 0.45867
# Poissons Ratio (z) = -0.00953 0.31731
#
# Static dielectric constant tensor:
#      x y z
#    x 1.650410 0.000000 -0.014100 
#    y 0.000000 1.651260 0.000000 
#    z -0.014100 0.000000 1.665240 
# 
# From -- ./inp_files/233894.got.cif
#   From: 2010.05.17/outbox.cif.g08.bks.cpg/sg12_117_cif.got.tgz:233894.got - 2010.06.03 13:09:07.
