data_PCOD9204297
_publ_section_title
;
Structure prediction by ZEFSAII (Michael W. Deem and Ramdas Pophale) SiO2 
 PCOD9204297
Probable space group: C 2/M
;
_chemical_formula_sum "Si O2"
_cell_formula_units_Z 36
_cell_length_a 15.111996
_cell_length_b 14.205668
_cell_length_c 17.665013
_cell_angle_alpha 90.000000
_cell_angle_beta 153.555537
_cell_angle_gamma 90.000000
_cell_volume 1688.805139
_symmetry_space_group_name_H-M "C 2/M"
_symmetry_group_IT_number 12
_symmetry_cell_setting 'monoclinic'
loop_
_space_group_symop_operation_xyz
x,y,z
-x,y,-z
-x,-y,-z
x,-y,z
1/2+x,1/2+y,z
1/2-x,1/2+y,-z
1/2-x,1/2-y,-z
1/2+x,1/2-y,z
loop_
_atom_site_type_symbol
_atom_site_label
_atom_site_fract_x
_atom_site_fract_y
_atom_site_fract_z
Si Si1 0.610176 0.161335 0.399776
Si Si2 0.149626 0.000000 0.044855
Si Si3 0.445504 0.000000 0.545347
Si Si4 0.000000 0.665440 0.000000
Si Si5 0.316405 0.703747 0.973028
Si Si6 0.242420 0.500000 0.391630
Si Si7 0.210222 0.000000 0.752263
O O1 0.750000 0.250000 0.500000
O O2 0.662262 0.095225 0.511177
O O3 0.384774 0.198630 0.231467
O O4 0.640642 0.091705 0.350981
O O5 0.123397 0.905540 0.976528
O O6 0.362383 0.000000 0.251159
O O7 0.000000 0.000000 0.000000
O O8 0.500000 0.000000 0.500000
O O9 0.018259 0.734102 0.942125
O O10 0.185851 0.594417 0.138034
O O11 0.250000 0.750000 0.000000
O O12 0.477068 0.500000 0.590227
O O13 0.239100 0.500000 0.298632
#
# Coordination Sequence:
#
# PCOD9204297 Si02
#       7
#     8   4   4   4   8   4   4
#     4  10  21  39  60  86 121 154 203 249 297 369
#     4  10  21  41  61  85 128 160 201 256 301 370
#     4   9  21  39  58  86 117 155 198 248 300 350
#     4  11  22  39  60  90 126 153 214 251 304 378
#     4  11  23  39  63  91 122 164 205 253 313 366
#     4  10  20  41  60  85 121 159 198 249 314 359
#     4  10  22  37  62  87 120 160 196 258 308 361
#
# _framework density 21.316846000000002
#
# number of rings (size 3 to 8) (size 9 to 14) (size 15 to 20)
#    0.000    1.778    1.111    3.333    0.000    3.556 
#   12.000    1.111    0.000    0.000    0.000    0.000 
#    0.000    0.000    0.000    0.000    0.000    0.000 
#
# Total GULP energy -100521.959475 kJ/mol
# GULP energy per Si atom -5584.553304 kJ/mol
# Density = 2.126833 g / cm^3
# Si number density = 21.316846 Si / 1000 Ang^3
#
#
#
# Elastic Constant Matrix: (Units=GPa)
#
#
# Indices 1 2 3 4 5 6 
#
# 1 107.9348 51.7768 -21.9820 -0.0015 -6.7515 0.0001
# 2 51.7768 186.0615 8.2334 -0.0007 -5.4301 0.0008
# 3 -21.9820 8.2334 24.4993 -0.0044 8.6854 0.0008
# 4 -0.0015 -0.0007 -0.0044 14.2140 0.0009 6.9198
# 5 -6.7515 -5.4301 8.6854 0.0009 29.7603 0.0004
# 6 0.0001 0.0008 0.0008 6.9198 0.0004 34.4976
#
#
#
# Elastic Compliance Matrix: (Units=1/GPa)
#
#
# Indices 1 2 3 4 5 6 
#
# 1 0.014581 -0.004801 0.015430 0.000007 -0.002071 -0.000002
# 2 -0.004801 0.007115 -0.007554 -0.000003 0.002414 0.000001
# 3 0.015430 -0.007554 0.062963 0.000025 -0.016253 -0.000006
# 4 0.000007 -0.000003 0.000025 0.077967 -0.000008 -0.015639
# 5 -0.002071 0.002414 -0.016253 -0.000008 0.038316 0.000002
# 6 -0.000002 0.000001 -0.000006 -0.015639 0.000002 0.032125
#
#
# Mechanical properties :
#
#
# Convention : Reuss Voigt Hill
#
# Bulk Modulus (GPa) = 11.01206 43.83912 27.42559
# Shear Modulus (GPa) = 19.44120 34.39222 26.91671
#
# Velocity S-wave (km/s) = 3.02323 4.02105 3.55730
# Velocity P-wave (km/s) = 4.16697 6.49373 5.45583
#
# Compressibility (1/GPa) = 0.09080949
#
# Stress axis : x y z
#
# Youngs Moduli (GPa) = 68.58356 140.54318 15.88227
#
# Poissons Ratio (x) = 0.67471 -0.24507
# Poissons Ratio (y) = 0.32925 0.11998
# Poissons Ratio (z) = -1.05826 1.06172
#
# Static dielectric constant tensor:
#      x y z
#    x 1.903790 0.000040 -0.134030 
#    y 0.000040 1.795610 -0.000040 
#    z -0.134030 -0.000040 1.916080 
# 
# From -- ./inp_files/58509.got.cif
#   From: 2010.05.17/outbox.cif.g08.bks.cpg/sg12_30_cif.got.tgz:58509.got - 2010.06.03 13:09:07.
