data_PCOD9204548
_publ_section_title
;
Structure prediction by ZEFSAII (Michael W. Deem and Ramdas Pophale) SiO2 
 PCOD9204548
Probable space group: C 2/M
;
_chemical_formula_sum "Si O2"
_cell_formula_units_Z 44
_cell_length_a 9.179265
_cell_length_b 17.227510
_cell_length_c 15.931547
_cell_angle_alpha 90.000000
_cell_angle_beta 63.410429
_cell_angle_gamma 90.000000
_cell_volume 2252.892052
_symmetry_space_group_name_H-M "C 2/M"
_symmetry_group_IT_number 12
_symmetry_cell_setting 'monoclinic'
loop_
_space_group_symop_operation_xyz
x,y,z
-x,y,-z
-x,-y,-z
x,-y,z
1/2+x,1/2+y,z
1/2-x,1/2+y,-z
1/2-x,1/2-y,-z
1/2+x,1/2-y,z
loop_
_atom_site_type_symbol
_atom_site_label
_atom_site_fract_x
_atom_site_fract_y
_atom_site_fract_z
Si Si1 0.932239 0.412181 0.424535
Si Si2 0.942777 0.293865 0.298225
Si Si3 0.405660 0.664996 0.443497
Si Si4 0.308072 0.588847 0.726155
Si Si5 0.161570 0.813882 0.125471
Si Si6 0.000000 0.770560 0.000000
O O1 0.931082 0.500000 0.393915
O O2 0.028621 0.355706 0.337618
O O3 0.750906 0.378408 0.480448
O O4 0.000000 0.411043 0.500000
O O5 0.870444 0.229537 0.381445
O O6 0.814628 0.345834 0.279446
O O7 0.064602 0.250322 0.205272
O O8 0.500000 0.699607 0.500000
O O9 0.525432 0.603914 0.367615
O O10 0.254846 0.500000 0.730266
O O11 0.333983 0.610841 0.816742
O O12 0.064200 0.819450 0.063149
O O13 0.344386 0.782751 0.063297
#
# Coordination Sequence:
#
# PCOD9204548 Si02
#       6
#     8   8   8   8   8   4
#     4  11  24  37  54  85 129 169 206 253 299 340
#     4  11  22  36  60  88 120 160 203 253 290 354
#     4  11  23  37  60  85 122 170 216 246 284 347
#     4  11  23  39  61  93 126 158 201 250 302 354
#     4  10  22  39  66  94 118 154 198 248 305 367
#     4  10  20  42  68  90 120 150 198 246 304 380
#
# _framework density 19.530450999999999
#
# number of rings (size 3 to 8) (size 9 to 14) (size 15 to 20)
#    0.000    1.273    3.636    2.182    5.091    0.727 
#    0.000    0.909    0.000    1.091    0.000    0.000 
#    0.000    0.000    0.000    0.000    0.000    0.000 
#
# Total GULP energy -122840.641898 kJ/mol
# GULP energy per Si atom -5583.665541 kJ/mol
# Density = 1.948600 g / cm^3
# Si number density = 19.530451 Si / 1000 Ang^3
#
#
#
# Elastic Constant Matrix: (Units=GPa)
#
#
# Indices 1 2 3 4 5 6 
#
# 1 75.4573 12.9207 20.2951 0.0000 26.4388 0.0000
# 2 12.9207 86.6481 14.6880 0.0000 18.1914 0.0000
# 3 20.2951 14.6880 86.7772 0.0000 28.8656 0.0000
# 4 0.0000 0.0000 0.0000 26.5014 0.0000 24.9332
# 5 26.4388 18.1914 28.8656 0.0000 37.7519 0.0000
# 6 0.0000 0.0000 0.0000 24.9332 0.0000 58.4265
#
#
#
# Elastic Compliance Matrix: (Units=1/GPa)
#
#
# Indices 1 2 3 4 5 6 
#
# 1 0.017562 -0.000041 -0.000021 0.000000 -0.012264 0.000000
# 2 -0.000041 0.012842 -0.000154 0.000000 -0.006041 0.000000
# 3 -0.000021 -0.000154 0.015456 0.000000 -0.011729 0.000000
# 4 0.000000 0.000000 0.000000 0.063047 0.000000 -0.026905
# 5 -0.012264 -0.006041 -0.011729 0.000000 0.046957 0.000000
# 6 0.000000 0.000000 0.000000 -0.026905 0.000000 0.028597
#
#
# Mechanical properties :
#
#
# Convention : Reuss Voigt Hill
#
# Bulk Modulus (GPa) = 22.01299 38.29891 30.15595
# Shear Modulus (GPa) = 24.99561 37.93455 31.46508
#
# Velocity S-wave (km/s) = 3.58135 4.41197 4.01818
# Velocity P-wave (km/s) = 5.32888 6.75325 6.08290
#
# Compressibility (1/GPa) = 0.04542772
#
# Stress axis : x y z
#
# Youngs Moduli (GPa) = 56.94093 77.87229 64.69819
#
# Poissons Ratio (x) = 0.00316 0.00137
# Poissons Ratio (y) = 0.00231 0.00999
# Poissons Ratio (z) = 0.00120 0.01203
#
# Static dielectric constant tensor:
#      x y z
#    x 1.730500 0.000000 0.045360 
#    y 0.000000 1.675410 0.000000 
#    z 0.045360 0.000000 1.707160 
# 
# From -- ./inp_files/195397.got.cif
#   From: 2010.05.17/outbox.cif.g08.bks.cpg/sg12_98_cif.got.tgz:195397.got - 2010.06.03 13:09:07.
