data_PCOD9204403
_publ_section_title
;
Structure prediction by ZEFSAII (Michael W. Deem and Ramdas Pophale) SiO2 
 PCOD9204403
Probable space group: C 2/M
;
_chemical_formula_sum "Si O2"
_cell_formula_units_Z 56
_cell_length_a 21.377483
_cell_length_b 13.604497
_cell_length_c 7.702872
_cell_angle_alpha 90.000000
_cell_angle_beta 94.496332
_cell_angle_gamma 90.000000
_cell_volume 2233.330899
_symmetry_space_group_name_H-M "C 2/M"
_symmetry_group_IT_number 12
_symmetry_cell_setting 'monoclinic'
loop_
_space_group_symop_operation_xyz
x,y,z
-x,y,-z
-x,-y,-z
x,-y,z
1/2+x,1/2+y,z
1/2-x,1/2+y,-z
1/2-x,1/2-y,-z
1/2+x,1/2-y,z
loop_
_atom_site_type_symbol
_atom_site_label
_atom_site_fract_x
_atom_site_fract_y
_atom_site_fract_z
Si Si1 0.545701 0.608322 0.842620
Si Si2 0.082579 0.391814 0.211110
Si Si3 0.313843 0.339435 0.020832
Si Si4 0.655934 0.198763 0.535442
Si Si5 0.294290 0.615254 0.605570
Si Si6 0.965178 0.315433 0.315513
Si Si7 0.684302 0.109544 0.945224
O O1 0.534999 0.500000 0.765677
O O2 0.531929 0.699158 0.715032
O O3 0.500000 0.618448 0.000000
O O4 0.618351 0.618852 0.914704
O O5 0.087491 0.500000 0.289729
O O6 0.119786 0.321129 0.348116
O O7 0.121095 0.391172 0.043482
O O8 0.009870 0.364523 0.185362
O O9 0.309353 0.352272 0.808455
O O10 0.310312 0.227894 0.093606
O O11 0.250425 0.392736 0.070013
O O12 0.670041 0.314950 0.524351
O O13 0.720947 0.141260 0.562290
O O14 0.607196 0.159304 0.669452
O O15 0.307028 0.500000 0.588404
O O16 0.000000 0.342589 0.500000
O O17 0.686833 0.000000 0.856566
#
# Coordination Sequence:
#
# PCOD9204403 Si02
#       7
#     8   8   8   8   8   8   8
#     4  11  25  43  66  91 125 175 220 266 326 385
#     4  10  20  41  67  92 126 168 210 263 325 382
#     4  11  23  41  64  95 134 165 217 268 317 391
#     4  10  23  40  61  97 127 170 214 265 317 389
#     4  11  23  40  63  95 132 171 213 267 323 381
#     4  10  24  43  64  94 129 165 218 272 321 382
#     4  10  21  37  66  95 125 168 209 260 324 379
#
# _framework density 25.074655
#
# number of rings (size 3 to 8) (size 9 to 14) (size 15 to 20)
#    0.000    1.571    1.429    2.571    6.000    4.000 
#    0.000    0.714    0.000    2.571    0.000    0.000 
#    0.000    0.000    0.000    0.000    0.000    0.000 
#
# Total GULP energy -156363.038396 kJ/mol
# GULP energy per Si atom -5584.394228 kJ/mol
# Density = 2.501758 g / cm^3
# Si number density = 25.074655 Si / 1000 Ang^3
#
#
#
# Elastic Constant Matrix: (Units=GPa)
#
#
# Indices 1 2 3 4 5 6 
#
# 1 148.8322 28.2778 25.9221 0.0000 -24.7403 0.0000
# 2 28.2778 170.2426 0.1575 0.0000 -21.6525 0.0000
# 3 25.9221 0.1575 64.6820 0.0000 -7.1006 0.0000
# 4 0.0000 0.0000 0.0000 20.9176 0.0000 6.7118
# 5 -24.7403 -21.6525 -7.1006 0.0000 30.1228 0.0000
# 6 0.0000 0.0000 0.0000 6.7118 0.0000 -22.4100
#
#
#
# Elastic Compliance Matrix: (Units=1/GPa)
#
#
# Indices 1 2 3 4 5 6 
#
# 1 0.008253 -0.000646 -0.002682 0.000000 0.005682 0.000000
# 2 -0.000646 0.006532 0.000719 0.000000 0.004334 0.000000
# 3 -0.002682 0.000719 0.016783 0.000000 0.002270 0.000000
# 4 0.000000 0.000000 0.000000 0.043615 0.000000 0.013063
# 5 0.005682 0.004334 0.002270 0.000000 0.041515 0.000000
# 6 0.000000 0.000000 0.000000 0.013063 0.000000 -0.040711
#
#
# Mechanical properties :
#
#
# Convention : Reuss Voigt Hill
#
# Bulk Modulus (GPa) = 37.95196 54.71907 46.33551
# Shear Modulus (GPa) = 55.56235 27.68604 41.62419
#
# Velocity S-wave (km/s) = 4.71242 3.32647 4.07874
# Velocity P-wave (km/s) = 6.69161 6.05175 6.37971
#
# Compressibility (1/GPa) = 0.02634910
#
# Stress axis : x y z
#
# Youngs Moduli (GPa) = 121.16235 153.09689 59.58549
#
# Poissons Ratio (x) = 0.09886 0.15983
# Poissons Ratio (y) = 0.07824 -0.04282
# Poissons Ratio (z) = 0.32499 -0.11003
#
# Static dielectric constant tensor:
#      x y z
#    x 1.999210 0.000000 -0.015370 
#    y 0.000000 1.970600 0.000000 
#    z -0.015370 0.000000 2.084650 
# 
# From -- ./inp_files/86394.got.cif
#   From: 2010.05.17/outbox.cif.g08.bks.cpg/sg12_44_cif.got.tgz:86394.got - 2010.06.03 13:09:07.
