data_PCOD9204795
_publ_section_title
;
Structure prediction by ZEFSAII (Michael W. Deem and Ramdas Pophale) SiO2 
 PCOD9204795
Probable space group: C 2/M
;
_chemical_formula_sum "Si O2"
_cell_formula_units_Z 64
_cell_length_a 21.243531
_cell_length_b 26.418793
_cell_length_c 5.569170
_cell_angle_alpha 90.000000
_cell_angle_beta 100.856654
_cell_angle_gamma 90.000000
_cell_volume 3069.633466
_symmetry_space_group_name_H-M "C 2/M"
_symmetry_group_IT_number 12
_symmetry_cell_setting 'monoclinic'
loop_
_space_group_symop_operation_xyz
x,y,z
-x,y,-z
-x,-y,-z
x,-y,z
1/2+x,1/2+y,z
1/2-x,1/2+y,-z
1/2-x,1/2-y,-z
1/2+x,1/2-y,z
loop_
_atom_site_type_symbol
_atom_site_label
_atom_site_fract_x
_atom_site_fract_y
_atom_site_fract_z
Si Si1 0.826106 0.440516 0.608663
Si Si2 0.249607 0.059274 0.047192
Si Si3 0.467678 0.103173 0.726532
Si Si4 0.565510 0.320032 0.445109
Si Si5 0.429362 0.786888 0.769720
Si Si6 0.176763 0.854271 0.226828
Si Si7 0.358227 0.258141 0.106754
Si Si8 0.710609 0.203141 0.569274
O O1 0.840305 0.500000 0.649115
O O2 0.795259 0.436506 0.317872
O O3 0.893176 0.411573 0.669030
O O4 0.783532 0.428042 0.816808
O O5 0.192984 0.099378 0.064091
O O6 0.229408 0.000000 0.020988
O O7 0.500000 0.085756 0.500000
O O8 0.469706 0.164342 0.736703
O O9 0.500000 0.084949 0.000000
O O10 0.500000 0.342690 0.500000
O O11 0.545897 0.268182 0.293650
O O12 0.610662 0.357599 0.326136
O O13 0.612371 0.295362 0.674517
O O14 0.358409 0.797737 0.606983
O O15 0.413255 0.776737 0.034844
O O16 0.242219 0.844131 0.424231
O O17 0.168480 0.799282 0.096957
O O18 0.307517 0.218413 0.172481
O O19 0.750000 0.250000 0.500000
#
# Coordination Sequence:
#
# PCOD9204795 Si02
#       8
#     8   8   8   8   8   8   8   8
#     4  10  23  45  67  91 122 159 203 262 322 370
#     4  10  23  42  68  96 123 155 199 257 328 382
#     4  12  27  40  60  91 122 170 221 255 304 356
#     4  10  22  38  54  79 119 163 205 241 294 365
#     4  10  23  34  53  79 120 163 200 255 293 356
#     4  11  22  34  59  87 115 155 196 254 306 368
#     4  10  21  33  54  81 113 158 198 245 295 361
#     4  11  19  34  50  85 117 147 203 247 311 357
#
# _framework density 20.849394
#
# number of rings (size 3 to 8) (size 9 to 14) (size 15 to 20)
#    0.000    1.500    3.750    2.250    8.750    2.000 
#    0.000    0.000    0.000    0.375    0.000    0.875 
#    0.000    0.000    0.000    0.000    0.000    0.000 
#
# Total GULP energy -178380.931721 kJ/mol
# GULP energy per Si atom -5574.404116 kJ/mol
# Density = 2.080194 g / cm^3
# Si number density = 20.849394 Si / 1000 Ang^3
#
#
#
# Elastic Constant Matrix: (Units=GPa)
#
#
# Indices 1 2 3 4 5 6 
#
# 1 103.4055 34.3913 37.9150 0.0000 -23.0925 0.0000
# 2 34.3913 70.2967 22.1493 0.0000 -14.2393 0.0000
# 3 37.9150 22.1493 95.2843 0.0000 -21.9690 0.0000
# 4 0.0000 0.0000 0.0000 21.5918 0.0000 -6.4989
# 5 -23.0925 -14.2393 -21.9690 0.0000 39.7394 0.0000
# 6 0.0000 0.0000 0.0000 -6.4989 0.0000 30.4287
#
#
#
# Elastic Compliance Matrix: (Units=1/GPa)
#
#
# Indices 1 2 3 4 5 6 
#
# 1 0.013368 -0.004644 -0.003246 0.000000 0.004309 0.000000
# 2 -0.004644 0.017552 -0.001609 0.000000 0.002701 0.000000
# 3 -0.003246 -0.001609 0.013286 0.000000 0.004882 0.000000
# 4 0.000000 0.000000 0.000000 0.049496 0.000000 0.010571
# 5 0.004309 0.002701 0.004882 0.000000 0.031335 0.000000
# 6 0.000000 0.000000 0.000000 0.010571 0.000000 0.035121
#
#
# Mechanical properties :
#
#
# Convention : Reuss Voigt Hill
#
# Bulk Modulus (GPa) = 39.67229 50.87752 45.27491
# Shear Modulus (GPa) = 26.65823 29.98737 28.32280
#
# Velocity S-wave (km/s) = 3.57964 3.79659 3.68971
# Velocity P-wave (km/s) = 6.01286 6.60864 6.31778
#
# Compressibility (1/GPa) = 0.02520651
#
# Stress axis : x y z
#
# Youngs Moduli (GPa) = 74.80612 56.97470 75.26550
#
# Poissons Ratio (x) = 0.26461 0.24432
# Poissons Ratio (y) = 0.34742 0.12112
# Poissons Ratio (z) = 0.24283 0.09169
#
# Static dielectric constant tensor:
#      x y z
#    x 1.860850 0.000000 -0.030280 
#    y 0.000000 1.743100 0.000000 
#    z -0.030280 0.000000 1.908490 
# 
# From -- ./inp_files/22330.got.cif
#   From: 2010.05.17/outbox.cif.g08.bks.cpg/sg12_12_cif.got.tgz:22330.got - 2010.06.03 13:09:07.
