data_PCOD9204842
_publ_section_title
;
Structure prediction by ZEFSAII (Michael W. Deem and Ramdas Pophale) SiO2 
 PCOD9204842
Probable space group: C 2/M
;
_chemical_formula_sum "Si O2"
_cell_formula_units_Z 64
_cell_length_a 20.639492
_cell_length_b 7.575366
_cell_length_c 16.026875
_cell_angle_alpha 90.000000
_cell_angle_beta 71.340385
_cell_angle_gamma 90.000000
_cell_volume 2374.112906
_symmetry_space_group_name_H-M "C 2/M"
_symmetry_group_IT_number 12
_symmetry_cell_setting 'monoclinic'
loop_
_space_group_symop_operation_xyz
x,y,z
-x,y,-z
-x,-y,-z
x,-y,z
1/2+x,1/2+y,z
1/2-x,1/2+y,-z
1/2-x,1/2-y,-z
1/2+x,1/2-y,z
loop_
_atom_site_type_symbol
_atom_site_label
_atom_site_fract_x
_atom_site_fract_y
_atom_site_fract_z
Si Si1 0.484407 0.286585 0.699195
Si Si2 0.867840 0.795345 0.361014
Si Si3 0.468951 0.288217 0.899940
Si Si4 0.573338 0.791367 0.444824
Si Si5 0.881961 0.291905 0.161868
Si Si6 0.219717 0.706920 0.406703
Si Si7 0.324872 0.288135 0.935208
Si Si8 0.766352 0.213972 0.793142
O O1 0.485860 0.500000 0.698318
O O2 0.559725 0.217410 0.639531
O O3 0.474134 0.235709 0.799413
O O4 0.429088 0.229848 0.654423
O O5 0.877871 0.791438 0.255994
O O6 0.792332 0.715973 0.408914
O O7 0.865400 0.000000 0.385147
O O8 0.468187 0.500000 0.907064
O O9 0.542945 0.239530 0.906558
O O10 0.393007 0.218955 0.952619
O O11 0.500000 0.711156 0.500000
O O12 0.643793 0.717743 0.454422
O O13 0.572859 0.000000 0.462586
O O14 0.876198 0.500000 0.176999
O O15 0.811380 0.233954 0.147965
O O16 0.219534 0.500000 0.426698
O O17 0.224605 0.720282 0.304047
O O18 0.331637 0.500000 0.930536
O O19 0.318902 0.225487 0.841669
O O20 0.250000 0.250000 0.000000
O O21 0.770569 0.000000 0.788217
#
# Coordination Sequence:
#
# PCOD9204842 Si02
#       8
#     8   8   8   8   8   8   8   8
#     4   9  17  31  52  73  92 120 158 197 236 280
#     4   8  15  29  48  70  95 121 153 195 238 279
#     4   9  18  33  52  73  98 127 157 194 240 284
#     4  10  21  34  46  66  99 132 159 194 240 283
#     4   9  16  27  48  76  99 120 151 193 239 285
#     4   9  17  31  52  73  93 124 163 196 231 283
#     4  10  21  36  51  69  97 131 164 198 237 280
#     4   9  18  33  52  74  99 124 154 198 245 281
#
# _framework density 26.957438
#
# number of rings (size 3 to 8) (size 9 to 14) (size 15 to 20)
#    0.000    2.875    0.000    1.875    0.000    5.250 
#    0.000    1.250    0.000    3.750    0.000    0.000 
#    0.000    0.000    0.000    0.000    0.000    0.000 
#
# Total GULP energy -178848.726149 kJ/mol
# GULP energy per Si atom -5589.022692 kJ/mol
# Density = 2.689608 g / cm^3
# Si number density = 26.957438 Si / 1000 Ang^3
#
#
#
# Elastic Constant Matrix: (Units=GPa)
#
#
# Indices 1 2 3 4 5 6 
#
# 1 254.0364 21.2071 40.6858 0.0000 -25.0359 0.0000
# 2 21.2071 77.5550 4.4071 0.0000 -0.8546 0.0000
# 3 40.6858 4.4071 89.4993 0.0000 -27.1823 0.0000
# 4 0.0000 0.0000 0.0000 15.9780 0.0000 -2.4627
# 5 -25.0359 -0.8546 -27.1823 0.0000 54.6591 0.0000
# 6 0.0000 0.0000 0.0000 -2.4627 0.0000 8.2306
#
#
#
# Elastic Compliance Matrix: (Units=1/GPa)
#
#
# Indices 1 2 3 4 5 6 
#
# 1 0.004401 -0.001100 -0.001578 0.000000 0.001214 0.000000
# 2 -0.001100 0.013206 -0.000283 0.000000 -0.000438 0.000000
# 3 -0.001578 -0.000283 0.013762 0.000000 0.006117 0.000000
# 4 0.000000 0.000000 0.000000 0.065612 0.000000 0.019632
# 5 0.001214 -0.000438 0.006117 0.000000 0.021886 0.000000
# 6 0.000000 0.000000 0.000000 0.019632 0.000000 0.127372
#
#
# Mechanical properties :
#
#
# Convention : Reuss Voigt Hill
#
# Bulk Modulus (GPa) = 39.29784 61.52118 50.40951
# Shear Modulus (GPa) = 19.18330 39.42627 29.30478
#
# Velocity S-wave (km/s) = 2.67050 3.82846 3.30066
# Velocity P-wave (km/s) = 4.91103 6.51260 5.76767
#
# Compressibility (1/GPa) = 0.02544669
#
# Stress axis : x y z
#
# Youngs Moduli (GPa) = 227.24192 75.72190 72.66266
#
# Poissons Ratio (x) = 0.08332 0.11464
# Poissons Ratio (y) = 0.25003 0.02058
# Poissons Ratio (z) = 0.35850 0.02145
#
# Static dielectric constant tensor:
#      x y z
#    x 1.771820 0.000000 -0.042530 
#    y 0.000000 1.982800 0.000000 
#    z -0.042530 0.000000 2.222660 
# 
# From -- ./inp_files/319872.got.cif
#   From: 2010.05.17/outbox.cif.g08.bks.cpg/sg12_160_cif.got.tgz:319872.got - 2010.06.03 13:09:07.
