data_PCOD9204113
_publ_section_title
;
Structure prediction by ZEFSAII (Michael W. Deem and Ramdas Pophale) SiO2 
 PCOD9204113
Probable space group: C 2/M
;
_chemical_formula_sum "Si O2"
_cell_formula_units_Z 42
_cell_length_a 13.682219
_cell_length_b 24.785513
_cell_length_c 7.635879
_cell_angle_alpha 90.000000
_cell_angle_beta 121.563187
_cell_angle_gamma 90.000000
_cell_volume 2206.405901
_symmetry_space_group_name_H-M "C 2/M"
_symmetry_group_IT_number 12
_symmetry_cell_setting 'monoclinic'
loop_
_space_group_symop_operation_xyz
x,y,z
-x,y,-z
-x,-y,-z
x,-y,z
1/2+x,1/2+y,z
1/2-x,1/2+y,-z
1/2-x,1/2-y,-z
1/2+x,1/2-y,z
loop_
_atom_site_type_symbol
_atom_site_label
_atom_site_fract_x
_atom_site_fract_y
_atom_site_fract_z
Si Si1 0.500000 0.500000 0.000000
Si Si2 0.592762 0.936402 0.443783
Si Si3 0.095996 0.758013 0.736801
Si Si4 0.500000 0.892117 0.000000
Si Si5 0.286450 0.839242 0.981064
Si Si6 0.500000 0.307124 0.000000
Si Si7 0.820620 0.899874 0.818343
O O1 0.599335 0.452242 0.108680
O O2 0.500000 0.917055 0.500000
O O3 0.713250 0.907317 0.589456
O O4 0.610903 0.000000 0.489887
O O5 0.541268 0.926250 0.204901
O O6 0.187981 0.805642 0.789245
O O7 0.000000 0.754616 0.500000
O O8 0.039827 0.772517 0.871902
O O9 0.163950 0.702435 0.827838
O O10 0.391174 0.857357 0.959902
O O11 0.230333 0.888651 0.034743
O O12 0.397150 0.347354 0.848946
#
# Coordination Sequence:
#
# PCOD9204113 Si02
#       7
#     2   8   8   4   8   4   8
#     4  10  20  40  72  90 116 166 202 252 304 376
#     4  11  23  40  62  89 126 166 204 250 310 369
#     4  10  22  41  62  87 127 164 206 260 311 359
#     4  12  24  38  63  93 127 161 208 254 304 370
#     4  10  23  41  59  94 125 160 211 256 303 373
#     4   9  21  39  62  91 123 159 214 256 304 372
#     4  10  20  40  65  90 123 163 206 252 310 364
#
# _framework density 19.035484
#
# number of rings (size 3 to 8) (size 9 to 14) (size 15 to 20)
#    0.000    1.714    2.857    0.857    5.333    0.000 
#    1.714    3.810    0.000    1.143    0.000    0.000 
#    0.000    0.000    0.000    0.000    0.000    0.000 
#
# Total GULP energy -117015.999190 kJ/mol
# GULP energy per Si atom -5572.190438 kJ/mol
# Density = 1.899216 g / cm^3
# Si number density = 19.035484 Si / 1000 Ang^3
#
#
#
# Elastic Constant Matrix: (Units=GPa)
#
#
# Indices 1 2 3 4 5 6 
#
# 1 98.7250 11.9951 28.2897 0.0000 18.1166 0.0000
# 2 11.9951 46.8155 21.5337 0.0000 7.2960 0.0000
# 3 28.2897 21.5337 100.9828 0.0000 32.3006 0.0000
# 4 0.0000 0.0000 0.0000 17.1028 0.0000 -5.1002
# 5 18.1166 7.2960 32.3006 0.0000 33.6420 0.0000
# 6 0.0000 0.0000 0.0000 -5.1002 0.0000 33.5485
#
#
#
# Elastic Compliance Matrix: (Units=1/GPa)
#
#
# Indices 1 2 3 4 5 6 
#
# 1 0.011564 -0.001590 -0.001471 0.000000 -0.004471 0.000000
# 2 -0.001590 0.023906 -0.004716 0.000000 0.000200 0.000000
# 3 -0.001471 -0.004716 0.015500 0.000000 -0.013067 0.000000
# 4 0.000000 0.000000 0.000000 0.061247 0.000000 0.009311
# 5 -0.004471 0.000200 -0.013067 0.000000 0.044635 0.000000
# 6 0.000000 0.000000 0.000000 0.009311 0.000000 0.031223
#
#
# Mechanical properties :
#
#
# Convention : Reuss Voigt Hill
#
# Bulk Modulus (GPa) = 28.23517 41.12892 34.68205
# Shear Modulus (GPa) = 23.20895 29.17230 26.19063
#
# Velocity S-wave (km/s) = 3.49556 3.91899 3.71332
# Velocity P-wave (km/s) = 5.58185 6.49087 6.05344
#
# Compressibility (1/GPa) = 0.03541683
#
# Stress axis : x y z
#
# Youngs Moduli (GPa) = 86.47451 41.83055 64.51563
#
# Poissons Ratio (x) = 0.06650 0.09488
# Poissons Ratio (y) = 0.13748 0.30427
# Poissons Ratio (z) = 0.12717 0.19728
#
# Static dielectric constant tensor:
#      x y z
#    x 1.686670 0.000000 0.000250 
#    y 0.000000 1.648770 0.000000 
#    z 0.000250 0.000000 1.625820 
# 
# From -- ./inp_files/12483.got.cif
#   From: 2010.05.17/outbox.cif.g08.bks.cpg/sg12_7_cif.got.tgz:12483.got - 2010.06.03 13:09:07.
