data_PCOD9204014
_publ_section_title
;
Structure prediction by ZEFSAII (Michael W. Deem and Ramdas Pophale) SiO2 
 PCOD9204014
Probable space group: C 2/M
;
_chemical_formula_sum "Si O2"
_cell_formula_units_Z 54
_cell_length_a 11.085428
_cell_length_b 31.060644
_cell_length_c 15.002332
_cell_angle_alpha 90.000000
_cell_angle_beta 31.549914
_cell_angle_gamma 90.000000
_cell_volume 2702.860240
_symmetry_space_group_name_H-M "C 2/M"
_symmetry_group_IT_number 12
_symmetry_cell_setting 'monoclinic'
loop_
_space_group_symop_operation_xyz
x,y,z
-x,y,-z
-x,-y,-z
x,-y,z
1/2+x,1/2+y,z
1/2-x,1/2+y,-z
1/2-x,1/2-y,-z
1/2+x,1/2-y,z
loop_
_atom_site_type_symbol
_atom_site_label
_atom_site_fract_x
_atom_site_fract_y
_atom_site_fract_z
Si Si1 0.500000 0.000000 0.000000
Si Si2 0.247530 0.562553 0.705030
Si Si3 0.239272 0.340337 0.673283
Si Si4 0.358394 0.132034 0.465215
Si Si5 0.500000 0.603739 0.000000
Si Si6 0.492264 0.756559 0.897872
Si Si7 0.158285 0.836178 0.757181
Si Si8 0.466482 0.950843 0.703707
O O1 0.338958 0.037097 0.153819
O O2 0.500000 0.552864 0.500000
O O3 0.243992 0.614099 0.721818
O O4 0.064440 0.550990 0.742408
O O5 0.500000 0.324219 0.500000
O O6 0.159969 0.352335 0.623697
O O7 0.089229 0.302631 0.808352
O O8 0.597745 0.149940 0.353489
O O9 0.159626 0.148938 0.654410
O O10 0.368835 0.080235 0.457681
O O11 0.480181 0.636140 0.928304
O O12 0.720696 0.572905 0.854859
O O13 0.634853 0.714646 0.777958
O O14 0.500000 0.754664 0.000000
O O15 0.250000 0.750000 0.000000
O O16 0.455810 0.000000 0.680695
#
# Coordination Sequence:
#
# PCOD9204014 Si02
#       8
#     2   8   8   8   4   8   8   8
#     4  12  22  40  74  96 126 186 222 258 352 410
#     4  10  23  44  64  97 137 172 221 280 335 405
#     4  10  24  43  63  94 134 169 216 281 330 389
#     4   9  21  41  65  88 124 172 211 265 333 396
#     4  10  21  40  63  90 134 165 214 271 334 402
#     4  12  27  42  66  98 133 172 220 279 336 401
#     4  10  21  41  64  89 121 172 213 258 333 405
#     4  10  20  40  63  91 126 168 214 274 327 387
#
# _framework density 19.978836000000001
#
# number of rings (size 3 to 8) (size 9 to 14) (size 15 to 20)
#    0.000    1.778    1.481    1.333    9.333    0.593 
#    8.000    6.667    0.000    0.000    0.000    0.000 
#    0.000    0.000    0.000    0.000    0.000    0.000 
#
# Total GULP energy -150354.936639 kJ/mol
# GULP energy per Si atom -5568.701357 kJ/mol
# Density = 1.993336 g / cm^3
# Si number density = 19.978836 Si / 1000 Ang^3
#
#
#
# Elastic Constant Matrix: (Units=GPa)
#
#
# Indices 1 2 3 4 5 6 
#
# 1 50.9030 14.3364 18.6163 0.0000 -0.7807 0.0000
# 2 14.3364 166.3622 74.3971 0.0000 18.6017 0.0000
# 3 18.6163 74.3971 102.9894 0.0000 21.4958 0.0000
# 4 0.0000 0.0000 0.0000 56.9461 0.0000 -49.1065
# 5 -0.7807 18.6017 21.4958 0.0000 29.5474 0.0000
# 6 0.0000 0.0000 0.0000 -49.1065 0.0000 108.6784
#
#
#
# Elastic Compliance Matrix: (Units=1/GPa)
#
#
# Indices 1 2 3 4 5 6 
#
# 1 0.021436 -0.000279 -0.004513 0.000000 0.004026 0.000000
# 2 -0.000279 0.008913 -0.006149 0.000000 -0.001145 0.000000
# 3 -0.004513 -0.006149 0.016724 0.000000 -0.008415 0.000000
# 4 0.000000 0.000000 0.000000 0.028771 0.000000 0.013000
# 5 0.004026 -0.001145 -0.008415 0.000000 0.040793 0.000000
# 6 0.000000 0.000000 0.000000 0.013000 0.000000 0.015076
#
#
# Mechanical properties :
#
#
# Convention : Reuss Voigt Hill
#
# Bulk Modulus (GPa) = 39.69839 59.43934 49.56886
# Shear Modulus (GPa) = 30.86572 53.22805 42.04688
#
# Velocity S-wave (km/s) = 3.93481 5.16721 4.59254
# Velocity P-wave (km/s) = 6.36844 8.08800 7.27918
#
# Compressibility (1/GPa) = 0.02518994
#
# Stress axis : x y z
#
# Youngs Moduli (GPa) = 46.65010 112.19689 59.79490
#
# Poissons Ratio (x) = 0.03130 0.26988
# Poissons Ratio (y) = 0.01301 0.36768
# Poissons Ratio (z) = 0.21055 0.68990
#
# Static dielectric constant tensor:
#      x y z
#    x 1.675080 0.000000 -0.001350 
#    y 0.000000 1.711220 0.000000 
#    z -0.001350 0.000000 1.774640 
# 
# From -- ./inp_files/210033.got.cif
#   From: 2010.05.17/outbox.cif.g08.bks.cpg/sg12_106_cif.got.tgz:210033.got - 2010.06.03 13:09:07.
