data_PCOD9204770
_publ_section_title
;
Structure prediction by ZEFSAII (Michael W. Deem and Ramdas Pophale) SiO2 
 PCOD9204770
Probable space group: C 2/M
;
_chemical_formula_sum "Si O2"
_cell_formula_units_Z 64
_cell_length_a 25.596896
_cell_length_b 13.963058
_cell_length_c 9.743743
_cell_angle_alpha 90.000000
_cell_angle_beta 81.358120
_cell_angle_gamma 90.000000
_cell_volume 3442.982680
_symmetry_space_group_name_H-M "C 2/M"
_symmetry_group_IT_number 12
_symmetry_cell_setting 'monoclinic'
loop_
_space_group_symop_operation_xyz
x,y,z
-x,y,-z
-x,-y,-z
x,-y,z
1/2+x,1/2+y,z
1/2-x,1/2+y,-z
1/2-x,1/2-y,-z
1/2+x,1/2-y,z
loop_
_atom_site_type_symbol
_atom_site_label
_atom_site_fract_x
_atom_site_fract_y
_atom_site_fract_z
Si Si1 0.559787 0.771980 0.953708
Si Si2 0.320309 0.607786 0.869020
Si Si3 0.886285 0.611440 0.280155
Si Si4 0.171361 0.305462 0.445936
Si Si5 0.856272 0.892356 0.156709
Si Si6 0.287230 0.611993 0.458543
Si Si7 0.133290 0.702759 0.166081
Si Si8 0.703942 0.112411 0.912826
O O1 0.565565 0.848848 0.829257
O O2 0.598588 0.685940 0.889789
O O3 0.500000 0.741315 0.000000
O O4 0.583414 0.815754 0.086842
O O5 0.330684 0.500000 0.818882
O O6 0.364619 0.683034 0.813203
O O7 0.262467 0.640195 0.845838
O O8 0.319855 0.608305 0.035432
O O9 0.892358 0.500000 0.310866
O O10 0.870989 0.670757 0.419707
O O11 0.836338 0.622446 0.196509
O O12 0.225760 0.362869 0.455302
O O13 0.188481 0.193459 0.451659
O O14 0.145594 0.336109 0.311511
O O15 0.820317 0.875613 0.303926
O O16 0.878915 0.000000 0.158780
O O17 0.291457 0.500000 0.499994
O O18 0.181758 0.671733 0.048697
O O19 0.705837 0.000000 0.950284
#
# Coordination Sequence:
#
# PCOD9204770 Si02
#       8
#     8   8   8   8   8   8   8   8
#     4  10  21  40  61  80 103 138 187 239 286 324
#     4   9  17  28  48  76 108 141 177 216 260 314
#     4  10  21  37  56  80 110 144 184 225 269 326
#     4  11  22  34  54  83 116 153 180 213 262 323
#     4   9  17  33  55  82 110 143 182 224 267 320
#     4  10  21  34  53  81 120 157 181 206 256 328
#     4  10  21  33  52  78 107 138 177 227 271 317
#     4   9  18  31  50  74 104 142 177 214 261 317
#
# _framework density 18.588535
#
# number of rings (size 3 to 8) (size 9 to 14) (size 15 to 20)
#    0.000    2.250    1.250    1.500    3.500    3.000 
#    0.000    0.625    0.000    0.750    0.000    1.750 
#    0.000    0.000    0.000    0.000    0.000    0.000 
#
# Total GULP energy -178417.563752 kJ/mol
# GULP energy per Si atom -5575.548867 kJ/mol
# Density = 1.854623 g / cm^3
# Si number density = 18.588535 Si / 1000 Ang^3
#
#
#
# Elastic Constant Matrix: (Units=GPa)
#
#
# Indices 1 2 3 4 5 6 
#
# 1 43.8327 7.0114 12.6177 0.0000 -15.1007 0.0000
# 2 7.0114 69.2633 16.1308 0.0000 -5.1787 0.0000
# 3 12.6177 16.1308 84.2352 0.0000 1.8125 0.0000
# 4 0.0000 0.0000 0.0000 14.6171 0.0000 0.8179
# 5 -15.1007 -5.1787 1.8125 0.0000 14.0039 0.0000
# 6 0.0000 0.0000 0.0000 0.8179 0.0000 11.7543
#
#
#
# Elastic Compliance Matrix: (Units=1/GPa)
#
#
# Indices 1 2 3 4 5 6 
#
# 1 0.040021 0.000930 -0.007129 0.000000 0.044422 0.000000
# 2 0.000930 0.015650 -0.003291 0.000000 0.007217 0.000000
# 3 -0.007129 -0.003291 0.013800 0.000000 -0.010690 0.000000
# 4 0.000000 0.000000 0.000000 0.068681 0.000000 -0.004779
# 5 0.044422 0.007217 -0.010690 0.000000 0.123362 0.000000
# 6 0.000000 0.000000 0.000000 -0.004779 0.000000 0.085408
#
#
# Mechanical properties :
#
#
# Convention : Reuss Voigt Hill
#
# Bulk Modulus (GPa) = 19.80569 29.87232 24.83900
# Shear Modulus (GPa) = 13.06400 18.84648 15.95524
#
# Velocity S-wave (km/s) = 2.65391 3.18760 2.93292
# Velocity P-wave (km/s) = 4.47983 5.44545 4.98607
#
# Compressibility (1/GPa) = 0.05049054
#
# Stress axis : x y z
#
# Youngs Moduli (GPa) = 24.98682 63.89930 72.46534
#
# Poissons Ratio (x) = -0.05945 0.51659
# Poissons Ratio (y) = -0.02325 0.23852
# Poissons Ratio (z) = 0.17813 0.21032
#
# Static dielectric constant tensor:
#      x y z
#    x 1.609780 0.000000 0.021930 
#    y 0.000000 1.700950 0.000000 
#    z 0.021930 0.000000 1.658800 
# 
# From -- ./inp_files/96859.got.cif
#   From: 2010.05.17/outbox.cif.g08.bks.cpg/sg12_49_cif.got.tgz:96859.got - 2010.06.03 13:09:07.
