data_PCOD9204509
_publ_section_title
;
Structure prediction by ZEFSAII (Michael W. Deem and Ramdas Pophale) SiO2 
 PCOD9204509
Probable space group: C 2/M
;
_chemical_formula_sum "Si O2"
_cell_formula_units_Z 64
_cell_length_a 9.256730
_cell_length_b 31.063275
_cell_length_c 18.879072
_cell_angle_alpha 90.000000
_cell_angle_beta 35.974939
_cell_angle_gamma 90.000000
_cell_volume 3188.912401
_symmetry_space_group_name_H-M "C 2/M"
_symmetry_group_IT_number 12
_symmetry_cell_setting 'monoclinic'
loop_
_space_group_symop_operation_xyz
x,y,z
-x,y,-z
-x,-y,-z
x,-y,z
1/2+x,1/2+y,z
1/2-x,1/2+y,-z
1/2-x,1/2-y,-z
1/2+x,1/2-y,z
loop_
_atom_site_type_symbol
_atom_site_label
_atom_site_fract_x
_atom_site_fract_y
_atom_site_fract_z
Si Si1 0.844517 0.889818 0.990556
Si Si2 0.804065 0.113287 0.518941
Si Si3 0.696014 0.313740 0.700969
Si Si4 0.133154 0.048380 0.634936
Si Si5 0.054527 0.450746 0.896169
Si Si6 0.252931 0.906686 0.721675
Si Si7 0.272607 0.701924 0.463518
Si Si8 0.414352 0.291505 0.951491
O O1 0.795986 0.839503 0.990636
O O2 0.034234 0.914648 0.863172
O O3 0.596264 0.916890 0.090512
O O4 0.000000 0.887583 0.000000
O O5 0.821936 0.084275 0.441763
O O6 0.513688 0.106744 0.653819
O O7 0.873937 0.162690 0.470620
O O8 0.000000 0.098833 0.500000
O O9 0.649742 0.364361 0.722852
O O10 0.597892 0.296488 0.664920
O O11 0.613449 0.293012 0.807955
O O12 0.986623 0.310778 0.576061
O O13 0.276957 0.058157 0.650907
O O14 0.844233 0.050989 0.768406
O O15 0.185622 0.000000 0.588899
O O16 0.972501 0.500000 0.915217
O O17 0.000000 0.440689 0.000000
O O18 0.250000 0.750000 0.500000
O O19 0.500000 0.288155 0.000000
O O20 0.250000 0.250000 0.000000
#
# Coordination Sequence:
#
# PCOD9204509 Si02
#       8
#     8   8   8   8   8   8   8   8
#     4  10  22  40  65  92 127 172 208 258 324 372
#     4  11  25  41  62  96 129 163 210 266 324 379
#     4   9  20  39  61  83 121 163 208 262 305 373
#     4  11  23  42  67  92 124 168 213 261 316 383
#     4  10  21  39  63  95 125 154 210 266 307 375
#     4  10  20  42  65  87 126 165 210 255 312 385
#     4  10  21  38  61  91 123 162 210 264 316 368
#     4  10  23  42  59  90 129 170 214 260 312 380
#
# _framework density 20.069538999999999
#
# number of rings (size 3 to 8) (size 9 to 14) (size 15 to 20)
#    0.000    1.875    2.500    0.375    5.250    2.000 
#    2.250    0.000    0.000    0.000    0.000    0.000 
#    0.000    0.000    0.000    0.000    0.000    0.000 
#
# Total GULP energy -178200.158720 kJ/mol
# GULP energy per Si atom -5568.754960 kJ/mol
# Density = 2.002386 g / cm^3
# Si number density = 20.069539 Si / 1000 Ang^3
#
#
#
# Elastic Constant Matrix: (Units=GPa)
#
#
# Indices 1 2 3 4 5 6 
#
# 1 76.7063 26.9548 15.6932 0.0000 -4.3516 0.0000
# 2 26.9548 77.6802 6.3704 0.0000 -3.9787 0.0000
# 3 15.6932 6.3704 66.6222 0.0000 9.6322 0.0000
# 4 0.0000 0.0000 0.0000 17.6315 0.0000 -8.6524
# 5 -4.3516 -3.9787 9.6322 0.0000 22.4979 0.0000
# 6 0.0000 0.0000 0.0000 -8.6524 0.0000 22.5136
#
#
#
# Elastic Compliance Matrix: (Units=1/GPa)
#
#
# Indices 1 2 3 4 5 6 
#
# 1 0.015773 -0.004968 -0.003789 0.000000 0.003794 0.000000
# 2 -0.004968 0.014734 -0.000508 0.000000 0.001862 0.000000
# 3 -0.003789 -0.000508 0.017130 0.000000 -0.008157 0.000000
# 4 0.000000 0.000000 0.000000 0.069900 0.000000 0.026864
# 5 0.003794 0.001862 -0.008157 0.000000 0.049004 0.000000
# 6 0.000000 0.000000 0.000000 0.026864 0.000000 0.054742
#
#
# Mechanical properties :
#
#
# Convention : Reuss Voigt Hill
#
# Bulk Modulus (GPa) = 34.35509 35.44951 34.90230
# Shear Modulus (GPa) = 20.03882 23.99463 22.01672
#
# Velocity S-wave (km/s) = 3.16328 3.46146 3.31573
# Velocity P-wave (km/s) = 5.52241 5.80321 5.66455
#
# Compressibility (1/GPa) = 0.02910777
#
# Stress axis : x y z
#
# Youngs Moduli (GPa) = 63.39959 67.86917 58.37571
#
# Poissons Ratio (x) = 0.33718 0.22118
# Poissons Ratio (y) = 0.31498 0.02965
# Poissons Ratio (z) = 0.24022 0.03447
#
# Static dielectric constant tensor:
#      x y z
#    x 1.768140 0.000000 0.031060 
#    y 0.000000 0.464760 0.000000 
#    z 0.031060 0.000000 1.741870 
# 
# From -- ./inp_files/260307.got.cif
#   From: 2010.05.17/outbox.cif.g08.bks.cpg/sg12_131_cif.got.tgz:260307.got - 2010.06.03 13:09:07.
