data_PCOD9204907
_publ_section_title
;
Structure prediction by ZEFSAII (Michael W. Deem and Ramdas Pophale) SiO2 
 PCOD9204907
Probable space group: C 2/M
;
_chemical_formula_sum "Si O2"
_cell_formula_units_Z 60
_cell_length_a 30.777343
_cell_length_b 18.322764
_cell_length_c 14.388510
_cell_angle_alpha 90.000000
_cell_angle_beta 26.726595
_cell_angle_gamma 90.000000
_cell_volume 3649.163283
_symmetry_space_group_name_H-M "C 2/M"
_symmetry_group_IT_number 12
_symmetry_cell_setting 'monoclinic'
loop_
_space_group_symop_operation_xyz
x,y,z
-x,y,-z
-x,-y,-z
x,-y,z
1/2+x,1/2+y,z
1/2-x,1/2+y,-z
1/2-x,1/2-y,-z
1/2+x,1/2-y,z
loop_
_atom_site_type_symbol
_atom_site_label
_atom_site_fract_x
_atom_site_fract_y
_atom_site_fract_z
Si Si1 0.140343 0.322551 0.925505
Si Si2 0.362551 0.417238 0.178285
Si Si3 0.922523 0.685927 0.263255
Si Si4 0.692551 0.914911 0.651006
Si Si5 0.588661 0.914741 0.200949
Si Si6 0.636770 0.913697 0.321891
Si Si7 0.000000 0.191359 0.000000
Si Si8 0.256784 0.173495 0.730172
O O1 0.195131 0.367071 0.739479
O O2 0.189166 0.244735 0.853841
O O3 0.133386 0.366940 0.034367
O O4 0.031032 0.317297 0.094641
O O5 0.396215 0.500000 0.107293
O O6 0.292041 0.410374 0.402537
O O7 0.448847 0.360767 0.024572
O O8 0.299234 0.392924 0.212103
O O9 0.888631 0.618740 0.263180
O O10 0.921888 0.756303 0.197592
O O11 0.848485 0.690517 0.489264
O O12 0.672814 0.000000 0.708670
O O13 0.631973 0.900804 0.220528
O O14 0.472866 0.903565 0.430859
O O15 0.603265 0.000000 0.151718
O O16 0.705329 0.857484 0.244596
O O17 0.660986 0.000000 0.290870
#
# Coordination Sequence:
#
# PCOD9204907 Si02
#       8
#     8   8   8   8   8   8   4   8
#     4  12  20  33  51  77 104 137 165 204 255 305
#     4  10  21  34  51  73  99 138 178 212 244 288
#     4  11  21  33  49  75 104 138 166 211 249 294
#     4  10  21  35  50  74 104 134 174 212 252 300
#     4   9  19  34  55  79 102 130 165 206 261 309
#     4   9  18  35  55  77 104 129 162 214 257 300
#     4  12  19  36  49  68 108 140 176 208 243 294
#     4  11  21  34  53  76 106 132 170 210 250 307
#
# _framework density 16.442125000000001
#
# number of rings (size 3 to 8) (size 9 to 14) (size 15 to 20)
#    0.000    1.600    4.000    2.600    0.000    4.800 
#    0.000    0.000    0.000    0.000    0.000    0.000 
#    0.000    2.133    0.000    0.000    0.000    0.000 
#
# Total GULP energy -167333.868617 kJ/mol
# GULP energy per Si atom -5577.795621 kJ/mol
# Density = 1.640470 g / cm^3
# Si number density = 16.442125 Si / 1000 Ang^3
#
#
#
# Elastic Constant Matrix: (Units=GPa)
#
#
# Indices 1 2 3 4 5 6 
#
# 1 76.8160 42.7579 11.8955 0.0000 8.0373 0.0000
# 2 42.7579 93.9547 10.5961 0.0000 3.9897 0.0000
# 3 11.8955 10.5961 17.5988 0.0000 6.2343 0.0000
# 4 0.0000 0.0000 0.0000 12.9022 0.0000 -3.3559
# 5 8.0373 3.9897 6.2343 0.0000 23.5841 0.0000
# 6 0.0000 0.0000 0.0000 -3.3559 0.0000 34.3776
#
#
#
# Elastic Compliance Matrix: (Units=1/GPa)
#
#
# Indices 1 2 3 4 5 6 
#
# 1 0.018637 -0.007566 -0.006890 0.000000 -0.003250 0.000000
# 2 -0.007566 0.014491 -0.004033 0.000000 0.001193 0.000000
# 3 -0.006890 -0.004033 0.069326 0.000000 -0.015296 0.000000
# 4 0.000000 0.000000 0.000000 0.079526 0.000000 0.007763
# 5 -0.003250 0.001193 -0.015296 0.000000 0.047350 0.000000
# 6 0.000000 0.000000 0.000000 0.007763 0.000000 0.029847
#
#
# Mechanical properties :
#
#
# Convention : Reuss Voigt Hill
#
# Bulk Modulus (GPa) = 15.27317 35.42982 25.35149
# Shear Modulus (GPa) = 15.72419 22.38078 19.05249
#
# Velocity S-wave (km/s) = 3.09582 3.69343 3.40775
# Velocity P-wave (km/s) = 4.69979 6.30742 5.56199
#
# Compressibility (1/GPa) = 0.06547431
#
# Stress axis : x y z
#
# Youngs Moduli (GPa) = 53.65722 69.00832 14.42453
#
# Poissons Ratio (x) = 0.52214 0.09939
# Poissons Ratio (y) = 0.40599 0.05818
# Poissons Ratio (z) = 0.36971 0.27833
#
# Static dielectric constant tensor:
#      x y z
#    x 1.552590 0.000000 -0.011420 
#    y 0.000000 1.550810 0.000000 
#    z -0.011420 0.000000 1.549370 
# 
# From -- ./inp_files/251292.got.cif
#   From: 2010.05.17/outbox.cif.g08.bks.cpg/sg12_126_cif.got.tgz:251292.got - 2010.06.03 13:09:07.
