data_PCOD9204496
_publ_section_title
;
Structure prediction by ZEFSAII (Michael W. Deem and Ramdas Pophale) SiO2 
 PCOD9204496
Probable space group: C 2/M
;
_chemical_formula_sum "Si O2"
_cell_formula_units_Z 40
_cell_length_a 8.638884
_cell_length_b 22.419592
_cell_length_c 15.749973
_cell_angle_alpha 90.000000
_cell_angle_beta 34.720140
_cell_angle_gamma 90.000000
_cell_volume 1737.445170
_symmetry_space_group_name_H-M "C 2/M"
_symmetry_group_IT_number 12
_symmetry_cell_setting 'monoclinic'
loop_
_space_group_symop_operation_xyz
x,y,z
-x,y,-z
-x,-y,-z
x,-y,z
1/2+x,1/2+y,z
1/2-x,1/2+y,-z
1/2-x,1/2-y,-z
1/2+x,1/2-y,z
loop_
_atom_site_type_symbol
_atom_site_label
_atom_site_fract_x
_atom_site_fract_y
_atom_site_fract_z
Si Si1 0.608595 0.687763 0.544392
Si Si2 0.825882 0.632141 0.703525
Si Si3 0.500000 0.696376 0.000000
Si Si4 0.264096 0.500000 0.217022
Si Si5 0.000000 0.407642 0.000000
Si Si6 0.111865 0.805136 0.186861
Si Si7 0.086204 0.500000 0.104539
O O1 0.500000 0.685058 0.500000
O O2 0.750000 0.750000 0.500000
O O3 0.368175 0.686693 0.721266
O O4 0.852200 0.640756 0.439879
O O5 0.657271 0.653660 0.863187
O O6 0.783989 0.561722 0.711621
O O7 0.699378 0.680312 0.694613
O O8 0.744028 0.744782 0.908670
O O9 0.084399 0.500000 0.209077
O O10 0.588192 0.500000 0.055114
O O11 0.238653 0.362566 0.917148
O O12 0.037124 0.445997 0.897164
#
# Coordination Sequence:
#
# PCOD9204496 Si02
#       7
#     8   8   4   4   4   8   4
#     4  12  27  47  71  99 140 183 228 288 350 415
#     4  12  25  45  71 104 145 183 233 280 349 417
#     4  11  24  38  76 106 144 173 230 284 348 411
#     4  11  24  42  68 102 145 185 235 277 348 412
#     4  10  22  39  72  99 142 176 236 284 346 398
#     4  11  24  43  68 107 139 180 229 288 350 409
#     4  10  20  42  64 102 140 187 225 287 337 410
#
# _framework density 23.022310000000001
#
# number of rings (size 3 to 8) (size 9 to 14) (size 15 to 20)
#    0.000    0.800    4.000    3.600    2.800    1.600 
#    0.000    4.500    0.000    0.000    0.000    0.000 
#    0.000    0.000    0.000    0.000    0.000    0.000 
#
# Total GULP energy -111470.794098 kJ/mol
# GULP energy per Si atom -5573.539705 kJ/mol
# Density = 2.296991 g / cm^3
# Si number density = 23.022310 Si / 1000 Ang^3
#
#
#
# Elastic Constant Matrix: (Units=GPa)
#
#
# Indices 1 2 3 4 5 6 
#
# 1 67.6098 -8.3682 -10.1857 0.0000 -9.9222 -0.0001
# 2 -8.3682 130.9971 9.3427 0.0001 -17.2050 -0.0001
# 3 -10.1857 9.3427 68.7518 -0.0004 6.9559 0.0009
# 4 0.0000 0.0001 -0.0004 10.4214 0.0001 -1.3666
# 5 -9.9222 -17.2050 6.9559 0.0001 35.6450 -0.0005
# 6 -0.0001 -0.0001 0.0009 -1.3666 -0.0005 16.1103
#
#
#
# Elastic Compliance Matrix: (Units=1/GPa)
#
#
# Indices 1 2 3 4 5 6 
#
# 1 0.015944 0.001538 0.001662 0.000000 0.004856 0.000000
# 2 0.001538 0.008461 -0.001406 0.000000 0.004786 0.000000
# 3 0.001662 -0.001406 0.015306 0.000001 -0.003203 -0.000001
# 4 0.000000 0.000000 0.000001 0.097036 0.000000 0.008231
# 5 0.004856 0.004786 -0.003203 0.000000 0.032342 0.000001
# 6 0.000000 0.000000 -0.000001 0.008231 0.000001 0.062770
#
#
# Mechanical properties :
#
#
# Convention : Reuss Voigt Hill
#
# Bulk Modulus (GPa) = 23.09548 27.65956 25.37752
# Shear Modulus (GPa) = 20.60114 30.87332 25.73723
#
# Velocity S-wave (km/s) = 2.99462 3.66596 3.34717
# Velocity P-wave (km/s) = 4.69154 5.47352 5.09755
#
# Compressibility (1/GPa) = 0.04329851
#
# Stress axis : x y z
#
# Youngs Moduli (GPa) = 62.71889 118.19041 65.33195
#
# Poissons Ratio (x) = -0.18176 -0.10857
# Poissons Ratio (y) = -0.09645 0.09187
# Poissons Ratio (z) = -0.10423 0.16620
#
# Static dielectric constant tensor:
#      x y z
#    x 2.088320 0.000000 0.087420 
#    y 0.000000 1.833640 0.000000 
#    z 0.087420 0.000000 1.792620 
# 
# From -- ./inp_files/198226.got.cif
#   From: 2010.05.17/outbox.cif.g08.bks.cpg/sg12_100_cif.got.tgz:198226.got - 2010.06.03 13:09:07.
