data_PCOD9204470
_publ_section_title
;
Structure prediction by ZEFSAII (Michael W. Deem and Ramdas Pophale) SiO2 
 PCOD9204470
Probable space group: C 2/M
;
_chemical_formula_sum "Si O2"
_cell_formula_units_Z 64
_cell_length_a 9.043899
_cell_length_b 13.232906
_cell_length_c 25.504517
_cell_angle_alpha 90.000000
_cell_angle_beta 92.693405
_cell_angle_gamma 90.000000
_cell_volume 3048.933836
_symmetry_space_group_name_H-M "C 2/M"
_symmetry_group_IT_number 12
_symmetry_cell_setting 'monoclinic'
loop_
_space_group_symop_operation_xyz
x,y,z
-x,y,-z
-x,-y,-z
x,-y,z
1/2+x,1/2+y,z
1/2-x,1/2+y,-z
1/2-x,1/2-y,-z
1/2+x,1/2-y,z
loop_
_atom_site_type_symbol
_atom_site_label
_atom_site_fract_x
_atom_site_fract_y
_atom_site_fract_z
Si Si1 0.957504 0.192636 0.211454
Si Si2 0.618033 0.789161 0.961133
Si Si3 0.216871 0.757498 0.285246
Si Si4 0.022365 0.300291 0.638181
Si Si5 0.501059 0.117619 0.137501
Si Si6 0.554810 0.619708 0.440414
Si Si7 0.162353 0.111665 0.892440
Si Si8 0.112264 0.386799 0.541895
O O1 0.819131 0.192042 0.248504
O O2 0.968318 0.303688 0.183685
O O3 0.924304 0.117900 0.163661
O O4 0.106370 0.178078 0.247039
O O5 0.618224 0.864381 0.911386
O O6 0.578464 0.685902 0.930155
O O7 0.500000 0.830435 0.000000
O O8 0.750000 0.750000 0.000000
O O9 0.332274 0.813817 0.324220
O O10 0.111924 0.698855 0.323778
O O11 0.024723 0.385149 0.594526
O O12 0.021429 0.195103 0.603415
O O13 0.666488 0.142807 0.117289
O O14 0.502957 0.000000 0.153170
O O15 0.500000 0.621249 0.500000
O O16 0.548529 0.500000 0.423813
O O17 0.725919 0.656915 0.445778
O O18 0.168635 0.000000 0.914414
O O19 0.141758 0.500000 0.522589
O O20 0.000000 0.335577 0.500000
#
# Coordination Sequence:
#
# PCOD9204470 Si02
#       8
#     8   8   8   8   8   8   8   8
#     4  10  20  42  59  84 116 153 187 249 293 344
#     4  11  22  38  59  89 129 162 187 239 297 338
#     4  10  22  37  61  85 117 148 190 240 305 340
#     4  11  21  39  59  86 115 154 187 241 287 353
#     4  10  21  38  64  89 114 157 204 238 281 350
#     4  10  22  39  59  84 117 154 192 233 284 349
#     4  10  21  38  63  89 116 155 203 242 281 345
#     4  10  22  39  59  84 117 154 192 233 283 349
#
# _framework density 20.990943000000001
#
# number of rings (size 3 to 8) (size 9 to 14) (size 15 to 20)
#    0.000    1.750    3.750    0.375    1.750    2.000 
#    0.000    9.375    0.000    0.000    0.000    0.000 
#    0.000    0.000    0.000    0.000    0.000    0.000 
#
# Total GULP energy -178244.235666 kJ/mol
# GULP energy per Si atom -5570.132365 kJ/mol
# Density = 2.094317 g / cm^3
# Si number density = 20.990943 Si / 1000 Ang^3
#
#
#
# Elastic Constant Matrix: (Units=GPa)
#
#
# Indices 1 2 3 4 5 6 
#
# 1 67.9777 4.8592 21.3914 0.0000 19.5598 0.0000
# 2 4.8592 76.1098 10.8833 0.0000 -3.1567 0.0000
# 3 21.3914 10.8833 111.1480 0.0000 13.5898 0.0000
# 4 0.0000 0.0000 0.0000 2.3815 0.0000 -3.1787
# 5 19.5598 -3.1567 13.5898 0.0000 39.9391 0.0000
# 6 0.0000 0.0000 0.0000 -3.1787 0.0000 8.8508
#
#
#
# Elastic Compliance Matrix: (Units=1/GPa)
#
#
# Indices 1 2 3 4 5 6 
#
# 1 0.017839 -0.001137 -0.002340 0.000000 -0.008030 0.000000
# 2 -0.001137 0.013492 -0.001357 0.000000 0.002085 0.000000
# 3 -0.002340 -0.001357 0.009864 0.000000 -0.002317 0.000000
# 4 0.000000 0.000000 0.000000 0.806522 0.000000 0.289661
# 5 -0.008030 0.002085 -0.002317 0.000000 0.029924 0.000000
# 6 0.000000 0.000000 0.000000 0.289661 0.000000 0.217016
#
#
# Mechanical properties :
#
#
# Convention : Reuss Voigt Hill
#
# Bulk Modulus (GPa) = 31.72036 36.61146 34.16591
# Shear Modulus (GPa) = 4.48497 24.77438 14.62968
#
# Velocity S-wave (km/s) = 1.46331 3.43919 2.64285
# Velocity P-wave (km/s) = 4.24255 5.76629 5.06208
#
# Compressibility (1/GPa) = 0.03152549
#
# Stress axis : x y z
#
# Youngs Moduli (GPa) = 56.05702 74.11751 101.38262
#
# Poissons Ratio (x) = 0.08430 0.23724
# Poissons Ratio (y) = 0.06376 0.13759
# Poissons Ratio (z) = 0.13118 0.10059
#
# Static dielectric constant tensor:
#      x y z
#    x 1.816210 0.000000 0.019230 
#    y 0.000000 1.740790 0.000000 
#    z 0.019230 0.000000 1.783950 
# 
# From -- ./inp_files/332927.got.cif
#   From: 2010.05.17/outbox.cif.g08.bks.cpg/sg12_167_cif.got.tgz:332927.got - 2010.06.03 13:09:07.
