data_PCOD9204048
_publ_section_title
;
Structure prediction by ZEFSAII (Michael W. Deem and Ramdas Pophale) SiO2 
 PCOD9204048
Probable space group: C 2/M
;
_chemical_formula_sum "Si O2"
_cell_formula_units_Z 58
_cell_length_a 22.199316
_cell_length_b 8.946220
_cell_length_c 26.864196
_cell_angle_alpha 90.000000
_cell_angle_beta 145.861465
_cell_angle_gamma 90.000000
_cell_volume 2994.107706
_symmetry_space_group_name_H-M "C 2/M"
_symmetry_group_IT_number 12
_symmetry_cell_setting 'monoclinic'
loop_
_space_group_symop_operation_xyz
x,y,z
-x,y,-z
-x,-y,-z
x,-y,z
1/2+x,1/2+y,z
1/2-x,1/2+y,-z
1/2-x,1/2-y,-z
1/2+x,1/2-y,z
loop_
_atom_site_type_symbol
_atom_site_label
_atom_site_fract_x
_atom_site_fract_y
_atom_site_fract_z
Si Si1 0.008965 0.677544 0.632379
Si Si2 0.380014 0.820500 0.189753
Si Si3 0.826865 0.323538 0.704486
Si Si4 0.600317 0.677601 0.604107
Si Si5 0.715761 0.677485 0.527704
Si Si6 0.339782 0.165955 0.963606
Si Si7 0.000000 0.500000 0.000000
Si Si8 0.548969 0.322446 0.866669
O O1 0.995554 0.500000 0.621226
O O2 0.900661 0.757118 0.540549
O O3 0.040310 0.718449 0.710204
O O4 0.096299 0.732544 0.652585
O O5 0.262535 0.759880 0.124073
O O6 0.414072 0.747471 0.160790
O O7 0.379457 0.000000 0.184096
O O8 0.855608 0.500000 0.729108
O O9 0.714383 0.300692 0.655626
O O10 0.800349 0.290565 0.628900
O O11 0.924745 0.223826 0.788947
O O12 0.500000 0.721584 0.500000
O O13 0.587936 0.500000 0.605462
O O14 0.708067 0.500000 0.518273
O O15 0.750000 0.750000 0.500000
O O16 0.300247 0.000000 0.952217
O O17 0.387313 0.248206 0.044202
O O18 0.429876 0.128563 0.983570
O O19 0.562723 0.500000 0.875637
#
# Coordination Sequence:
#
# PCOD9204048 Si02
#       8
#     8   8   8   8   8   8   2   8
#     4  11  24  39  59  91 129 166 213 268 326 383
#     4  11  24  43  66  98 135 173 217 269 329 390
#     4  10  22  40  61  88 126 169 217 268 322 386
#     4  10  20  40  64  87 119 169 223 267 322 392
#     4  11  22  38  59  84 121 165 212 268 328 381
#     4  10  22  45  71  97 130 170 216 262 317 382
#     4   8  24  44  74 100 132 170 226 246 324 392
#     4  12  25  41  66 101 134 171 218 269 328 392
#
# _framework density 19.371379999999998
#
# number of rings (size 3 to 8) (size 9 to 14) (size 15 to 20)
#    0.414    0.966    1.379    4.138    0.000    8.552 
#    2.483    2.759    0.000    0.000    0.000    0.000 
#    0.000    0.000    0.000    0.000    0.000    0.000 
#
# Total GULP energy -161716.864025 kJ/mol
# GULP energy per Si atom -5576.443587 kJ/mol
# Density = 1.932729 g / cm^3
# Si number density = 19.371380 Si / 1000 Ang^3
#
#
#
# Elastic Constant Matrix: (Units=GPa)
#
#
# Indices 1 2 3 4 5 6 
#
# 1 41.1493 -5.5325 -2.6025 0.0000 -0.5855 0.0000
# 2 -5.5325 42.0462 23.5069 0.0000 -2.8535 0.0000
# 3 -2.6025 23.5069 48.1066 0.0000 0.8085 0.0000
# 4 0.0000 0.0000 0.0000 28.6513 0.0000 1.1281
# 5 -0.5855 -2.8535 0.8085 0.0000 19.3966 0.0000
# 6 0.0000 0.0000 0.0000 1.1281 0.0000 34.2413
#
#
#
# Elastic Compliance Matrix: (Units=1/GPa)
#
#
# Indices 1 2 3 4 5 6 
#
# 1 0.024775 0.003592 -0.000437 0.000000 0.001295 0.000000
# 2 0.003592 0.033837 -0.016437 0.000000 0.005771 0.000000
# 3 -0.000437 -0.016437 0.028856 0.000000 -0.003634 0.000000
# 4 0.000000 0.000000 0.000000 0.034948 0.000000 -0.001151
# 5 0.001295 0.005771 -0.003634 0.000000 0.052595 0.000000
# 6 0.000000 0.000000 0.000000 -0.001151 0.000000 0.029242
#
#
# Mechanical properties :
#
#
# Convention : Reuss Voigt Hill
#
# Bulk Modulus (GPa) = 16.41878 18.00509 17.21194
# Shear Modulus (GPa) = 19.91087 24.18652 22.04870
#
# Velocity S-wave (km/s) = 3.20949 3.53734 3.37740
# Velocity P-wave (km/s) = 4.71472 5.09888 4.91056
#
# Compressibility (1/GPa) = 0.06090587
#
# Stress axis : x y z
#
# Youngs Moduli (GPa) = 40.36248 29.55342 34.65447
#
# Poissons Ratio (x) = -0.10615 0.01513
# Poissons Ratio (y) = -0.14498 0.56961
# Poissons Ratio (z) = 0.01762 0.48576
#
# Static dielectric constant tensor:
#      x y z
#    x 1.721680 0.000000 0.010350 
#    y 0.000000 1.645470 0.000000 
#    z 0.010350 0.000000 1.662390 
# 
# From -- ./inp_files/346515.got.cif
#   From: 2010.05.17/outbox.cif.g08.bks.cpg/sg12_174_cif.got.tgz:346515.got - 2010.06.03 13:09:07.
