data_PCOD9204944
_publ_section_title
;
Structure prediction by ZEFSAII (Michael W. Deem and Ramdas Pophale) SiO2 
 PCOD9204944
Probable space group: C 2/M
;
_chemical_formula_sum "Si O2"
_cell_formula_units_Z 56
_cell_length_a 19.130299
_cell_length_b 11.743634
_cell_length_c 14.394618
_cell_angle_alpha 90.000000
_cell_angle_beta 63.019130
_cell_angle_gamma 90.000000
_cell_volume 2881.901586
_symmetry_space_group_name_H-M "C 2/M"
_symmetry_group_IT_number 12
_symmetry_cell_setting 'monoclinic'
loop_
_space_group_symop_operation_xyz
x,y,z
-x,y,-z
-x,-y,-z
x,-y,z
1/2+x,1/2+y,z
1/2-x,1/2+y,-z
1/2-x,1/2-y,-z
1/2+x,1/2-y,z
loop_
_atom_site_type_symbol
_atom_site_label
_atom_site_fract_x
_atom_site_fract_y
_atom_site_fract_z
Si Si1 0.375796 0.000000 0.043292
Si Si2 0.270050 0.777318 0.126709
Si Si3 0.097554 0.282730 0.695375
Si Si4 0.932670 0.133178 0.464507
Si Si5 0.522753 0.000000 0.827625
Si Si6 0.975054 0.132759 0.114974
Si Si7 0.740475 0.365445 0.344442
Si Si8 0.149913 0.868947 0.061549
O O1 0.324332 0.113491 0.071743
O O2 0.422596 0.000000 0.112861
O O3 0.436076 0.000000 0.921586
O O4 0.247113 0.791191 0.247128
O O5 0.192467 0.790764 0.110956
O O6 0.317895 0.669833 0.058705
O O7 0.067568 0.215012 0.624142
O O8 0.044214 0.390022 0.754657
O O9 0.089440 0.200388 0.789778
O O10 0.187356 0.325650 0.634332
O O11 0.845824 0.144061 0.560831
O O12 0.000000 0.158677 0.500000
O O13 0.943421 0.000000 0.430058
O O14 0.056536 0.139775 0.122102
O O15 0.954131 0.000000 0.114966
O O16 0.000000 0.182374 0.000000
O O17 0.752516 0.500000 0.314457
O O18 0.170813 0.000000 0.065803
#
# Coordination Sequence:
#
# PCOD9204944 Si02
#       8
#     4   8   8   8   4   8   8   8
#     4  11  20  38  56  96 117 170 198 254 289 379
#     4  11  19  35  59  83 121 159 206 251 305 363
#     4  12  21  40  63  94 121 164 203 260 306 374
#     4  10  25  45  67  93 121 157 213 266 315 364
#     4  11  24  34  65  88 132 156 211 238 309 369
#     4  10  22  36  56  86 125 163 201 249 309 365
#     4  11  21  40  66  90 118 159 207 262 309 366
#     4  10  21  34  52  84 123 164 201 248 303 372
#
# _framework density 19.431614
#
# number of rings (size 3 to 8) (size 9 to 14) (size 15 to 20)
#    0.000    1.286    3.571    2.571    4.000    0.000 
#    0.000    1.071    1.571    0.000    0.000    0.000 
#    0.000    0.000    0.000    0.000    0.000    0.000 
#
# Total GULP energy -156437.525958 kJ/mol
# GULP energy per Si atom -5587.054498 kJ/mol
# Density = 1.938739 g / cm^3
# Si number density = 19.431614 Si / 1000 Ang^3
#
#
#
# Elastic Constant Matrix: (Units=GPa)
#
#
# Indices 1 2 3 4 5 6 
#
# 1 63.5467 17.0318 36.9091 0.0000 3.8881 0.0000
# 2 17.0318 54.3788 39.8516 0.0000 1.6738 0.0000
# 3 36.9091 39.8516 90.6630 0.0000 3.4629 0.0000
# 4 0.0000 0.0000 0.0000 27.7667 0.0000 2.8278
# 5 3.8881 1.6738 3.4629 0.0000 31.2145 0.0000
# 6 0.0000 0.0000 0.0000 2.8278 0.0000 20.4866
#
#
#
# Elastic Compliance Matrix: (Units=1/GPa)
#
#
# Indices 1 2 3 4 5 6 
#
# 1 0.020701 -0.000447 -0.008168 0.000000 -0.001648 0.000000
# 2 -0.000447 0.027139 -0.011743 0.000000 -0.000097 0.000000
# 3 -0.008168 -0.011743 0.019537 0.000000 -0.000520 0.000000
# 4 0.000000 0.000000 0.000000 0.036528 0.000000 -0.005042
# 5 -0.001648 -0.000097 -0.000520 0.000000 0.032305 0.000000
# 6 0.000000 0.000000 0.000000 -0.005042 0.000000 0.049508
#
#
# Mechanical properties :
#
#
# Convention : Reuss Voigt Hill
#
# Bulk Modulus (GPa) = 37.50955 44.01929 40.76442
# Shear Modulus (GPa) = 21.24758 23.54662 22.39710
#
# Velocity S-wave (km/s) = 3.31033 3.48482 3.39870
# Velocity P-wave (km/s) = 5.82720 6.23655 6.03535
#
# Compressibility (1/GPa) = 0.02665988
#
# Stress axis : x y z
#
# Youngs Moduli (GPa) = 48.30616 36.84791 51.18546
#
# Poissons Ratio (x) = 0.01647 0.41809
# Poissons Ratio (y) = 0.02160 0.60108
# Poissons Ratio (z) = 0.39457 0.43271
#
# Static dielectric constant tensor:
#      x y z
#    x 1.705090 0.000000 0.004610 
#    y 0.000000 1.681170 0.000000 
#    z 0.004610 0.000000 1.679590 
# 
# From -- ./inp_files/223759.got.cif
#   From: 2010.05.17/outbox.cif.g08.bks.cpg/sg12_112_cif.got.tgz:223759.got - 2010.06.03 13:09:07.
