data_PCOD9204450
_publ_section_title
;
Structure prediction by ZEFSAII (Michael W. Deem and Ramdas Pophale) SiO2 
 PCOD9204450
Probable space group: C 2/M
;
_chemical_formula_sum "Si O2"
_cell_formula_units_Z 64
_cell_length_a 9.314274
_cell_length_b 29.268197
_cell_length_c 19.605839
_cell_angle_alpha 90.000000
_cell_angle_beta 38.750560
_cell_angle_gamma 90.000000
_cell_volume 3345.468444
_symmetry_space_group_name_H-M "C 2/M"
_symmetry_group_IT_number 12
_symmetry_cell_setting 'monoclinic'
loop_
_space_group_symop_operation_xyz
x,y,z
-x,y,-z
-x,-y,-z
x,-y,z
1/2+x,1/2+y,z
1/2-x,1/2+y,-z
1/2-x,1/2-y,-z
1/2+x,1/2-y,z
loop_
_atom_site_type_symbol
_atom_site_label
_atom_site_fract_x
_atom_site_fract_y
_atom_site_fract_z
Si Si1 0.795133 0.104959 0.030198
Si Si2 0.228499 0.878534 0.111568
Si Si3 0.944813 0.306296 0.815156
Si Si4 0.685475 0.053281 0.806664
Si Si5 0.749227 0.549539 0.374196
Si Si6 0.224780 0.354673 0.590675
Si Si7 0.777183 0.705809 0.536653
Si Si8 0.186048 0.214269 0.205430
O O1 0.705813 0.152143 0.098427
O O2 0.574609 0.072034 0.105298
O O3 0.882097 0.113797 0.921005
O O4 0.000000 0.086076 0.000000
O O5 0.179880 0.914930 0.189491
O O6 0.198302 0.827265 0.148107
O O7 0.500000 0.884666 0.000000
O O8 0.812868 0.262754 0.833286
O O9 0.101030 0.324821 0.694712
O O10 0.110433 0.290122 0.815073
O O11 0.783887 0.057830 0.694019
O O12 0.686549 0.000000 0.826400
O O13 0.500000 0.546763 0.500000
O O14 0.865254 0.500000 0.339330
O O15 0.863136 0.593802 0.365017
O O16 0.500000 0.353259 0.500000
O O17 0.189686 0.335865 0.527984
O O18 0.750000 0.750000 0.500000
O O19 0.550847 0.705494 0.666473
O O20 0.000000 0.710463 0.500000
#
# Coordination Sequence:
#
# PCOD9204450 Si02
#       8
#     8   8   8   8   8   8   8   8
#     4  11  25  42  59  89 125 157 208 264 314 366
#     4  10  22  42  61  86 122 156 211 263 303 360
#     4  12  24  39  60  88 120 167 209 251 308 365
#     4  10  20  41  70  94 121 159 206 254 311 375
#     4   9  18  33  63  99 122 151 196 244 300 366
#     4  11  20  36  62  86 126 159 194 255 304 357
#     4  12  24  38  57  90 123 159 203 249 301 364
#     4  12  24  39  61  87 122 165 210 251 300 371
#
# _framework density 19.130355999999999
#
# number of rings (size 3 to 8) (size 9 to 14) (size 15 to 20)
#    0.000    1.125    6.250    1.125    3.500    3.500 
#    0.000    0.000    0.000    0.375    0.000    0.000 
#    0.000    0.000    0.000    0.000    0.000    0.000 
#
# Total GULP energy -178643.367134 kJ/mol
# GULP energy per Si atom -5582.605223 kJ/mol
# Density = 1.908681 g / cm^3
# Si number density = 19.130356 Si / 1000 Ang^3
#
#
#
# Elastic Constant Matrix: (Units=GPa)
#
#
# Indices 1 2 3 4 5 6 
#
# 1 83.4725 13.2087 15.1195 0.0000 13.0929 0.0000
# 2 13.2087 116.5265 11.9668 0.0000 20.8163 0.0000
# 3 15.1195 11.9668 51.0557 0.0000 19.4063 0.0000
# 4 0.0000 0.0000 0.0000 46.6221 0.0000 22.1670
# 5 13.0929 20.8163 19.4063 0.0000 23.4372 0.0000
# 6 0.0000 0.0000 0.0000 22.1670 0.0000 35.2937
#
#
#
# Elastic Compliance Matrix: (Units=1/GPa)
#
#
# Indices 1 2 3 4 5 6 
#
# 1 0.013230 -0.000303 -0.001663 0.000000 -0.005745 0.000000
# 2 -0.000303 0.010290 0.001587 0.000000 -0.010284 0.000000
# 3 -0.001663 0.001587 0.029024 0.000000 -0.024513 0.000000
# 4 0.000000 0.000000 0.000000 0.030581 0.000000 -0.019207
# 5 -0.005745 -0.010284 -0.024513 0.000000 0.075307 0.000000
# 6 0.000000 0.000000 0.000000 -0.019207 0.000000 0.040397
#
#
# Mechanical properties :
#
#
# Convention : Reuss Voigt Hill
#
# Bulk Modulus (GPa) = 19.31008 36.84941 28.07975
# Shear Modulus (GPa) = 23.05726 35.12126 29.08926
#
# Velocity S-wave (km/s) = 3.47547 4.28938 3.90369
# Velocity P-wave (km/s) = 5.12065 6.62086 5.91848
#
# Compressibility (1/GPa) = 0.05178642
#
# Stress axis : x y z
#
# Youngs Moduli (GPa) = 75.58420 97.17905 34.45381
#
# Poissons Ratio (x) = 0.02941 0.05731
# Poissons Ratio (y) = 0.02287 -0.05467
# Poissons Ratio (z) = 0.12573 -0.15420
#
# Static dielectric constant tensor:
#      x y z
#    x 1.648350 0.000000 0.022200 
#    y 0.000000 1.678510 0.000000 
#    z 0.022200 0.000000 1.699360 
# 
# From -- ./inp_files/260332.got.cif
#   From: 2010.05.17/outbox.cif.g08.bks.cpg/sg12_131_cif.got.tgz:260332.got - 2010.06.03 13:09:07.
