data_PCOD9204591
_publ_section_title
;
Structure prediction by ZEFSAII (Michael W. Deem and Ramdas Pophale) SiO2 
 PCOD9204591
Probable space group: C 2/M
;
_chemical_formula_sum "Si O2"
_cell_formula_units_Z 58
_cell_length_a 9.414788
_cell_length_b 20.316319
_cell_length_c 17.358105
_cell_angle_alpha 90.000000
_cell_angle_beta 59.288422
_cell_angle_gamma 90.000000
_cell_volume 2854.497077
_symmetry_space_group_name_H-M "C 2/M"
_symmetry_group_IT_number 12
_symmetry_cell_setting 'monoclinic'
loop_
_space_group_symop_operation_xyz
x,y,z
-x,y,-z
-x,-y,-z
x,-y,z
1/2+x,1/2+y,z
1/2-x,1/2+y,-z
1/2-x,1/2-y,-z
1/2+x,1/2-y,z
loop_
_atom_site_type_symbol
_atom_site_label
_atom_site_fract_x
_atom_site_fract_y
_atom_site_fract_z
Si Si1 0.281899 0.606855 0.637137
Si Si2 0.000000 0.000000 0.500000
Si Si3 0.513500 0.124096 0.583709
Si Si4 0.102600 0.205294 0.770920
Si Si5 0.479679 0.924584 0.837314
Si Si6 0.412511 0.206706 0.942517
Si Si7 0.280548 0.573987 0.229588
Si Si8 0.053829 0.763683 0.345246
O O1 0.427473 0.556447 0.579929
O O2 0.150638 0.593383 0.743467
O O3 0.366775 0.677189 0.628686
O O4 0.167835 0.601233 0.592174
O O5 0.500000 0.103124 0.500000
O O6 0.349597 0.094665 0.668369
O O7 0.524044 0.203769 0.585719
O O8 0.082614 0.130783 0.805494
O O9 0.289691 0.227020 0.736552
O O10 0.996881 0.256409 0.847589
O O11 0.063219 0.211142 0.691011
O O12 0.425613 0.869859 0.914017
O O13 0.331669 0.923576 0.815624
O O14 0.495840 0.000000 0.860933
O O15 0.500000 0.212433 0.000000
O O16 0.250000 0.250000 0.000000
O O17 0.342148 0.500000 0.223356
#
# Coordination Sequence:
#
# PCOD9204591 Si02
#       8
#     8   2   8   8   8   8   8   8
#     4  11  23  44  62  92 131 171 219 276 330 387
#     4  12  28  40  62 100 130 172 230 282 328 374
#     4  10  22  38  62  87 123 164 215 274 329 386
#     4  11  21  41  65  92 126 167 219 264 331 395
#     4  10  20  43  71  88 130 185 215 259 343 406
#     4  12  24  39  67 104 133 162 221 282 322 395
#     4   9  20  39  63  90 118 171 221 253 322 411
#     4  11  21  40  67  88 122 173 221 262 330 407
#
# _framework density 20.318816999999999
#
# number of rings (size 3 to 8) (size 9 to 14) (size 15 to 20)
#    0.000    1.379    3.448    3.310    1.931    3.310 
#    3.724    0.690    0.000    2.483    0.000    0.000 
#    0.000    0.000    0.000    0.000    0.000    0.000 
#
# Total GULP energy -161459.655843 kJ/mol
# GULP energy per Si atom -5567.574339 kJ/mol
# Density = 2.027257 g / cm^3
# Si number density = 20.318817 Si / 1000 Ang^3
#
#
#
# Elastic Constant Matrix: (Units=GPa)
#
#
# Indices 1 2 3 4 5 6 
#
# 1 48.9366 17.4232 16.5590 0.0000 15.8197 0.0000
# 2 17.4232 119.6042 9.7516 0.0000 0.7416 0.0000
# 3 16.5590 9.7516 42.0499 0.0000 12.0284 0.0000
# 4 0.0000 0.0000 0.0000 61.9721 0.0000 16.9560
# 5 15.8197 0.7416 12.0284 0.0000 22.9691 0.0000
# 6 0.0000 0.0000 0.0000 16.9560 0.0000 0.3276
#
#
#
# Elastic Compliance Matrix: (Units=1/GPa)
#
#
# Indices 1 2 3 4 5 6 
#
# 1 0.029180 -0.003674 -0.005792 0.000000 -0.016946 0.000000
# 2 -0.003674 0.009000 -0.001507 0.000000 0.003029 0.000000
# 3 -0.005792 -0.001507 0.029707 0.000000 -0.011519 0.000000
# 4 0.000000 0.000000 0.000000 -0.001226 0.000000 0.063457
# 5 -0.016946 0.003029 -0.011519 0.000000 0.061143 0.000000
# 6 0.000000 0.000000 0.000000 0.063457 0.000000 -0.231928
#
#
# Mechanical properties :
#
#
# Convention : Reuss Voigt Hill
#
# Bulk Modulus (GPa) = 21.76624 33.11759 27.44192
# Shear Modulus (GPa) = -74.77713 28.17756 -23.29978
#
# Velocity S-wave (km/s) = -6.07304 3.72798 -3.38998
# Velocity P-wave (km/s) = 6.20001 5.90464 1.33704
#
# Compressibility (1/GPa) = 0.04594270
#
# Stress axis : x y z
#
# Youngs Moduli (GPa) = 34.26949 111.10958 33.66263
#
# Poissons Ratio (x) = 0.40816 0.19497
# Poissons Ratio (y) = 0.12589 0.05073
# Poissons Ratio (z) = 0.19848 0.16743
#
# Static dielectric constant tensor:
#      x y z
#    x 1.726830 0.000000 -0.018080 
#    y 0.000000 1.756130 0.000000 
#    z -0.018080 0.000000 1.780190 
# 
# From -- ./inp_files/258472.got.cif
#   From: 2010.05.17/outbox.cif.g08.bks.cpg/sg12_130_cif.got.tgz:258472.got - 2010.06.03 13:09:07.
