data_PCOD9204563
_publ_section_title
;
Structure prediction by ZEFSAII (Michael W. Deem and Ramdas Pophale) SiO2 
 PCOD9204563
Probable space group: C 2/M
;
_chemical_formula_sum "Si O2"
_cell_formula_units_Z 64
_cell_length_a 19.503835
_cell_length_b 8.999034
_cell_length_c 16.881797
_cell_angle_alpha 90.000000
_cell_angle_beta 94.677554
_cell_angle_gamma 90.000000
_cell_volume 2953.151380
_symmetry_space_group_name_H-M "C 2/M"
_symmetry_group_IT_number 12
_symmetry_cell_setting 'monoclinic'
loop_
_space_group_symop_operation_xyz
x,y,z
-x,y,-z
-x,-y,-z
x,-y,z
1/2+x,1/2+y,z
1/2-x,1/2+y,-z
1/2-x,1/2-y,-z
1/2+x,1/2-y,z
loop_
_atom_site_type_symbol
_atom_site_label
_atom_site_fract_x
_atom_site_fract_y
_atom_site_fract_z
Si Si1 0.249335 0.324719 0.271692
Si Si2 0.297412 0.328560 0.888694
Si Si3 0.541022 0.824729 0.244963
Si Si4 0.149853 0.176597 0.373425
Si Si5 0.646550 0.170697 0.953575
Si Si6 0.080074 0.326933 0.511378
Si Si7 0.987669 0.824075 0.091579
Si Si8 0.388190 0.830790 0.300304
O O1 0.240581 0.500000 0.273186
O O2 0.206861 0.255512 0.194575
O O3 0.219986 0.249739 0.348433
O O4 0.328632 0.279756 0.268612
O O5 0.319781 0.500000 0.881860
O O6 0.219396 0.328580 0.915654
O O7 0.340796 0.245927 0.960117
O O8 0.591668 0.737996 0.307864
O O9 0.538109 0.758420 0.156611
O O10 0.463592 0.806936 0.271581
O O11 0.557610 0.000000 0.246311
O O12 0.126799 0.231463 0.457501
O O13 0.154536 0.000000 0.370097
O O14 0.589241 0.263068 0.902061
O O15 0.623816 0.000000 0.959492
O O16 0.082154 0.500000 0.484900
O O17 0.103677 0.320689 0.604168
O O18 0.000000 0.279592 0.500000
O O19 0.991820 0.000000 0.104514
O O20 0.000000 0.792672 0.000000
O O21 0.366605 0.000000 0.276963
#
# Coordination Sequence:
#
# PCOD9204563 Si02
#       8
#     8   8   8   8   8   8   8   8
#     4  12  26  42  63  93 130 171 216 265 322 385
#     4  10  21  39  63  88 121 160 205 261 320 378
#     4  11  23  43  69  96 128 170 220 268 323 390
#     4  12  26  43  66  97 134 172 216 268 323 383
#     4  10  21  38  61  89 118 160 210 259 316 381
#     4  10  20  42  71  99 132 172 214 260 319 384
#     4  11  25  41  58  86 127 169 211 266 322 370
#     4  10  22  42  70  99 131 169 210 264 324 382
#
# _framework density 21.671764
#
# number of rings (size 3 to 8) (size 9 to 14) (size 15 to 20)
#    0.000    1.250    1.250    4.500    1.750    7.750 
#    0.000    0.000    0.000    0.000    0.000    0.000 
#    0.000    0.000    0.000    0.000    0.000    0.000 
#
# Total GULP energy -179206.246846 kJ/mol
# GULP energy per Si atom -5600.195214 kJ/mol
# Density = 2.162244 g / cm^3
# Si number density = 21.671764 Si / 1000 Ang^3
#
#
#
# Elastic Constant Matrix: (Units=GPa)
#
#
# Indices 1 2 3 4 5 6 
#
# 1 55.4907 22.3621 3.5515 0.0000 -7.4656 0.0000
# 2 22.3621 125.1558 45.8742 0.0000 -22.8755 0.0000
# 3 3.5515 45.8742 68.1504 0.0000 -9.0560 0.0000
# 4 0.0000 0.0000 0.0000 35.2231 0.0000 0.4557
# 5 -7.4656 -22.8755 -9.0560 0.0000 29.1019 0.0000
# 6 0.0000 0.0000 0.0000 0.4557 0.0000 27.9603
#
#
#
# Elastic Compliance Matrix: (Units=1/GPa)
#
#
# Indices 1 2 3 4 5 6 
#
# 1 0.019763 -0.003701 0.001824 0.000000 0.002728 0.000000
# 2 -0.003701 0.012572 -0.007388 0.000000 0.006634 0.000000
# 3 0.001824 -0.007388 0.019655 0.000000 0.000777 0.000000
# 4 0.000000 0.000000 0.000000 0.028396 0.000000 -0.000463
# 5 0.002728 0.006634 0.000777 0.000000 0.040518 0.000000
# 6 0.000000 0.000000 0.000000 -0.000463 0.000000 0.035773
#
#
# Mechanical properties :
#
#
# Convention : Reuss Voigt Hill
#
# Bulk Modulus (GPa) = 29.88737 43.59693 36.74215
# Shear Modulus (GPa) = 26.82984 30.25765 28.54375
#
# Velocity S-wave (km/s) = 3.52235 3.74060 3.63312
# Velocity P-wave (km/s) = 5.51031 6.23031 5.88134
#
# Compressibility (1/GPa) = 0.03345895
#
# Stress axis : x y z
#
# Youngs Moduli (GPa) = 50.60011 79.54323 50.87820
#
# Poissons Ratio (x) = 0.29439 -0.09280
# Poissons Ratio (y) = 0.18727 0.37589
# Poissons Ratio (z) = -0.09229 0.58768
#
# Static dielectric constant tensor:
#      x y z
#    x 1.821950 0.000000 -0.025630 
#    y 0.000000 1.727390 0.000000 
#    z -0.025630 0.000000 1.779830 
# 
# From -- ./inp_files/238639.got.cif
#   From: 2010.05.17/outbox.cif.g08.bks.cpg/sg12_120_cif.got.tgz:238639.got - 2010.06.03 13:09:07.
