data_PCOD9204600
_publ_section_title
;
Structure prediction by ZEFSAII (Michael W. Deem and Ramdas Pophale) SiO2 
 PCOD9204600
Probable space group: C 2/M
;
_chemical_formula_sum "Si O2"
_cell_formula_units_Z 40
_cell_length_a 9.557725
_cell_length_b 14.574800
_cell_length_c 13.132927
_cell_angle_alpha 90.000000
_cell_angle_beta 111.233596
_cell_angle_gamma 90.000000
_cell_volume 1705.244183
_symmetry_space_group_name_H-M "C 2/M"
_symmetry_group_IT_number 12
_symmetry_cell_setting 'monoclinic'
loop_
_space_group_symop_operation_xyz
x,y,z
-x,y,-z
-x,-y,-z
x,-y,z
1/2+x,1/2+y,z
1/2-x,1/2+y,-z
1/2-x,1/2-y,-z
1/2+x,1/2-y,z
loop_
_atom_site_type_symbol
_atom_site_label
_atom_site_fract_x
_atom_site_fract_y
_atom_site_fract_z
Si Si1 0.931165 0.199993 0.756279
Si Si2 0.525884 0.500000 0.280651
Si Si3 0.084251 0.664407 0.423790
Si Si4 0.772456 0.702993 0.898278
Si Si5 0.040352 0.500000 0.285534
Si Si6 0.205509 0.000000 0.511457
Si Si7 0.179858 0.500000 0.118020
O O1 0.898346 0.092183 0.741729
O O2 0.868241 0.259099 0.644670
O O3 0.881399 0.245377 0.848802
O O4 0.111987 0.204294 0.798528
O O5 0.550544 0.500000 0.410213
O O6 0.353796 0.500000 0.202183
O O7 0.987667 0.591275 0.329503
O O8 0.211814 0.594969 0.498822
O O9 0.000000 0.702514 0.500000
O O10 0.826417 0.599516 0.933695
O O11 0.750000 0.750000 0.000000
O O12 0.223300 0.500000 0.356557
O O13 0.046666 0.500000 0.167374
#
# Coordination Sequence:
#
# PCOD9204600 Si02
#       7
#     8   4   8   8   4   4   4
#     4  11  24  44  66  95 132 169 219 268 323 383
#     4  10  24  38  58  92 133 177 207 258 324 389
#     4   9  19  37  60  90 126 175 205 266 310 379
#     4  11  24  45  71  95 125 169 217 271 333 387
#     4   8  16  35  60  82 127 160 208 254 317 351
#     4   8  18  35  56  85 128 161 218 236 317 368
#     4  10  20  44  63  92 133 161 208 277 327 374
#
# _framework density 23.457049999999999
#
# number of rings (size 3 to 8) (size 9 to 14) (size 15 to 20)
#    1.200    0.800    2.000    1.800    2.800    2.000 
#    7.200    8.000    0.000    0.000    0.000    0.000 
#    0.000    0.000    0.000    0.000    0.000    0.000 
#
# Total GULP energy -111384.695827 kJ/mol
# GULP energy per Si atom -5569.234791 kJ/mol
# Density = 2.340366 g / cm^3
# Si number density = 23.457050 Si / 1000 Ang^3
#
#
#
# Elastic Constant Matrix: (Units=GPa)
#
#
# Indices 1 2 3 4 5 6 
#
# 1 49.7246 32.5356 19.9178 0.0000 -1.8973 0.0000
# 2 32.5356 201.3143 72.0880 0.0000 -36.0792 0.0000
# 3 19.9178 72.0880 80.7408 0.0000 -25.4975 0.0000
# 4 0.0000 0.0000 0.0000 38.2506 0.0000 -3.4294
# 5 -1.8973 -36.0792 -25.4975 0.0000 60.2568 0.0000
# 6 0.0000 0.0000 0.0000 -3.4294 0.0000 11.0655
#
#
#
# Elastic Compliance Matrix: (Units=1/GPa)
#
#
# Indices 1 2 3 4 5 6 
#
# 1 0.023499 -0.002793 -0.004153 0.000000 -0.002690 0.000000
# 2 -0.002793 0.007819 -0.005589 0.000000 0.002229 0.000000
# 3 -0.004153 -0.005589 0.019970 0.000000 0.004973 0.000000
# 4 0.000000 0.000000 0.000000 0.026891 0.000000 0.008334
# 5 -0.002690 0.002229 0.004973 0.000000 0.019950 0.000000
# 6 0.000000 0.000000 0.000000 0.008334 0.000000 0.092954
#
#
# Mechanical properties :
#
#
# Convention : Reuss Voigt Hill
#
# Bulk Modulus (GPa) = 38.13857 64.54028 51.33942
# Shear Modulus (GPa) = 22.23301 35.73048 28.98174
#
# Velocity S-wave (km/s) = 3.08201 3.90709 3.51882
# Velocity P-wave (km/s) = 5.38138 6.92299 6.20028
#
# Compressibility (1/GPa) = 0.02622017
#
# Stress axis : x y z
#
# Youngs Moduli (GPa) = 42.55512 127.88706 50.07535
#
# Poissons Ratio (x) = 0.35716 0.20795
# Poissons Ratio (y) = 0.11885 0.27985
# Poissons Ratio (z) = 0.17672 0.71470
#
# Static dielectric constant tensor:
#      x y z
#    x 1.920260 0.000000 0.069260 
#    y 0.000000 1.906510 0.000000 
#    z 0.069260 0.000000 1.917280 
# 
# From -- ./inp_files/129876.got.cif
#   From: 2010.05.17/outbox.cif.g08.bks.cpg/sg12_65_cif.got.tgz:129876.got - 2010.06.03 13:09:07.
