data_PCOD9204474
_publ_section_title
;
Structure prediction by ZEFSAII (Michael W. Deem and Ramdas Pophale) SiO2 
 PCOD9204474
Probable space group: C 2/M
;
_chemical_formula_sum "Si O2"
_cell_formula_units_Z 44
_cell_length_a 22.061342
_cell_length_b 14.273480
_cell_length_c 12.215487
_cell_angle_alpha 90.000000
_cell_angle_beta 35.887680
_cell_angle_gamma 90.000000
_cell_volume 2254.846789
_symmetry_space_group_name_H-M "C 2/M"
_symmetry_group_IT_number 12
_symmetry_cell_setting 'monoclinic'
loop_
_space_group_symop_operation_xyz
x,y,z
-x,y,-z
-x,-y,-z
x,-y,z
1/2+x,1/2+y,z
1/2-x,1/2+y,-z
1/2-x,1/2-y,-z
1/2+x,1/2-y,z
loop_
_atom_site_type_symbol
_atom_site_label
_atom_site_fract_x
_atom_site_fract_y
_atom_site_fract_z
Si Si1 0.123637 0.500000 0.336992
Si Si2 0.749881 0.638046 0.997383
Si Si3 0.930358 0.139061 0.888121
Si Si4 0.618859 0.500000 0.619268
Si Si5 0.403862 0.139888 0.955889
Si Si6 0.379338 0.500000 0.141269
Si Si7 0.843226 0.500000 0.224245
Si Si8 0.424587 0.000000 0.352093
O O1 0.175248 0.589177 0.201308
O O2 0.143384 0.500000 0.438731
O O3 0.000000 0.500000 0.500000
O O4 0.800317 0.613427 0.039524
O O5 0.750000 0.750000 0.000000
O O6 0.634472 0.614444 0.126379
O O7 0.925882 0.249543 0.918316
O O8 0.869936 0.089294 0.076960
O O9 0.042652 0.089899 0.718558
O O10 0.667510 0.500000 0.670715
O O11 0.718950 0.500000 0.397221
O O12 0.499324 0.089263 0.756602
O O13 0.389005 0.090907 0.094872
O O14 0.500000 0.500000 0.000000
O O15 0.876486 0.500000 0.301750
#
# Coordination Sequence:
#
# PCOD9204474 Si02
#       8
#     4   8   8   4   8   4   4   4
#     4  12  20  39  68  89 117 157 204 257 294 343
#     4  10  21  38  64  94 120 153 199 244 309 366
#     4   9  19  38  64  84 118 160 197 244 310 358
#     4  10  22  39  56  89 118 152 207 251 281 357
#     4  10  20  42  60  86 124 167 191 243 311 363
#     4   8  17  32  54  80 112 154 196 235 284 349
#     4  11  25  39  57  88 129 157 205 250 296 354
#     4  11  24  37  63  88 121 161 208 246 294 361
#
# _framework density 19.513521000000001
#
# number of rings (size 3 to 8) (size 9 to 14) (size 15 to 20)
#    0.000    2.182    1.818    2.727    2.545    4.364 
#    6.545    3.636    0.000    0.000    0.000    0.000 
#    0.000    0.000    0.000    0.000    0.000    0.000 
#
# Total GULP energy -122523.450861 kJ/mol
# GULP energy per Si atom -5569.247766 kJ/mol
# Density = 1.946911 g / cm^3
# Si number density = 19.513521 Si / 1000 Ang^3
#
#
#
# Elastic Constant Matrix: (Units=GPa)
#
#
# Indices 1 2 3 4 5 6 
#
# 1 127.8984 36.2580 14.5538 0.0000 7.3135 0.0000
# 2 36.2580 170.4535 50.1134 0.0000 1.5499 0.0000
# 3 14.5538 50.1134 87.2232 0.0000 1.3291 0.0000
# 4 0.0000 0.0000 0.0000 5.3202 0.0000 -6.1125
# 5 7.3135 1.5499 1.3291 0.0000 31.8297 0.0000
# 6 0.0000 0.0000 0.0000 -6.1125 0.0000 18.8881
#
#
#
# Elastic Compliance Matrix: (Units=1/GPa)
#
#
# Indices 1 2 3 4 5 6 
#
# 1 0.008441 -0.001652 -0.000431 0.000000 -0.001841 0.000000
# 2 -0.001652 0.007383 -0.003969 0.000000 0.000186 0.000000
# 3 -0.000431 -0.003969 0.013822 0.000000 -0.000285 0.000000
# 4 0.000000 0.000000 0.000000 0.299210 0.000000 0.096829
# 5 -0.001841 0.000186 -0.000285 0.000000 0.031843 0.000000
# 6 0.000000 0.000000 0.000000 0.096829 0.000000 0.084279
#
#
# Mechanical properties :
#
#
# Convention : Reuss Voigt Hill
#
# Bulk Modulus (GPa) = 57.00842 65.26951 61.13897
# Shear Modulus (GPa) = 10.80074 30.18425 20.49250
#
# Velocity S-wave (km/s) = 2.35521 3.93725 3.24415
# Velocity P-wave (km/s) = 6.05593 7.36140 6.74035
#
# Compressibility (1/GPa) = 0.01754127
#
# Stress axis : x y z
#
# Youngs Moduli (GPa) = 118.46363 135.43905 72.35027
#
# Poissons Ratio (x) = 0.22376 0.03120
# Poissons Ratio (y) = 0.19571 0.28718
# Poissons Ratio (z) = 0.05109 0.53759
#
# Static dielectric constant tensor:
#      x y z
#    x 1.770550 0.000000 -0.006260 
#    y 0.000000 1.656480 0.000000 
#    z -0.006260 0.000000 1.694920 
# 
# From -- ./inp_files/167110.got.cif
#   From: 2010.05.17/outbox.cif.g08.bks.cpg/sg12_84_cif.got.tgz:167110.got - 2010.06.03 13:09:07.
