data_PCOD9204720
_publ_section_title
;
Structure prediction by ZEFSAII (Michael W. Deem and Ramdas Pophale) SiO2 
 PCOD9204720
Probable space group: C 2/M
;
_chemical_formula_sum "Si O2"
_cell_formula_units_Z 64
_cell_length_a 24.145084
_cell_length_b 10.238878
_cell_length_c 17.867777
_cell_angle_alpha 90.000000
_cell_angle_beta 134.545094
_cell_angle_gamma 90.000000
_cell_volume 3148.165167
_symmetry_space_group_name_H-M "C 2/M"
_symmetry_group_IT_number 12
_symmetry_cell_setting 'monoclinic'
loop_
_space_group_symop_operation_xyz
x,y,z
-x,y,-z
-x,-y,-z
x,-y,z
1/2+x,1/2+y,z
1/2-x,1/2+y,-z
1/2-x,1/2-y,-z
1/2+x,1/2-y,z
loop_
_atom_site_type_symbol
_atom_site_label
_atom_site_fract_x
_atom_site_fract_y
_atom_site_fract_z
Si Si1 0.047210 0.847882 0.695315
Si Si2 0.890285 0.844226 0.397989
Si Si3 0.001824 0.158671 0.191889
Si Si4 0.224936 0.860884 0.921459
Si Si5 0.711561 0.853326 0.180769
Si Si6 0.687389 0.652572 0.535666
Si Si7 0.826120 0.151568 0.656428
Si Si8 0.082182 0.152752 0.035204
O O1 0.056004 0.791519 0.618813
O O2 0.137139 0.851068 0.808251
O O3 0.007404 0.789402 0.732076
O O4 0.020642 0.000000 0.663579
O O5 0.799234 0.823177 0.291110
O O6 0.886466 0.808211 0.482410
O O7 0.903769 0.000000 0.407263
O O8 0.086613 0.190993 0.239947
O O9 0.999924 0.000000 0.195592
O O10 0.936849 0.192595 0.069084
O O11 0.278104 0.859317 0.898825
O O12 0.231750 0.000000 0.967596
O O13 0.250000 0.750000 0.000000
O O14 0.647520 0.743699 0.133357
O O15 0.690167 0.000000 0.186583
O O16 0.704895 0.500000 0.569412
O O17 0.759615 0.748890 0.618300
O O18 0.672471 0.656116 0.433130
O O19 0.811376 0.000000 0.664421
O O20 0.105574 0.000000 0.058803
O O21 0.000000 0.162278 0.000000
#
# Coordination Sequence:
#
# PCOD9204720 Si02
#       8
#     8   8   8   8   8   8   8   8
#     4   8  14  26  44  65  89 121 152 181 227 278
#     4   8  15  28  47  69  94 121 152 191 231 273
#     4   9  17  30  46  65  95 127 153 186 232 279
#     4   9  16  26  43  64  85 114 153 190 225 265
#     4   9  18  31  45  65  91 120 155 192 228 269
#     4   9  17  31  50  72  95 117 150 192 231 272
#     4   9  18  31  49  72  95 121 151 187 230 276
#     4  10  21  33  45  65  93 125 161 195 228 273
#
# _framework density 20.329301999999998
#
# number of rings (size 3 to 8) (size 9 to 14) (size 15 to 20)
#    0.000    3.125    0.000    2.250    1.750    1.750 
#    0.000    1.250    0.000    5.250    0.000    0.000 
#    0.000    4.000    0.000    0.000    0.000    0.000 
#
# Total GULP energy -178268.129789 kJ/mol
# GULP energy per Si atom -5570.879056 kJ/mol
# Density = 2.028303 g / cm^3
# Si number density = 20.329302 Si / 1000 Ang^3
#
#
#
# Elastic Constant Matrix: (Units=GPa)
#
#
# Indices 1 2 3 4 5 6 
#
# 1 119.2579 30.5758 18.9351 0.0000 -7.5419 0.0000
# 2 30.5758 53.2288 19.8142 0.0000 9.5593 0.0000
# 3 18.9351 19.8142 64.6162 0.0000 -6.3204 0.0000
# 4 0.0000 0.0000 0.0000 13.1115 0.0000 1.5694
# 5 -7.5419 9.5593 -6.3204 0.0000 43.2260 0.0000
# 6 0.0000 0.0000 0.0000 1.5694 0.0000 21.7524
#
#
#
# Elastic Compliance Matrix: (Units=1/GPa)
#
#
# Indices 1 2 3 4 5 6 
#
# 1 0.010284 -0.006141 -0.000834 0.000000 0.003030 0.000000
# 2 -0.006141 0.026368 -0.007062 0.000000 -0.007935 0.000000
# 3 -0.000834 -0.007062 0.018286 0.000000 0.004090 0.000000
# 4 0.000000 0.000000 0.000000 0.076933 0.000000 -0.005551
# 5 0.003030 -0.007935 0.004090 0.000000 0.026016 0.000000
# 6 0.000000 0.000000 0.000000 -0.005551 0.000000 0.046372
#
#
# Mechanical properties :
#
#
# Convention : Reuss Voigt Hill
#
# Bulk Modulus (GPa) = 37.22524 41.75034 39.48779
# Shear Modulus (GPa) = 20.72207 26.80318 23.76262
#
# Velocity S-wave (km/s) = 3.19614 3.63499 3.42261
# Velocity P-wave (km/s) = 5.65432 6.18054 5.92328
#
# Compressibility (1/GPa) = 0.02686349
#
# Stress axis : x y z
#
# Youngs Moduli (GPa) = 97.24141 37.92424 54.68635
#
# Poissons Ratio (x) = 0.23289 0.04561
# Poissons Ratio (y) = 0.59715 0.38621
# Poissons Ratio (z) = 0.08110 0.26783
#
# Static dielectric constant tensor:
#      x y z
#    x 1.780660 0.000000 -0.039230 
#    y 0.000000 1.696680 0.000000 
#    z -0.039230 0.000000 1.813990 
# 
# From -- ./inp_files/289119.got.cif
#   From: 2010.05.17/outbox.cif.g08.bks.cpg/sg12_145_cif.got.tgz:289119.got - 2010.06.03 13:09:07.
