data_PCOD9204494
_publ_section_title
;
Structure prediction by ZEFSAII (Michael W. Deem and Ramdas Pophale) SiO2 
 PCOD9204494
Probable space group: C 2/M
;
_chemical_formula_sum "Si O2"
_cell_formula_units_Z 32
_cell_length_a 20.429882
_cell_length_b 11.195193
_cell_length_c 5.196382
_cell_angle_alpha 90.000000
_cell_angle_beta 74.886236
_cell_angle_gamma 90.000000
_cell_volume 1147.388034
_symmetry_space_group_name_H-M "C 2/M"
_symmetry_group_IT_number 12
_symmetry_cell_setting 'monoclinic'
loop_
_space_group_symop_operation_xyz
x,y,z
-x,y,-z
-x,-y,-z
x,-y,z
1/2+x,1/2+y,z
1/2-x,1/2+y,-z
1/2-x,1/2-y,-z
1/2+x,1/2-y,z
loop_
_atom_site_type_symbol
_atom_site_label
_atom_site_fract_x
_atom_site_fract_y
_atom_site_fract_z
Si Si1 0.824330 0.270395 0.791382
Si Si2 0.580802 0.867476 0.862624
Si Si3 0.451962 0.628887 0.302725
Si Si4 0.316283 0.500000 0.831602
Si Si5 0.228242 0.500000 0.425761
O O1 0.805239 0.370459 0.596824
O O2 0.849718 0.130913 0.755709
O O3 0.750000 0.250000 0.000000
O O4 0.876409 0.338067 0.927708
O O5 0.588479 0.752069 0.674289
O O6 0.598145 0.000000 0.749586
O O7 0.500000 0.872900 0.000000
O O8 0.500000 0.632191 0.500000
O O9 0.416746 0.500000 0.324732
O O10 0.500000 0.629445 0.000000
O O11 0.255684 0.500000 0.686150
O O12 0.288191 0.500000 0.150116
#
# Coordination Sequence:
#
# PCOD9204494 Si02
#       5
#     8   8   8   4   4
#     4  10  21  40  67  96 131 174 223 273 331 396
#     4  10  21  40  67  96 135 174 220 272 334 398
#     4   9  19  38  63  90 127 171 217 265 321 388
#     4  10  22  38  67  94 129 172 221 276 335 386
#     4  10  20  42  63  96 131 170 221 276 329 394
#
# _framework density 27.889431999999999
#
# number of rings (size 3 to 8) (size 9 to 14) (size 15 to 20)
#    0.000    2.250    1.250    0.750    1.750    0.500 
#    0.000   20.000    0.000    0.000    0.000    0.000 
#    0.000    0.000    0.000    0.000    0.000    0.000 
#
# Total GULP energy -89617.837977 kJ/mol
# GULP energy per Si atom -5601.114874 kJ/mol
# Density = 2.782595 g / cm^3
# Si number density = 27.889432 Si / 1000 Ang^3
#
#
#
# Elastic Constant Matrix: (Units=GPa)
#
#
# Indices 1 2 3 4 5 6 
#
# 1 128.4048 48.2640 28.7828 0.0000 26.0065 0.0000
# 2 48.2640 323.4908 47.3114 0.0000 -20.0363 0.0000
# 3 28.7828 47.3114 97.5191 0.0000 28.2292 0.0000
# 4 0.0000 0.0000 0.0000 79.2458 0.0000 -11.4217
# 5 26.0065 -20.0363 28.2292 0.0000 47.2319 0.0000
# 6 0.0000 0.0000 0.0000 -11.4217 0.0000 69.3734
#
#
#
# Elastic Compliance Matrix: (Units=1/GPa)
#
#
# Indices 1 2 3 4 5 6 
#
# 1 0.009722 -0.001775 -0.000291 0.000000 -0.005932 0.000000
# 2 -0.001775 0.004009 -0.002655 0.000000 0.004265 0.000000
# 3 -0.000291 -0.002655 0.014400 0.000000 -0.009573 0.000000
# 4 0.000000 0.000000 0.000000 0.012926 0.000000 0.002128
# 5 -0.005932 0.004265 -0.009573 0.000000 0.031969 0.000000
# 6 0.000000 0.000000 0.000000 0.002128 0.000000 0.014765
#
#
# Mechanical properties :
#
#
# Convention : Reuss Voigt Hill
#
# Bulk Modulus (GPa) = 53.51389 88.68120 71.09755
# Shear Modulus (GPa) = 48.32672 67.50732 57.91702
#
# Velocity S-wave (km/s) = 4.16720 4.92523 4.56199
# Velocity P-wave (km/s) = 6.51027 8.01313 7.30048
#
# Compressibility (1/GPa) = 0.01868674
#
# Stress axis : x y z
#
# Youngs Moduli (GPa) = 102.86072 249.45705 69.44656
#
# Poissons Ratio (x) = 0.44288 0.02020
# Poissons Ratio (y) = 0.18262 0.18441
# Poissons Ratio (z) = 0.02992 0.66243
#
# Static dielectric constant tensor:
#      x y z
#    x 1.611780 0.000000 0.540530 
#    y 0.000000 2.165370 0.000000 
#    z 0.540530 0.000000 1.235090 
# 
# From -- ./inp_files/23420.got.cif
#   From: 2010.05.17/outbox.cif.g08.bks.cpg/sg12_12_cif.got.tgz:23420.got - 2010.06.03 13:09:07.
