data_PCOD9204979
_publ_section_title
;
Structure prediction by ZEFSAII (Michael W. Deem and Ramdas Pophale) SiO2 
 PCOD9204979
Probable space group: C 2/M
;
_chemical_formula_sum "Si O2"
_cell_formula_units_Z 64
_cell_length_a 20.976123
_cell_length_b 19.203990
_cell_length_c 18.881941
_cell_angle_alpha 90.000000
_cell_angle_beta 154.069448
_cell_angle_gamma 90.000000
_cell_volume 3326.015994
_symmetry_space_group_name_H-M "C 2/M"
_symmetry_group_IT_number 12
_symmetry_cell_setting 'monoclinic'
loop_
_space_group_symop_operation_xyz
x,y,z
-x,y,-z
-x,-y,-z
x,-y,z
1/2+x,1/2+y,z
1/2-x,1/2+y,-z
1/2-x,1/2-y,-z
1/2+x,1/2-y,z
loop_
_atom_site_type_symbol
_atom_site_label
_atom_site_fract_x
_atom_site_fract_y
_atom_site_fract_z
Si Si1 0.326797 0.078225 0.328277
Si Si2 0.367230 0.761455 0.680904
Si Si3 0.259434 0.917253 0.937037
Si Si4 0.458104 0.171102 0.037685
Si Si5 0.319281 0.680232 0.927468
Si Si6 0.983086 0.081044 0.202966
Si Si7 0.262661 0.125796 0.415732
Si Si8 0.569120 0.174978 0.782319
O O1 0.500000 0.093846 0.500000
O O2 0.239340 0.133550 0.195083
O O3 0.272864 0.081582 0.355115
O O4 0.307565 0.000000 0.280457
O O5 0.250000 0.750000 0.500000
O O6 0.402808 0.826298 0.768566
O O7 0.313566 0.699662 0.677448
O O8 0.516288 0.764529 0.783298
O O9 0.330012 0.877205 0.941364
O O10 0.351267 0.885398 0.094228
O O11 0.277584 0.000000 0.947661
O O12 0.093603 0.903345 0.798174
O O13 0.500000 0.152217 0.000000
O O14 0.401263 0.250929 0.983786
O O15 0.178586 0.702509 0.833061
O O16 0.412733 0.629436 0.071874
O O17 0.155965 0.093709 0.368493
O O18 0.951899 0.000000 0.156835
O O19 0.424163 0.141569 0.604536
#
# Coordination Sequence:
#
# PCOD9204979 Si02
#       8
#     8   8   8   8   8   8   8   8
#     4  11  23  36  51  76 116 163 199 230 277 344
#     4   9  19  35  57  83 117 145 189 245 290 337
#     4   9  21  39  58  83 112 142 187 244 300 352
#     4  11  22  37  61  89 115 154 195 239 299 355
#     4  11  21  36  55  80 116 152 194 241 282 347
#     4  10  21  34  54  82 114 149 190 241 292 335
#     4  11  19  35  53  81 115 153 196 235 280 349
#     4   9  20  34  57  83 109 150 190 241 294 337
#
# _framework density 19.242239999999999
#
# number of rings (size 3 to 8) (size 9 to 14) (size 15 to 20)
#    0.000    1.875    2.500    1.500    1.750    3.250 
#    0.000    1.250    0.000    0.000    0.000    0.000 
#    0.000    8.500    0.000    0.000    0.000    0.000 
#
# Total GULP energy -178187.353749 kJ/mol
# GULP energy per Si atom -5568.354805 kJ/mol
# Density = 1.919844 g / cm^3
# Si number density = 19.242240 Si / 1000 Ang^3
#
#
#
# Elastic Constant Matrix: (Units=GPa)
#
#
# Indices 1 2 3 4 5 6 
#
# 1 111.6041 9.5178 30.1262 -0.0016 10.9604 0.0000
# 2 9.5178 57.4490 6.0691 -0.0032 2.0913 -0.0008
# 3 30.1262 6.0691 65.4274 -0.0058 11.6729 -0.0024
# 4 -0.0016 -0.0032 -0.0058 15.1447 -0.0022 4.6460
# 5 10.9604 2.0913 11.6729 -0.0022 25.7206 -0.0007
# 6 0.0000 -0.0008 -0.0024 4.6460 -0.0007 30.4848
#
#
#
# Elastic Compliance Matrix: (Units=1/GPa)
#
#
# Indices 1 2 3 4 5 6 
#
# 1 0.010452 -0.001192 -0.004271 -0.000001 -0.002419 0.000000
# 2 -0.001192 0.017728 -0.001011 0.000003 -0.000475 0.000000
# 3 -0.004271 -0.001011 0.018503 0.000005 -0.006495 0.000001
# 4 -0.000001 0.000003 0.000005 0.069268 0.000003 -0.010557
# 5 -0.002419 -0.000475 -0.006495 0.000003 0.042897 0.000000
# 6 0.000000 0.000000 0.000001 -0.010557 0.000000 0.034412
#
#
# Mechanical properties :
#
#
# Convention : Reuss Voigt Hill
#
# Bulk Modulus (GPa) = 29.64177 36.21184 32.92681
# Shear Modulus (GPa) = 22.99342 26.85453 24.92397
#
# Velocity S-wave (km/s) = 3.46055 3.73983 3.60290
# Velocity P-wave (km/s) = 5.60403 6.12440 5.86998
#
# Compressibility (1/GPa) = 0.03373618
#
# Stress axis : x y z
#
# Youngs Moduli (GPa) = 95.67276 56.40677 54.04490
#
# Poissons Ratio (x) = 0.06726 0.23080
# Poissons Ratio (y) = 0.11409 0.05463
# Poissons Ratio (z) = 0.40858 0.05701
#
# Static dielectric constant tensor:
#      x y z
#    x 1.700420 0.000000 0.010640 
#    y 0.000000 1.699520 0.000000 
#    z 0.010640 0.000000 1.729940 
# 
# From -- ./inp_files/279131.got.cif
#   From: 2010.05.17/outbox.cif.g08.bks.cpg/sg12_140_cif.got.tgz:279131.got - 2010.06.03 13:09:07.
