data_PCOD9204967
_publ_section_title
;
Structure prediction by ZEFSAII (Michael W. Deem and Ramdas Pophale) SiO2 
 PCOD9204967
Probable space group: C 2/M
;
_chemical_formula_sum "Si O2"
_cell_formula_units_Z 56
_cell_length_a 10.498570
_cell_length_b 19.221999
_cell_length_c 15.586359
_cell_angle_alpha 90.000000
_cell_angle_beta 112.268395
_cell_angle_gamma 90.000000
_cell_volume 2910.795762
_symmetry_space_group_name_H-M "C 2/M"
_symmetry_group_IT_number 12
_symmetry_cell_setting 'monoclinic'
loop_
_space_group_symop_operation_xyz
x,y,z
-x,y,-z
-x,-y,-z
x,-y,z
1/2+x,1/2+y,z
1/2-x,1/2+y,-z
1/2-x,1/2-y,-z
1/2+x,1/2-y,z
loop_
_atom_site_type_symbol
_atom_site_label
_atom_site_fract_x
_atom_site_fract_y
_atom_site_fract_z
Si Si1 0.897026 0.917223 0.715849
Si Si2 0.830825 0.919916 0.896879
Si Si3 0.506911 0.920470 0.774342
Si Si4 0.874419 0.802628 0.048963
Si Si5 0.896590 0.807253 0.245269
Si Si6 0.084151 0.415638 0.603039
Si Si7 0.598192 0.781442 0.197652
O O1 0.895471 0.904112 0.819297
O O2 0.744382 0.894387 0.647232
O O3 0.017927 0.873764 0.701175
O O4 0.911429 0.000000 0.707835
O O5 0.667014 0.916767 0.841041
O O6 0.865999 0.865548 0.980005
O O7 0.863602 0.000000 0.926565
O O8 0.508305 0.901820 0.673676
O O9 0.427493 0.863636 0.809055
O O10 0.459454 0.000000 0.773013
O O11 0.981677 0.758689 0.900390
O O12 0.750000 0.750000 0.000000
O O13 0.844453 0.829651 0.137285
O O14 0.761046 0.772690 0.249834
O O15 0.012594 0.749733 0.255441
O O16 0.089827 0.500000 0.599679
O O17 0.000000 0.389158 0.500000
#
# Coordination Sequence:
#
# PCOD9204967 Si02
#       7
#     8   8   8   8   8   8   8
#     4   9  19  34  57  85 115 145 184 231 285 336
#     4   9  17  33  54  80 111 149 188 237 285 331
#     4   9  17  32  57  83 113 145 181 226 283 340
#     4  10  21  34  54  75 113 144 201 241 277 327
#     4  10  24  35  54  76 112 149 193 234 276 326
#     4   8  15  30  59  95 119 141 178 225 277 341
#     4  10  23  38  53  81 106 155 192 236 276 334
#
# _framework density 19.238726
#
# number of rings (size 3 to 8) (size 9 to 14) (size 15 to 20)
#    0.857    1.857    1.429    1.714    6.000    3.429 
#    0.000    1.429    0.000    4.286    0.000    4.000 
#    0.000    0.000    0.000    0.000    0.000    0.143 
#
# Total GULP energy -155880.855803 kJ/mol
# GULP energy per Si atom -5567.173422 kJ/mol
# Density = 1.919494 g / cm^3
# Si number density = 19.238726 Si / 1000 Ang^3
#
#
#
# Elastic Constant Matrix: (Units=GPa)
#
#
# Indices 1 2 3 4 5 6 
#
# 1 112.1565 42.1150 10.8239 0.0000 11.2312 0.0000
# 2 42.1150 102.6571 35.3206 0.0000 5.9357 0.0000
# 3 10.8239 35.3206 70.6723 0.0000 12.7927 0.0000
# 4 0.0000 0.0000 0.0000 13.1256 0.0000 4.6046
# 5 11.2312 5.9357 12.7927 0.0000 12.9645 0.0000
# 6 0.0000 0.0000 0.0000 4.6046 0.0000 34.0482
#
#
#
# Elastic Compliance Matrix: (Units=1/GPa)
#
#
# Indices 1 2 3 4 5 6 
#
# 1 0.011597 -0.005063 0.002622 0.000000 -0.010316 0.000000
# 2 -0.005063 0.013977 -0.007117 0.000000 0.005010 0.000000
# 3 0.002622 -0.007117 0.020851 0.000000 -0.019587 0.000000
# 4 0.000000 0.000000 0.000000 0.079981 0.000000 -0.010817
# 5 -0.010316 0.005010 -0.019587 0.000000 0.103104 0.000000
# 6 0.000000 0.000000 0.000000 -0.010817 0.000000 0.030833
#
#
# Mechanical properties :
#
#
# Convention : Reuss Voigt Hill
#
# Bulk Modulus (GPa) = 36.61909 51.33386 43.97647
# Shear Modulus (GPa) = 17.32718 25.17611 21.25165
#
# Velocity S-wave (km/s) = 3.00432 3.62140 3.32720
# Velocity P-wave (km/s) = 5.57763 6.65031 6.13745
#
# Compressibility (1/GPa) = 0.02730816
#
# Stress axis : x y z
#
# Youngs Moduli (GPa) = 86.22629 71.54386 47.95985
#
# Poissons Ratio (x) = 0.36225 -0.12573
# Poissons Ratio (y) = 0.43660 0.34133
# Poissons Ratio (z) = -0.22605 0.50918
#
# Static dielectric constant tensor:
#      x y z
#    x 1.742470 0.000000 -0.001080 
#    y 0.000000 1.714000 0.000000 
#    z -0.001080 0.000000 1.699390 
# 
# From -- ./inp_files/207299.got.cif
#   From: 2010.05.17/outbox.cif.g08.bks.cpg/sg12_104_cif.got.tgz:207299.got - 2010.06.03 13:09:07.
