data_PCOD9204894
_publ_section_title
;
Structure prediction by ZEFSAII (Michael W. Deem and Ramdas Pophale) SiO2 
 PCOD9204894
Probable space group: C 2/M
;
_chemical_formula_sum "Si O2"
_cell_formula_units_Z 48
_cell_length_a 27.732121
_cell_length_b 24.711747
_cell_length_c 9.142048
_cell_angle_alpha 90.000000
_cell_angle_beta 152.979371
_cell_angle_gamma 90.000000
_cell_volume 2846.318823
_symmetry_space_group_name_H-M "C 2/M"
_symmetry_group_IT_number 12
_symmetry_cell_setting 'monoclinic'
loop_
_space_group_symop_operation_xyz
x,y,z
-x,y,-z
-x,-y,-z
x,-y,z
1/2+x,1/2+y,z
1/2-x,1/2+y,-z
1/2-x,1/2-y,-z
1/2+x,1/2-y,z
loop_
_atom_site_type_symbol
_atom_site_label
_atom_site_fract_x
_atom_site_fract_y
_atom_site_fract_z
Si Si1 0.307967 0.825140 0.359832
Si Si2 0.112197 0.561710 0.739402
Si Si3 0.765964 0.335095 0.907736
Si Si4 0.888505 0.440526 0.614202
Si Si5 0.949972 0.775584 0.723149
Si Si6 0.663269 0.251794 0.132776
O O1 0.328216 0.884366 0.479535
O O2 0.395897 0.780040 0.634621
O O3 0.199075 0.801594 0.127807
O O4 0.310008 0.824309 0.189368
O O5 0.129197 0.500000 0.835840
O O6 0.099254 0.560293 0.528734
O O7 0.000000 0.581573 0.500000
O O8 0.206329 0.601970 0.039180
O O9 0.645397 0.313587 0.588590
O O10 0.821549 0.300558 0.929504
O O11 0.840896 0.500000 0.522476
O O12 0.000000 0.437687 0.000000
O O13 0.000000 0.803529 0.000000
O O14 0.044793 0.760568 0.870415
O O15 0.750000 0.250000 0.500000
#
# Coordination Sequence:
#
# PCOD9204894 Si02
#       6
#     8   8   8   8   8   8
#     4  10  21  34  50  78 107 134 173 210 260 314
#     4   9  19  35  54  79 106 136 173 213 261 312
#     4  10  22  34  52  80 104 138 173 216 260 311
#     4   9  18  32  52  75 103 135 167 212 260 303
#     4  11  20  35  51  75 105 137 177 215 256 313
#     4  11  21  33  53  76 101 143 174 210 262 307
#
# _framework density 16.863887999999999
#
# number of rings (size 3 to 8) (size 9 to 14) (size 15 to 20)
#    0.000    2.000    3.333    2.500    4.667    2.000 
#    0.000    0.000    0.000    1.500    0.000    4.667 
#    0.000    0.000    0.000    0.000    0.000    0.000 
#
# Total GULP energy -133605.396752 kJ/mol
# GULP energy per Si atom -5566.891531 kJ/mol
# Density = 1.682551 g / cm^3
# Si number density = 16.863888 Si / 1000 Ang^3
#
#
#
# Elastic Constant Matrix: (Units=GPa)
#
#
# Indices 1 2 3 4 5 6 
#
# 1 70.1019 26.3938 18.0835 0.0000 22.1344 0.0000
# 2 26.3938 115.4359 46.1133 0.0000 7.0124 0.0000
# 3 18.0835 46.1133 71.7983 0.0000 8.2243 0.0000
# 4 0.0000 0.0000 0.0000 16.7292 0.0000 0.3813
# 5 22.1344 7.0124 8.2243 0.0000 35.2510 0.0000
# 6 0.0000 0.0000 0.0000 0.3813 0.0000 14.2956
#
#
#
# Elastic Compliance Matrix: (Units=1/GPa)
#
#
# Indices 1 2 3 4 5 6 
#
# 1 0.019378 -0.003112 -0.001602 0.000000 -0.011175 0.000000
# 2 -0.003112 0.012164 -0.007167 0.000000 0.001206 0.000000
# 3 -0.001602 -0.007167 0.019168 0.000000 -0.002040 0.000000
# 4 0.000000 0.000000 0.000000 0.059812 0.000000 -0.001595
# 5 -0.011175 0.001206 -0.002040 0.000000 0.035621 0.000000
# 6 0.000000 0.000000 0.000000 -0.001595 0.000000 0.069994
#
#
# Mechanical properties :
#
#
# Convention : Reuss Voigt Hill
#
# Bulk Modulus (GPa) = 37.10735 48.72416 42.91575
# Shear Modulus (GPa) = 20.08982 24.37151 22.23066
#
# Velocity S-wave (km/s) = 3.45525 3.80569 3.63470
# Velocity P-wave (km/s) = 6.16199 6.94740 6.56645
#
# Compressibility (1/GPa) = 0.02694884
#
# Stress axis : x y z
#
# Youngs Moduli (GPa) = 51.60403 82.20966 52.16996
#
# Poissons Ratio (x) = 0.25583 0.08358
# Poissons Ratio (y) = 0.16059 0.37390
# Poissons Ratio (z) = 0.08267 0.58919
#
# Static dielectric constant tensor:
#      x y z
#    x 1.597800 0.000000 -0.006400 
#    y 0.000000 1.605570 0.000000 
#    z -0.006400 0.000000 1.590970 
# 
# From -- ./inp_files/106762.got.cif
#   From: 2010.05.17/outbox.cif.g08.bks.cpg/sg12_54_cif.got.tgz:106762.got - 2010.06.03 13:09:07.
