data_PCOD9204749
_publ_section_title
;
Structure prediction by ZEFSAII (Michael W. Deem and Ramdas Pophale) SiO2 
 PCOD9204749
Probable space group: C 2/M
;
_chemical_formula_sum "Si O2"
_cell_formula_units_Z 64
_cell_length_a 21.120232
_cell_length_b 33.484575
_cell_length_c 17.213725
_cell_angle_alpha 90.000000
_cell_angle_beta 160.385801
_cell_angle_gamma 90.000000
_cell_volume 4086.488646
_symmetry_space_group_name_H-M "C 2/M"
_symmetry_group_IT_number 12
_symmetry_cell_setting 'monoclinic'
loop_
_space_group_symop_operation_xyz
x,y,z
-x,y,-z
-x,-y,-z
x,-y,z
1/2+x,1/2+y,z
1/2-x,1/2+y,-z
1/2-x,1/2-y,-z
1/2+x,1/2-y,z
loop_
_atom_site_type_symbol
_atom_site_label
_atom_site_fract_x
_atom_site_fract_y
_atom_site_fract_z
Si Si1 0.140472 0.817773 0.939209
Si Si2 0.981697 0.322794 0.720544
Si Si3 0.367637 0.266287 0.540325
Si Si4 0.709549 0.889840 0.608337
Si Si5 0.847846 0.751615 0.267149
Si Si6 0.627688 0.606475 0.034509
Si Si7 0.581240 0.045077 0.681487
Si Si8 0.985965 0.306636 0.069833
O O1 0.129718 0.857224 0.977161
O O2 0.939258 0.802517 0.676799
O O3 0.302423 0.822483 0.061036
O O4 0.214976 0.781598 0.077865
O O5 0.902432 0.277468 0.617337
O O6 0.870127 0.353060 0.534811
O O7 0.984235 0.331488 0.815889
O O8 0.518485 0.268636 0.645244
O O9 0.155289 0.273905 0.268191
O O10 0.560108 0.926007 0.435153
O O11 0.913819 0.901808 0.812052
O O12 0.752283 0.881284 0.749344
O O13 0.000000 0.732258 0.500000
O O14 0.714907 0.784702 0.151962
O O15 0.723999 0.568515 0.105549
O O16 0.500000 0.042386 0.500000
O O17 0.597007 0.000000 0.730211
O O18 0.000000 0.325649 0.000000
#
# Coordination Sequence:
#
# PCOD9204749 Si02
#       8
#     8   8   8   8   8   8   8   8
#     4  11  21  35  52  70 102 137 172 219 261 296
#     4  11  21  36  50  70  99 134 172 219 261 299
#     4  11  22  36  51  67  97 132 177 221 263 302
#     4  10  21  34  51  76 105 134 173 211 250 298
#     4  11  22  35  46  68  92 126 175 222 259 300
#     4  10  21  33  50  77 103 138 172 208 250 295
#     4   9  18  34  54  76 104 135 165 200 248 306
#     4  12  23  35  52  68  92 133 176 220 267 303
#
# _framework density 15.661367
#
# number of rings (size 3 to 8) (size 9 to 14) (size 15 to 20)
#    0.000    1.375    5.000    1.875    5.250    0.500 
#    0.000    2.500    0.000    0.000    0.000    0.000 
#    0.000    0.500    0.000    3.500    0.000    0.375 
#
# Total GULP energy -178382.982333 kJ/mol
# GULP energy per Si atom -5574.468198 kJ/mol
# Density = 1.562572 g / cm^3
# Si number density = 15.661367 Si / 1000 Ang^3
#
#
#
# Elastic Constant Matrix: (Units=GPa)
#
#
# Indices 1 2 3 4 5 6 
#
# 1 84.5799 36.8889 25.1117 -0.0003 -1.2953 0.0000
# 2 36.8889 77.4046 20.4367 -0.0005 1.2086 0.0000
# 3 25.1117 20.4367 67.3618 -0.0017 5.8353 0.0002
# 4 -0.0003 -0.0005 -0.0017 32.9333 -0.0004 -2.3829
# 5 -1.2953 1.2086 5.8353 -0.0004 24.6193 0.0001
# 6 0.0000 0.0000 0.0002 -2.3829 0.0001 12.0481
#
#
#
# Elastic Compliance Matrix: (Units=1/GPa)
#
#
# Indices 1 2 3 4 5 6 
#
# 1 0.015936 -0.006534 -0.004144 0.000000 0.002141 0.000000
# 2 -0.006534 0.016726 -0.002591 0.000000 -0.000551 0.000000
# 3 -0.004144 -0.002591 0.017544 0.000001 -0.004249 0.000000
# 4 0.000000 0.000000 0.000001 0.030805 0.000000 0.006093
# 5 0.002141 -0.000551 -0.004249 0.000000 0.041765 0.000000
# 6 0.000000 0.000000 0.000000 0.006093 0.000000 0.084205
#
#
# Mechanical properties :
#
#
# Convention : Reuss Voigt Hill
#
# Bulk Modulus (GPa) = 42.25063 43.80233 43.02648
# Shear Modulus (GPa) = 20.71174 23.71407 22.21291
#
# Velocity S-wave (km/s) = 3.64053 3.89546 3.77015
# Velocity P-wave (km/s) = 6.68636 6.94708 6.81797
#
# Compressibility (1/GPa) = 0.02366829
#
# Stress axis : x y z
#
# Youngs Moduli (GPa) = 62.75096 59.78824 56.99904
#
# Poissons Ratio (x) = 0.39066 0.23620
# Poissons Ratio (y) = 0.41001 0.14768
# Poissons Ratio (z) = 0.26004 0.15490
#
# Static dielectric constant tensor:
#      x y z
#    x 1.603460 0.000000 -0.006860 
#    y 0.000000 1.490240 0.000000 
#    z -0.006860 0.000000 1.549450 
# 
# From -- ./inp_files/286790.got.cif
#   From: 2010.05.17/outbox.cif.g08.bks.cpg/sg12_144_cif.got.tgz:286790.got - 2010.06.03 13:09:07.
