data_PCOD9204397
_publ_section_title
;
Structure prediction by ZEFSAII (Michael W. Deem and Ramdas Pophale) SiO2 
 PCOD9204397
Probable space group: C 2/M
;
_chemical_formula_sum "Si O2"
_cell_formula_units_Z 56
_cell_length_a 9.217551
_cell_length_b 17.591886
_cell_length_c 18.264531
_cell_angle_alpha 90.000000
_cell_angle_beta 112.137458
_cell_angle_gamma 90.000000
_cell_volume 2743.341803
_symmetry_space_group_name_H-M "C 2/M"
_symmetry_group_IT_number 12
_symmetry_cell_setting 'monoclinic'
loop_
_space_group_symop_operation_xyz
x,y,z
-x,y,-z
-x,-y,-z
x,-y,z
1/2+x,1/2+y,z
1/2-x,1/2+y,-z
1/2-x,1/2-y,-z
1/2+x,1/2-y,z
loop_
_atom_site_type_symbol
_atom_site_label
_atom_site_fract_x
_atom_site_fract_y
_atom_site_fract_z
Si Si1 0.528367 0.408782 0.312737
Si Si2 0.814712 0.409622 0.262431
Si Si3 0.602215 0.182358 0.864550
Si Si4 0.734042 0.340236 0.829745
Si Si5 0.846287 0.171817 0.517071
Si Si6 0.817768 0.416527 0.988665
Si Si7 0.552511 0.090569 0.429639
O O1 0.521473 0.500000 0.325882
O O2 0.645722 0.396447 0.266461
O O3 0.362592 0.374092 0.256628
O O4 0.603836 0.364410 0.395684
O O5 0.835102 0.500000 0.259904
O O6 0.847243 0.372536 0.191502
O O7 0.941386 0.378710 0.345168
O O8 0.654505 0.264856 0.847418
O O9 0.415214 0.176674 0.843461
O O10 0.690355 0.150673 0.953590
O O11 0.730089 0.399222 0.896561
O O12 0.750000 0.250000 0.500000
O O13 0.731733 0.112481 0.455157
O O14 0.000000 0.184368 0.500000
O O15 0.774956 0.500000 0.010319
O O16 0.000000 0.419135 0.000000
O O17 0.500000 0.118312 0.500000
O O18 0.533622 0.000000 0.426448
#
# Coordination Sequence:
#
# PCOD9204397 Si02
#       7
#     8   8   8   8   8   8   8
#     4  11  25  45  67  95 129 165 211 268 322 378
#     4  10  22  40  66  93 125 165 210 262 318 382
#     4  11  23  40  65  96 131 172 215 260 317 380
#     4  11  24  40  65  94 133 171 211 265 321 377
#     4  12  28  43  65  92 127 168 213 263 318 379
#     4   9  19  39  65  94 128 167 214 263 317 379
#     4  10  20  41  67  91 123 165 208 258 320 379
#
# _framework density 20.413059000000001
#
# number of rings (size 3 to 8) (size 9 to 14) (size 15 to 20)
#    0.000    1.429    1.429    3.000    4.000    2.857 
#    0.000    2.143    0.000    5.143    0.000    0.000 
#    0.000    0.000    0.000    0.000    0.000    0.000 
#
# Total GULP energy -156404.251843 kJ/mol
# GULP energy per Si atom -5585.866137 kJ/mol
# Density = 2.036660 g / cm^3
# Si number density = 20.413059 Si / 1000 Ang^3
#
#
#
# Elastic Constant Matrix: (Units=GPa)
#
#
# Indices 1 2 3 4 5 6 
#
# 1 82.9483 26.5695 8.9568 0.0000 -5.0182 0.0000
# 2 26.5695 82.4744 22.3207 0.0000 -7.3843 0.0000
# 3 8.9568 22.3207 48.7550 0.0000 -0.9804 0.0000
# 4 0.0000 0.0000 0.0000 24.5728 0.0000 -5.3462
# 5 -5.0182 -7.3843 -0.9804 0.0000 29.3431 0.0000
# 6 0.0000 0.0000 0.0000 -5.3462 0.0000 23.3033
#
#
#
# Elastic Compliance Matrix: (Units=1/GPa)
#
#
# Indices 1 2 3 4 5 6 
#
# 1 0.013502 -0.004077 -0.000588 0.000000 0.001263 0.000000
# 2 -0.004077 0.015392 -0.006238 0.000000 0.002968 0.000000
# 3 -0.000588 -0.006238 0.023457 0.000000 -0.000887 0.000000
# 4 0.000000 0.000000 0.000000 0.042833 0.000000 0.009827
# 5 0.001263 0.002968 -0.000887 0.000000 0.035013 0.000000
# 6 0.000000 0.000000 0.000000 0.009827 0.000000 0.045167
#
#
# Mechanical properties :
#
#
# Convention : Reuss Voigt Hill
#
# Bulk Modulus (GPa) = 32.74026 36.65240 34.69633
# Shear Modulus (GPa) = 24.11350 25.86589 24.98970
#
# Velocity S-wave (km/s) = 3.44070 3.56353 3.50265
# Velocity P-wave (km/s) = 5.64431 5.90982 5.77859
#
# Compressibility (1/GPa) = 0.03054343
#
# Stress axis : x y z
#
# Youngs Moduli (GPa) = 74.06490 64.96674 42.63143
#
# Poissons Ratio (x) = 0.26489 0.02508
# Poissons Ratio (y) = 0.30198 0.26594
# Poissons Ratio (z) = 0.04358 0.40527
#
# Static dielectric constant tensor:
#      x y z
#    x 2.244720 0.000000 0.211840 
#    y 0.000000 1.774880 0.000000 
#    z 0.211840 0.000000 1.802870 
# 
# From -- ./inp_files/257218.got.cif
#   From: 2010.05.17/outbox.cif.g08.bks.cpg/sg12_129_cif.got.tgz:257218.got - 2010.06.03 13:09:07.
