data_PCOD9204433
_publ_section_title
;
Structure prediction by ZEFSAII (Michael W. Deem and Ramdas Pophale) SiO2 
 PCOD9204433
Probable space group: C 2/M
;
_chemical_formula_sum "Si O2"
_cell_formula_units_Z 58
_cell_length_a 19.998255
_cell_length_b 7.668372
_cell_length_c 18.608561
_cell_angle_alpha 90.000000
_cell_angle_beta 117.580261
_cell_angle_gamma 90.000000
_cell_volume 2529.413027
_symmetry_space_group_name_H-M "C 2/M"
_symmetry_group_IT_number 12
_symmetry_cell_setting 'monoclinic'
loop_
_space_group_symop_operation_xyz
x,y,z
-x,y,-z
-x,-y,-z
x,-y,z
1/2+x,1/2+y,z
1/2-x,1/2+y,-z
1/2-x,1/2-y,-z
1/2+x,1/2-y,z
loop_
_atom_site_type_symbol
_atom_site_label
_atom_site_fract_x
_atom_site_fract_y
_atom_site_fract_z
Si Si1 0.000000 0.500000 0.500000
Si Si2 0.429644 0.297713 0.190944
Si Si3 0.500449 0.801934 0.920566
Si Si4 0.736373 0.708484 0.910039
Si Si5 0.232216 0.789829 0.350226
Si Si6 0.603444 0.700579 0.524735
Si Si7 0.335122 0.702164 0.827954
Si Si8 0.423844 0.288112 0.653910
O O1 0.061707 0.344541 0.551064
O O2 0.424138 0.500000 0.209877
O O3 0.453124 0.289132 0.118821
O O4 0.345848 0.221752 0.155123
O O5 0.499940 0.221100 0.270454
O O6 0.412761 0.802706 0.855914
O O7 0.529898 0.000000 0.941234
O O8 0.500000 0.721473 0.000000
O O9 0.736167 0.500000 0.902812
O O10 0.800981 0.777300 0.889700
O O11 0.750000 0.750000 0.000000
O O12 0.306717 0.713163 0.422162
O O13 0.225164 0.745273 0.262447
O O14 0.153670 0.730845 0.346984
O O15 0.236839 0.000000 0.360206
O O16 0.582181 0.500000 0.527646
O O17 0.581260 0.754415 0.432420
O O18 0.354059 0.500000 0.823723
O O19 0.424526 0.500000 0.660284
#
# Coordination Sequence:
#
# PCOD9204433 Si02
#       8
#     2   8   8   8   8   8   8   8
#     4  12  26  48  64  98 144 172 238 274 324 406
#     4  10  21  41  64  90 123 167 218 274 326 392
#     4  11  23  38  59  91 128 166 215 276 332 391
#     4  11  24  41  64  91 128 171 219 272 334 405
#     4  10  20  41  68  98 136 170 218 282 334 398
#     4  11  24  43  71 100 137 187 223 275 337 399
#     4  11  23  40  65  93 128 172 218 274 333 394
#     4   9  19  40  68  98 131 167 222 277 334 398
#
# _framework density 22.930219999999998
#
# number of rings (size 3 to 8) (size 9 to 14) (size 15 to 20)
#    0.000    1.517    2.069    2.690    0.000    6.621 
#    2.483    1.379    0.000    0.000    0.000    0.000 
#    0.000    0.000    0.000    0.000    0.000    0.000 
#
# Total GULP energy -161898.540134 kJ/mol
# GULP energy per Si atom -5582.708280 kJ/mol
# Density = 2.287803 g / cm^3
# Si number density = 22.930220 Si / 1000 Ang^3
#
#
#
# Elastic Constant Matrix: (Units=GPa)
#
#
# Indices 1 2 3 4 5 6 
#
# 1 73.2581 1.2302 -7.1888 0.0000 12.2750 0.0000
# 2 1.2302 74.0036 7.5472 0.0000 0.4022 0.0000
# 3 -7.1888 7.5472 69.9179 0.0000 9.8529 0.0000
# 4 0.0000 0.0000 0.0000 9.4151 0.0000 7.3048
# 5 12.2750 0.4022 9.8529 0.0000 38.0044 0.0000
# 6 0.0000 0.0000 0.0000 7.3048 0.0000 0.0502
#
#
#
# Elastic Compliance Matrix: (Units=1/GPa)
#
#
# Indices 1 2 3 4 5 6 
#
# 1 0.014787 -0.000454 0.002327 0.000000 -0.005374 0.000000
# 2 -0.000454 0.013679 -0.001581 0.000000 0.000412 0.000000
# 3 0.002327 -0.001581 0.015378 0.000000 -0.004722 0.000000
# 4 0.000000 0.000000 0.000000 -0.000950 0.000000 0.138121
# 5 -0.005374 0.000412 -0.004722 0.000000 0.029268 0.000000
# 6 0.000000 0.000000 0.000000 0.138121 0.000000 -0.178023
#
#
# Mechanical properties :
#
#
# Convention : Reuss Voigt Hill
#
# Bulk Modulus (GPa) = 22.50879 24.48408 23.49643
# Shear Modulus (GPa) = -54.56469 23.86667 -15.34901
#
# Velocity S-wave (km/s) = -4.88340 3.22970 -2.59004
# Velocity P-wave (km/s) = 4.68608 4.96073 1.15097
#
# Compressibility (1/GPa) = 0.04442710
#
# Stress axis : x y z
#
# Youngs Moduli (GPa) = 67.62774 73.10242 65.02888
#
# Poissons Ratio (x) = 0.03318 -0.15130
# Poissons Ratio (y) = 0.03069 0.10283
# Poissons Ratio (z) = -0.15735 0.11560
#
# Static dielectric constant tensor:
#      x y z
#    x 1.882590 0.000000 0.002640 
#    y 0.000000 1.865600 0.000000 
#    z 0.002640 0.000000 1.880410 
# 
# From -- ./inp_files/282237.got.cif
#   From: 2010.05.17/outbox.cif.g08.bks.cpg/sg12_142_cif.got.tgz:282237.got - 2010.06.03 13:09:07.
