data_PCOD9204885
_publ_section_title
;
Structure prediction by ZEFSAII (Michael W. Deem and Ramdas Pophale) SiO2 
 PCOD9204885
Probable space group: C 2/M
;
_chemical_formula_sum "Si O2"
_cell_formula_units_Z 40
_cell_length_a 12.944605
_cell_length_b 24.330844
_cell_length_c 7.212146
_cell_angle_alpha 90.000000
_cell_angle_beta 128.584146
_cell_angle_gamma 90.000000
_cell_volume 1775.606597
_symmetry_space_group_name_H-M "C 2/M"
_symmetry_group_IT_number 12
_symmetry_cell_setting 'monoclinic'
loop_
_space_group_symop_operation_xyz
x,y,z
-x,y,-z
-x,-y,-z
x,-y,z
1/2+x,1/2+y,z
1/2-x,1/2+y,-z
1/2-x,1/2-y,-z
1/2+x,1/2-y,z
loop_
_atom_site_type_symbol
_atom_site_label
_atom_site_fract_x
_atom_site_fract_y
_atom_site_fract_z
Si Si1 0.690711 0.937997 0.873758
Si Si2 0.724000 0.828103 0.423583
Si Si3 0.964192 0.756057 0.651103
Si Si4 0.395008 0.061525 0.657459
Si Si5 0.130309 0.155156 0.034745
O O1 0.653442 0.938869 0.611666
O O2 0.551835 0.927258 0.821401
O O3 0.800523 0.890918 0.012902
O O4 0.735425 0.000000 0.970436
O O5 0.850422 0.800703 0.471058
O O6 0.601078 0.786939 0.282220
O O7 0.682946 0.889637 0.330656
O O8 0.768783 0.828623 0.690151
O O9 0.000000 0.726928 0.500000
O O10 0.080512 0.791162 0.871845
O O11 0.373495 0.000000 0.706935
O O12 0.000000 0.133467 0.000000
#
# Coordination Sequence:
#
# PCOD9204885 Si02
#       5
#     8   8   8   8   8
#     4   8  14  25  46  76 100 123 161 208 254 292
#     4   9  19  35  52  75 103 128 165 210 245 292
#     4  10  21  34  50  72 105 136 168 198 244 296
#     4   8  14  27  50  76  98 122 159 210 259 289
#     4   9  18  32  49  72 102 130 167 205 244 298
#
# _framework density 22.527512999999999
#
# number of rings (size 3 to 8) (size 9 to 14) (size 15 to 20)
#    0.000    3.200    0.000    1.200    5.600    1.200 
#    0.000    3.000    0.000    2.400    0.000    2.800 
#    0.000    0.000    0.000    0.000    0.000    0.000 
#
# Total GULP energy -111658.888787 kJ/mol
# GULP energy per Si atom -5582.944439 kJ/mol
# Density = 2.247624 g / cm^3
# Si number density = 22.527513 Si / 1000 Ang^3
#
#
#
# Elastic Constant Matrix: (Units=GPa)
#
#
# Indices 1 2 3 4 5 6 
#
# 1 31.9172 8.1495 15.9409 0.0000 2.5115 0.0000
# 2 8.1495 95.6349 37.7968 0.0000 20.3540 0.0000
# 3 15.9409 37.7968 78.6806 0.0000 4.8331 0.0000
# 4 0.0000 0.0000 0.0000 25.8803 0.0000 15.9970
# 5 2.5115 20.3540 4.8331 0.0000 21.1984 0.0000
# 6 0.0000 0.0000 0.0000 15.9970 0.0000 33.2421
#
#
#
# Elastic Compliance Matrix: (Units=1/GPa)
#
#
# Indices 1 2 3 4 5 6 
#
# 1 0.035009 0.000469 -0.007136 0.000000 -0.002971 0.000000
# 2 0.000469 0.016156 -0.006998 0.000000 -0.013972 0.000000
# 3 -0.007136 -0.006998 0.017295 0.000000 0.003621 0.000000
# 4 0.000000 0.000000 0.000000 0.054999 0.000000 -0.026467
# 5 -0.002971 -0.013972 0.003621 0.000000 0.060116 0.000000
# 6 0.000000 0.000000 0.000000 -0.026467 0.000000 0.042819
#
#
# Mechanical properties :
#
#
# Convention : Reuss Voigt Hill
#
# Bulk Modulus (GPa) = 24.31267 36.66743 30.49005
# Shear Modulus (GPa) = 18.69635 25.68720 22.19178
#
# Velocity S-wave (km/s) = 2.88398 3.38044 3.14203
# Velocity P-wave (km/s) = 4.68035 5.61681 5.16983
#
# Compressibility (1/GPa) = 0.04113082
#
# Stress axis : x y z
#
# Youngs Moduli (GPa) = 28.56406 61.89707 57.82176
#
# Poissons Ratio (x) = -0.02905 0.41261
# Poissons Ratio (y) = -0.01341 0.40463
# Poissons Ratio (z) = 0.20383 0.43314
#
# Static dielectric constant tensor:
#      x y z
#    x 1.836880 0.000000 -0.010280 
#    y 0.000000 1.848340 0.000000 
#    z -0.010280 0.000000 1.861720 
# 
# From -- ./inp_files/52338.got.cif
#   From: 2010.05.17/outbox.cif.g08.bks.cpg/sg12_27_cif.got.tgz:52338.got - 2010.06.03 13:09:07.
