data_PCOD9204046
_publ_section_title
;
Structure prediction by ZEFSAII (Michael W. Deem and Ramdas Pophale) SiO2 
 PCOD9204046
Probable space group: C 2/M
;
_chemical_formula_sum "Si O2"
_cell_formula_units_Z 64
_cell_length_a 18.782964
_cell_length_b 8.999597
_cell_length_c 32.850307
_cell_angle_alpha 90.000000
_cell_angle_beta 38.175294
_cell_angle_gamma 90.000000
_cell_volume 3432.131480
_symmetry_space_group_name_H-M "C 2/M"
_symmetry_group_IT_number 12
_symmetry_cell_setting 'monoclinic'
loop_
_space_group_symop_operation_xyz
x,y,z
-x,y,-z
-x,-y,-z
x,-y,z
1/2+x,1/2+y,z
1/2-x,1/2+y,-z
1/2-x,1/2-y,-z
1/2+x,1/2-y,z
loop_
_atom_site_type_symbol
_atom_site_label
_atom_site_fract_x
_atom_site_fract_y
_atom_site_fract_z
Si Si1 0.471621 0.178945 0.307331
Si Si2 0.401254 0.179106 0.177392
Si Si3 0.631848 0.325779 0.039991
Si Si4 0.129048 0.667383 0.958511
Si Si5 0.049920 0.320765 0.433222
Si Si6 0.198966 0.320831 0.688944
Si Si7 0.375385 0.820724 0.439274
Si Si8 0.279306 0.677516 0.811599
O O1 0.382635 0.225961 0.311962
O O2 0.426644 0.221692 0.372294
O O3 0.597979 0.244500 0.244223
O O4 0.478305 0.000000 0.302877
O O5 0.521763 0.252933 0.111361
O O6 0.359785 0.217016 0.241458
O O7 0.303861 0.223889 0.188260
O O8 0.414181 0.000000 0.168804
O O9 0.633111 0.500000 0.047158
O O10 0.750000 0.250000 0.000000
O O11 0.626393 0.287517 0.994834
O O12 0.159109 0.500000 0.960510
O O13 0.213435 0.704814 0.883558
O O14 0.000000 0.657882 0.000000
O O15 0.060253 0.500000 0.427314
O O16 0.175155 0.250397 0.370710
O O17 0.000000 0.279432 0.500000
O O18 0.961432 0.276029 0.437148
O O19 0.210481 0.500000 0.682273
O O20 0.250000 0.750000 0.500000
O O21 0.365293 0.000000 0.445054
O O22 0.295364 0.500000 0.800743
#
# Coordination Sequence:
#
# PCOD9204046 Si02
#       8
#     8   8   8   8   8   8   8   8
#     4  10  22  38  55  84 120 150 188 242 294 341
#     4  10  21  41  61  83 116 154 195 241 295 353
#     4  12  26  41  61  88 119 156 200 247 300 359
#     4  10  20  40  64  87 119 155 194 246 300 354
#     4  10  21  37  58  85 117 154 194 237 287 345
#     4  10  22  38  59  85 115 152 194 238 288 347
#     4  10  21  37  58  84 117 152 190 239 289 338
#     4  10  21  37  61  86 113 152 194 236 288 351
#
# _framework density 18.647304999999999
#
# number of rings (size 3 to 8) (size 9 to 14) (size 15 to 20)
#    0.000    1.750    1.250    2.625    1.750    3.500 
#    0.000    0.000    0.000    0.000    0.000    0.000 
#    0.000    0.000    0.000    0.000    0.000    0.000 
#
# Total GULP energy -178763.505358 kJ/mol
# GULP energy per Si atom -5586.359542 kJ/mol
# Density = 1.860486 g / cm^3
# Si number density = 18.647305 Si / 1000 Ang^3
#
#
#
# Elastic Constant Matrix: (Units=GPa)
#
#
# Indices 1 2 3 4 5 6 
#
# 1 164.2198 49.4765 111.6537 0.0002 -14.6475 0.0000
# 2 49.4765 33.7386 58.6055 -0.0015 -3.8704 -0.0019
# 3 111.6537 58.6055 194.3459 0.0005 -13.9619 0.0007
# 4 0.0002 -0.0015 0.0005 -20.9324 0.0002 -40.7185
# 5 -14.6475 -3.8704 -13.9619 0.0002 35.5379 0.0003
# 6 0.0000 -0.0019 0.0007 -40.7185 0.0003 9.4790
#
#
#
# Elastic Compliance Matrix: (Units=1/GPa)
#
#
# Indices 1 2 3 4 5 6 
#
# 1 0.012031 -0.011889 -0.003153 0.000001 0.002425 0.000000
# 2 -0.011889 0.074004 -0.015702 -0.000004 -0.003009 -0.000001
# 3 -0.003153 -0.015702 0.011809 0.000001 0.001630 0.000000
# 4 0.000001 -0.000004 0.000001 -0.005106 0.000000 -0.021934
# 5 0.002425 -0.003009 0.001630 0.000000 0.029451 0.000000
# 6 0.000000 -0.000001 0.000000 -0.021934 0.000000 0.011276
#
#
# Mechanical properties :
#
#
# Convention : Reuss Voigt Hill
#
# Bulk Modulus (GPa) = 27.50496 92.41955 59.96226
# Shear Modulus (GPa) = 24.14631 16.32148 20.23389
#
# Velocity S-wave (km/s) = 3.60237 2.96171 3.29764
# Velocity P-wave (km/s) = 5.66435 7.83359 6.83557
#
# Compressibility (1/GPa) = 0.03635708
#
# Stress axis : x y z
#
# Youngs Moduli (GPa) = 83.11803 13.51276 84.68203
#
# Poissons Ratio (x) = 0.16065 0.26698
# Poissons Ratio (y) = 0.98815 1.32970
# Poissons Ratio (z) = 0.26205 0.21218
#
# Static dielectric constant tensor:
#      x y z
#    x 1.639490 0.000000 0.020950 
#    y 0.000000 1.627190 0.000000 
#    z 0.020950 0.000000 1.609670 
# 
# From -- ./inp_files/377964.got.cif
#   From: 2010.05.17/outbox.cif.g08.bks.cpg/sg12_189_cif.got.tgz:377964.got - 2010.06.03 13:09:07.
