data_PCOD9204752
_publ_section_title
;
Structure prediction by ZEFSAII (Michael W. Deem and Ramdas Pophale) SiO2 
 PCOD9204752
Probable space group: C 2/M
;
_chemical_formula_sum "Si O2"
_cell_formula_units_Z 64
_cell_length_a 23.104297
_cell_length_b 14.044327
_cell_length_c 15.780612
_cell_angle_alpha 90.000000
_cell_angle_beta 134.859433
_cell_angle_gamma 90.000000
_cell_volume 3629.655485
_symmetry_space_group_name_H-M "C 2/M"
_symmetry_group_IT_number 12
_symmetry_cell_setting 'monoclinic'
loop_
_space_group_symop_operation_xyz
x,y,z
-x,y,-z
-x,-y,-z
x,-y,z
1/2+x,1/2+y,z
1/2-x,1/2+y,-z
1/2-x,1/2-y,-z
1/2+x,1/2-y,z
loop_
_atom_site_type_symbol
_atom_site_label
_atom_site_fract_x
_atom_site_fract_y
_atom_site_fract_z
Si Si1 0.293694 0.892689 0.922970
Si Si2 0.486261 0.109383 0.078469
Si Si3 0.670628 0.114481 0.854739
Si Si4 0.408422 0.387323 0.869868
Si Si5 0.333027 0.209609 0.487692
Si Si6 0.670804 0.613535 0.394030
Si Si7 0.988611 0.615182 0.713217
Si Si8 0.750307 0.214877 0.778053
O O1 0.255023 0.820744 0.818530
O O2 0.263254 0.000000 0.883618
O O3 0.390560 0.893852 0.001957
O O4 0.284838 0.859924 0.011058
O O5 0.525491 0.150938 0.204269
O O6 0.517041 0.000000 0.103644
O O7 0.500000 0.153009 0.000000
O O8 0.576801 0.146291 0.769999
O O9 0.711968 0.153091 0.813691
O O10 0.669914 0.000000 0.851633
O O11 0.391600 0.500000 0.867509
O O12 0.389950 0.372382 0.750001
O O13 0.340185 0.325142 0.847563
O O14 0.500000 0.369884 0.000000
O O15 0.345767 0.311778 0.547128
O O16 0.261234 0.147622 0.458188
O O17 0.416442 0.152425 0.581801
O O18 0.303446 0.216271 0.361331
O O19 0.670071 0.500000 0.413844
O O20 0.989650 0.500000 0.718092
#
# Coordination Sequence:
#
# PCOD9204752 Si02
#       8
#     8   8   8   8   8   8   8   8
#     4   9  19  34  50  73 104 133 165 208 257 305
#     4   8  15  28  48  74 100 127 160 200 250 305
#     4   9  19  36  56  77 100 128 166 215 267 308
#     4   9  19  35  54  77 103 133 172 214 256 303
#     4  10  21  33  50  78 103 135 177 204 245 311
#     4   9  19  36  52  71 107 141 167 209 254 298
#     4   9  18  33  52  75 105 133 161 209 262 306
#     4  11  21  33  53  77 102 134 172 212 252 302
#
# _framework density 17.632528000000001
#
# number of rings (size 3 to 8) (size 9 to 14) (size 15 to 20)
#    0.000    2.750    0.000    2.625    0.000    8.000 
#    0.000    2.500    0.000    0.750    0.000    1.750 
#    0.000    0.000    0.000    0.000    0.000    0.000 
#
# Total GULP energy -178281.121235 kJ/mol
# GULP energy per Si atom -5571.285039 kJ/mol
# Density = 1.759240 g / cm^3
# Si number density = 17.632528 Si / 1000 Ang^3
#
#
#
# Elastic Constant Matrix: (Units=GPa)
#
#
# Indices 1 2 3 4 5 6 
#
# 1 77.6904 26.0077 45.3330 0.0000 -24.0596 0.0000
# 2 26.0077 68.0870 26.4680 0.0000 -11.1011 0.0000
# 3 45.3330 26.4680 94.8280 0.0000 -8.6312 0.0000
# 4 0.0000 0.0000 0.0000 12.9037 0.0000 11.5438
# 5 -24.0596 -11.1011 -8.6312 0.0000 20.5851 0.0000
# 6 0.0000 0.0000 0.0000 11.5438 0.0000 -2.5637
#
#
#
# Elastic Compliance Matrix: (Units=1/GPa)
#
#
# Indices 1 2 3 4 5 6 
#
# 1 0.028107 -0.002275 -0.010317 0.000000 0.027299 0.000000
# 2 -0.002275 0.017764 -0.003369 0.000000 0.005508 0.000000
# 3 -0.010317 -0.003369 0.015756 0.000000 -0.007269 0.000000
# 4 0.000000 0.000000 0.000000 0.015413 0.000000 0.069399
# 5 0.027299 0.005508 -0.007269 0.000000 0.080408 0.000000
# 6 0.000000 0.000000 0.000000 0.069399 0.000000 -0.077574
#
#
# Mechanical properties :
#
#
# Convention : Reuss Voigt Hill
#
# Bulk Modulus (GPa) = 33.66448 48.46919 41.06683
# Shear Modulus (GPa) = 41.08530 15.70479 28.39505
#
# Velocity S-wave (km/s) = 4.83233 2.98765 4.01731
# Velocity P-wave (km/s) = 7.09006 6.28089 6.69771
#
# Compressibility (1/GPa) = 0.02970490
#
# Stress axis : x y z
#
# Youngs Moduli (GPa) = 35.57796 56.29406 63.46632
#
# Poissons Ratio (x) = 0.12806 0.65479
# Poissons Ratio (y) = 0.08093 0.21384
# Poissons Ratio (z) = 0.36706 0.18967
#
# Static dielectric constant tensor:
#      x y z
#    x 1.594800 0.000000 -0.018190 
#    y 0.000000 1.619150 0.000000 
#    z -0.018190 0.000000 1.602290 
# 
# From -- ./inp_files/240720.got.cif
#   From: 2010.05.17/outbox.cif.g08.bks.cpg/sg12_121_cif.got.tgz:240720.got - 2010.06.03 13:09:07.
