data_PCOD9204766
_publ_section_title
;
Structure prediction by ZEFSAII (Michael W. Deem and Ramdas Pophale) SiO2 
 PCOD9204766
Probable space group: C 2/M
;
_chemical_formula_sum "Si O2"
_cell_formula_units_Z 56
_cell_length_a 26.684584
_cell_length_b 20.410765
_cell_length_c 9.259334
_cell_angle_alpha 90.000000
_cell_angle_beta 147.184878
_cell_angle_gamma 90.000000
_cell_volume 2733.019280
_symmetry_space_group_name_H-M "C 2/M"
_symmetry_group_IT_number 12
_symmetry_cell_setting 'monoclinic'
loop_
_space_group_symop_operation_xyz
x,y,z
-x,y,-z
-x,-y,-z
x,-y,z
1/2+x,1/2+y,z
1/2-x,1/2+y,-z
1/2-x,1/2-y,-z
1/2+x,1/2-y,z
loop_
_atom_site_type_symbol
_atom_site_label
_atom_site_fract_x
_atom_site_fract_y
_atom_site_fract_z
Si Si1 0.962977 0.427203 0.748082
Si Si2 0.760153 0.178274 0.451465
Si Si3 0.761866 0.609706 0.333130
Si Si4 0.005927 0.704500 0.342252
Si Si5 0.545864 0.574529 0.769643
Si Si6 0.207828 0.748228 0.741384
Si Si7 0.953727 0.190773 0.031223
O O1 0.993831 0.500000 0.778899
O O2 0.850771 0.425850 0.482297
O O3 0.994617 0.368673 0.720175
O O4 0.000000 0.414716 0.000000
O O5 0.750000 0.250000 0.500000
O O6 0.710343 0.124482 0.430535
O O7 0.759504 0.191388 0.279409
O O8 0.864575 0.158867 0.742751
O O9 0.761182 0.681352 0.259429
O O10 0.659138 0.581408 0.051608
O O11 0.097889 0.740283 0.501631
O O12 0.000000 0.706916 0.500000
O O13 0.929600 0.750117 0.081602
O O14 0.500000 0.584581 0.500000
O O15 0.523641 0.500000 0.759999
O O16 0.505872 0.631213 0.776959
O O17 0.250000 0.750000 0.000000
O O18 0.000000 0.219895 0.000000
#
# Coordination Sequence:
#
# PCOD9204766 Si02
#       7
#     8   8   8   8   8   8   8
#     4  10  22  40  62  86 116 157 203 244 293 357
#     4   9  19  33  52  81 111 151 179 239 293 342
#     4   9  20  36  59  83 115 152 196 243 288 355
#     4  11  24  35  57  86 116 158 192 250 296 347
#     4  10  22  38  59  85 117 159 198 238 296 358
#     4  10  21  33  51  85 119 149 188 239 301 349
#     4  11  21  36  59  82 115 151 196 250 291 346
#
# _framework density 20.490159999999999
#
# number of rings (size 3 to 8) (size 9 to 14) (size 15 to 20)
#    0.000    2.000    1.429    1.286   12.000    0.571 
#    0.000    0.000    0.000    0.000    0.000   15.000 
#    0.000    0.000    0.000    0.000    0.000    0.000 
#
# Total GULP energy -155880.295962 kJ/mol
# GULP energy per Si atom -5567.153427 kJ/mol
# Density = 2.044352 g / cm^3
# Si number density = 20.490160 Si / 1000 Ang^3
#
#
#
# Elastic Constant Matrix: (Units=GPa)
#
#
# Indices 1 2 3 4 5 6 
#
# 1 83.9667 49.2983 36.1142 0.0000 -33.8058 0.0000
# 2 49.2983 110.6488 31.1919 0.0000 -31.5000 0.0000
# 3 36.1142 31.1919 96.4286 0.0000 -25.3994 0.0000
# 4 0.0000 0.0000 0.0000 23.7381 0.0000 -4.6175
# 5 -33.8058 -31.5000 -25.3994 0.0000 44.2652 0.0000
# 6 0.0000 0.0000 0.0000 -4.6175 0.0000 18.8279
#
#
#
# Elastic Compliance Matrix: (Units=1/GPa)
#
#
# Indices 1 2 3 4 5 6 
#
# 1 0.020482 -0.005365 -0.003323 0.000000 0.009917 0.000000
# 2 -0.005365 0.013016 -0.000990 0.000000 0.004597 0.000000
# 3 -0.003323 -0.000990 0.013054 0.000000 0.004248 0.000000
# 4 0.000000 0.000000 0.000000 0.044237 0.000000 0.010849
# 5 0.009917 0.004597 0.004248 0.000000 0.035874 0.000000
# 6 0.000000 0.000000 0.000000 0.010849 0.000000 0.055773
#
#
# Mechanical properties :
#
#
# Convention : Reuss Voigt Hill
#
# Bulk Modulus (GPa) = 36.77189 58.25032 47.51111
# Shear Modulus (GPa) = 23.71282 28.99554 26.35418
#
# Velocity S-wave (km/s) = 3.40557 3.76586 3.59024
# Velocity P-wave (km/s) = 5.78351 6.88470 6.35799
#
# Compressibility (1/GPa) = 0.02719468
#
# Stress axis : x y z
#
# Youngs Moduli (GPa) = 48.82448 76.83002 76.60432
#
# Poissons Ratio (x) = 0.41222 0.25455
# Poissons Ratio (y) = 0.26196 0.07584
# Poissons Ratio (z) = 0.16224 0.07607
#
# Static dielectric constant tensor:
#      x y z
#    x 2.083380 0.000000 0.216020 
#    y 0.000000 1.618090 0.000000 
#    z 0.216020 0.000000 1.972490 
# 
# From -- ./inp_files/76849.got.cif
#   From: 2010.05.17/outbox.cif.g08.bks.cpg/sg12_39_cif.got.tgz:76849.got - 2010.06.03 13:09:07.
