data_PCOD9204154
_publ_section_title
;
Structure prediction by ZEFSAII (Michael W. Deem and Ramdas Pophale) SiO2 
 PCOD9204154
Probable space group: C 2/M
;
_chemical_formula_sum "Si O2"
_cell_formula_units_Z 58
_cell_length_a 10.676616
_cell_length_b 16.867455
_cell_length_c 22.725630
_cell_angle_alpha 90.000000
_cell_angle_beta 140.536957
_cell_angle_gamma 90.000000
_cell_volume 2601.175128
_symmetry_space_group_name_H-M "C 2/M"
_symmetry_group_IT_number 12
_symmetry_cell_setting 'monoclinic'
loop_
_space_group_symop_operation_xyz
x,y,z
-x,y,-z
-x,-y,-z
x,-y,z
1/2+x,1/2+y,z
1/2-x,1/2+y,-z
1/2-x,1/2-y,-z
1/2+x,1/2-y,z
loop_
_atom_site_type_symbol
_atom_site_label
_atom_site_fract_x
_atom_site_fract_y
_atom_site_fract_z
Si Si1 0.901835 0.410620 0.629292
Si Si2 0.227992 0.742233 0.585177
Si Si3 0.837321 0.126285 0.144969
Si Si4 0.742370 0.324325 0.276246
Si Si5 0.711883 0.711809 0.051690
Si Si6 0.500000 0.000000 0.000000
Si Si7 0.898373 0.836009 0.296000
Si Si8 0.972187 0.411131 0.788820
O O1 0.824964 0.500000 0.590796
O O2 0.759226 0.334294 0.580162
O O3 0.077859 0.384502 0.650121
O O4 0.006286 0.411296 0.731474
O O5 0.295334 0.722474 0.676305
O O6 0.379341 0.685988 0.604002
O O7 0.000000 0.722234 0.500000
O O8 0.753747 0.213990 0.108611
O O9 0.886580 0.114729 0.231531
O O10 0.046269 0.129471 0.187412
O O11 0.673618 0.067772 0.063289
O O12 0.806490 0.252888 0.256831
O O13 0.880134 0.646353 0.123595
O O14 0.500000 0.681759 0.000000
O O15 0.750000 0.750000 0.000000
O O16 0.753974 0.883175 0.286210
O O17 0.992659 0.500000 0.820049
#
# Coordination Sequence:
#
# PCOD9204154 Si02
#       8
#     8   8   8   8   8   2   8   8
#     4  10  22  39  62  95 128 166 212 260 332 383
#     4  10  21  39  68  99 128 164 223 268 315 394
#     4  11  24  39  60  88 126 161 216 266 321 393
#     4  10  20  40  67  90 121 176 213 256 319 395
#     4  12  25  41  62  90 126 168 214 281 341 394
#     4  12  28  40  56 100 122 164 216 272 338 368
#     4  10  20  40  66  89 121 172 211 259 324 386
#     4  11  23  41  65  89 125 169 218 265 331 410
#
# _framework density 22.297615
#
# number of rings (size 3 to 8) (size 9 to 14) (size 15 to 20)
#    0.000    1.379    3.448    2.483    3.862    2.759 
#    0.000    0.000    0.000    0.828    0.000    0.000 
#    0.000    0.000    0.000    0.000    0.000    0.000 
#
# Total GULP energy -161511.635829 kJ/mol
# GULP energy per Si atom -5569.366753 kJ/mol
# Density = 2.224686 g / cm^3
# Si number density = 22.297615 Si / 1000 Ang^3
#
#
#
# Elastic Constant Matrix: (Units=GPa)
#
#
# Indices 1 2 3 4 5 6 
#
# 1 64.1557 22.4789 27.9999 0.0000 21.2399 0.0000
# 2 22.4789 131.9908 39.6554 0.0000 19.6215 0.0000
# 3 27.9999 39.6554 92.4013 0.0001 39.1513 0.0001
# 4 0.0000 0.0000 0.0001 14.4386 0.0000 2.5517
# 5 21.2399 19.6215 39.1513 0.0000 46.2185 0.0000
# 6 0.0000 0.0000 0.0001 2.5517 0.0000 13.2494
#
#
#
# Elastic Compliance Matrix: (Units=1/GPa)
#
#
# Indices 1 2 3 4 5 6 
#
# 1 0.019266 -0.001607 -0.002630 0.000000 -0.005944 0.000000
# 2 -0.001607 0.008852 -0.003171 0.000000 -0.000334 0.000000
# 3 -0.002630 -0.003171 0.018559 0.000000 -0.013166 0.000000
# 4 0.000000 0.000000 0.000000 0.071699 0.000000 -0.013808
# 5 -0.005944 -0.000334 -0.013166 0.000000 0.035662 0.000000
# 6 0.000000 0.000000 0.000000 -0.013808 0.000000 0.078134
#
#
# Mechanical properties :
#
#
# Convention : Reuss Voigt Hill
#
# Bulk Modulus (GPa) = 31.38643 52.09069 41.73856
# Shear Modulus (GPa) = 19.40928 28.00886 23.70907
#
# Velocity S-wave (km/s) = 2.95356 3.54805 3.26437
# Velocity P-wave (km/s) = 5.07327 6.34012 5.74174
#
# Compressibility (1/GPa) = 0.03186090
#
# Stress axis : x y z
#
# Youngs Moduli (GPa) = 51.90555 112.96608 53.88316
#
# Poissons Ratio (x) = 0.18158 0.14170
# Poissons Ratio (y) = 0.08343 0.17084
# Poissons Ratio (z) = 0.13650 0.35817
#
# Static dielectric constant tensor:
#      x y z
#    x 1.949470 0.000000 0.004360 
#    y 0.000000 1.790610 0.000000 
#    z 0.004360 0.000000 1.883950 
# 
# From -- ./inp_files/358824.got.cif
#   From: 2010.05.17/outbox.cif.g08.bks.cpg/sg12_180_cif.got.tgz:358824.got - 2010.06.03 13:09:07.
