data_PCOD9204610
_publ_section_title
;
Structure prediction by ZEFSAII (Michael W. Deem and Ramdas Pophale) SiO2 
 PCOD9204610
Probable space group: C 2/M
;
_chemical_formula_sum "Si O2"
_cell_formula_units_Z 50
_cell_length_a 18.620344
_cell_length_b 14.860574
_cell_length_c 8.993011
_cell_angle_alpha 90.000000
_cell_angle_beta 114.468028
_cell_angle_gamma 90.000000
_cell_volume 2264.965956
_symmetry_space_group_name_H-M "C 2/M"
_symmetry_group_IT_number 12
_symmetry_cell_setting 'monoclinic'
loop_
_space_group_symop_operation_xyz
x,y,z
-x,y,-z
-x,-y,-z
x,-y,z
1/2+x,1/2+y,z
1/2-x,1/2+y,-z
1/2-x,1/2-y,-z
1/2+x,1/2-y,z
loop_
_atom_site_type_symbol
_atom_site_label
_atom_site_fract_x
_atom_site_fract_y
_atom_site_fract_z
Si Si1 0.928978 0.722657 0.347124
Si Si2 0.323898 0.843365 0.799164
Si Si3 0.152077 0.871276 0.170369
Si Si4 0.317633 0.899161 0.455667
Si Si5 0.541505 0.101569 0.892710
Si Si6 0.500000 0.500000 0.000000
Si Si7 0.303820 0.666179 0.099515
O O1 0.863055 0.673402 0.391892
O O2 0.966384 0.649418 0.269150
O O3 0.889233 0.795863 0.209194
O O4 0.000000 0.762951 0.500000
O O5 0.349792 0.738266 0.823050
O O6 0.335749 0.880121 0.644242
O O7 0.234424 0.859515 0.776579
O O8 0.369465 0.893589 0.971866
O O9 0.223190 0.894187 0.345318
O O10 0.187861 0.894999 0.037149
O O11 0.067973 0.921340 0.105076
O O12 0.344293 0.000000 0.438957
O O13 0.512872 0.000000 0.854943
O O14 0.500000 0.145468 0.000000
O O15 0.250000 0.750000 0.000000
#
# Coordination Sequence:
#
# PCOD9204610 Si02
#       7
#     8   8   8   8   8   2   8
#     4  12  24  40  65 100 136 177 221 287 348 414
#     4  11  22  42  70  98 130 184 231 283 340 423
#     4  11  23  45  70  95 135 181 239 288 341 423
#     4  12  24  42  67 105 141 177 224 286 355 414
#     4  11  23  40  61  96 135 172 217 278 352 408
#     4  12  28  44  72 106 132 188 236 294 352 408
#     4  10  20  44  69  95 127 180 244 274 345 411
#
# _framework density 22.075389000000001
#
# number of rings (size 3 to 8) (size 9 to 14) (size 15 to 20)
#    0.000    0.800    7.200    2.400    1.120    3.840 
#    2.880    0.000    0.000    0.960    0.000    0.000 
#    0.000    0.000    0.000    0.000    0.000    0.000 
#
# Total GULP energy -139220.752371 kJ/mol
# GULP energy per Si atom -5568.830095 kJ/mol
# Density = 2.202514 g / cm^3
# Si number density = 22.075389 Si / 1000 Ang^3
#
#
#
# Elastic Constant Matrix: (Units=GPa)
#
#
# Indices 1 2 3 4 5 6 
#
# 1 50.2303 -3.8317 0.5593 0.0000 9.8255 0.0000
# 2 -3.8317 47.3730 1.8270 0.0000 11.1362 0.0000
# 3 0.5593 1.8270 86.7829 0.0000 15.1799 0.0000
# 4 0.0000 0.0000 0.0000 19.0308 0.0000 4.5327
# 5 9.8255 11.1362 15.1799 0.0000 46.2350 0.0000
# 6 0.0000 0.0000 0.0000 4.5327 0.0000 10.7406
#
#
#
# Elastic Compliance Matrix: (Units=1/GPa)
#
#
# Indices 1 2 3 4 5 6 
#
# 1 0.021196 0.002971 0.000757 0.000000 -0.005469 0.000000
# 2 0.002971 0.022813 0.000607 0.000000 -0.006325 0.000000
# 3 0.000757 0.000607 0.012263 0.000000 -0.004333 0.000000
# 4 0.000000 0.000000 0.000000 0.058418 0.000000 -0.024653
# 5 -0.005469 -0.006325 -0.004333 0.000000 0.025737 0.000000
# 6 0.000000 0.000000 0.000000 -0.024653 0.000000 0.103509
#
#
# Mechanical properties :
#
#
# Convention : Reuss Voigt Hill
#
# Bulk Modulus (GPa) = 15.39815 20.16615 17.78215
# Shear Modulus (GPa) = 19.46179 27.59007 23.52593
#
# Velocity S-wave (km/s) = 2.97241 3.53910 3.26806
# Velocity P-wave (km/s) = 4.33251 5.08481 4.72366
#
# Compressibility (1/GPa) = 0.06494286
#
# Stress axis : x y z
#
# Youngs Moduli (GPa) = 47.17822 43.83491 81.54376
#
# Poissons Ratio (x) = -0.13022 -0.06176
# Poissons Ratio (y) = -0.14016 -0.04950
# Poissons Ratio (z) = -0.03573 -0.02661
#
# Static dielectric constant tensor:
#      x y z
#    x 2.040490 0.000000 0.065620 
#    y 0.000000 1.875300 0.000000 
#    z 0.065620 0.000000 1.802960 
# 
# From -- ./inp_files/76073.got.cif
#   From: 2010.05.17/outbox.cif.g08.bks.cpg/sg12_39_cif.got.tgz:76073.got - 2010.06.03 13:09:07.
