data_PCOD9204481
_publ_section_title
;
Structure prediction by ZEFSAII (Michael W. Deem and Ramdas Pophale) SiO2 
 PCOD9204481
Probable space group: C 2/M
;
_chemical_formula_sum "Si O2"
_cell_formula_units_Z 40
_cell_length_a 10.161231
_cell_length_b 25.418831
_cell_length_c 16.620551
_cell_angle_alpha 90.000000
_cell_angle_beta 29.727549
_cell_angle_gamma 90.000000
_cell_volume 2128.730285
_symmetry_space_group_name_H-M "C 2/M"
_symmetry_group_IT_number 12
_symmetry_cell_setting 'monoclinic'
loop_
_space_group_symop_operation_xyz
x,y,z
-x,y,-z
-x,-y,-z
x,-y,z
1/2+x,1/2+y,z
1/2-x,1/2+y,-z
1/2-x,1/2-y,-z
1/2+x,1/2-y,z
loop_
_atom_site_type_symbol
_atom_site_label
_atom_site_fract_x
_atom_site_fract_y
_atom_site_fract_z
Si Si1 0.769098 0.000000 0.690264
Si Si2 0.478164 0.683248 0.108272
Si Si3 0.964681 0.109977 0.614736
Si Si4 0.961191 0.695331 0.115626
Si Si5 0.198298 0.500000 0.189569
Si Si6 0.961683 0.598185 0.614094
O O1 0.821121 0.945932 0.710319
O O2 0.496977 0.000000 0.784288
O O3 0.000000 0.000000 0.500000
O O4 0.420463 0.743962 0.162705
O O5 0.253330 0.644645 0.261106
O O6 0.500000 0.678851 0.000000
O O7 0.771502 0.672599 0.986649
O O8 0.782566 0.158413 0.734917
O O9 0.000000 0.111286 0.500000
O O10 0.249590 0.113332 0.505133
O O11 0.000000 0.696486 0.000000
O O12 0.136088 0.550277 0.278147
O O13 0.500000 0.500000 0.000000
O O14 0.000000 0.584137 0.500000
#
# Coordination Sequence:
#
# PCOD9204481 Si02
#       6
#     4   8   8   8   4   8
#     4  10  20  42  62  88 121 157 206 244 301 367
#     4  10  22  40  61  88 125 162 206 248 300 369
#     4  11  21  39  65  84 121 165 203 249 304 368
#     4  10  22  40  60  88 125 162 200 257 306 352
#     4  12  25  42  66  92 121 166 207 248 306 376
#     4  12  24  39  62  94 126 155 201 262 303 353
#
# _framework density 18.790544000000001
#
# number of rings (size 3 to 8) (size 9 to 14) (size 15 to 20)
#    0.000    1.200    4.000    3.300    2.800    1.600 
#    0.000    0.500    0.000    0.000    0.000    0.000 
#    0.000    0.000    0.000    0.000    0.000    0.000 
#
# Total GULP energy -111725.572929 kJ/mol
# GULP energy per Si atom -5586.278646 kJ/mol
# Density = 1.874778 g / cm^3
# Si number density = 18.790544 Si / 1000 Ang^3
#
#
#
# Elastic Constant Matrix: (Units=GPa)
#
#
# Indices 1 2 3 4 5 6 
#
# 1 106.0752 13.9954 49.1645 0.0068 -36.6999 0.0024
# 2 13.9954 104.9735 75.1197 0.0031 -24.3404 0.0019
# 3 49.1645 75.1197 123.6509 -0.0164 -37.2927 -0.0051
# 4 0.0068 0.0031 -0.0164 66.6580 -0.0014 28.5870
# 5 -36.6999 -24.3404 -37.2927 -0.0014 37.6451 -0.0015
# 6 0.0024 0.0019 -0.0051 28.5870 -0.0015 54.2818
#
#
#
# Elastic Compliance Matrix: (Units=1/GPa)
#
#
# Indices 1 2 3 4 5 6 
#
# 1 0.015780 0.004601 -0.005038 -0.000003 0.013368 0.000001
# 2 0.004601 0.018225 -0.011401 -0.000004 0.004975 0.000000
# 3 -0.005038 -0.011401 0.018984 0.000006 0.006524 -0.000001
# 4 -0.000003 -0.000004 0.000006 0.019379 0.000001 -0.010206
# 5 0.013368 0.004975 0.006524 0.000001 0.049276 0.000001
# 6 0.000001 0.000000 -0.000001 -0.010206 0.000001 0.023797
#
#
# Mechanical properties :
#
#
# Convention : Reuss Voigt Hill
#
# Bulk Modulus (GPa) = 34.11334 67.91765 51.01549
# Shear Modulus (GPa) = 27.95065 44.81166 36.38116
#
# Velocity S-wave (km/s) = 3.86098 4.88874 4.40493
# Velocity P-wave (km/s) = 6.17010 8.25163 7.28559
#
# Compressibility (1/GPa) = 0.02931405
#
# Stress axis : x y z
#
# Youngs Moduli (GPa) = 63.37019 54.87037 52.67647
#
# Poissons Ratio (x) = -0.25245 0.26536
# Poissons Ratio (y) = -0.29155 0.60055
# Poissons Ratio (z) = 0.31923 0.62556
#
# Static dielectric constant tensor:
#      x y z
#    x 1.637250 0.000000 -0.001240 
#    y 0.000000 1.690540 0.000000 
#    z -0.001240 0.000000 1.603820 
# 
# From -- ./inp_files/201138.got.cif
#   From: 2010.05.17/outbox.cif.g08.bks.cpg/sg12_101_cif.got.tgz:201138.got - 2010.06.03 13:09:07.
