data_PCOD9204963
_publ_section_title
;
Structure prediction by ZEFSAII (Michael W. Deem and Ramdas Pophale) SiO2 
 PCOD9204963
Probable space group: C 2/M
;
_chemical_formula_sum "Si O2"
_cell_formula_units_Z 34
_cell_length_a 14.223080
_cell_length_b 12.384879
_cell_length_c 22.665081
_cell_angle_alpha 90.000000
_cell_angle_beta 150.114699
_cell_angle_gamma 90.000000
_cell_volume 1989.314100
_symmetry_space_group_name_H-M "C 2/M"
_symmetry_group_IT_number 12
_symmetry_cell_setting 'monoclinic'
loop_
_space_group_symop_operation_xyz
x,y,z
-x,y,-z
-x,-y,-z
x,-y,z
1/2+x,1/2+y,z
1/2-x,1/2+y,-z
1/2-x,1/2-y,-z
1/2+x,1/2-y,z
loop_
_atom_site_type_symbol
_atom_site_label
_atom_site_fract_x
_atom_site_fract_y
_atom_site_fract_z
Si Si1 0.924567 0.750727 0.680568
Si Si2 0.804010 0.371679 0.861349
Si Si3 0.500000 0.500000 0.500000
Si Si4 0.073961 0.625713 0.437263
Si Si5 0.210792 0.190446 0.680143
O O1 0.921005 0.656063 0.629472
O O2 0.771771 0.836902 0.573112
O O3 0.128178 0.805933 0.792245
O O4 0.086725 0.701966 0.622418
O O5 0.771396 0.500000 0.849218
O O6 0.807582 0.340523 0.794288
O O7 0.000000 0.345394 0.000000
O O8 0.571464 0.594829 0.584914
O O9 0.040185 0.500000 0.428035
O O10 0.644073 0.791980 0.294060
#
# Coordination Sequence:
#
# PCOD9204963 Si02
#       5
#     8   8   2   8   8
#     4  10  21  34  55  84 108 156 179 229 284 330
#     4  10  22  39  57  79 110 151 195 235 269 324
#     4  12  20  36  60  92 114 142 192 224 280 364
#     4  10  21  34  53  87 120 142 180 227 292 341
#     4  11  22  36  60  84 117 148 179 236 280 339
#
# _framework density 17.091318000000001
#
# number of rings (size 3 to 8) (size 9 to 14) (size 15 to 20)
#    0.000    1.647    3.529    0.706    1.647    3.765 
#    0.000    0.000    0.000   11.294    0.000    0.000 
#    0.000    0.000    0.000    0.000    0.000    0.000 
#
# Total GULP energy -94680.017239 kJ/mol
# GULP energy per Si atom -5569.412779 kJ/mol
# Density = 1.705242 g / cm^3
# Si number density = 17.091318 Si / 1000 Ang^3
#
#
#
# Elastic Constant Matrix: (Units=GPa)
#
#
# Indices 1 2 3 4 5 6 
#
# 1 75.9032 4.6562 -1.0274 -0.0001 -9.0378 -0.0001
# 2 4.6562 111.6947 17.6432 -0.0001 -9.2108 -0.0001
# 3 -1.0274 17.6432 91.3908 0.0008 -12.8054 0.0004
# 4 -0.0001 -0.0001 0.0008 14.1894 0.0001 -9.3584
# 5 -9.0378 -9.2108 -12.8054 0.0001 20.0857 0.0000
# 6 -0.0001 -0.0001 0.0004 -9.3584 0.0000 -2.7772
#
#
#
# Elastic Compliance Matrix: (Units=1/GPa)
#
#
# Indices 1 2 3 4 5 6 
#
# 1 0.014033 -0.000195 0.001172 0.000000 0.006972 0.000000
# 2 -0.000195 0.009454 -0.001353 0.000000 0.003385 0.000000
# 3 0.001172 -0.001353 0.012302 0.000000 0.007750 0.000001
# 4 0.000000 0.000000 0.000000 0.021870 0.000000 -0.073696
# 5 0.006972 0.003385 0.007750 0.000000 0.059417 0.000001
# 6 0.000000 0.000000 0.000001 -0.073696 0.000001 -0.111739
#
#
# Mechanical properties :
#
#
# Convention : Reuss Voigt Hill
#
# Bulk Modulus (GPa) = 28.54109 35.72587 32.13348
# Shear Modulus (GPa) = 281.40936 23.48070 152.44503
#
# Velocity S-wave (km/s) = 12.84554 3.71055 9.45453
# Velocity P-wave (km/s) = 15.38655 6.26944 11.74844
#
# Compressibility (1/GPa) = 0.03503720
#
# Stress axis : x y z
#
# Youngs Moduli (GPa) = 71.26220 105.77571 81.28531
#
# Poissons Ratio (x) = 0.02065 -0.09529
# Poissons Ratio (y) = 0.01391 0.10998
# Poissons Ratio (z) = -0.08354 0.14312
#
# Static dielectric constant tensor:
#      x y z
#    x 1.605760 0.000000 -0.002180 
#    y 0.000000 1.553730 0.000000 
#    z -0.002180 0.000000 1.562740 
# 
# From -- ./inp_files/339394.got.cif
#   From: 2010.05.17/outbox.cif.g08.bks.cpg/sg12_170_cif.got.tgz:339394.got - 2010.06.03 13:09:07.
