data_PCOD9204932
_publ_section_title
;
Structure prediction by ZEFSAII (Michael W. Deem and Ramdas Pophale) SiO2 
 PCOD9204932
Probable space group: C 2/M
;
_chemical_formula_sum "Si O2"
_cell_formula_units_Z 48
_cell_length_a 33.480967
_cell_length_b 12.708379
_cell_length_c 9.257914
_cell_angle_alpha 90.000000
_cell_angle_beta 143.736324
_cell_angle_gamma 90.000000
_cell_volume 2330.009012
_symmetry_space_group_name_H-M "C 2/M"
_symmetry_group_IT_number 12
_symmetry_cell_setting 'monoclinic'
loop_
_space_group_symop_operation_xyz
x,y,z
-x,y,-z
-x,-y,-z
x,-y,z
1/2+x,1/2+y,z
1/2-x,1/2+y,-z
1/2-x,1/2-y,-z
1/2+x,1/2-y,z
loop_
_atom_site_type_symbol
_atom_site_label
_atom_site_fract_x
_atom_site_fract_y
_atom_site_fract_z
Si Si1 0.614901 0.626721 0.348227
Si Si2 0.182019 0.117535 0.001085
Si Si3 0.548029 0.320971 0.446780
Si Si4 0.249116 0.126470 0.916089
Si Si5 0.598970 0.121894 0.755486
Si Si6 0.099394 0.782843 0.992320
O O1 0.609859 0.500000 0.304031
O O2 0.562053 0.657908 0.319417
O O3 0.688238 0.651422 0.630124
O O4 0.605865 0.696643 0.179692
O O5 0.109461 0.119756 0.706013
O O6 0.233568 0.166488 0.034596
O O7 0.164762 0.173011 0.100146
O O8 0.203056 0.000000 0.096861
O O9 0.559027 0.200778 0.532891
O O10 0.470071 0.344476 0.252414
O O11 0.240464 0.000000 0.911670
O O12 0.323579 0.136620 0.069565
O O13 0.592187 0.168191 0.897774
O O14 0.580675 0.000000 0.691752
#
# Coordination Sequence:
#
# PCOD9204932 Si02
#       6
#     8   8   8   8   8   8
#     4  10  21  37  56  81 116 145 167 213 273 333
#     4   9  17  30  50  77 107 135 173 224 264 314
#     4  10  21  34  52  79 105 142 188 214 258 328
#     4   8  17  35  56  78 103 140 184 217 267 325
#     4  10  21  39  59  76 104 143 186 238 268 291
#     4  11  22  32  51  83 109 140 182 213 264 332
#
# _framework density 20.600777000000001
#
# number of rings (size 3 to 8) (size 9 to 14) (size 15 to 20)
#    0.000    2.333    0.000    4.500    0.000   12.000 
#    0.000    0.833    0.000    6.000    0.000    1.167 
#    0.000    0.000    0.000    0.000    0.000    0.000 
#
# Total GULP energy -133772.181467 kJ/mol
# GULP energy per Si atom -5573.840894 kJ/mol
# Density = 2.055389 g / cm^3
# Si number density = 20.600777 Si / 1000 Ang^3
#
#
#
# Elastic Constant Matrix: (Units=GPa)
#
#
# Indices 1 2 3 4 5 6 
#
# 1 131.9263 22.4244 28.2055 0.0000 -1.8016 0.0000
# 2 22.4244 83.8806 -1.0246 0.0000 -3.3656 0.0000
# 3 28.2055 -1.0246 38.5343 0.0000 10.0737 0.0000
# 4 0.0000 0.0000 0.0000 10.9909 0.0000 -4.8297
# 5 -1.8016 -3.3656 10.0737 0.0000 35.8241 0.0000
# 6 0.0000 0.0000 0.0000 -4.8297 0.0000 21.8605
#
#
#
# Elastic Compliance Matrix: (Units=1/GPa)
#
#
# Indices 1 2 3 4 5 6 
#
# 1 0.009729 -0.002598 -0.007830 0.000000 0.002447 0.000000
# 2 -0.002598 0.012661 0.002117 0.000000 0.000463 0.000000
# 3 -0.007830 0.002117 0.034312 0.000000 -0.009843 0.000000
# 4 0.000000 0.000000 0.000000 0.100767 0.000000 0.022263
# 5 0.002447 0.000463 -0.009843 0.000000 0.030849 0.000000
# 6 0.000000 0.000000 0.000000 0.022263 0.000000 0.050663
#
#
# Mechanical properties :
#
#
# Convention : Reuss Voigt Hill
#
# Bulk Modulus (GPa) = 24.95038 39.28355 32.11697
# Shear Modulus (GPa) = 18.58993 27.38416 22.98705
#
# Velocity S-wave (km/s) = 3.00724 3.64988 3.34403
# Velocity P-wave (km/s) = 4.91891 6.07228 5.52577
#
# Compressibility (1/GPa) = 0.04007954
#
# Stress axis : x y z
#
# Youngs Moduli (GPa) = 102.78406 78.98382 29.14450
#
# Poissons Ratio (x) = 0.20523 0.22820
# Poissons Ratio (y) = 0.26708 -0.06171
# Poissons Ratio (z) = 0.80481 -0.16724
#
# Static dielectric constant tensor:
#      x y z
#    x 1.765420 0.000000 0.011890 
#    y 0.000000 1.818730 0.000000 
#    z 0.011890 0.000000 1.726900 
# 
# From -- ./inp_files/111779.got.cif
#   From: 2010.05.17/outbox.cif.g08.bks.cpg/sg12_56_cif.got.tgz:111779.got - 2010.06.03 13:09:07.
