data_PCOD9204536
_publ_section_title
;
Structure prediction by ZEFSAII (Michael W. Deem and Ramdas Pophale) SiO2 
 PCOD9204536
Probable space group: C 2/M
;
_chemical_formula_sum "Si O2"
_cell_formula_units_Z 32
_cell_length_a 5.052043
_cell_length_b 25.484183
_cell_length_c 12.343598
_cell_angle_alpha 90.000000
_cell_angle_beta 78.198099
_cell_angle_gamma 90.000000
_cell_volume 1555.608732
_symmetry_space_group_name_H-M "C 2/M"
_symmetry_group_IT_number 12
_symmetry_cell_setting 'monoclinic'
loop_
_space_group_symop_operation_xyz
x,y,z
-x,y,-z
-x,-y,-z
x,-y,z
1/2+x,1/2+y,z
1/2-x,1/2+y,-z
1/2-x,1/2-y,-z
1/2+x,1/2-y,z
loop_
_atom_site_type_symbol
_atom_site_label
_atom_site_fract_x
_atom_site_fract_y
_atom_site_fract_z
Si Si1 0.998191 0.941459 0.291268
Si Si2 0.500000 0.788342 0.000000
Si Si3 0.958065 0.616492 0.375502
Si Si4 0.289395 0.500000 0.921038
Si Si5 0.156012 0.286416 0.759099
O O1 0.744059 0.903195 0.303531
O O2 0.217381 0.922010 0.359029
O O3 0.894634 0.000000 0.329135
O O4 0.152292 0.951118 0.164399
O O5 0.435950 0.814660 0.120429
O O6 0.250000 0.750000 0.000000
O O7 0.871511 0.672322 0.334211
O O8 0.000000 0.618003 0.500000
O O9 0.500000 0.500000 0.000000
O O10 0.000000 0.500000 0.000000
O O11 0.450574 0.261589 0.752572
#
# Coordination Sequence:
#
# PCOD9204536 Si02
#       5
#     8   4   8   4   8
#     4  10  24  42  62  92 124 162 208 256 316 360
#     4   8  16  34  58  78 109 150 193 250 304 360
#     4  12  24  40  62  93 126 167 218 253 299 378
#     4  10  20  42  67  88 127 162 200 259 315 373
#     4  10  21  39  60  86 122 160 206 259 314 362
#
# _framework density 20.570723999999998
#
# number of rings (size 3 to 8) (size 9 to 14) (size 15 to 20)
#    0.750    1.000    0.000    4.500    0.000    4.000 
#    6.750    0.000    0.000    0.000    0.000    0.000 
#    0.000    0.000    0.000    0.000    0.000    0.000 
#
# Total GULP energy -89270.044622 kJ/mol
# GULP energy per Si atom -5579.377789 kJ/mol
# Density = 2.052390 g / cm^3
# Si number density = 20.570724 Si / 1000 Ang^3
#
#
#
# Elastic Constant Matrix: (Units=GPa)
#
#
# Indices 1 2 3 4 5 6 
#
# 1 92.7544 -6.9055 4.6825 0.0000 9.5461 0.0000
# 2 -6.9055 40.6466 24.3750 0.0000 3.2799 0.0000
# 3 4.6825 24.3750 92.7516 0.0000 19.5243 0.0000
# 4 0.0000 0.0000 0.0000 35.1368 0.0000 17.0548
# 5 9.5461 3.2799 19.5243 0.0000 38.7584 0.0000
# 6 0.0000 0.0000 0.0000 17.0548 0.0000 35.3006
#
#
#
# Elastic Compliance Matrix: (Units=1/GPa)
#
#
# Indices 1 2 3 4 5 6 
#
# 1 0.011277 0.002536 -0.000678 0.000000 -0.002651 0.000000
# 2 0.002536 0.029860 -0.008179 0.000000 0.000969 0.000000
# 3 -0.000678 -0.008179 0.014301 0.000000 -0.006345 0.000000
# 4 0.000000 0.000000 0.000000 0.037179 0.000000 -0.017962
# 5 -0.002651 0.000969 -0.006345 0.000000 0.029568 0.000000
# 6 0.000000 0.000000 0.000000 -0.017962 0.000000 0.037006
#
#
# Mechanical properties :
#
#
# Convention : Reuss Voigt Hill
#
# Bulk Modulus (GPa) = 23.36655 30.05073 26.70864
# Shear Modulus (GPa) = 26.86766 35.43920 31.15343
#
# Velocity S-wave (km/s) = 3.61794 4.15516 3.89582
# Velocity P-wave (km/s) = 5.36995 6.13683 5.76616
#
# Compressibility (1/GPa) = 0.04279622
#
# Stress axis : x y z
#
# Youngs Moduli (GPa) = 88.67604 33.48976 69.92642
#
# Poissons Ratio (x) = -0.08494 0.04740
# Poissons Ratio (y) = -0.22490 0.57193
# Poissons Ratio (z) = 0.06011 0.27392
#
# Static dielectric constant tensor:
#      x y z
#    x 1.691990 0.000000 -0.036810 
#    y 0.000000 1.735970 0.000000 
#    z -0.036810 0.000000 1.762780 
# 
# From -- ./inp_files/114847.got.cif
#   From: 2010.05.17/outbox.cif.g08.bks.cpg/sg12_58_cif.got.tgz:114847.got - 2010.06.03 13:09:07.
