data_PCOD9204075
_publ_section_title
;
Structure prediction by ZEFSAII (Michael W. Deem and Ramdas Pophale) SiO2 
 PCOD9204075
Probable space group: C 2/M
;
_chemical_formula_sum "Si O2"
_cell_formula_units_Z 36
_cell_length_a 10.225975
_cell_length_b 14.957467
_cell_length_c 20.451495
_cell_angle_alpha 90.000000
_cell_angle_beta 145.379885
_cell_angle_gamma 90.000000
_cell_volume 1777.205383
_symmetry_space_group_name_H-M "C 2/M"
_symmetry_group_IT_number 12
_symmetry_cell_setting 'monoclinic'
loop_
_space_group_symop_operation_xyz
x,y,z
-x,y,-z
-x,-y,-z
x,-y,z
1/2+x,1/2+y,z
1/2-x,1/2+y,-z
1/2-x,1/2-y,-z
1/2+x,1/2-y,z
loop_
_atom_site_type_symbol
_atom_site_label
_atom_site_fract_x
_atom_site_fract_y
_atom_site_fract_z
Si Si1 0.111028 0.000000 0.847427
Si Si2 0.276501 0.500000 0.954383
Si Si3 0.321608 0.169918 0.483713
Si Si4 0.362407 0.328226 0.218839
Si Si5 0.919832 0.698620 0.121362
Si Si6 0.938060 0.500000 0.396999
O O1 0.832572 0.000000 0.725706
O O2 0.213984 0.086636 0.854913
O O3 0.155486 0.000000 0.941895
O O4 0.147037 0.595118 0.892706
O O5 0.500000 0.500000 0.000000
O O6 0.500000 0.196641 0.500000
O O7 0.250000 0.250000 0.500000
O O8 0.440308 0.091204 0.574576
O O9 0.089542 0.141417 0.351167
O O10 0.416052 0.251561 0.188136
O O11 0.168105 0.298849 0.189361
O O12 0.750000 0.750000 0.000000
O O13 0.000000 0.500000 0.500000
#
# Coordination Sequence:
#
# PCOD9204075 Si02
#       6
#     4   4   8   8   8   4
#     4  12  23  42  73  93 128 178 231 267 335 405
#     4  12  27  44  65  97 137 176 221 285 339 385
#     4  11  22  41  67  98 131 169 218 273 332 395
#     4  12  24  42  67  98 129 179 221 272 334 400
#     4  12  26  42  65  97 137 173 229 276 332 398
#     4  10  20  40  65 102 125 168 218 276 323 403
#
# _framework density 20.256523000000001
#
# number of rings (size 3 to 8) (size 9 to 14) (size 15 to 20)
#    0.000    0.444    6.667    4.000    0.000    0.889 
#    0.000    0.556    0.000    0.000    0.000    0.000 
#    0.000    0.000    0.000    0.000    0.000    0.000 
#
# Total GULP energy -100623.428583 kJ/mol
# GULP energy per Si atom -5590.190477 kJ/mol
# Density = 2.021042 g / cm^3
# Si number density = 20.256523 Si / 1000 Ang^3
#
#
#
# Elastic Constant Matrix: (Units=GPa)
#
#
# Indices 1 2 3 4 5 6 
#
# 1 144.0603 55.7603 9.1009 0.0000 27.6317 0.0000
# 2 55.7603 150.0903 -2.3290 -0.0001 4.7832 0.0000
# 3 9.1009 -2.3290 39.5787 0.0003 18.7260 0.0001
# 4 0.0000 -0.0001 0.0003 30.8364 0.0001 2.4733
# 5 27.6317 4.7832 18.7260 0.0001 35.8290 0.0000
# 6 0.0000 0.0000 0.0001 2.4733 0.0000 33.3141
#
#
#
# Elastic Compliance Matrix: (Units=1/GPa)
#
#
# Indices 1 2 3 4 5 6 
#
# 1 0.009601 -0.003307 0.001185 0.000000 -0.007582 0.000000
# 2 -0.003307 0.007865 0.000682 0.000000 0.001144 0.000000
# 3 0.001185 0.000682 0.033889 0.000000 -0.018717 0.000000
# 4 0.000000 0.000000 0.000000 0.032623 0.000000 -0.002422
# 5 -0.007582 0.001144 -0.018717 0.000000 0.043388 0.000000
# 6 0.000000 0.000000 0.000000 -0.002422 0.000000 0.030197
#
#
# Mechanical properties :
#
#
# Convention : Reuss Voigt Hill
#
# Bulk Modulus (GPa) = 20.62852 50.97709 35.80280
# Shear Modulus (GPa) = 28.31220 38.07570 33.19395
#
# Velocity S-wave (km/s) = 3.74262 4.34023 4.05245
# Velocity P-wave (km/s) = 5.37420 7.09487 6.29361
#
# Compressibility (1/GPa) = 0.04847658
#
# Stress axis : x y z
#
# Youngs Moduli (GPa) = 104.15628 127.14044 29.50767
#
# Poissons Ratio (x) = 0.42043 -0.03497
# Poissons Ratio (y) = 0.34443 -0.02013
# Poissons Ratio (z) = -0.12344 -0.08672
#
# Static dielectric constant tensor:
#      x y z
#    x 1.689280 0.000000 -0.016950 
#    y 0.000000 1.793890 0.000000 
#    z -0.016950 0.000000 1.764930 
# 
# From -- ./inp_files/300256.got.cif
#   From: 2010.05.17/outbox.cif.g08.bks.cpg/sg12_151_cif.got.tgz:300256.got - 2010.06.03 13:09:07.
