data_PCOD9204488
_publ_section_title
;
Structure prediction by ZEFSAII (Michael W. Deem and Ramdas Pophale) SiO2 
 PCOD9204488
Probable space group: C 2/M
;
_chemical_formula_sum "Si O2"
_cell_formula_units_Z 52
_cell_length_a 14.131274
_cell_length_b 27.352918
_cell_length_c 18.425359
_cell_angle_alpha 90.000000
_cell_angle_beta 157.682243
_cell_angle_gamma 90.000000
_cell_volume 2704.522380
_symmetry_space_group_name_H-M "C 2/M"
_symmetry_group_IT_number 12
_symmetry_cell_setting 'monoclinic'
loop_
_space_group_symop_operation_xyz
x,y,z
-x,y,-z
-x,-y,-z
x,-y,z
1/2+x,1/2+y,z
1/2-x,1/2+y,-z
1/2-x,1/2-y,-z
1/2+x,1/2-y,z
loop_
_atom_site_type_symbol
_atom_site_label
_atom_site_fract_x
_atom_site_fract_y
_atom_site_fract_z
Si Si1 0.802763 0.000000 0.470513
Si Si2 0.917252 0.599978 0.631285
Si Si3 0.076556 0.841110 0.747345
Si Si4 0.284649 0.763297 0.182624
Si Si5 0.266069 0.340186 0.974452
Si Si6 0.139909 0.500000 0.189239
Si Si7 0.187789 0.642676 0.699600
Si Si8 0.500000 0.911789 0.000000
O O1 0.701047 0.047871 0.437516
O O2 0.700033 0.000000 0.315859
O O3 0.101157 0.000000 0.672788
O O4 0.693270 0.634648 0.445460
O O5 0.122931 0.602319 0.713832
O O6 0.048672 0.622912 0.795552
O O7 0.062454 0.786372 0.706303
O O8 0.191831 0.836608 0.910044
O O9 0.261176 0.876632 0.833774
O O10 0.353621 0.805436 0.288850
O O11 0.292266 0.789517 0.109317
O O12 0.000000 0.749642 0.000000
O O13 0.528792 0.357826 0.126423
O O14 0.003550 0.549982 0.069415
O O15 0.000000 0.638120 0.500000
#
# Coordination Sequence:
#
# PCOD9204488 Si02
#       8
#     4   8   8   8   8   4   8   4
#     4  11  22  42  60  90 114 155 200 251 293 359
#     4  11  23  40  63  89 116 154 204 245 298 359
#     4  12  21  38  61  90 126 155 205 243 287 347
#     4   9  20  37  57  89 126 159 198 241 287 349
#     4  10  22  40  62  85 121 166 194 242 299 353
#     4  10  22  40  62  80 125 159 195 239 310 349
#     4  10  20  42  63  85 121 160 194 241 305 353
#     4  11  22  38  60  92 118 164 194 247 292 354
#
# _framework density 19.227055
#
# number of rings (size 3 to 8) (size 9 to 14) (size 15 to 20)
#    0.000    1.538    3.846    2.769    0.000    2.462 
#    5.538    1.923    0.000    0.000    0.000    0.000 
#    0.000    0.000    0.000    0.000    0.000    0.000 
#
# Total GULP energy -145175.894359 kJ/mol
# GULP energy per Si atom -5583.688245 kJ/mol
# Density = 1.918329 g / cm^3
# Si number density = 19.227055 Si / 1000 Ang^3
#
#
#
# Elastic Constant Matrix: (Units=GPa)
#
#
# Indices 1 2 3 4 5 6 
#
# 1 44.2190 12.7401 -11.6758 0.0001 -9.1698 0.0006
# 2 12.7401 97.5752 11.5474 0.0003 7.3790 0.0002
# 3 -11.6758 11.5474 44.5250 -0.0015 -10.3239 0.0035
# 4 0.0001 0.0003 -0.0015 19.6223 -0.0005 6.3701
# 5 -9.1698 7.3790 -10.3239 -0.0005 33.5663 0.0016
# 6 0.0006 0.0002 0.0035 6.3701 0.0016 6.8982
#
#
#
# Elastic Compliance Matrix: (Units=1/GPa)
#
#
# Indices 1 2 3 4 5 6 
#
# 1 0.030839 -0.006618 0.013023 0.000007 0.013885 -0.000019
# 2 -0.006618 0.012369 -0.006453 -0.000003 -0.006512 0.000008
# 3 0.013023 -0.006453 0.030906 0.000013 0.014482 -0.000032
# 4 0.000007 -0.000003 0.000013 0.072781 0.000011 -0.067209
# 5 0.013885 -0.006512 0.014482 0.000011 0.039470 -0.000027
# 6 -0.000019 0.000008 -0.000032 -0.067209 -0.000027 0.207029
#
#
# Mechanical properties :
#
#
# Convention : Reuss Voigt Hill
#
# Bulk Modulus (GPa) = 13.51032 23.50475 18.50753
# Shear Modulus (GPa) = 11.95706 23.59787 17.77747
#
# Velocity S-wave (km/s) = 2.49647 3.50712 3.04403
# Velocity P-wave (km/s) = 3.91814 5.35269 4.69058
#
# Compressibility (1/GPa) = 0.07401749
#
# Stress axis : x y z
#
# Youngs Moduli (GPa) = 32.42619 80.84944 32.35657
#
# Poissons Ratio (x) = 0.53504 -0.42137
# Poissons Ratio (y) = 0.21459 0.20880
# Poissons Ratio (z) = -0.42228 0.52172
#
# Static dielectric constant tensor:
#      x y z
#    x 1.672250 0.000000 -0.000020 
#    y 0.000000 1.651920 0.000000 
#    z -0.000020 0.000000 1.659900 
# 
# From -- ./inp_files/312699.got.cif
#   From: 2010.05.17/outbox.cif.g08.bks.cpg/sg12_157_cif.got.tgz:312699.got - 2010.06.03 13:09:07.
