data_PCOD9204173
_publ_section_title
;
Structure prediction by ZEFSAII (Michael W. Deem and Ramdas Pophale) SiO2 
 PCOD9204173
Probable space group: C 2/M
;
_chemical_formula_sum "Si O2"
_cell_formula_units_Z 38
_cell_length_a 18.329218
_cell_length_b 14.083650
_cell_length_c 21.093860
_cell_angle_alpha 90.000000
_cell_angle_beta 160.835168
_cell_angle_gamma 90.000000
_cell_volume 1787.593681
_symmetry_space_group_name_H-M "C 2/M"
_symmetry_group_IT_number 12
_symmetry_cell_setting 'monoclinic'
loop_
_space_group_symop_operation_xyz
x,y,z
-x,y,-z
-x,-y,-z
x,-y,z
1/2+x,1/2+y,z
1/2-x,1/2+y,-z
1/2-x,1/2-y,-z
1/2+x,1/2-y,z
loop_
_atom_site_type_symbol
_atom_site_label
_atom_site_fract_x
_atom_site_fract_y
_atom_site_fract_z
Si Si1 0.024164 0.803186 0.837206
Si Si2 0.498482 0.500000 0.618301
Si Si3 0.554127 0.293499 0.472322
Si Si4 0.000000 0.000000 0.000000
Si Si5 0.626191 0.500000 0.858299
Si Si6 0.483688 0.000000 0.720749
Si Si7 0.219759 0.651656 0.831724
O O1 0.006115 0.902267 0.783068
O O2 0.803595 0.738751 0.656612
O O3 0.250000 0.750000 0.000000
O O4 0.078439 0.829501 0.954381
O O5 0.495013 0.404785 0.575039
O O6 0.666579 0.500000 0.816104
O O7 0.266728 0.500000 0.465432
O O8 0.500000 0.263816 0.500000
O O9 0.390140 0.242532 0.288525
O O10 0.810238 0.917977 0.852972
O O11 0.855290 0.500000 0.086074
O O12 0.545574 0.092127 0.730702
#
# Coordination Sequence:
#
# PCOD9204173 Si02
#       7
#     8   4   8   2   4   4   8
#     4  11  23  41  66  94 124 162 211 265 321 378
#     4  12  24  41  59  85 125 167 214 257 299 361
#     4  12  26  41  61  90 128 174 216 257 311 375
#     4  10  20  40  66  92 128 162 190 252 330 388
#     4  10  21  38  65  96 119 153 207 262 321 373
#     4   9  20  38  64  94 121 151 197 263 321 372
#     4  10  21  40  64  93 126 158 202 261 323 381
#
# _framework density 21.257628
#
# number of rings (size 3 to 8) (size 9 to 14) (size 15 to 20)
#    0.000    1.263    0.000    7.263    0.000    3.368 
#    0.000    3.684    0.000    5.684    0.000    0.000 
#    0.000    0.000    0.000    0.000    0.000    0.000 
#
# Total GULP energy -105876.179140 kJ/mol
# GULP energy per Si atom -5572.430481 kJ/mol
# Density = 2.120924 g / cm^3
# Si number density = 21.257628 Si / 1000 Ang^3
#
#
#
# Elastic Constant Matrix: (Units=GPa)
#
#
# Indices 1 2 3 4 5 6 
#
# 1 60.2046 11.6820 9.7090 0.0094 -2.9766 0.0044
# 2 11.6820 129.5076 17.7991 0.0391 -5.5635 0.0480
# 3 9.7090 17.7991 32.5978 0.0068 3.5038 0.0649
# 4 0.0094 0.0391 0.0068 9.1971 0.0174 -27.4461
# 5 -2.9766 -5.5635 3.5038 0.0174 32.3647 0.0248
# 6 0.0044 0.0480 0.0649 -27.4461 0.0248 -41.8194
#
#
#
# Elastic Compliance Matrix: (Units=1/GPa)
#
#
# Indices 1 2 3 4 5 6 
#
# 1 0.017681 -0.000815 -0.005040 -0.000011 0.002032 0.000001
# 2 -0.000815 0.008509 -0.004606 -0.000008 0.001886 0.000009
# 3 -0.005040 -0.004606 0.035238 0.000049 -0.005070 0.000014
# 4 -0.000011 -0.000008 0.000049 0.036751 -0.000009 -0.024120
# 5 0.002032 0.001886 -0.005070 -0.000009 0.031958 0.000019
# 6 0.000001 0.000009 0.000014 -0.024120 0.000019 -0.008082
#
#
# Mechanical properties :
#
#
# Convention : Reuss Voigt Hill
#
# Bulk Modulus (GPa) = 24.68719 33.41001 29.04860
# Shear Modulus (GPa) = 31.95314 12.15647 22.05480
#
# Velocity S-wave (km/s) = 3.88124 2.39396 3.22452
# Velocity P-wave (km/s) = 5.63240 4.83655 5.24958
#
# Compressibility (1/GPa) = 0.04050683
#
# Stress axis : x y z
#
# Youngs Moduli (GPa) = 56.55681 117.52016 28.37844
#
# Poissons Ratio (x) = 0.09578 0.14302
# Poissons Ratio (y) = 0.04609 0.13072
# Poissons Ratio (z) = 0.28502 0.54133
#
# Static dielectric constant tensor:
#      x y z
#    x 1.799620 0.000010 -0.026700 
#    y 0.000010 1.793890 -0.000010 
#    z -0.026700 -0.000010 1.777560 
# 
# From -- ./inp_files/284453.got.cif
#   From: 2010.05.17/outbox.cif.g08.bks.cpg/sg12_143_cif.got.tgz:284453.got - 2010.06.03 13:09:07.
