data_PCOD9204017
_publ_section_title
;
Structure prediction by ZEFSAII (Michael W. Deem and Ramdas Pophale) SiO2 
 PCOD9204017
Probable space group: C 2/M
;
_chemical_formula_sum "Si O2"
_cell_formula_units_Z 52
_cell_length_a 20.976193
_cell_length_b 19.551472
_cell_length_c 9.450559
_cell_angle_alpha 90.000000
_cell_angle_beta 42.174142
_cell_angle_gamma 90.000000
_cell_volume 2602.172198
_symmetry_space_group_name_H-M "C 2/M"
_symmetry_group_IT_number 12
_symmetry_cell_setting 'monoclinic'
loop_
_space_group_symop_operation_xyz
x,y,z
-x,y,-z
-x,-y,-z
x,-y,z
1/2+x,1/2+y,z
1/2-x,1/2+y,-z
1/2-x,1/2-y,-z
1/2+x,1/2-y,z
loop_
_atom_site_type_symbol
_atom_site_label
_atom_site_fract_x
_atom_site_fract_y
_atom_site_fract_z
Si Si1 0.892249 0.500000 0.123870
Si Si2 0.528278 0.242230 0.295376
Si Si3 0.842637 0.387272 0.978348
Si Si4 0.258218 0.000000 0.611418
Si Si5 0.230105 0.847134 0.665710
Si Si6 0.704333 0.677977 0.033303
Si Si7 0.387641 0.000000 0.679317
Si Si8 0.402779 0.770555 0.245456
O O1 0.826491 0.500000 0.366209
O O2 0.867481 0.433989 0.069642
O O3 0.000000 0.500000 0.000000
O O4 0.500000 0.222378 0.500000
O O5 0.592307 0.180079 0.128888
O O6 0.440839 0.253326 0.335643
O O7 0.593316 0.309288 0.197841
O O8 0.734511 0.367365 0.118550
O O9 0.863920 0.432879 0.806797
O O10 0.204143 0.072716 0.693430
O O11 0.328414 0.000000 0.632512
O O12 0.244885 0.838966 0.810736
O O13 0.324208 0.828111 0.417237
O O14 0.152033 0.790825 0.745442
O O15 0.750000 0.750000 0.000000
O O16 0.500000 0.000000 0.500000
O O17 0.500000 0.789544 0.000000
#
# Coordination Sequence:
#
# PCOD9204017 Si02
#       8
#     4   8   8   4   8   8   4   8
#     4  11  27  39  55  95 133 180 215 266 341 419
#     4  11  23  37  66  96 124 169 221 280 336 396
#     4  10  22  39  60  85 132 169 211 265 331 401
#     4  12  26  40  65  91 140 179 222 271 338 409
#     4  11  25  43  66 101 136 182 231 277 348 405
#     4  10  20  40  63  93 128 167 222 277 333 398
#     4  11  21  35  57  88 121 170 207 258 315 413
#     4  11  24  42  68  96 136 175 224 289 340 397
#
# _framework density 19.983305999999999
#
# number of rings (size 3 to 8) (size 9 to 14) (size 15 to 20)
#    0.000    1.231    3.077    3.231    6.462    2.462 
#    0.000    0.385    0.000    0.000    0.000    4.308 
#    0.000    0.000    0.000    0.000    0.000    0.000 
#
# Total GULP energy -144950.553083 kJ/mol
# GULP energy per Si atom -5575.021272 kJ/mol
# Density = 1.993782 g / cm^3
# Si number density = 19.983306 Si / 1000 Ang^3
#
#
#
# Elastic Constant Matrix: (Units=GPa)
#
#
# Indices 1 2 3 4 5 6 
#
# 1 115.8405 34.0601 11.6308 0.0000 20.7938 0.0000
# 2 34.0601 94.2161 13.7259 0.0000 3.5022 0.0000
# 3 11.6308 13.7259 54.3342 0.0000 10.4483 0.0000
# 4 0.0000 0.0000 0.0000 31.3615 0.0000 5.4242
# 5 20.7938 3.5022 10.4483 0.0000 34.7966 0.0000
# 6 0.0000 0.0000 0.0000 5.4242 0.0000 35.7814
#
#
#
# Elastic Compliance Matrix: (Units=1/GPa)
#
#
# Indices 1 2 3 4 5 6 
#
# 1 0.010810 -0.003650 -0.000234 0.000000 -0.006022 0.000000
# 2 -0.003650 0.012255 -0.002650 0.000000 0.001743 0.000000
# 3 -0.000234 -0.002650 0.020213 0.000000 -0.005663 0.000000
# 4 0.000000 0.000000 0.000000 0.032745 0.000000 -0.004964
# 5 -0.006022 0.001743 -0.005663 0.000000 0.033862 0.000000
# 6 0.000000 0.000000 0.000000 -0.004964 0.000000 0.028700
#
#
# Mechanical properties :
#
#
# Convention : Reuss Voigt Hill
#
# Bulk Modulus (GPa) = 33.10091 42.58049 37.84070
# Shear Modulus (GPa) = 30.91715 34.05283 32.48499
#
# Velocity S-wave (km/s) = 3.93765 4.13251 4.03625
# Velocity P-wave (km/s) = 6.10522 6.64263 6.37958
#
# Compressibility (1/GPa) = 0.03021065
#
# Stress axis : x y z
#
# Youngs Moduli (GPa) = 92.50418 81.60154 49.47312
#
# Poissons Ratio (x) = 0.29785 0.01157
# Poissons Ratio (y) = 0.33765 0.13109
# Poissons Ratio (z) = 0.02163 0.21622
#
# Static dielectric constant tensor:
#      x y z
#    x 1.684010 0.000000 0.044390 
#    y 0.000000 1.802980 0.000000 
#    z 0.044390 0.000000 1.698810 
# 
# From -- ./inp_files/88388.got.cif
#   From: 2010.05.17/outbox.cif.g08.bks.cpg/sg12_45_cif.got.tgz:88388.got - 2010.06.03 13:09:07.
