data_PCOD9204446
_publ_section_title
;
Structure prediction by ZEFSAII (Michael W. Deem and Ramdas Pophale) SiO2 
 PCOD9204446
Probable space group: C 2/M
;
_chemical_formula_sum "Si O2"
_cell_formula_units_Z 38
_cell_length_a 17.067786
_cell_length_b 21.908571
_cell_length_c 15.001782
_cell_angle_alpha 90.000000
_cell_angle_beta 161.912760
_cell_angle_gamma 90.000000
_cell_volume 1741.591802
_symmetry_space_group_name_H-M "C 2/M"
_symmetry_group_IT_number 12
_symmetry_cell_setting 'monoclinic'
loop_
_space_group_symop_operation_xyz
x,y,z
-x,y,-z
-x,-y,-z
x,-y,z
1/2+x,1/2+y,z
1/2-x,1/2+y,-z
1/2-x,1/2-y,-z
1/2+x,1/2-y,z
loop_
_atom_site_type_symbol
_atom_site_label
_atom_site_fract_x
_atom_site_fract_y
_atom_site_fract_z
Si Si1 0.638305 0.572170 0.819797
Si Si2 0.500000 0.821650 0.500000
Si Si3 0.324084 0.269532 0.720440
Si Si4 0.000000 0.000000 0.000000
Si Si5 0.906115 0.366003 0.796129
Si Si6 0.945225 0.891771 0.071453
O O1 0.637389 0.500000 0.800729
O O2 0.365051 0.600585 0.499335
O O3 0.657554 0.584415 0.946253
O O4 0.875443 0.602450 0.025937
O O5 0.552447 0.778766 0.471853
O O6 0.719577 0.866466 0.766900
O O7 0.367734 0.204469 0.724592
O O8 0.383134 0.331449 0.731509
O O9 0.500000 0.269911 0.000000
O O10 0.063609 0.053289 0.143910
O O11 0.000000 0.365576 0.000000
#
# Coordination Sequence:
#
# PCOD9204446 Si02
#       6
#     8   4   8   2   8   8
#     4  12  28  47  70 107 143 178 240 300 345 424
#     4  10  20  41  70 100 135 188 228 280 340 438
#     4   9  21  41  68 103 136 181 237 283 343 425
#     4  12  20  46  64 104 144 196 210 262 356 418
#     4  11  27  48  76  99 135 190 235 301 361 406
#     4  11  24  42  68 105 145 185 231 279 345 424
#
# _framework density 21.819120000000002
#
# number of rings (size 3 to 8) (size 9 to 14) (size 15 to 20)
#    0.000    1.263    4.211    1.263   11.789    4.632 
#    3.789    0.000    0.000    0.000    0.000    0.000 
#    0.000    0.000    0.000    0.000    0.000    0.000 
#
# Total GULP energy -105809.152084 kJ/mol
# GULP energy per Si atom -5568.902741 kJ/mol
# Density = 2.176946 g / cm^3
# Si number density = 21.819120 Si / 1000 Ang^3
#
#
#
# Elastic Constant Matrix: (Units=GPa)
#
#
# Indices 1 2 3 4 5 6 
#
# 1 105.8965 73.3290 23.7704 0.0049 13.6216 0.0015
# 2 73.3290 239.2135 59.1811 0.0028 24.8453 0.0011
# 3 23.7704 59.1811 66.9208 0.0186 15.9129 0.0073
# 4 0.0049 0.0028 0.0186 -9.9913 0.0058 -14.4443
# 5 13.6216 24.8453 15.9129 0.0058 37.6348 0.0025
# 6 0.0015 0.0011 0.0073 -14.4443 0.0025 28.3593
#
#
#
# Elastic Compliance Matrix: (Units=1/GPa)
#
#
# Indices 1 2 3 4 5 6 
#
# 1 0.012184 -0.003306 -0.000973 0.000001 -0.001816 0.000001
# 2 -0.003306 0.006348 -0.004144 -0.000006 -0.001242 -0.000002
# 3 -0.000973 -0.004144 0.020256 0.000023 -0.005477 0.000007
# 4 0.000001 -0.000006 0.000023 -0.057642 0.000005 -0.029359
# 5 -0.001816 -0.001242 -0.005477 0.000005 0.030364 0.000001
# 6 0.000001 -0.000002 0.000007 -0.029359 0.000001 0.020308
#
#
# Mechanical properties :
#
#
# Convention : Reuss Voigt Hill
#
# Bulk Modulus (GPa) = 45.57287 80.51020 63.04153
# Shear Modulus (GPa) = 89.32200 28.25057 58.78628
#
# Velocity S-wave (km/s) = 6.40518 3.60218 5.19625
# Velocity P-wave (km/s) = 8.69677 7.36750 8.05958
#
# Compressibility (1/GPa) = 0.02194288
#
# Stress axis : x y z
#
# Youngs Moduli (GPa) = 82.07348 157.53015 49.36861
#
# Poissons Ratio (x) = 0.52075 0.04801
# Poissons Ratio (y) = 0.27131 0.20460
# Poissons Ratio (z) = 0.07982 0.65285
#
# Static dielectric constant tensor:
#      x y z
#    x 1.930910 0.000000 0.079420 
#    y 0.000000 1.783150 0.000000 
#    z 0.079420 0.000000 1.874910 
# 
# From -- ./inp_files/227700.got.cif
#   From: 2010.05.17/outbox.cif.g08.bks.cpg/sg12_114_cif.got.tgz:227700.got - 2010.06.03 13:09:07.
