data_PCOD9204487
_publ_section_title
;
Structure prediction by ZEFSAII (Michael W. Deem and Ramdas Pophale) SiO2 
 PCOD9204487
Probable space group: C 2/M
;
_chemical_formula_sum "Si O2"
_cell_formula_units_Z 48
_cell_length_a 17.684712
_cell_length_b 23.187149
_cell_length_c 5.129774
_cell_angle_alpha 90.000000
_cell_angle_beta 106.856819
_cell_angle_gamma 90.000000
_cell_volume 2013.122568
_symmetry_space_group_name_H-M "C 2/M"
_symmetry_group_IT_number 12
_symmetry_cell_setting 'monoclinic'
loop_
_space_group_symop_operation_xyz
x,y,z
-x,y,-z
-x,-y,-z
x,-y,z
1/2+x,1/2+y,z
1/2-x,1/2+y,-z
1/2-x,1/2-y,-z
1/2+x,1/2-y,z
loop_
_atom_site_type_symbol
_atom_site_label
_atom_site_fract_x
_atom_site_fract_y
_atom_site_fract_z
Si Si1 0.669107 0.098882 0.316183
Si Si2 0.330314 0.779027 0.406413
Si Si3 0.256320 0.500000 0.671858
Si Si4 0.000000 0.306529 0.500000
Si Si5 0.282486 0.332011 0.143251
Si Si6 0.500000 0.111493 0.000000
Si Si7 0.947643 0.880489 0.208217
Si Si8 0.865268 0.000000 0.273882
O O1 0.659003 0.165488 0.395947
O O2 0.701363 0.055581 0.564069
O O3 0.742248 0.108899 0.195171
O O4 0.583957 0.079501 0.123547
O O5 0.421768 0.769054 0.431104
O O6 0.296692 0.713762 0.396210
O O7 0.279456 0.804082 0.116775
O O8 0.326355 0.500000 0.523040
O O9 0.296448 0.500000 0.989333
O O10 0.010889 0.348358 0.758555
O O11 0.366344 0.344677 0.094751
O O12 0.000000 0.857986 0.500000
O O13 0.917879 0.943678 0.268580
O O14 0.000000 0.882078 0.000000
#
# Coordination Sequence:
#
# PCOD9204487 Si02
#       8
#     8   8   4   4   8   4   8   4
#     4  11  23  44  67 102 138 181 234 286 348 420
#     4  10  23  41  70  98 138 185 228 285 351 418
#     4  12  26  40  80  98 138 183 237 290 343 418
#     4  10  20  42  62  99 128 177 218 278 334 416
#     4  11  23  43  68 100 138 185 232 289 348 415
#     4  10  22  39  70  92 138 172 222 281 342 404
#     4  12  27  46  70 103 143 183 238 293 345 413
#     4  12  24  49  70 103 134 193 233 286 353 415
#
# _framework density 23.843556
#
# number of rings (size 3 to 8) (size 9 to 14) (size 15 to 20)
#    0.000    1.000    3.333    3.000    3.500    0.333 
#    1.500    0.000    0.000    3.500    0.000    0.000 
#    0.000    0.000    0.000    0.000    0.000    0.000 
#
# Total GULP energy -134062.178468 kJ/mol
# GULP energy per Si atom -5585.924103 kJ/mol
# Density = 2.378929 g / cm^3
# Si number density = 23.843556 Si / 1000 Ang^3
#
#
#
# Elastic Constant Matrix: (Units=GPa)
#
#
# Indices 1 2 3 4 5 6 
#
# 1 124.4157 43.7217 28.7592 0.0000 36.6880 0.0000
# 2 43.7217 79.3821 11.1187 0.0000 4.4802 0.0000
# 3 28.7592 11.1187 95.9473 0.0000 12.8104 0.0000
# 4 0.0000 0.0000 0.0000-2883.5989 0.0000 251.3976
# 5 36.6880 4.4802 12.8104 0.0000 50.0127 0.0000
# 6 0.0000 0.0000 0.0000 251.3976 0.0000 -2.9440
#
#
#
# Elastic Compliance Matrix: (Units=1/GPa)
#
#
# Indices 1 2 3 4 5 6 
#
# 1 0.013409 -0.006601 -0.002091 0.000000 -0.008709 0.000000
# 2 -0.006601 0.016085 -0.000352 0.000000 0.003491 0.000000
# 3 -0.002091 -0.000352 0.011266 0.000000 -0.001320 0.000000
# 4 0.000000 0.000000 0.000000 0.000054 0.000000 0.004595
# 5 -0.008709 0.003491 -0.001320 0.000000 0.026409 0.000000
# 6 0.000000 0.000000 0.000000 0.004595 0.000000 0.052706
#
#
# Mechanical properties :
#
#
# Convention : Reuss Voigt Hill
#
# Bulk Modulus (GPa) = 44.10620 51.88270 47.99445
# Shear Modulus (GPa) = 34.34676 -552.89634 -259.27479
#
# Velocity S-wave (km/s) = 3.79952 -15.24429 -10.43916
# Velocity P-wave (km/s) = 6.14709 16.97187 11.18610
#
# Compressibility (1/GPa) = 0.02267255
#
# Stress axis : x y z
#
# Youngs Moduli (GPa) = 74.57732 62.16945 88.76058
#
# Poissons Ratio (x) = 0.41037 0.18563
# Poissons Ratio (y) = 0.49227 0.03121
# Poissons Ratio (z) = 0.15597 0.02186
#
# Static dielectric constant tensor:
#      x y z
#    x 2.056060 0.000000 -0.061770 
#    y 0.000000 1.919590 0.000000 
#    z -0.061770 0.000000 1.854400 
# 
# From -- ./inp_files/16981.got.cif
#   From: 2010.05.17/outbox.cif.g08.bks.cpg/sg12_9_cif.got.tgz:16981.got - 2010.06.03 13:09:07.
