data_PCOD9204386
_publ_section_title
;
Structure prediction by ZEFSAII (Michael W. Deem and Ramdas Pophale) SiO2 
 PCOD9204386
Probable space group: C 2/M
;
_chemical_formula_sum "Si O2"
_cell_formula_units_Z 58
_cell_length_a 17.915706
_cell_length_b 10.006567
_cell_length_c 20.067774
_cell_angle_alpha 90.000000
_cell_angle_beta 128.182079
_cell_angle_gamma 90.000000
_cell_volume 2827.929401
_symmetry_space_group_name_H-M "C 2/M"
_symmetry_group_IT_number 12
_symmetry_cell_setting 'monoclinic'
loop_
_space_group_symop_operation_xyz
x,y,z
-x,y,-z
-x,-y,-z
x,-y,z
1/2+x,1/2+y,z
1/2-x,1/2+y,-z
1/2-x,1/2-y,-z
1/2+x,1/2-y,z
loop_
_atom_site_type_symbol
_atom_site_label
_atom_site_fract_x
_atom_site_fract_y
_atom_site_fract_z
Si Si1 0.387773 0.645180 0.942118
Si Si2 0.259215 0.644620 0.446937
Si Si3 0.736654 0.156151 0.056517
Si Si4 0.500000 0.000000 0.500000
Si Si5 0.364056 0.353488 0.774824
Si Si6 0.951960 0.651857 0.730784
Si Si7 0.152716 0.726212 0.626387
Si Si8 0.901841 0.843628 0.260122
O O1 0.355662 0.500000 0.953444
O O2 0.354655 0.776535 0.960707
O O3 0.352000 0.651989 0.847008
O O4 0.500000 0.641249 0.000000
O O5 0.281743 0.500000 0.488529
O O6 0.250000 0.750000 0.500000
O O7 0.154279 0.640058 0.357000
O O8 0.335312 0.679870 0.431952
O O9 0.820233 0.169320 0.158135
O O10 0.726996 0.000000 0.035019
O O11 0.750000 0.250000 0.000000
O O12 0.572855 0.116759 0.568787
O O13 0.403038 0.500000 0.778013
O O14 0.434332 0.238945 0.787441
O O15 0.258208 0.337848 0.688056
O O16 0.988209 0.500000 0.760364
O O17 0.016702 0.740002 0.717600
O O18 0.133945 0.802215 0.685796
O O19 0.931324 0.000000 0.277256
#
# Coordination Sequence:
#
# PCOD9204386 Si02
#       8
#     8   8   8   2   8   8   8   8
#     4  10  22  40  66  97 130 173 224 275 333 408
#     4  10  24  43  66  92 128 171 214 273 336 398
#     4  11  25  44  67  98 137 180 225 282 345 403
#     4  12  28  40  70 108 134 168 228 290 336 408
#     4  10  20  41  66  91 129 177 218 269 339 400
#     4  10  24  40  63  93 127 167 221 272 327 396
#     4  11  24  43  68  96 135 174 226 277 339 400
#     4  11  25  45  69  96 135 181 229 279 340 409
#
# _framework density 20.509706000000001
#
# number of rings (size 3 to 8) (size 9 to 14) (size 15 to 20)
#    0.000    1.517    2.069    1.241    5.793    3.586 
#    0.000    0.690    0.000    0.000    0.000    0.000 
#    0.000    0.000    0.000    0.000    0.000    0.000 
#
# Total GULP energy -161557.696292 kJ/mol
# GULP energy per Si atom -5570.955045 kJ/mol
# Density = 2.046302 g / cm^3
# Si number density = 20.509706 Si / 1000 Ang^3
#
#
#
# Elastic Constant Matrix: (Units=GPa)
#
#
# Indices 1 2 3 4 5 6 
#
# 1 89.1875 77.8106 20.2158 0.0000 -21.7326 0.0000
# 2 77.8106 216.9210 50.6743 0.0000 -25.1241 0.0000
# 3 20.2158 50.6743 58.0972 0.0000 -10.1657 0.0000
# 4 0.0000 0.0000 0.0000 31.1501 0.0000 -3.9362
# 5 -21.7326 -25.1241 -10.1657 0.0000 27.4894 0.0000
# 6 0.0000 0.0000 0.0000 -3.9362 0.0000 30.3861
#
#
#
# Elastic Compliance Matrix: (Units=1/GPa)
#
#
# Indices 1 2 3 4 5 6 
#
# 1 0.018284 -0.005478 0.000074 0.000000 0.009475 0.000000
# 2 -0.005478 0.007798 -0.004711 0.000000 0.001053 0.000000
# 3 0.000074 -0.004711 0.021974 0.000000 0.003880 0.000000
# 4 0.000000 0.000000 0.000000 0.032637 0.000000 0.004228
# 5 0.009475 0.001053 0.003880 0.000000 0.046266 0.000000
# 6 0.000000 0.000000 0.000000 0.004228 0.000000 0.033457
#
#
# Mechanical properties :
#
#
# Convention : Reuss Voigt Hill
#
# Bulk Modulus (GPa) = 35.93733 73.51189 54.72461
# Shear Modulus (GPa) = 26.32667 32.17214 29.24941
#
# Velocity S-wave (km/s) = 3.58665 3.96489 3.78050
# Velocity P-wave (km/s) = 5.89171 7.54193 6.76731
#
# Compressibility (1/GPa) = 0.02782622
#
# Stress axis : x y z
#
# Youngs Moduli (GPa) = 54.69259 128.24492 45.50766
#
# Poissons Ratio (x) = 0.70258 -0.00338
# Poissons Ratio (y) = 0.29963 0.21437
# Poissons Ratio (z) = -0.00406 0.60412
#
# Static dielectric constant tensor:
#      x y z
#    x 1.729740 0.000000 -0.048640 
#    y 0.000000 1.751670 0.000000 
#    z -0.048640 0.000000 1.719620 
# 
# From -- ./inp_files/314845.got.cif
#   From: 2010.05.17/outbox.cif.g08.bks.cpg/sg12_158_cif.got.tgz:314845.got - 2010.06.03 13:09:07.
