data_PCOD9204772
_publ_section_title
;
Structure prediction by ZEFSAII (Michael W. Deem and Ramdas Pophale) SiO2 
 PCOD9204772
Probable space group: C 2/M
;
_chemical_formula_sum "Si O2"
_cell_formula_units_Z 56
_cell_length_a 14.987771
_cell_length_b 29.884149
_cell_length_c 14.134208
_cell_angle_alpha 90.000000
_cell_angle_beta 28.398043
_cell_angle_gamma 90.000000
_cell_volume 3010.827931
_symmetry_space_group_name_H-M "C 2/M"
_symmetry_group_IT_number 12
_symmetry_cell_setting 'monoclinic'
loop_
_space_group_symop_operation_xyz
x,y,z
-x,y,-z
-x,-y,-z
x,-y,z
1/2+x,1/2+y,z
1/2-x,1/2+y,-z
1/2-x,1/2-y,-z
1/2+x,1/2-y,z
loop_
_atom_site_type_symbol
_atom_site_label
_atom_site_fract_x
_atom_site_fract_y
_atom_site_fract_z
Si Si1 0.209895 0.053076 0.697918
Si Si2 0.551476 0.342007 0.343226
Si Si3 0.713315 0.197013 0.535293
Si Si4 0.365532 0.220343 0.966445
Si Si5 0.108918 0.107509 0.115681
Si Si6 0.141325 0.447281 0.237733
Si Si7 0.532615 0.312449 0.863387
O O1 0.233052 0.065380 0.787254
O O2 0.422286 0.058802 0.462696
O O3 0.064816 0.081232 0.771141
O O4 0.163336 0.000000 0.737003
O O5 0.500000 0.348304 0.500000
O O6 0.368448 0.322767 0.460727
O O7 0.596045 0.386011 0.239722
O O8 0.725494 0.307801 0.163237
O O9 0.750000 0.250000 0.500000
O O10 0.510545 0.190343 0.770485
O O11 0.767213 0.181859 0.377944
O O12 0.481402 0.259861 0.910213
O O13 0.250000 0.250000 0.000000
O O14 0.101877 0.157222 0.076771
O O15 0.290941 0.081582 0.912522
O O16 0.172088 0.500000 0.194126
O O17 0.500000 0.328589 0.000000
#
# Coordination Sequence:
#
# PCOD9204772 Si02
#       7
#     8   8   8   8   8   8   8
#     4   9  18  33  56  87 118 146 174 207 267 344
#     4  11  25  39  56  77 105 149 198 240 281 328
#     4   9  19  36  53  74 100 129 178 232 277 327
#     4  11  20  38  56  73 102 142 188 235 279 326
#     4  11  20  35  53  79 115 140 178 230 275 320
#     4   9  18  33  58  88 116 148 175 205 267 347
#     4  10  21  33  52  80 108 140 179 224 278 331
#
# _framework density 18.599534999999999
#
# number of rings (size 3 to 8) (size 9 to 14) (size 15 to 20)
#    0.000    2.000    4.286    2.571    4.000    3.429 
#    0.000    0.000    3.143    1.714    0.000    2.000 
#    0.000    0.000    0.000    0.000    0.000    0.000 
#
# Total GULP energy -156058.137363 kJ/mol
# GULP energy per Si atom -5573.504906 kJ/mol
# Density = 1.855720 g / cm^3
# Si number density = 18.599535 Si / 1000 Ang^3
#
#
#
# Elastic Constant Matrix: (Units=GPa)
#
#
# Indices 1 2 3 4 5 6 
#
# 1 78.9074 21.9717 50.6989 0.0000 36.3965 -0.0010
# 2 21.9717 57.4645 37.6541 0.0000 12.7125 -0.0007
# 3 50.6989 37.6541 135.5027 -0.0007 30.2916 -0.0038
# 4 0.0000 0.0000 -0.0007 34.7233 0.0001 5.7457
# 5 36.3965 12.7125 30.2916 0.0001 39.9906 0.0005
# 6 -0.0010 -0.0007 -0.0038 5.7457 0.0005 11.3176
#
#
#
# Elastic Compliance Matrix: (Units=1/GPa)
#
#
# Indices 1 2 3 4 5 6 
#
# 1 0.024652 -0.002464 -0.004452 0.000000 -0.018281 0.000001
# 2 -0.002464 0.021777 -0.004916 0.000000 -0.000956 -0.000001
# 3 -0.004452 -0.004916 0.011023 0.000000 -0.002735 0.000003
# 4 0.000000 0.000000 0.000000 0.031440 0.000001 -0.015962
# 5 -0.018281 -0.000956 -0.002735 0.000001 0.044019 -0.000005
# 6 0.000001 -0.000001 0.000003 -0.015962 -0.000005 0.096462
#
#
# Mechanical properties :
#
#
# Convention : Reuss Voigt Hill
#
# Bulk Modulus (GPa) = 29.59666 54.72490 42.16078
# Shear Modulus (GPa) = 18.91793 27.97630 23.44711
#
# Velocity S-wave (km/s) = 3.19269 3.88253 3.55439
# Velocity P-wave (km/s) = 5.43490 7.04169 6.28981
#
# Compressibility (1/GPa) = 0.03378760
#
# Stress axis : x y z
#
# Youngs Moduli (GPa) = 40.56492 45.92030 90.71842
#
# Poissons Ratio (x) = 0.11316 0.40390
# Poissons Ratio (y) = 0.09996 0.44594
# Poissons Ratio (z) = 0.18060 0.22573
#
# Static dielectric constant tensor:
#      x y z
#    x 1.649470 0.000000 0.018220 
#    y 0.000000 1.659590 0.000000 
#    z 0.018220 0.000000 1.675590 
# 
# From -- ./inp_files/219349.got.cif
#   From: 2010.05.17/outbox.cif.g08.bks.cpg/sg12_110_cif.got.tgz:219349.got - 2010.06.03 13:09:07.
