data_PCOD9204042
_publ_section_title
;
Structure prediction by ZEFSAII (Michael W. Deem and Ramdas Pophale) SiO2 
 PCOD9204042
Probable space group: C 2/M
;
_chemical_formula_sum "Si O2"
_cell_formula_units_Z 32
_cell_length_a 9.606659
_cell_length_b 17.701870
_cell_length_c 9.357073
_cell_angle_alpha 90.000000
_cell_angle_beta 132.733096
_cell_angle_gamma 90.000000
_cell_volume 1168.790810
_symmetry_space_group_name_H-M "C 2/M"
_symmetry_group_IT_number 12
_symmetry_cell_setting 'monoclinic'
loop_
_space_group_symop_operation_xyz
x,y,z
-x,y,-z
-x,-y,-z
x,-y,z
1/2+x,1/2+y,z
1/2-x,1/2+y,-z
1/2-x,1/2-y,-z
1/2+x,1/2-y,z
loop_
_atom_site_type_symbol
_atom_site_label
_atom_site_fract_x
_atom_site_fract_y
_atom_site_fract_z
Si Si1 0.624933 0.885770 0.292890
Si Si2 0.306889 0.417868 0.722506
Si Si3 0.715378 0.389475 0.887631
Si Si4 0.706188 0.753744 0.714380
O O1 0.686842 0.909658 0.492185
O O2 0.760923 0.916280 0.261230
O O3 0.655745 0.795068 0.293754
O O4 0.412939 0.906677 0.101739
O O5 0.262774 0.500000 0.755540
O O6 0.526582 0.416915 0.830012
O O7 0.268548 0.339666 0.777760
O O8 0.702293 0.299702 0.849205
O O9 0.500000 0.753402 0.500000
#
# Coordination Sequence:
#
# PCOD9204042 Si02
#       4
#     8   8   8   8
#     4   9  19  39  64  89 113 159 206 245 284 353
#     4  12  24  38  60  93 127 153 191 251 307 352
#     4   9  20  39  63  88 114 160 205 245 284 354
#     4  10  20  40  64  87 116 159 207 244 286 354
#
# _framework density 27.378723000000001
#
# number of rings (size 3 to 8) (size 9 to 14) (size 15 to 20)
#    1.500    0.500    2.500    1.500    0.000    4.500 
#    4.500    2.500    0.000    3.000    0.000    0.000 
#    0.000    0.000    0.000    0.000    0.000    0.000 
#
# Total GULP energy -89672.241783 kJ/mol
# GULP energy per Si atom -5604.515111 kJ/mol
# Density = 2.731641 g / cm^3
# Si number density = 27.378723 Si / 1000 Ang^3
#
#
#
# Elastic Constant Matrix: (Units=GPa)
#
#
# Indices 1 2 3 4 5 6 
#
# 1 67.3636 47.2232 10.1751 0.0000 -3.0843 0.0000
# 2 47.2232 259.7752 29.6985 0.0000 -3.3302 0.0000
# 3 10.1751 29.6985 147.7656 0.0000 5.2460 0.0000
# 4 0.0000 0.0000 0.0000 7.5960 0.0000 -9.3456
# 5 -3.0843 -3.3302 5.2460 0.0000 37.5114 0.0000
# 6 0.0000 0.0000 0.0000 -9.3456 0.0000 73.4215
#
#
#
# Elastic Compliance Matrix: (Units=1/GPa)
#
#
# Indices 1 2 3 4 5 6 
#
# 1 0.017114 -0.003025 -0.000614 0.000000 0.001224 0.000000
# 2 -0.003025 0.004483 -0.000701 0.000000 0.000247 0.000000
# 3 -0.000614 -0.000701 0.006989 0.000000 -0.001090 0.000000
# 4 0.000000 0.000000 0.000000 0.156092 0.000000 0.019869
# 5 0.001224 0.000247 -0.001090 0.000000 0.026934 0.000000
# 6 0.000000 0.000000 0.000000 0.019869 0.000000 0.016149
#
#
# Mechanical properties :
#
#
# Convention : Reuss Voigt Hill
#
# Bulk Modulus (GPa) = 50.23776 72.12201 61.17989
# Shear Modulus (GPa) = 20.56952 49.55962 35.06457
#
# Velocity S-wave (km/s) = 2.74395 4.25920 3.58260
# Velocity P-wave (km/s) = 5.33180 7.11247 6.28551
#
# Compressibility (1/GPa) = 0.01990535
#
# Stress axis : x y z
#
# Youngs Moduli (GPa) = 58.43048 223.07553 143.07316
#
# Poissons Ratio (x) = 0.67486 0.08784
# Poissons Ratio (y) = 0.17677 0.10036
# Poissons Ratio (z) = 0.03587 0.15647
#
# Static dielectric constant tensor:
#      x y z
#    x 2.165660 0.000000 -0.023230 
#    y 0.000000 2.152640 0.000000 
#    z -0.023230 0.000000 2.035780 
# 
# From -- ./inp_files/206446.got.cif
#   From: 2010.05.17/outbox.cif.g08.bks.cpg/sg12_104_cif.got.tgz:206446.got - 2010.06.03 13:09:07.
