data_PCOD9204953
_publ_section_title
;
Structure prediction by ZEFSAII (Michael W. Deem and Ramdas Pophale) SiO2 
 PCOD9204953
Probable space group: C 2/M
;
_chemical_formula_sum "Si O2"
_cell_formula_units_Z 40
_cell_length_a 5.108097
_cell_length_b 33.747066
_cell_length_c 11.057426
_cell_angle_alpha 90.000000
_cell_angle_beta 72.811948
_cell_angle_gamma 90.000000
_cell_volume 1820.988331
_symmetry_space_group_name_H-M "C 2/M"
_symmetry_group_IT_number 12
_symmetry_cell_setting 'monoclinic'
loop_
_space_group_symop_operation_xyz
x,y,z
-x,y,-z
-x,-y,-z
x,-y,z
1/2+x,1/2+y,z
1/2-x,1/2+y,-z
1/2-x,1/2-y,-z
1/2+x,1/2-y,z
loop_
_atom_site_type_symbol
_atom_site_label
_atom_site_fract_x
_atom_site_fract_y
_atom_site_fract_z
Si Si1 0.792607 0.956746 0.709905
Si Si2 0.798656 0.060430 0.133165
Si Si3 0.197846 0.147334 0.784635
Si Si4 0.711473 0.630594 0.369442
Si Si5 0.701838 0.766884 0.141882
O O1 0.511542 0.954657 0.826570
O O2 0.775854 0.917569 0.630373
O O3 0.054346 0.951719 0.761522
O O4 0.800955 0.000000 0.649475
O O5 0.783790 0.108294 0.135366
O O6 0.000000 0.047079 0.000000
O O7 0.477754 0.145653 0.667193
O O8 0.207099 0.188207 0.855204
O O9 0.929144 0.142713 0.738639
O O10 0.500000 0.644188 0.500000
O O11 0.381922 0.760196 0.205225
O O12 0.750000 0.750000 0.000000
#
# Coordination Sequence:
#
# PCOD9204953 Si02
#       5
#     8   8   8   8   8
#     4  10  21  36  53  82 114 145 195 245 281 330
#     4  10  21  34  53  80 113 159 187 223 283 351
#     4  10  21  38  58  85 120 145 191 238 275 342
#     4  10  21  39  62  83 108 155 198 237 289 327
#     4  10  21  36  57  89 118 151 176 227 285 339
#
# _framework density 21.966093000000001
#
# number of rings (size 3 to 8) (size 9 to 14) (size 15 to 20)
#    0.000    2.000    0.000    3.000    2.800    2.800 
#    7.200    0.000    0.000   19.200    0.000    0.000 
#    0.000    0.000    0.000    0.000    0.000    0.000 
#
# Total GULP energy -111652.150606 kJ/mol
# GULP energy per Si atom -5582.607530 kJ/mol
# Density = 2.191610 g / cm^3
# Si number density = 21.966093 Si / 1000 Ang^3
#
#
#
# Elastic Constant Matrix: (Units=GPa)
#
#
# Indices 1 2 3 4 5 6 
#
# 1 112.8925 11.9329 -12.9482 0.0000 -7.9871 0.0000
# 2 11.9329 147.9659 0.0080 0.0000 12.0403 0.0000
# 3 -12.9482 0.0080 37.9392 0.0000 -22.3210 0.0000
# 4 0.0000 0.0000 0.0000 77.3467 0.0000 -12.6631
# 5 -7.9871 12.0403 -22.3210 0.0000 27.0365 0.0000
# 6 0.0000 0.0000 0.0000 -12.6631 0.0000 13.9415
#
#
#
# Elastic Compliance Matrix: (Units=1/GPa)
#
#
# Indices 1 2 3 4 5 6 
#
# 1 0.011594 -0.002146 0.012707 0.000000 0.014872 0.000000
# 2 -0.002146 0.007668 -0.006059 0.000000 -0.009051 0.000000
# 3 0.012707 -0.006059 0.067069 0.000000 0.061824 0.000000
# 4 0.000000 0.000000 0.000000 0.015187 0.000000 0.013795
# 5 0.014872 -0.009051 0.061824 0.000000 0.096452 0.000000
# 6 0.000000 0.000000 0.000000 0.013795 0.000000 0.084258
#
#
# Mechanical properties :
#
#
# Convention : Reuss Voigt Hill
#
# Bulk Modulus (GPa) = 10.48925 32.97588 21.73256
# Shear Modulus (GPa) = 16.39322 43.65193 30.02258
#
# Velocity S-wave (km/s) = 2.73481 4.46268 3.70099
# Velocity P-wave (km/s) = 3.84159 6.44972 5.30832
#
# Compressibility (1/GPa) = 0.09533574
#
# Stress axis : x y z
#
# Youngs Moduli (GPa) = 86.24861 130.40835 14.90997
#
# Poissons Ratio (x) = 0.27984 -0.18946
# Poissons Ratio (y) = 0.18508 0.09034
# Poissons Ratio (z) = -1.09596 0.79016
#
# Static dielectric constant tensor:
#      x y z
#    x 1.783160 0.000000 0.045180 
#    y 0.000000 1.820180 0.000000 
#    z 0.045180 0.000000 1.694140 
# 
# From -- ./inp_files/115539.got.cif
#   From: 2010.05.17/outbox.cif.g08.bks.cpg/sg12_58_cif.got.tgz:115539.got - 2010.06.03 13:09:07.
