data_PCOD9204742
_publ_section_title
;
Structure prediction by ZEFSAII (Michael W. Deem and Ramdas Pophale) SiO2 
 PCOD9204742
Probable space group: C 2/M
;
_chemical_formula_sum "Si O2"
_cell_formula_units_Z 48
_cell_length_a 32.208590
_cell_length_b 13.891438
_cell_length_c 12.842622
_cell_angle_alpha 90.000000
_cell_angle_beta 152.190511
_cell_angle_gamma 90.000000
_cell_volume 2680.742569
_symmetry_space_group_name_H-M "C 2/M"
_symmetry_group_IT_number 12
_symmetry_cell_setting 'monoclinic'
loop_
_space_group_symop_operation_xyz
x,y,z
-x,y,-z
-x,-y,-z
x,-y,z
1/2+x,1/2+y,z
1/2-x,1/2+y,-z
1/2-x,1/2-y,-z
1/2+x,1/2-y,z
loop_
_atom_site_type_symbol
_atom_site_label
_atom_site_fract_x
_atom_site_fract_y
_atom_site_fract_z
Si Si1 0.069167 0.611918 0.745647
Si Si2 0.225339 0.114826 0.846695
Si Si3 0.390398 0.258229 0.016905
Si Si4 0.601992 0.616149 0.761889
Si Si5 0.727322 0.615151 0.622072
Si Si6 0.089776 0.108794 0.133423
O O1 0.071534 0.500000 0.781702
O O2 0.000000 0.623085 0.500000
O O3 0.169464 0.638667 0.929794
O O4 0.043818 0.680654 0.784686
O O5 0.168709 0.151472 0.818399
O O6 0.184076 0.133703 0.640505
O O7 0.223663 0.000000 0.856065
O O8 0.308511 0.189637 0.801622
O O9 0.417846 0.318198 0.978045
O O10 0.374817 0.332651 0.077747
O O11 0.500000 0.636455 0.500000
O O12 0.608787 0.500000 0.788368
O O13 0.751581 0.500000 0.675835
O O14 0.666236 0.631830 0.386933
O O15 0.105591 0.000000 0.128541
O O16 0.000000 0.108262 0.000000
#
# Coordination Sequence:
#
# PCOD9204742 Si02
#       6
#     8   8   8   8   8   8
#     4   9  18  34  55  79 110 146 182 220 266 327
#     4   8  16  32  52  75 104 140 177 214 267 325
#     4  11  20  34  54  82 106 137 183 227 269 322
#     4  10  21  33  49  78 117 148 174 220 278 332
#     4   9  19  36  58  77 101 142 183 225 271 324
#     4  10  22  38  56  78 107 143 183 228 276 330
#
# _framework density 17.905487000000001
#
# number of rings (size 3 to 8) (size 9 to 14) (size 15 to 20)
#    0.000    2.500    0.000    3.000    2.333    2.667 
#    3.000    0.000    0.000    2.000    0.000    0.000 
#    0.000    0.000    0.000    0.000    0.000    0.000 
#
# Total GULP energy -133640.831530 kJ/mol
# GULP energy per Si atom -5568.367980 kJ/mol
# Density = 1.786473 g / cm^3
# Si number density = 17.905487 Si / 1000 Ang^3
#
#
#
# Elastic Constant Matrix: (Units=GPa)
#
#
# Indices 1 2 3 4 5 6 
#
# 1 103.6486 50.0641 38.7664 0.0000 -23.2383 0.0000
# 2 50.0641 97.1875 38.4340 0.0000 -21.1811 0.0000
# 3 38.7664 38.4340 78.9055 0.0000 -22.5710 0.0000
# 4 0.0000 0.0000 0.0000 22.2292 0.0000 -11.3202
# 5 -23.2383 -21.1811 -22.5710 0.0000 22.5908 0.0000
# 6 0.0000 0.0000 0.0000 -11.3202 0.0000 6.8168
#
#
#
# Elastic Compliance Matrix: (Units=1/GPa)
#
#
# Indices 1 2 3 4 5 6 
#
# 1 0.014753 -0.004815 -0.002595 0.000000 0.008069 0.000000
# 2 -0.004815 0.015454 -0.003408 0.000000 0.006131 0.000000
# 3 -0.002595 -0.003408 0.019505 0.000000 0.013624 0.000000
# 4 0.000000 0.000000 0.000000 0.291487 0.000000 0.484049
# 5 0.008069 0.006131 0.013624 0.000000 0.071927 0.000000
# 6 0.000000 0.000000 0.000000 0.484049 0.000000 0.950516
#
#
# Mechanical properties :
#
#
# Convention : Reuss Voigt Hill
#
# Bulk Modulus (GPa) = 35.61639 59.36340 47.48990
# Shear Modulus (GPa) = 3.58516 20.49252 12.03884
#
# Velocity S-wave (km/s) = 1.41655 3.38669 2.59579
# Velocity P-wave (km/s) = 4.75500 6.96553 5.96358
#
# Compressibility (1/GPa) = 0.02807696
#
# Stress axis : x y z
#
# Youngs Moduli (GPa) = 67.78097 64.70921 51.26846
#
# Poissons Ratio (x) = 0.31159 0.13303
# Poissons Ratio (y) = 0.32638 0.17471
# Poissons Ratio (z) = 0.17588 0.22051
#
# Static dielectric constant tensor:
#      x y z
#    x 1.612930 0.000000 0.001080 
#    y 0.000000 1.644240 0.000000 
#    z 0.001080 0.000000 1.631330 
# 
# From -- ./inp_files/155230.got.cif
#   From: 2010.05.17/outbox.cif.g08.bks.cpg/sg12_78_cif.got.tgz:155230.got - 2010.06.03 13:09:07.
