data_PCOD9204074
_publ_section_title
;
Structure prediction by ZEFSAII (Michael W. Deem and Ramdas Pophale) SiO2 
 PCOD9204074
Probable space group: C 2/M
;
_chemical_formula_sum "Si O2"
_cell_formula_units_Z 36
_cell_length_a 10.659437
_cell_length_b 28.357636
_cell_length_c 4.794429
_cell_angle_alpha 90.000000
_cell_angle_beta 93.329058
_cell_angle_gamma 90.000000
_cell_volume 1446.797297
_symmetry_space_group_name_H-M "C 2/M"
_symmetry_group_IT_number 12
_symmetry_cell_setting 'monoclinic'
loop_
_space_group_symop_operation_xyz
x,y,z
-x,y,-z
-x,-y,-z
x,-y,z
1/2+x,1/2+y,z
1/2-x,1/2+y,-z
1/2-x,1/2-y,-z
1/2+x,1/2-y,z
loop_
_atom_site_type_symbol
_atom_site_label
_atom_site_fract_x
_atom_site_fract_y
_atom_site_fract_z
Si Si1 0.117562 0.207189 0.307474
Si Si2 0.279228 0.553587 0.911663
Si Si3 0.500000 0.618770 0.000000
Si Si4 0.625152 0.193353 0.329793
Si Si5 0.632687 0.911867 0.363672
O O1 0.085064 0.157859 0.164916
O O2 0.250430 0.200325 0.471004
O O3 0.122431 0.258086 0.150968
O O4 0.000000 0.212998 0.500000
O O5 0.316774 0.500000 0.852663
O O6 0.391625 0.582369 0.078675
O O7 0.164958 0.554076 0.115077
O O8 0.234172 0.579146 0.622445
O O9 0.500000 0.191343 0.500000
O O10 0.636777 0.140399 0.220507
O O11 0.500000 0.918057 0.500000
#
# Coordination Sequence:
#
# PCOD9204074 Si02
#       5
#     8   8   4   8   8
#     4  10  20  40  64  96 138 182 233 281 354 425
#     4  12  27  46  72 103 140 189 243 297 353 414
#     4  12  25  42  68 102 142 190 233 298 350 432
#     4   9  19  40  65  97 136 181 230 286 352 427
#     4  11  24  47  73 104 143 182 236 297 360 424
#
# _framework density 24.882542999999998
#
# number of rings (size 3 to 8) (size 9 to 14) (size 15 to 20)
#    0.000    1.333    2.222    3.000    0.000    2.667 
#   12.000    8.889    0.000    0.000    0.000    0.000 
#    0.000    0.000    0.000    0.000    0.000    0.000 
#
# Total GULP energy -100368.248612 kJ/mol
# GULP energy per Si atom -5576.013812 kJ/mol
# Density = 2.482591 g / cm^3
# Si number density = 24.882543 Si / 1000 Ang^3
#
#
#
# Elastic Constant Matrix: (Units=GPa)
#
#
# Indices 1 2 3 4 5 6 
#
# 1 140.0719 38.8672 32.6600 0.0000 22.6767 0.0000
# 2 38.8672 210.6569 19.5831 0.0000 6.5415 0.0000
# 3 32.6600 19.5831 63.0670 0.0000 13.4421 0.0000
# 4 0.0000 0.0000 0.0000 10.4103 0.0000 -6.9675
# 5 22.6767 6.5415 13.4421 0.0000 44.3618 0.0000
# 6 0.0000 0.0000 0.0000 -6.9675 0.0000 50.1023
#
#
#
# Elastic Compliance Matrix: (Units=1/GPa)
#
#
# Indices 1 2 3 4 5 6 
#
# 1 0.008817 -0.001200 -0.003496 0.000000 -0.003271 0.000000
# 2 -0.001200 0.005055 -0.000983 0.000000 0.000166 0.000000
# 3 -0.003496 -0.000983 0.018773 0.000000 -0.003756 0.000000
# 4 0.000000 0.000000 0.000000 0.105917 0.000000 0.014729
# 5 -0.003271 0.000166 -0.003756 0.000000 0.025327 0.000000
# 6 0.000000 0.000000 0.000000 0.014729 0.000000 0.022008
#
#
# Mechanical properties :
#
#
# Convention : Reuss Voigt Hill
#
# Bulk Modulus (GPa) = 46.98207 66.22404 56.60305
# Shear Modulus (GPa) = 24.46777 42.48725 33.47751
#
# Velocity S-wave (km/s) = 3.13921 4.13669 3.67198
# Velocity P-wave (km/s) = 5.66234 7.03482 6.38556
#
# Compressibility (1/GPa) = 0.02128472
#
# Stress axis : x y z
#
# Youngs Moduli (GPa) = 113.41866 197.83331 53.26899
#
# Poissons Ratio (x) = 0.23744 0.18624
# Poissons Ratio (y) = 0.13612 0.05239
# Poissons Ratio (z) = 0.39653 0.19456
#
# Static dielectric constant tensor:
#      x y z
#    x 1.887370 0.000000 0.057100 
#    y 0.000000 2.087840 0.000000 
#    z 0.057100 0.000000 2.083950 
# 
# From -- ./inp_files/7796.got.cif
#   From: 2010.05.17/outbox.cif.g08.bks.cpg/sg12_4_cif.got.tgz:7796.got - 2010.06.03 13:09:07.
