data_PCOD9204360
_publ_section_title
;
Structure prediction by ZEFSAII (Michael W. Deem and Ramdas Pophale) SiO2 
 PCOD9204360
Probable space group: C 2/M
;
_chemical_formula_sum "Si O2"
_cell_formula_units_Z 52
_cell_length_a 17.294994
_cell_length_b 8.484240
_cell_length_c 27.867193
_cell_angle_alpha 90.000000
_cell_angle_beta 40.155820
_cell_angle_gamma 90.000000
_cell_volume 2636.925007
_symmetry_space_group_name_H-M "C 2/M"
_symmetry_group_IT_number 12
_symmetry_cell_setting 'monoclinic'
loop_
_space_group_symop_operation_xyz
x,y,z
-x,y,-z
-x,-y,-z
x,-y,z
1/2+x,1/2+y,z
1/2-x,1/2+y,-z
1/2-x,1/2-y,-z
1/2+x,1/2-y,z
loop_
_atom_site_type_symbol
_atom_site_label
_atom_site_fract_x
_atom_site_fract_y
_atom_site_fract_z
Si Si1 0.800515 0.185200 0.827524
Si Si2 0.552845 0.500000 0.599659
Si Si3 0.072676 0.816911 0.882766
Si Si4 0.811693 0.000000 0.653385
Si Si5 0.947019 0.244212 0.315566
Si Si6 0.300494 0.690074 0.026515
Si Si7 0.340701 0.323758 0.263775
Si Si8 0.756651 0.000000 0.574417
O O1 0.682436 0.219691 0.852312
O O2 0.768898 0.230368 0.896787
O O3 0.913413 0.289139 0.756489
O O4 0.833129 0.000000 0.807639
O O5 0.431005 0.500000 0.627577
O O6 0.555172 0.642414 0.635554
O O7 0.663108 0.500000 0.510634
O O8 0.078389 0.810173 0.822222
O O9 0.090455 0.000000 0.888688
O O10 0.941628 0.767772 0.962552
O O11 0.739681 0.835965 0.697685
O O12 0.836248 0.000000 0.584746
O O13 0.914698 0.175510 0.278251
O O14 0.836693 0.358768 0.376974
O O15 0.290806 0.500000 0.033771
O O16 0.250000 0.750000 0.000000
O O17 0.280982 0.500000 0.288859
#
# Coordination Sequence:
#
# PCOD9204360 Si02
#       8
#     8   4   8   4   8   8   8   4
#     4  12  24  40  62  93 128 165 215 269 323 383
#     4  12  21  44  68  94 136 163 208 282 333 391
#     4  10  23  40  61  89 126 167 211 267 325 376
#     4  10  23  40  66 101 132 172 222 271 329 403
#     4  11  23  41  67  95 128 169 219 267 329 394
#     4  11  24  42  63  90 128 170 216 266 324 379
#     4  10  20  41  65  92 133 176 220 269 328 393
#     4  10  25  42  68  97 125 173 217 261 338 410
#
# _framework density 19.719937999999999
#
# number of rings (size 3 to 8) (size 9 to 14) (size 15 to 20)
#    0.000    1.231    1.538    3.923    3.231    4.308 
#    4.154    0.000    0.000    1.846    0.000    0.000 
#    0.000    0.000    0.000    0.000    0.000    0.000 
#
# Total GULP energy -145055.923965 kJ/mol
# GULP energy per Si atom -5579.073999 kJ/mol
# Density = 1.967505 g / cm^3
# Si number density = 19.719938 Si / 1000 Ang^3
#
#
#
# Elastic Constant Matrix: (Units=GPa)
#
#
# Indices 1 2 3 4 5 6 
#
# 1 86.5621 30.4789 5.4213 0.0001 3.5648 0.0001
# 2 30.4789 67.2539 22.2801 0.0001 -5.6740 0.0007
# 3 5.4213 22.2801 87.9409 0.0000 12.4056 -0.0001
# 4 0.0001 0.0001 0.0000 21.9058 0.0000 7.1585
# 5 3.5648 -5.6740 12.4056 0.0000 36.2822 0.0000
# 6 0.0001 0.0007 -0.0001 7.1585 0.0000 30.7043
#
#
#
# Elastic Compliance Matrix: (Units=1/GPa)
#
#
# Indices 1 2 3 4 5 6 
#
# 1 0.014081 -0.007074 0.001340 0.000000 -0.002948 0.000000
# 2 -0.007074 0.020401 -0.005548 0.000000 0.005782 -0.000001
# 3 0.001340 -0.005548 0.013486 0.000000 -0.005610 0.000000
# 4 0.000000 0.000000 0.000000 0.049415 0.000000 -0.011521
# 5 -0.002948 0.005782 -0.005610 0.000000 0.030674 0.000000
# 6 0.000000 -0.000001 0.000000 -0.011521 0.000000 0.035255
#
#
# Mechanical properties :
#
#
# Convention : Reuss Voigt Hill
#
# Bulk Modulus (GPa) = 39.36548 39.79084 39.57816
# Shear Modulus (GPa) = 25.72779 30.01690 27.87234
#
# Velocity S-wave (km/s) = 3.61592 3.90572 3.76361
# Velocity P-wave (km/s) = 6.11873 6.36878 6.24500
#
# Compressibility (1/GPa) = 0.02540297
#
# Stress axis : x y z
#
# Youngs Moduli (GPa) = 71.01964 49.01790 74.15228
#
# Poissons Ratio (x) = 0.34674 -0.09936
# Poissons Ratio (y) = 0.50238 0.41141
# Poissons Ratio (z) = -0.09517 0.27196
#
# Static dielectric constant tensor:
#      x y z
#    x 1.677650 0.000000 0.001770 
#    y 0.000000 1.690050 0.000000 
#    z 0.001770 0.000000 1.654520 
# 
# From -- ./inp_files/362709.got.cif
#   From: 2010.05.17/outbox.cif.g08.bks.cpg/sg12_182_cif.got.tgz:362709.got - 2010.06.03 13:09:07.
