data_PCOD9204875
_publ_section_title
;
Structure prediction by ZEFSAII (Michael W. Deem and Ramdas Pophale) SiO2 
 PCOD9204875
Probable space group: C 2/M
;
_chemical_formula_sum "Si O2"
_cell_formula_units_Z 56
_cell_length_a 33.507883
_cell_length_b 9.196675
_cell_length_c 14.461904
_cell_angle_alpha 90.000000
_cell_angle_beta 45.013154
_cell_angle_gamma 90.000000
_cell_volume 3152.012919
_symmetry_space_group_name_H-M "C 2/M"
_symmetry_group_IT_number 12
_symmetry_cell_setting 'monoclinic'
loop_
_space_group_symop_operation_xyz
x,y,z
-x,y,-z
-x,-y,-z
x,-y,z
1/2+x,1/2+y,z
1/2-x,1/2+y,-z
1/2-x,1/2-y,-z
1/2+x,1/2-y,z
loop_
_atom_site_type_symbol
_atom_site_label
_atom_site_fract_x
_atom_site_fract_y
_atom_site_fract_z
Si Si1 0.913417 0.332504 0.164270
Si Si2 0.027669 0.172208 0.769215
Si Si3 0.200720 0.667258 0.527630
Si Si4 0.816057 0.672381 0.993075
Si Si5 0.362970 0.674117 0.527545
Si Si6 0.682790 0.672850 0.201141
Si Si7 0.401228 0.327453 0.990060
O O1 0.927240 0.500000 0.119920
O O2 0.957990 0.262381 0.162159
O O3 0.854489 0.330426 0.316802
O O4 0.905476 0.239269 0.085338
O O5 0.075094 0.207524 0.615090
O O6 0.963461 0.197708 0.844540
O O7 0.033198 0.000000 0.781840
O O8 0.216453 0.500000 0.484418
O O9 0.250000 0.750000 0.500000
O O10 0.182116 0.746289 0.463973
O O11 0.825750 0.500000 0.979425
O O12 0.830815 0.738330 0.868639
O O13 0.852978 0.750279 0.010249
O O14 0.748952 0.697420 0.116025
O O15 0.354441 0.500000 0.533817
O O16 0.353545 0.713381 0.649584
O O17 0.675942 0.500000 0.194235
O O18 0.391361 0.500000 0.010623
#
# Coordination Sequence:
#
# PCOD9204875 Si02
#       7
#     8   8   8   8   8   8   8
#     4  10  21  35  52  76 108 144 180 219 265 312
#     4   9  19  36  55  78 107 141 181 220 262 314
#     4  10  21  34  49  75 109 141 177 217 258 312
#     4  10  21  36  55  81 109 136 172 220 268 319
#     4   9  18  35  58  78 102 138 176 219 267 312
#     4   9  19  37  59  80 104 135 173 217 269 323
#     4  11  22  35  54  79 108 142 181 221 263 315
#
# _framework density 17.766425000000002
#
# number of rings (size 3 to 8) (size 9 to 14) (size 15 to 20)
#    0.000    2.286    0.000    2.143    2.000    5.714 
#    0.000    0.714    0.000    4.286    0.000    0.000 
#    0.000    0.000    0.000    0.000    0.000    0.000 
#
# Total GULP energy -156299.316200 kJ/mol
# GULP energy per Si atom -5582.118436 kJ/mol
# Density = 1.772599 g / cm^3
# Si number density = 17.766425 Si / 1000 Ang^3
#
#
#
# Elastic Constant Matrix: (Units=GPa)
#
#
# Indices 1 2 3 4 5 6 
#
# 1 62.5169 37.4854 17.9046 0.0000 7.9667 0.0000
# 2 37.4854 63.6084 35.1749 0.0000 6.3826 0.0000
# 3 17.9046 35.1749 79.0815 0.0000 22.3167 0.0000
# 4 0.0000 0.0000 0.0000 26.4542 0.0000 6.1762
# 5 7.9667 6.3826 22.3167 0.0000 15.4741 0.0000
# 6 0.0000 0.0000 0.0000 6.1762 0.0000 33.6775
#
#
#
# Elastic Compliance Matrix: (Units=1/GPa)
#
#
# Indices 1 2 3 4 5 6 
#
# 1 0.026752 -0.017596 0.006085 0.000000 -0.015290 0.000000
# 2 -0.017596 0.033035 -0.015887 0.000000 0.018345 0.000000
# 3 0.006085 -0.015887 0.029289 0.000000 -0.038820 0.000000
# 4 0.000000 0.000000 0.000000 0.039492 0.000000 -0.007243
# 5 -0.015290 0.018345 -0.038820 0.000000 0.120915 0.000000
# 6 0.000000 0.000000 0.000000 -0.007243 0.000000 0.031022
#
#
# Mechanical properties :
#
#
# Convention : Reuss Voigt Hill
#
# Bulk Modulus (GPa) = 29.17171 42.92628 36.04900
# Shear Modulus (GPa) = 14.42049 22.76393 18.59221
#
# Velocity S-wave (km/s) = 2.85207 3.58339 3.23844
# Velocity P-wave (km/s) = 5.22504 6.42922 5.85815
#
# Compressibility (1/GPa) = 0.03427979
#
# Stress axis : x y z
#
# Youngs Moduli (GPa) = 37.38009 30.27059 34.14261
#
# Poissons Ratio (x) = 0.53264 -0.20774
# Poissons Ratio (y) = 0.65774 0.54242
# Poissons Ratio (z) = -0.22744 0.48091
#
# Static dielectric constant tensor:
#      x y z
#    x 1.569440 0.000000 -0.028290 
#    y 0.000000 1.595860 0.000000 
#    z -0.028290 0.000000 1.616670 
# 
# From -- ./inp_files/187211.got.cif
#   From: 2010.05.17/outbox.cif.g08.bks.cpg/sg12_94_cif.got.tgz:187211.got - 2010.06.03 13:09:07.
