data_PCOD9204955
_publ_section_title
;
Structure prediction by ZEFSAII (Michael W. Deem and Ramdas Pophale) SiO2 
 PCOD9204955
Probable space group: C 2/M
;
_chemical_formula_sum "Si O2"
_cell_formula_units_Z 56
_cell_length_a 29.279455
_cell_length_b 20.216238
_cell_length_c 9.406706
_cell_angle_alpha 90.000000
_cell_angle_beta 29.864248
_cell_angle_gamma 90.000000
_cell_volume 2772.577959
_symmetry_space_group_name_H-M "C 2/M"
_symmetry_group_IT_number 12
_symmetry_cell_setting 'monoclinic'
loop_
_space_group_symop_operation_xyz
x,y,z
-x,y,-z
-x,-y,-z
x,-y,z
1/2+x,1/2+y,z
1/2-x,1/2+y,-z
1/2-x,1/2-y,-z
1/2+x,1/2-y,z
loop_
_atom_site_type_symbol
_atom_site_label
_atom_site_fract_x
_atom_site_fract_y
_atom_site_fract_z
Si Si1 0.245372 0.075071 0.934624
Si Si2 0.285534 0.427359 0.661894
Si Si3 0.412083 0.341665 0.136827
Si Si4 0.923004 0.922260 0.818727
Si Si5 0.521553 0.796611 0.098533
Si Si6 0.157746 0.293797 0.254319
Si Si7 0.089830 0.373710 0.179781
O O1 0.193288 0.080676 0.227743
O O2 0.173910 0.083091 0.000565
O O3 0.283344 0.000000 0.827860
O O4 0.316809 0.134804 0.746054
O O5 0.317942 0.500000 0.528143
O O6 0.327671 0.370372 0.452943
O O7 0.175928 0.421878 0.946748
O O8 0.500000 0.352030 0.000000
O O9 0.423029 0.381592 0.962274
O O10 0.409283 0.264223 0.110150
O O11 0.000000 0.898797 0.500000
O O12 0.940483 0.000000 0.800696
O O13 0.427673 0.767545 0.423186
O O14 0.561335 0.848575 0.102226
O O15 0.500000 0.823569 0.000000
O O16 0.121961 0.311620 0.192680
O O17 0.250000 0.250000 0.000000
O O18 0.000000 0.401626 0.500000
#
# Coordination Sequence:
#
# PCOD9204955 Si02
#       7
#     8   8   8   8   8   8   8
#     4   9  20  38  60  87 118 152 200 249 297 355
#     4  10  21  39  63  89 118 156 198 241 299 363
#     4  11  24  36  56  83 123 159 196 244 299 357
#     4  10  21  34  53  81 115 158 200 238 291 355
#     4  10  24  40  56  86 123 156 198 250 300 352
#     4  10  22  37  64  89 117 158 207 248 296 355
#     4   9  21  41  61  88 118 153 200 247 299 349
#
# _framework density 20.19781
#
# number of rings (size 3 to 8) (size 9 to 14) (size 15 to 20)
#    0.000    2.143    0.000    1.286   12.000    4.857 
#    0.000    2.143    0.000    0.857    0.000    0.000 
#    0.000    0.000    0.000    0.000    0.000    0.000 
#
# Total GULP energy -156341.712946 kJ/mol
# GULP energy per Si atom -5583.632605 kJ/mol
# Density = 2.015184 g / cm^3
# Si number density = 20.197810 Si / 1000 Ang^3
#
#
#
# Elastic Constant Matrix: (Units=GPa)
#
#
# Indices 1 2 3 4 5 6 
#
# 1 96.6546 15.6493 -5.0759 0.0000 24.8718 0.0000
# 2 15.6493 57.7022 8.3987 0.0000 8.1001 0.0000
# 3 -5.0759 8.3987 36.4276 0.0000 1.1428 0.0000
# 4 0.0000 0.0000 0.0000 9.9140 0.0000 4.9381
# 5 24.8718 8.1001 1.1428 0.0000 28.7259 0.0000
# 6 0.0000 0.0000 0.0000 4.9381 0.0000 17.2855
#
#
#
# Elastic Compliance Matrix: (Units=1/GPa)
#
#
# Indices 1 2 3 4 5 6 
#
# 1 0.013841 -0.002576 0.002879 0.000000 -0.011372 0.000000
# 2 -0.002576 0.019128 -0.004676 0.000000 -0.002977 0.000000
# 3 0.002879 -0.004676 0.029004 0.000000 -0.002329 0.000000
# 4 0.000000 0.000000 0.000000 0.117601 0.000000 -0.033596
# 5 -0.011372 -0.002977 -0.002329 0.000000 0.045590 0.000000
# 6 0.000000 0.000000 0.000000 -0.033596 0.000000 0.067450
#
#
# Mechanical properties :
#
#
# Convention : Reuss Voigt Hill
#
# Bulk Modulus (GPa) = 18.78751 25.41429 22.10090
# Shear Modulus (GPa) = 15.66903 22.63925 19.15414
#
# Velocity S-wave (km/s) = 2.78830 3.35158 3.08283
# Velocity P-wave (km/s) = 4.43713 5.25238 4.86187
#
# Compressibility (1/GPa) = 0.05322685
#
# Stress axis : x y z
#
# Youngs Moduli (GPa) = 72.25042 52.28068 34.47799
#
# Poissons Ratio (x) = 0.13470 -0.09928
# Poissons Ratio (y) = 0.18615 0.16121
# Poissons Ratio (z) = -0.20804 0.24445
#
# Static dielectric constant tensor:
#      x y z
#    x 1.701920 0.000000 -0.009570 
#    y 0.000000 1.709890 0.000000 
#    z -0.009570 0.000000 1.721330 
# 
# From -- ./inp_files/113332.got.cif
#   From: 2010.05.17/outbox.cif.g08.bks.cpg/sg12_57_cif.got.tgz:113332.got - 2010.06.03 13:09:07.
