data_PCOD9204357
_publ_section_title
;
Structure prediction by ZEFSAII (Michael W. Deem and Ramdas Pophale) SiO2 
 PCOD9204357
Probable space group: C 2/M
;
_chemical_formula_sum "Si O2"
_cell_formula_units_Z 50
_cell_length_a 8.373033
_cell_length_b 27.268471
_cell_length_c 10.312939
_cell_angle_alpha 90.000000
_cell_angle_beta 66.052343
_cell_angle_gamma 90.000000
_cell_volume 2151.952247
_symmetry_space_group_name_H-M "C 2/M"
_symmetry_group_IT_number 12
_symmetry_cell_setting 'monoclinic'
loop_
_space_group_symop_operation_xyz
x,y,z
-x,y,-z
-x,-y,-z
x,-y,z
1/2+x,1/2+y,z
1/2-x,1/2+y,-z
1/2-x,1/2-y,-z
1/2+x,1/2-y,z
loop_
_atom_site_type_symbol
_atom_site_label
_atom_site_fract_x
_atom_site_fract_y
_atom_site_fract_z
Si Si1 0.819052 0.569414 0.348715
Si Si2 0.500000 0.500000 0.500000
Si Si3 0.710283 0.219651 0.318519
Si Si4 0.530561 0.641977 0.837721
Si Si5 0.808164 0.410478 0.071445
Si Si6 0.348765 0.814715 0.366161
Si Si7 0.280638 0.054246 0.784909
O O1 0.655424 0.542354 0.464809
O O2 0.811403 0.555875 0.197475
O O3 0.812489 0.628175 0.363968
O O4 0.017118 0.556266 0.325126
O O5 0.889125 0.193791 0.221046
O O6 0.681713 0.200899 0.474710
O O7 0.554045 0.198816 0.281404
O O8 0.731330 0.277969 0.319895
O O9 0.343179 0.627605 0.846998
O O10 0.668404 0.598293 0.761007
O O11 0.500000 0.640302 0.000000
O O12 0.776449 0.436529 0.943343
O O13 0.000000 0.387013 0.000000
O O14 0.207911 0.000000 0.781659
#
# Coordination Sequence:
#
# PCOD9204357 Si02
#       7
#     8   2   8   8   8   8   8
#     4  11  23  42  60  93 134 163 211 268 317 374
#     4  12  28  36  62  98 132 172 206 264 322 370
#     4  10  22  42  67  97 120 173 218 257 321 386
#     4  10  21  40  63  95 129 161 214 269 316 376
#     4   9  22  37  63  90 125 171 213 256 317 376
#     4  10  23  41  68  91 129 168 214 263 314 387
#     4  10  20  41  65  88 125 173 216 260 313 383
#
# _framework density 23.234717
#
# number of rings (size 3 to 8) (size 9 to 14) (size 15 to 20)
#    0.000    1.920    2.400    0.000    5.600    5.120 
#    0.000    3.200    0.000    2.880    0.000    0.000 
#    0.000    0.000    0.000    0.000    0.000    0.000 
#
# Total GULP energy -139385.697150 kJ/mol
# GULP energy per Si atom -5575.427886 kJ/mol
# Density = 2.318183 g / cm^3
# Si number density = 23.234717 Si / 1000 Ang^3
#
#
#
# Elastic Constant Matrix: (Units=GPa)
#
#
# Indices 1 2 3 4 5 6 
#
# 1 76.2919 41.6694 27.4467 0.0000 -20.9480 0.0000
# 2 41.6694 203.4364 19.0897 0.0000 -17.4948 0.0000
# 3 27.4467 19.0897 31.2688 0.0000 -17.3665 0.0000
# 4 0.0000 0.0000 0.0000 -26.2066 0.0000 -20.8606
# 5 -20.9480 -17.4948 -17.3665 0.0000 33.9091 0.0000
# 6 0.0000 0.0000 0.0000 -20.8606 0.0000 -13.4819
#
#
#
# Elastic Compliance Matrix: (Units=1/GPa)
#
#
# Indices 1 2 3 4 5 6 
#
# 1 0.020833 -0.002556 -0.014409 0.000000 0.004171 0.000000
# 2 -0.002556 0.005582 -0.000617 0.000000 0.000985 0.000000
# 3 -0.014409 -0.000617 0.055739 0.000000 0.019327 0.000000
# 4 0.000000 0.000000 0.000000 0.164712 0.000000 -0.254860
# 5 0.004171 0.000985 0.019327 0.000000 0.042474 0.000000
# 6 0.000000 0.000000 0.000000 -0.254860 0.000000 0.320173
#
#
# Mechanical properties :
#
#
# Convention : Reuss Voigt Hill
#
# Bulk Modulus (GPa) = 21.28137 54.15651 37.71894
# Shear Modulus (GPa) = 7.57185 13.69688 10.63436
#
# Velocity S-wave (km/s) = 1.80719 2.43060 2.14170
# Velocity P-wave (km/s) = 3.67882 5.58893 4.73127
#
# Compressibility (1/GPa) = 0.04698945
#
# Stress axis : x y z
#
# Youngs Moduli (GPa) = 48.00084 179.15643 17.94063
#
# Poissons Ratio (x) = 0.45799 0.25851
# Poissons Ratio (y) = 0.12271 0.01107
# Poissons Ratio (z) = 0.69165 0.11053
#
# Static dielectric constant tensor:
#      x y z
#    x 1.985890 0.000000 -0.006270 
#    y 0.000000 1.848250 0.000000 
#    z -0.006270 0.000000 1.916020 
# 
# From -- ./inp_files/124147.got.cif
#   From: 2010.05.17/outbox.cif.g08.bks.cpg/sg12_63_cif.got.tgz:124147.got - 2010.06.03 13:09:07.
