data_PCOD9204554
_publ_section_title
;
Structure prediction by ZEFSAII (Michael W. Deem and Ramdas Pophale) SiO2 
 PCOD9204554
Probable space group: C 2/M
;
_chemical_formula_sum "Si O2"
_cell_formula_units_Z 64
_cell_length_a 15.556996
_cell_length_b 17.132841
_cell_length_c 17.474789
_cell_angle_alpha 90.000000
_cell_angle_beta 136.266639
_cell_angle_gamma 90.000000
_cell_volume 3219.850167
_symmetry_space_group_name_H-M "C 2/M"
_symmetry_group_IT_number 12
_symmetry_cell_setting 'monoclinic'
loop_
_space_group_symop_operation_xyz
x,y,z
-x,y,-z
-x,-y,-z
x,-y,z
1/2+x,1/2+y,z
1/2-x,1/2+y,-z
1/2-x,1/2-y,-z
1/2+x,1/2-y,z
loop_
_atom_site_type_symbol
_atom_site_label
_atom_site_fract_x
_atom_site_fract_y
_atom_site_fract_z
Si Si1 0.909925 0.092332 0.248548
Si Si2 0.511576 0.905859 0.918970
Si Si3 0.255584 0.593929 0.297894
Si Si4 0.232152 0.841465 0.981416
Si Si5 0.641055 0.405996 0.083229
Si Si6 0.352230 0.094523 0.338077
Si Si7 0.886378 0.662868 0.528743
Si Si8 0.846940 0.847796 0.515614
O O1 0.817923 0.117590 0.257962
O O2 0.873424 0.136771 0.148222
O O3 0.046798 0.108973 0.368167
O O4 0.892561 0.000000 0.224036
O O5 0.387765 0.879582 0.794709
O O6 0.512830 0.000000 0.919282
O O7 0.500000 0.881072 0.000000
O O8 0.638925 0.877027 0.965555
O O9 0.257422 0.500000 0.300605
O O10 0.331397 0.623077 0.419235
O O11 0.250000 0.750000 0.000000
O O12 0.197885 0.876139 0.041160
O O13 0.637913 0.500000 0.078832
O O14 0.730438 0.384886 0.211144
O O15 0.500000 0.376927 0.000000
O O16 0.347741 0.133587 0.418998
O O17 0.475502 0.127114 0.374601
O O18 0.361965 0.000000 0.351696
O O19 0.883839 0.756620 0.533742
O O20 0.783775 0.638093 0.524963
#
# Coordination Sequence:
#
# PCOD9204554 Si02
#       8
#     8   8   8   8   8   8   8   8
#     4  11  24  43  65  93 132 174 216 260 326 399
#     4  10  20  42  69  92 124 170 219 267 322 386
#     4  10  22  39  65  97 126 164 217 266 318 389
#     4  12  27  41  65  99 134 170 215 269 334 399
#     4  10  24  46  69  95 128 169 222 274 323 385
#     4  10  23  44  70  92 124 174 222 265 319 387
#     4  10  24  42  62  93 130 166 216 267 323 380
#     4  11  25  39  64  97 131 171 210 270 328 383
#
# _framework density 19.8767
#
# number of rings (size 3 to 8) (size 9 to 14) (size 15 to 20)
#    0.000    1.500    1.250    2.625    8.750    4.500 
#    0.000    0.000    0.000    0.000    0.000    0.000 
#    0.000    0.000    0.000    0.000    0.000    0.000 
#
# Total GULP energy -178871.385211 kJ/mol
# GULP energy per Si atom -5589.730788 kJ/mol
# Density = 1.983146 g / cm^3
# Si number density = 19.876700 Si / 1000 Ang^3
#
#
#
# Elastic Constant Matrix: (Units=GPa)
#
#
# Indices 1 2 3 4 5 6 
#
# 1 82.9456 23.7135 21.2166 0.0000 6.9078 0.0000
# 2 23.7135 32.2032 30.7757 0.0000 -2.4082 0.0000
# 3 21.2166 30.7757 126.7208 0.0000 1.5478 0.0000
# 4 0.0000 0.0000 0.0000 -1.0241 0.0000 -60.4382
# 5 6.9078 -2.4082 1.5478 0.0000 28.8556 0.0000
# 6 0.0000 0.0000 0.0000 -60.4382 0.0000 17.9750
#
#
#
# Elastic Compliance Matrix: (Units=1/GPa)
#
#
# Indices 1 2 3 4 5 6 
#
# 1 0.015927 -0.012504 0.000430 0.000000 -0.004879 0.000000
# 2 -0.012504 0.050699 -0.010314 0.000000 0.007778 0.000000
# 3 0.000430 -0.010314 0.010343 0.000000 -0.001518 0.000000
# 4 0.000000 0.000000 0.000000 -0.004896 0.000000 -0.016463
# 5 -0.004879 0.007778 -0.001518 0.000000 0.036554 0.000000
# 6 0.000000 0.000000 0.000000 -0.016463 0.000000 0.000279
#
#
# Mechanical properties :
#
#
# Convention : Reuss Voigt Hill
#
# Bulk Modulus (GPa) = 31.06351 43.69791 37.38071
# Shear Modulus (GPa) = 30.41099 20.23888 25.32494
#
# Velocity S-wave (km/s) = 3.91574 3.19442 3.57333
# Velocity P-wave (km/s) = 6.00883 5.96975 5.98933
#
# Compressibility (1/GPa) = 0.03219212
#
# Stress axis : x y z
#
# Youngs Moduli (GPa) = 62.78512 19.72418 96.68424
#
# Poissons Ratio (x) = 0.24663 -0.04154
# Poissons Ratio (y) = 0.78506 0.99724
# Poissons Ratio (z) = -0.02698 0.20344
#
# Static dielectric constant tensor:
#      x y z
#    x 1.684920 0.000000 0.018450 
#    y 0.000000 1.683170 0.000000 
#    z 0.018450 0.000000 1.698120 
# 
# From -- ./inp_files/271765.got.cif
#   From: 2010.05.17/outbox.cif.g08.bks.cpg/sg12_136_cif.got.tgz:271765.got - 2010.06.03 13:09:07.
