data_PCOD9204346
_publ_section_title
;
Structure prediction by ZEFSAII (Michael W. Deem and Ramdas Pophale) SiO2 
 PCOD9204346
Probable space group: C 2/M
;
_chemical_formula_sum "Si O2"
_cell_formula_units_Z 64
_cell_length_a 16.412706
_cell_length_b 30.910086
_cell_length_c 10.230805
_cell_angle_alpha 90.000000
_cell_angle_beta 32.962877
_cell_angle_gamma 90.000000
_cell_volume 2824.004399
_symmetry_space_group_name_H-M "C 2/M"
_symmetry_group_IT_number 12
_symmetry_cell_setting 'monoclinic'
loop_
_space_group_symop_operation_xyz
x,y,z
-x,y,-z
-x,-y,-z
x,-y,z
1/2+x,1/2+y,z
1/2-x,1/2+y,-z
1/2-x,1/2-y,-z
1/2+x,1/2-y,z
loop_
_atom_site_type_symbol
_atom_site_label
_atom_site_fract_x
_atom_site_fract_y
_atom_site_fract_z
Si Si1 0.677673 0.547397 0.239481
Si Si2 0.387847 0.882319 0.049409
Si Si3 0.272703 0.451472 0.135473
Si Si4 0.709905 0.301083 0.319939
Si Si5 0.912150 0.827851 0.798529
Si Si6 0.329694 0.205404 0.678304
Si Si7 0.852049 0.617974 0.497008
Si Si8 0.543497 0.602225 0.801236
O O1 0.500000 0.548512 0.500000
O O2 0.728799 0.500000 0.218940
O O3 0.746154 0.587711 0.221021
O O4 0.730143 0.550442 0.017804
O O5 0.483654 0.881828 0.786818
O O6 0.500000 0.903511 0.000000
O O7 0.339381 0.835497 0.171678
O O8 0.229087 0.500000 0.235079
O O9 0.177596 0.414824 0.340953
O O10 0.447812 0.441768 0.932909
O O11 0.566074 0.301303 0.608183
O O12 0.645590 0.321009 0.270343
O O13 0.745320 0.250959 0.258075
O O14 0.968754 0.873295 0.779743
O O15 0.772170 0.812848 0.069740
O O16 0.500000 0.213258 0.500000
O O17 0.329085 0.167581 0.572181
O O18 0.722221 0.603445 0.568883
O O19 0.500000 0.624350 0.000000
#
# Coordination Sequence:
#
# PCOD9204346 Si02
#       8
#     8   8   8   8   8   8   8   8
#     4  10  25  47  75 105 138 187 236 285 342 417
#     4  12  28  47  69 105 146 181 231 288 357 419
#     4  10  22  43  74 107 134 176 239 286 338 418
#     4  11  26  41  68  98 129 183 234 285 336 411
#     4  11  21  42  68  93 129 178 231 283 335 407
#     4  12  24  42  67  98 135 175 235 292 344 405
#     4  11  26  42  68 103 141 183 221 291 363 410
#     4  10  20  41  64  96 135 178 217 270 353 411
#
# _framework density 22.662855
#
# number of rings (size 3 to 8) (size 9 to 14) (size 15 to 20)
#    0.000    1.125    3.750    2.625    8.750    3.000 
#    2.250    2.500    0.000    0.000    0.000    0.000 
#    0.000    0.000    0.000    0.000    0.000    0.000 
#
# Total GULP energy -178567.710224 kJ/mol
# GULP energy per Si atom -5580.240944 kJ/mol
# Density = 2.261127 g / cm^3
# Si number density = 22.662855 Si / 1000 Ang^3
#
#
#
# Elastic Constant Matrix: (Units=GPa)
#
#
# Indices 1 2 3 4 5 6 
#
# 1 35.1525 30.2390 2.0625 0.0000 1.2580 0.0000
# 2 30.2390 138.6951 20.5888 0.0000 -3.5420 0.0000
# 3 2.0625 20.5888 108.1732 0.0000 -3.9390 0.0000
# 4 0.0000 0.0000 0.0000 9.8703 0.0000 -11.7896
# 5 1.2580 -3.5420 -3.9390 0.0000 30.2912 0.0000
# 6 0.0000 0.0000 0.0000 -11.7896 0.0000 19.4148
#
#
#
# Elastic Compliance Matrix: (Units=1/GPa)
#
#
# Indices 1 2 3 4 5 6 
#
# 1 0.035240 -0.007851 0.000739 0.000000 -0.002285 0.000000
# 2 -0.007851 0.009183 -0.001555 0.000000 0.001198 0.000000
# 3 0.000739 -0.001555 0.009564 0.000000 0.001031 0.000000
# 4 0.000000 0.000000 0.000000 0.368867 0.000000 0.223994
# 5 -0.002285 0.001198 0.001031 0.000000 0.033382 0.000000
# 6 0.000000 0.000000 0.000000 0.223994 0.000000 0.187528
#
#
# Mechanical properties :
#
#
# Convention : Reuss Voigt Hill
#
# Bulk Modulus (GPa) = 27.28248 43.08905 35.18576
# Shear Modulus (GPa) = 7.42595 27.19062 17.30828
#
# Velocity S-wave (km/s) = 1.81213 3.46755 2.76656
# Velocity P-wave (km/s) = 4.05499 5.92336 5.07589
#
# Compressibility (1/GPa) = 0.03665356
#
# Stress axis : x y z
#
# Youngs Moduli (GPa) = 28.37705 108.89463 104.56124
#
# Poissons Ratio (x) = 0.85496 -0.07730
# Poissons Ratio (y) = 0.22280 0.16255
# Poissons Ratio (z) = -0.02098 0.16928
#
# Static dielectric constant tensor:
#      x y z
#    x 1.913840 0.000000 0.032170 
#    y 0.000000 1.861430 0.000000 
#    z 0.032170 0.000000 1.913130 
# 
# From -- ./inp_files/161198.got.cif
#   From: 2010.05.17/outbox.cif.g08.bks.cpg/sg12_81_cif.got.tgz:161198.got - 2010.06.03 13:09:07.
