data_PCOD9204438
_publ_section_title
;
Structure prediction by ZEFSAII (Michael W. Deem and Ramdas Pophale) SiO2 
 PCOD9204438
Probable space group: C 2/M
;
_chemical_formula_sum "Si O2"
_cell_formula_units_Z 56
_cell_length_a 9.184277
_cell_length_b 26.411790
_cell_length_c 17.259378
_cell_angle_alpha 90.000000
_cell_angle_beta 40.086635
_cell_angle_gamma 90.000000
_cell_volume 2695.981137
_symmetry_space_group_name_H-M "C 2/M"
_symmetry_group_IT_number 12
_symmetry_cell_setting 'monoclinic'
loop_
_space_group_symop_operation_xyz
x,y,z
-x,y,-z
-x,-y,-z
x,-y,z
1/2+x,1/2+y,z
1/2-x,1/2+y,-z
1/2-x,1/2-y,-z
1/2+x,1/2-y,z
loop_
_atom_site_type_symbol
_atom_site_label
_atom_site_fract_x
_atom_site_fract_y
_atom_site_fract_z
Si Si1 0.381238 0.053944 0.964442
Si Si2 0.133591 0.823904 0.775928
Si Si3 0.727627 0.210535 0.710423
Si Si4 0.851791 0.331913 0.981091
Si Si5 0.898911 0.862750 0.378415
Si Si6 0.275067 0.442593 0.677163
Si Si7 0.918027 0.640255 0.359122
O O1 0.277453 0.109396 0.999309
O O2 0.573902 0.054522 0.821092
O O3 0.253065 0.000000 0.009656
O O4 0.500000 0.053612 0.000000
O O5 0.242028 0.770507 0.706778
O O6 0.100958 0.858881 0.713757
O O7 0.313382 0.852592 0.756470
O O8 0.893039 0.807269 0.909321
O O9 0.514150 0.189161 0.847913
O O10 0.693378 0.187818 0.639324
O O11 0.946651 0.184394 0.657775
O O12 0.000000 0.328212 0.000000
O O13 0.661851 0.860328 0.519548
O O14 0.027088 0.911880 0.360205
O O15 0.334789 0.500000 0.632007
O O16 0.184166 0.408491 0.643337
#
# Coordination Sequence:
#
# PCOD9204438 Si02
#       7
#     8   8   8   8   8   8   8
#     4   9  16  31  60  90 114 148 199 253 302 352
#     4  12  25  39  61  88 129 168 203 257 316 362
#     4  11  22  41  62  89 119 169 216 253 303 365
#     4  11  20  39  62  87 126 161 211 259 299 380
#     4  11  22  42  63  89 124 163 214 254 299 375
#     4  10  20  41  69  93 120 160 208 255 307 374
#     4  11  25  39  60  94 127 158 206 266 309 359
#
# _framework density 20.771657999999999
#
# number of rings (size 3 to 8) (size 9 to 14) (size 15 to 20)
#    0.000    1.286    4.286    4.286    0.000    5.143 
#    0.000    1.429    0.000    3.429    0.000    0.000 
#    0.000    0.000    0.000    0.000    0.000    0.000 
#
# Total GULP energy -156264.532847 kJ/mol
# GULP energy per Si atom -5580.876173 kJ/mol
# Density = 2.072438 g / cm^3
# Si number density = 20.771658 Si / 1000 Ang^3
#
#
#
# Elastic Constant Matrix: (Units=GPa)
#
#
# Indices 1 2 3 4 5 6 
#
# 1 54.4375 14.0705 -1.5238 0.0000 -3.7317 0.0000
# 2 14.0705 125.9051 -2.9009 0.0000 -5.3233 0.0000
# 3 -1.5238 -2.9009 56.6549 0.0000 9.8357 0.0000
# 4 0.0000 0.0000 0.0000 18.2020 0.0000 1.2264
# 5 -3.7317 -5.3233 9.8357 0.0000 34.0650 0.0000
# 6 0.0000 0.0000 0.0000 1.2264 0.0000 4.2216
#
#
#
# Elastic Compliance Matrix: (Units=1/GPa)
#
#
# Indices 1 2 3 4 5 6 
#
# 1 0.019021 -0.002050 0.000106 0.000000 0.001733 0.000000
# 2 -0.002050 0.008218 0.000191 0.000000 0.001004 0.000000
# 3 0.000106 0.000191 0.018588 0.000000 -0.005325 0.000000
# 4 0.000000 0.000000 0.000000 0.056036 0.000000 -0.016278
# 5 0.001733 0.001004 -0.005325 0.000000 0.031240 0.000000
# 6 0.000000 0.000000 0.000000 -0.016278 0.000000 0.241603
#
#
# Mechanical properties :
#
#
# Convention : Reuss Voigt Hill
#
# Bulk Modulus (GPa) = 23.62844 28.47654 26.05249
# Shear Modulus (GPa) = 12.74469 26.45451 19.59960
#
# Velocity S-wave (km/s) = 2.47970 3.57261 3.07510
# Velocity P-wave (km/s) = 4.42703 5.54591 5.01775
#
# Compressibility (1/GPa) = 0.04232188
#
# Stress axis : x y z
#
# Youngs Moduli (GPa) = 52.57260 121.67724 53.79842
#
# Poissons Ratio (x) = 0.24944 -0.00569
# Poissons Ratio (y) = 0.10777 -0.01029
# Poissons Ratio (z) = -0.00556 -0.02328
#
# Static dielectric constant tensor:
#      x y z
#    x 1.733980 0.000000 0.008080 
#    y 0.000000 1.770030 0.000000 
#    z 0.008080 0.000000 1.750270 
# 
# From -- ./inp_files/124203.got.cif
#   From: 2010.05.17/outbox.cif.g08.bks.cpg/sg12_63_cif.got.tgz:124203.got - 2010.06.03 13:09:07.
