data_PCOD9204630
_publ_section_title
;
Structure prediction by ZEFSAII (Michael W. Deem and Ramdas Pophale) SiO2 
 PCOD9204630
Probable space group: C 2/M
;
_chemical_formula_sum "Si O2"
_cell_formula_units_Z 40
_cell_length_a 19.639635
_cell_length_b 14.599323
_cell_length_c 22.985282
_cell_angle_alpha 90.000000
_cell_angle_beta 17.033330
_cell_angle_gamma 90.000000
_cell_volume 1930.531026
_symmetry_space_group_name_H-M "C 2/M"
_symmetry_group_IT_number 12
_symmetry_cell_setting 'monoclinic'
loop_
_space_group_symop_operation_xyz
x,y,z
-x,y,-z
-x,-y,-z
x,-y,z
1/2+x,1/2+y,z
1/2-x,1/2+y,-z
1/2-x,1/2-y,-z
1/2+x,1/2-y,z
loop_
_atom_site_type_symbol
_atom_site_label
_atom_site_fract_x
_atom_site_fract_y
_atom_site_fract_z
Si Si1 0.244404 0.155269 0.925598
Si Si2 0.758989 0.707649 0.673392
Si Si3 0.701192 0.371917 0.089962
Si Si4 0.902050 0.600505 0.144591
Si Si5 0.294320 0.831555 0.509168
O O1 0.276711 0.262702 0.915758
O O2 0.451300 0.129706 0.713113
O O3 0.269406 0.107735 0.967797
O O4 0.979857 0.152377 0.118501
O O5 0.776853 0.707918 0.588696
O O6 0.000000 0.667553 0.500000
O O7 0.732009 0.809913 0.722476
O O8 0.878267 0.408560 0.992149
O O9 0.429800 0.395306 0.317027
O O10 0.782167 0.500000 0.241587
O O11 0.000000 0.618963 0.000000
O O12 0.250000 0.750000 0.500000
#
# Coordination Sequence:
#
# PCOD9204630 Si02
#       5
#     8   8   8   8   8
#     4   8  15  29  48  68  85 109 151 200 255 286
#     4  10  21  29  46  71  95 125 162 194 234 287
#     4   8  15  29  46  65  83 113 164 201 234 278
#     4  10  21  34  45  61  96 142 175 197 219 257
#     4   9  16  28  50  68  83 116 154 200 256 286
#
# _framework density 20.719688000000001
#
# number of rings (size 3 to 8) (size 9 to 14) (size 15 to 20)
#    0.000    3.000    0.000    3.600    8.400    0.400 
#    0.000    0.000    0.000    0.000    0.000    0.000 
#    0.000   12.800    0.000   36.000    0.000    0.000 
#
# Total GULP energy -111336.317046 kJ/mol
# GULP energy per Si atom -5566.815852 kJ/mol
# Density = 2.067253 g / cm^3
# Si number density = 20.719688 Si / 1000 Ang^3
#
#
#
# Elastic Constant Matrix: (Units=GPa)
#
#
# Indices 1 2 3 4 5 6 
#
# 1 68.3229 10.2433 40.0999 -0.0220 -10.0877 -0.0362
# 2 10.2433 36.1290 -1.0160 -0.1367 4.8896 -0.0857
# 3 40.0999 -1.0160 157.8197 -0.1189 -6.3666 -0.0525
# 4 -0.0220 -0.1367 -0.1189 -3.9711 -0.0018 4.0726
# 5 -10.0877 4.8896 -6.3666 -0.0018 35.7555 -0.0076
# 6 -0.0362 -0.0857 -0.0525 4.0726 -0.0076 19.5208
#
#
#
# Elastic Compliance Matrix: (Units=1/GPa)
#
#
# Indices 1 2 3 4 5 6 
#
# 1 0.019128 -0.006288 -0.004682 0.000202 0.005423 -0.000045
# 2 -0.006288 0.030266 0.001565 -0.000762 -0.005634 0.000282
# 3 -0.004682 0.001565 0.007528 -0.000193 -0.000194 0.000059
# 4 0.000202 -0.000762 -0.000193 -0.207414 0.000125 0.043269
# 5 0.005423 -0.005634 -0.000194 0.000125 0.030234 -0.000030
# 6 -0.000045 0.000282 0.000059 0.043269 -0.000030 0.042202
#
#
# Mechanical properties :
#
#
# Convention : Reuss Voigt Hill
#
# Bulk Modulus (GPa) = 26.23877 40.10290 33.17084
# Shear Modulus (GPa) = -107.42431 24.45732 -41.48349
#
# Velocity S-wave (km/s) = -7.20826 3.43941 -4.47937
# Velocity P-wave (km/s) = 7.52247 5.93040 3.27245
#
# Compressibility (1/GPa) = 0.03811155
#
# Stress axis : x y z
#
# Youngs Moduli (GPa) = 52.28063 33.04070 132.83744
#
# Poissons Ratio (x) = 0.20776 0.62190
# Poissons Ratio (y) = 0.32874 -0.20786
# Poissons Ratio (z) = 0.24476 -0.05170
#
# Static dielectric constant tensor:
#      x y z
#    x 1.705470 -0.000040 -0.021780 
#    y -0.000040 1.864200 0.000070 
#    z -0.021780 0.000070 1.809180 
# 
# From -- ./inp_files/317643.got.cif
#   From: 2010.05.17/outbox.cif.g08.bks.cpg/sg12_159_cif.got.tgz:317643.got - 2010.06.03 13:09:07.
