data_PCOD9204097
_publ_section_title
;
Structure prediction by ZEFSAII (Michael W. Deem and Ramdas Pophale) SiO2 
 PCOD9204097
Probable space group: C 2/M
;
_chemical_formula_sum "Si O2"
_cell_formula_units_Z 52
_cell_length_a 9.236748
_cell_length_b 26.991945
_cell_length_c 15.904258
_cell_angle_alpha 90.000000
_cell_angle_beta 35.867739
_cell_angle_gamma 90.000000
_cell_volume 2323.283270
_symmetry_space_group_name_H-M "C 2/M"
_symmetry_group_IT_number 12
_symmetry_cell_setting 'monoclinic'
loop_
_space_group_symop_operation_xyz
x,y,z
-x,y,-z
-x,-y,-z
x,-y,z
1/2+x,1/2+y,z
1/2-x,1/2+y,-z
1/2-x,1/2-y,-z
1/2+x,1/2-y,z
loop_
_atom_site_type_symbol
_atom_site_label
_atom_site_fract_x
_atom_site_fract_y
_atom_site_fract_z
Si Si1 0.316344 0.555657 0.451819
Si Si2 0.205759 0.809688 0.830464
Si Si3 0.552255 0.634963 0.743290
Si Si4 0.362404 0.945181 0.279407
Si Si5 0.496669 0.279635 0.361148
Si Si6 0.000000 0.645991 0.000000
Si Si7 0.410558 0.838349 0.218448
O O1 0.267979 0.500000 0.441979
O O2 0.303656 0.596529 0.384508
O O3 0.153720 0.563513 0.612362
O O4 0.590542 0.554794 0.364627
O O5 0.280977 0.759941 0.746471
O O6 0.455880 0.818128 0.764236
O O7 0.141726 0.853613 0.795376
O O8 0.000000 0.804709 0.000000
O O9 0.555540 0.689261 0.698482
O O10 0.263491 0.618677 0.874849
O O11 0.478433 0.896541 0.185684
O O12 0.469298 0.000000 0.214615
O O13 0.250000 0.250000 0.500000
O O14 0.621997 0.323888 0.357131
O O15 0.990667 0.678001 0.919343
#
# Coordination Sequence:
#
# PCOD9204097 Si02
#       7
#     8   8   8   8   8   4   8
#     4   9  18  36  66  95 125 166 214 271 338 400
#     4  12  27  42  67  94 136 185 223 267 338 405
#     4  11  23  44  63  94 133 165 223 274 331 392
#     4   9  18  36  66 100 125 165 219 272 338 397
#     4  11  27  45  66  98 130 172 230 277 329 389
#     4  10  20  40  65  88 122 174 216 266 325 386
#     4  11  23  43  68  94 137 169 221 281 329 391
#
# _framework density 22.382117000000001
#
# number of rings (size 3 to 8) (size 9 to 14) (size 15 to 20)
#    0.000    1.538    4.615    1.846    6.462    3.692 
#    0.000    2.308    0.000    2.769    0.000    0.000 
#    0.000    0.000    0.000    0.000    0.000    0.000 
#
# Total GULP energy -144872.684906 kJ/mol
# GULP energy per Si atom -5572.026343 kJ/mol
# Density = 2.233117 g / cm^3
# Si number density = 22.382117 Si / 1000 Ang^3
#
#
#
# Elastic Constant Matrix: (Units=GPa)
#
#
# Indices 1 2 3 4 5 6 
#
# 1 106.8719 31.5101 37.1095 0.0000 17.6800 0.0000
# 2 31.5101 109.9273 41.7061 0.0000 14.2651 0.0000
# 3 37.1095 41.7061 80.4531 0.0000 15.3403 0.0000
# 4 0.0000 0.0000 0.0000 18.3331 0.0000 7.5163
# 5 17.6800 14.2651 15.3403 0.0000 27.5045 0.0000
# 6 0.0000 0.0000 0.0000 7.5163 0.0000 -0.4226
#
#
#
# Elastic Compliance Matrix: (Units=1/GPa)
#
#
# Indices 1 2 3 4 5 6 
#
# 1 0.011887 -0.001309 -0.003890 0.000000 -0.004792 0.000000
# 2 -0.001309 0.011680 -0.004987 0.000000 -0.002435 0.000000
# 3 -0.003890 -0.004987 0.017724 0.000000 -0.004798 0.000000
# 4 0.000000 0.000000 0.000000 0.006578 0.000000 0.117001
# 5 -0.004792 -0.002435 -0.004798 0.000000 0.043377 0.000000
# 6 0.000000 0.000000 0.000000 0.117001 0.000000 -0.285381
#
#
# Mechanical properties :
#
#
# Convention : Reuss Voigt Hill
#
# Bulk Modulus (GPa) = 47.80566 57.54488 52.67527
# Shear Modulus (GPa) = -29.97782 21.54478 -4.21652
#
# Velocity S-wave (km/s) = -3.66370 3.10593 -1.37403
# Velocity P-wave (km/s) = 1.87304 6.21517 4.59003
#
# Compressibility (1/GPa) = 0.02091803
#
# Stress axis : x y z
#
# Youngs Moduli (GPa) = 84.12805 85.61525 56.42083
#
# Poissons Ratio (x) = 0.11211 0.21949
# Poissons Ratio (y) = 0.11016 0.28135
# Poissons Ratio (z) = 0.32728 0.42693
#
# Static dielectric constant tensor:
#      x y z
#    x 1.909860 0.000000 0.015860 
#    y 0.000000 1.855060 0.000000 
#    z 0.015860 0.000000 1.899980 
# 
# From -- ./inp_files/201168.got.cif
#   From: 2010.05.17/outbox.cif.g08.bks.cpg/sg12_101_cif.got.tgz:201168.got - 2010.06.03 13:09:07.
