data_PCOD9204547
_publ_section_title
;
Structure prediction by ZEFSAII (Michael W. Deem and Ramdas Pophale) SiO2 
 PCOD9204547
Probable space group: C 2/M
;
_chemical_formula_sum "Si O2"
_cell_formula_units_Z 56
_cell_length_a 25.927950
_cell_length_b 8.509202
_cell_length_c 18.192431
_cell_angle_alpha 90.000000
_cell_angle_beta 134.548740
_cell_angle_gamma 90.000000
_cell_volume 2860.397862
_symmetry_space_group_name_H-M "C 2/M"
_symmetry_group_IT_number 12
_symmetry_cell_setting 'monoclinic'
loop_
_space_group_symop_operation_xyz
x,y,z
-x,y,-z
-x,-y,-z
x,-y,z
1/2+x,1/2+y,z
1/2-x,1/2+y,-z
1/2-x,1/2-y,-z
1/2+x,1/2-y,z
loop_
_atom_site_type_symbol
_atom_site_label
_atom_site_fract_x
_atom_site_fract_y
_atom_site_fract_z
Si Si1 0.944097 0.327016 0.876793
Si Si2 0.310027 0.189544 0.500522
Si Si3 0.199834 0.814815 0.676522
Si Si4 0.478177 0.185700 0.673172
Si Si5 0.447551 0.680586 0.115087
Si Si6 0.337408 0.313317 0.879323
Si Si7 0.435735 0.177519 0.379218
O O1 0.936961 0.500000 0.834268
O O2 0.871984 0.270279 0.842917
O O3 0.980290 0.197906 0.862118
O O4 0.000000 0.341566 0.000000
O O5 0.250000 0.250000 0.500000
O O6 0.295008 0.243901 0.401119
O O7 0.394531 0.241433 0.600334
O O8 0.307627 0.000000 0.500831
O O9 0.255149 0.734290 0.789052
O O10 0.123137 0.778753 0.636990
O O11 0.213690 0.000000 0.685557
O O12 0.530245 0.215711 0.794050
O O13 0.524417 0.251781 0.651363
O O14 0.470826 0.000000 0.651291
O O15 0.435133 0.500000 0.123432
O O16 0.381360 0.735740 0.996717
O O17 0.348006 0.500000 0.884376
O O18 0.500000 0.156634 0.500000
O O19 0.406628 0.000000 0.332846
#
# Coordination Sequence:
#
# PCOD9204547 Si02
#       7
#     8   8   8   8   8   8   8
#     4   9  17  31  53  80 113 154 199 245 292 351
#     4  11  24  43  63  91 128 167 205 248 304 367
#     4  12  25  40  63  94 124 159 202 256 309 359
#     4  10  22  40  65  90 120 161 203 249 304 363
#     4  10  21  36  57  86 121 159 202 249 300 359
#     4  10  21  38  58  83 118 162 206 248 298 361
#     4  10  20  42  68  89 116 157 206 251 300 361
#
# _framework density 19.577696
#
# number of rings (size 3 to 8) (size 9 to 14) (size 15 to 20)
#    0.000    1.714    1.429    3.000    2.000    5.429 
#    0.000    0.714    0.000    0.000    0.000    0.000 
#    0.000    0.000    0.000    0.000    0.000    0.000 
#
# Total GULP energy -155990.658982 kJ/mol
# GULP energy per Si atom -5571.094964 kJ/mol
# Density = 1.953314 g / cm^3
# Si number density = 19.577696 Si / 1000 Ang^3
#
#
#
# Elastic Constant Matrix: (Units=GPa)
#
#
# Indices 1 2 3 4 5 6 
#
# 1 117.2934 15.2128 44.1983 0.0000 -5.6816 0.0000
# 2 15.2128 44.8556 12.6199 0.0000 0.9183 0.0000
# 3 44.1983 12.6199 100.8677 0.0000 3.8829 0.0000
# 4 0.0000 0.0000 0.0000 25.1283 0.0000 5.9432
# 5 -5.6816 0.9183 3.8829 0.0000 25.2060 0.0000
# 6 0.0000 0.0000 0.0000 5.9432 0.0000 47.4461
#
#
#
# Elastic Compliance Matrix: (Units=1/GPa)
#
#
# Indices 1 2 3 4 5 6 
#
# 1 0.010692 -0.002424 -0.004505 0.000000 0.003192 0.000000
# 2 -0.002424 0.023661 -0.001855 0.000000 -0.001123 0.000000
# 3 -0.004505 -0.001855 0.012229 0.000000 -0.002832 0.000000
# 4 0.000000 0.000000 0.000000 0.041011 0.000000 -0.005137
# 5 0.003192 -0.001123 -0.002832 0.000000 0.040870 0.000000
# 6 0.000000 0.000000 0.000000 -0.005137 0.000000 0.021720
#
#
# Mechanical properties :
#
#
# Convention : Reuss Voigt Hill
#
# Bulk Modulus (GPa) = 34.46565 45.23097 39.84831
# Shear Modulus (GPa) = 28.18152 32.28846 30.23499
#
# Velocity S-wave (km/s) = 3.79815 4.06550 3.93410
# Velocity P-wave (km/s) = 6.07267 6.72244 6.40580
#
# Compressibility (1/GPa) = 0.02901440
#
# Stress axis : x y z
#
# Youngs Moduli (GPa) = 93.52676 42.26401 81.77349
#
# Poissons Ratio (x) = 0.10246 0.36836
# Poissons Ratio (y) = 0.22673 0.15167
# Poissons Ratio (z) = 0.42131 0.07839
#
# Static dielectric constant tensor:
#      x y z
#    x 1.710130 0.000000 -0.003270 
#    y 0.000000 1.698220 0.000000 
#    z -0.003270 0.000000 1.702870 
# 
# From -- ./inp_files/288445.got.cif
#   From: 2010.05.17/outbox.cif.g08.bks.cpg/sg12_145_cif.got.tgz:288445.got - 2010.06.03 13:09:07.
