data_PCOD9204026
_publ_section_title
;
Structure prediction by ZEFSAII (Michael W. Deem and Ramdas Pophale) SiO2 
 PCOD9204026
Probable space group: C 2/M
;
_chemical_formula_sum "Si O2"
_cell_formula_units_Z 64
_cell_length_a 19.121660
_cell_length_b 9.361568
_cell_length_c 29.302843
_cell_angle_alpha 90.000000
_cell_angle_beta 34.276838
_cell_angle_gamma 90.000000
_cell_volume 2954.203865
_symmetry_space_group_name_H-M "C 2/M"
_symmetry_group_IT_number 12
_symmetry_cell_setting 'monoclinic'
loop_
_space_group_symop_operation_xyz
x,y,z
-x,y,-z
-x,-y,-z
x,-y,z
1/2+x,1/2+y,z
1/2-x,1/2+y,-z
1/2-x,1/2-y,-z
1/2+x,1/2-y,z
loop_
_atom_site_type_symbol
_atom_site_label
_atom_site_fract_x
_atom_site_fract_y
_atom_site_fract_z
Si Si1 0.087955 0.162892 0.308772
Si Si2 0.660069 0.163526 0.876765
Si Si3 0.668582 0.837785 0.453956
Si Si4 0.002549 0.830096 0.212181
Si Si5 0.607745 0.169742 0.640884
Si Si6 0.992864 0.169805 0.115572
Si Si7 0.203568 0.668462 0.956559
Si Si8 0.127992 0.337904 0.371231
O O1 0.192914 0.165945 0.213185
O O2 0.153000 0.223207 0.319044
O O3 0.975939 0.263712 0.353932
O O4 0.046679 0.000000 0.337207
O O5 0.594423 0.266009 0.876380
O O6 0.644842 0.197519 0.938118
O O7 0.617698 0.000000 0.891677
O O8 0.751581 0.726604 0.436344
O O9 0.683219 0.813311 0.391576
O O10 0.521861 0.832012 0.541870
O O11 0.710232 0.000000 0.441638
O O12 0.948767 0.797718 0.190859
O O13 0.150094 0.804502 0.127047
O O14 0.947559 0.736518 0.282455
O O15 0.984841 0.000000 0.231549
O O16 0.601220 0.000000 0.643919
O O17 0.001021 0.000000 0.107594
O O18 0.127616 0.238131 0.033223
O O19 0.188941 0.500000 0.974497
O O20 0.161383 0.500000 0.338909
#
# Coordination Sequence:
#
# PCOD9204026 Si02
#       8
#     8   8   8   8   8   8   8   8
#     4  11  23  41  63  87 122 163 201 247 302 355
#     4  10  22  40  60  83 116 159 200 238 294 358
#     4   9  20  41  66  91 126 163 194 239 298 354
#     4  10  22  42  61  83 118 160 198 240 303 360
#     4  12  25  39  61  91 121 157 205 252 294 351
#     4  11  24  37  58  90 119 150 194 248 301 353
#     4  10  20  40  64  81 111 157 201 242 292 359
#     4   9  20  40  66  95 123 158 201 242 291 351
#
# _framework density 21.664042999999999
#
# number of rings (size 3 to 8) (size 9 to 14) (size 15 to 20)
#    0.000    1.750    1.250    3.375    1.750    6.000 
#    0.000    1.250    0.000    0.000    0.000    0.000 
#    0.000    0.000    0.000    0.000    0.000    0.000 
#
# Total GULP energy -179023.517382 kJ/mol
# GULP energy per Si atom -5594.484918 kJ/mol
# Density = 2.161473 g / cm^3
# Si number density = 21.664043 Si / 1000 Ang^3
#
#
#
# Elastic Constant Matrix: (Units=GPa)
#
#
# Indices 1 2 3 4 5 6 
#
# 1 77.1103 45.1482 -1.7079 0.0001 -2.5218 -0.0011
# 2 45.1482 94.6731 14.7436 0.0007 3.1725 -0.0007
# 3 -1.7079 14.7436 40.8863 0.0000 1.6940 -0.0001
# 4 0.0001 0.0007 0.0000 28.0908 0.0000 -0.0377
# 5 -2.5218 3.1725 1.6940 0.0000 39.9137 0.0006
# 6 -0.0011 -0.0007 -0.0001 -0.0377 0.0006 26.4701
#
#
#
# Elastic Compliance Matrix: (Units=1/GPa)
#
#
# Indices 1 2 3 4 5 6 
#
# 1 0.018781 -0.009670 0.004198 0.000000 0.001777 0.000000
# 2 -0.009670 0.016190 -0.006174 0.000000 -0.001636 0.000000
# 3 0.004198 -0.006174 0.026876 0.000000 -0.000385 0.000000
# 4 0.000000 0.000000 0.000000 0.035599 0.000000 0.000051
# 5 0.001777 -0.001636 -0.000385 0.000000 0.025313 -0.000001
# 6 0.000000 0.000000 0.000000 0.000051 -0.000001 0.037779
#
#
# Mechanical properties :
#
#
# Convention : Reuss Voigt Hill
#
# Bulk Modulus (GPa) = 25.93714 36.55972 31.24843
# Shear Modulus (GPa) = 25.42177 29.19397 27.30787
#
# Velocity S-wave (km/s) = 3.42929 3.67492 3.55423
# Velocity P-wave (km/s) = 5.26103 5.90924 5.59453
#
# Compressibility (1/GPa) = 0.03855475
#
# Stress axis : x y z
#
# Youngs Moduli (GPa) = 53.24482 61.76511 37.20813
#
# Poissons Ratio (x) = 0.59725 -0.15619
# Poissons Ratio (y) = 0.51486 0.22974
# Poissons Ratio (z) = -0.22351 0.38136
#
# Static dielectric constant tensor:
#      x y z
#    x 1.801980 0.000000 -0.028330 
#    y 0.000000 1.716220 0.000000 
#    z -0.028330 0.000000 1.831080 
# 
# From -- ./inp_files/378259.got.cif
#   From: 2010.05.17/outbox.cif.g08.bks.cpg/sg12_190_cif.got.tgz:378259.got - 2010.06.03 13:09:07.
