data_PCOD9204380
_publ_section_title
;
Structure prediction by ZEFSAII (Michael W. Deem and Ramdas Pophale) SiO2 
 PCOD9204380
Probable space group: C 2/M
;
_chemical_formula_sum "Si O2"
_cell_formula_units_Z 56
_cell_length_a 18.906574
_cell_length_b 8.794932
_cell_length_c 27.624083
_cell_angle_alpha 90.000000
_cell_angle_beta 141.606163
_cell_angle_gamma 90.000000
_cell_volume 2852.785949
_symmetry_space_group_name_H-M "C 2/M"
_symmetry_group_IT_number 12
_symmetry_cell_setting 'monoclinic'
loop_
_space_group_symop_operation_xyz
x,y,z
-x,y,-z
-x,-y,-z
x,-y,z
1/2+x,1/2+y,z
1/2-x,1/2+y,-z
1/2-x,1/2-y,-z
1/2+x,1/2-y,z
loop_
_atom_site_type_symbol
_atom_site_label
_atom_site_fract_x
_atom_site_fract_y
_atom_site_fract_z
Si Si1 0.423517 0.182242 0.798636
Si Si2 0.024431 0.318197 0.368269
Si Si3 0.275113 0.318697 0.236081
Si Si4 0.641638 0.677611 0.967348
Si Si5 0.402123 0.815073 0.484681
Si Si6 0.865217 0.672851 0.937067
Si Si7 0.141208 0.817388 0.335812
O O1 0.306091 0.225688 0.762808
O O2 0.528025 0.242075 0.886646
O O3 0.424799 0.250819 0.745727
O O4 0.428778 0.000000 0.799560
O O5 0.035871 0.500000 0.370514
O O6 0.072555 0.269120 0.446490
O O7 0.089317 0.241842 0.358249
O O8 0.892346 0.271019 0.296891
O O9 0.298285 0.500000 0.251950
O O10 0.202818 0.294454 0.148357
O O11 0.633816 0.500000 0.953151
O O12 0.750000 0.750000 0.000000
O O13 0.657127 0.710430 0.032327
O O14 0.500000 0.761469 0.500000
O O15 0.273820 0.769301 0.402539
O O16 0.405049 0.000000 0.485193
O O17 0.834936 0.500000 0.936584
O O18 0.000000 0.674267 0.000000
O O19 0.135540 0.000000 0.331998
#
# Coordination Sequence:
#
# PCOD9204380 Si02
#       7
#     8   8   8   8   8   8   8
#     4  11  23  43  65  90 123 161 206 255 310 370
#     4  11  23  39  62  92 127 165 206 253 303 363
#     4  10  22  40  64  90 122 161 204 255 312 369
#     4  12  26  42  63  91 125 164 208 257 309 366
#     4   9  19  38  64  92 123 161 204 252 306 364
#     4  10  20  41  66  89 121 163 205 255 314 365
#     4  11  23  40  63  91 126 165 205 253 309 365
#
# _framework density 19.629933999999999
#
# number of rings (size 3 to 8) (size 9 to 14) (size 15 to 20)
#    0.000    1.429    1.429    3.857    2.000    3.143 
#    0.000    2.143    0.000    5.143    0.000    0.000 
#    0.000    0.000    0.000    0.000    0.000    0.000 
#
# Total GULP energy -156536.197148 kJ/mol
# GULP energy per Si atom -5590.578470 kJ/mol
# Density = 1.958525 g / cm^3
# Si number density = 19.629934 Si / 1000 Ang^3
#
#
#
# Elastic Constant Matrix: (Units=GPa)
#
#
# Indices 1 2 3 4 5 6 
#
# 1 112.2009 35.9404 8.1512 0.0000 -7.7339 0.0000
# 2 35.9404 57.9778 17.6641 0.0000 -2.4326 0.0000
# 3 8.1512 17.6641 53.9615 0.0000 -10.4721 0.0000
# 4 0.0000 0.0000 0.0000 17.1734 0.0000 3.0570
# 5 -7.7339 -2.4326 -10.4721 0.0000 34.6946 0.0000
# 6 0.0000 0.0000 0.0000 3.0570 0.0000 26.2322
#
#
#
# Elastic Compliance Matrix: (Units=1/GPa)
#
#
# Indices 1 2 3 4 5 6 
#
# 1 0.011319 -0.007260 0.001123 0.000000 0.002353 0.000000
# 2 -0.007260 0.023827 -0.007109 0.000000 -0.002094 0.000000
# 3 0.001123 -0.007109 0.021925 0.000000 0.006370 0.000000
# 4 0.000000 0.000000 0.000000 0.059463 0.000000 -0.006930
# 5 0.002353 -0.002094 0.006370 0.000000 0.031123 0.000000
# 6 0.000000 0.000000 0.000000 -0.006930 0.000000 0.038929
#
#
# Mechanical properties :
#
#
# Convention : Reuss Voigt Hill
#
# Bulk Modulus (GPa) = 32.70200 38.62795 35.66497
# Shear Modulus (GPa) = 22.39441 26.44570 24.42006
#
# Velocity S-wave (km/s) = 3.38128 3.67442 3.53089
# Velocity P-wave (km/s) = 5.65150 6.14188 5.90179
#
# Compressibility (1/GPa) = 0.03057917
#
# Stress axis : x y z
#
# Youngs Moduli (GPa) = 88.34932 41.96992 45.60931
#
# Poissons Ratio (x) = 0.30470 -0.05124
# Poissons Ratio (y) = 0.64142 0.32425
# Poissons Ratio (z) = -0.09926 0.29837
#
# Static dielectric constant tensor:
#      x y z
#    x 1.626210 0.000000 0.011820 
#    y 0.000000 1.662640 0.000000 
#    z 0.011820 0.000000 1.656080 
# 
# From -- ./inp_files/363108.got.cif
#   From: 2010.05.17/outbox.cif.g08.bks.cpg/sg12_182_cif.got.tgz:363108.got - 2010.06.03 13:09:07.
