data_PCOD9204224
_publ_section_title
;
Structure prediction by ZEFSAII (Michael W. Deem and Ramdas Pophale) SiO2 
 PCOD9204224
Probable space group: C 2/M
;
_chemical_formula_sum "Si O2"
_cell_formula_units_Z 52
_cell_length_a 8.984498
_cell_length_b 17.158123
_cell_length_c 24.002336
_cell_angle_alpha 90.000000
_cell_angle_beta 135.849447
_cell_angle_gamma 90.000000
_cell_volume 2577.311990
_symmetry_space_group_name_H-M "C 2/M"
_symmetry_group_IT_number 12
_symmetry_cell_setting 'monoclinic'
loop_
_space_group_symop_operation_xyz
x,y,z
-x,y,-z
-x,-y,-z
x,-y,z
1/2+x,1/2+y,z
1/2-x,1/2+y,-z
1/2-x,1/2-y,-z
1/2+x,1/2-y,z
loop_
_atom_site_type_symbol
_atom_site_label
_atom_site_fract_x
_atom_site_fract_y
_atom_site_fract_z
Si Si1 0.513590 0.411730 0.327151
Si Si2 0.321290 0.794363 0.748038
Si Si3 0.906792 0.652571 0.367782
Si Si4 0.630161 0.088657 0.765705
Si Si5 0.000000 0.278590 0.000000
Si Si6 0.847290 0.909457 0.510821
Si Si7 0.532036 0.681321 0.894640
O O1 0.459761 0.500000 0.297093
O O2 0.341167 0.349050 0.261547
O O3 0.742971 0.388917 0.365121
O O4 0.525874 0.405690 0.397348
O O5 0.183313 0.738065 0.670842
O O6 0.481501 0.849852 0.757815
O O7 0.448095 0.739833 0.824334
O O8 0.902531 0.605893 0.308313
O O9 0.144374 0.646909 0.455236
O O10 0.875787 0.107551 0.847252
O O11 0.571955 0.000000 0.763135
O O12 0.783521 0.328192 0.950278
O O13 0.994635 0.223129 0.944021
O O14 0.000000 0.892663 0.500000
O O15 0.772056 0.000000 0.485302
#
# Coordination Sequence:
#
# PCOD9204224 Si02
#       7
#     8   8   8   8   4   8   8
#     4  11  23  38  60  88 120 158 202 252 305 351
#     4  11  23  40  61  90 121 159 203 243 296 363
#     4  11  22  38  61  88 118 158 206 256 294 350
#     4  11  22  39  62  91 125 160 199 246 300 358
#     4  10  20  40  68  90 124 158 202 234 304 354
#     4  10  21  38  59  85 121 164 204 248 311 364
#     4  10  21  39  66  94 117 164 199 244 290 366
#
# _framework density 20.176058999999999
#
# number of rings (size 3 to 8) (size 9 to 14) (size 15 to 20)
#    0.000    1.385    1.538    5.077    2.154    3.077 
#    0.000    2.308    0.000    0.000    0.000    0.000 
#    0.000    0.000    0.000    0.000    0.000    0.000 
#
# Total GULP energy -145371.887831 kJ/mol
# GULP energy per Si atom -5591.226455 kJ/mol
# Density = 2.013014 g / cm^3
# Si number density = 20.176059 Si / 1000 Ang^3
#
#
#
# Elastic Constant Matrix: (Units=GPa)
#
#
# Indices 1 2 3 4 5 6 
#
# 1 76.6674 11.7794 -6.7164 0.0000 5.9421 0.0000
# 2 11.7794 102.7032 16.1548 0.0000 10.1377 0.0000
# 3 -6.7164 16.1548 42.1836 0.0000 20.0121 0.0000
# 4 0.0000 0.0000 0.0000 9.6948 0.0000 7.0509
# 5 5.9421 10.1377 20.0121 0.0000 35.2593 0.0000
# 6 0.0000 0.0000 0.0000 7.0509 0.0000 24.4069
#
#
#
# Elastic Compliance Matrix: (Units=1/GPa)
#
#
# Indices 1 2 3 4 5 6 
#
# 1 0.014189 -0.001986 0.005314 0.000000 -0.004836 0.000000
# 2 -0.001986 0.010664 -0.004248 0.000000 -0.000320 0.000000
# 3 0.005314 -0.004248 0.035614 0.000000 -0.019887 0.000000
# 4 0.000000 0.000000 0.000000 0.130584 0.000000 -0.037724
# 5 -0.004836 -0.000320 -0.019887 0.000000 0.040556 0.000000
# 6 0.000000 0.000000 0.000000 -0.037724 0.000000 0.051870
#
#
# Mechanical properties :
#
#
# Convention : Reuss Voigt Hill
#
# Bulk Modulus (GPa) = 17.05714 29.33221 23.19467
# Shear Modulus (GPa) = 16.40100 27.22796 21.81448
#
# Velocity S-wave (km/s) = 2.85422 3.67756 3.29174
# Velocity P-wave (km/s) = 4.39711 5.70984 5.09593
#
# Compressibility (1/GPa) = 0.05862648
#
# Stress axis : x y z
#
# Youngs Moduli (GPa) = 70.47798 93.76969 28.07920
#
# Poissons Ratio (x) = 0.18621 -0.14921
# Poissons Ratio (y) = 0.13996 0.11929
# Poissons Ratio (z) = -0.37452 0.39836
#
# Static dielectric constant tensor:
#      x y z
#    x 1.714180 0.000000 0.021170 
#    y 0.000000 1.714630 0.000000 
#    z 0.021170 0.000000 1.722350 
# 
# From -- ./inp_files/356578.got.cif
#   From: 2010.05.17/outbox.cif.g08.bks.cpg/sg12_179_cif.got.tgz:356578.got - 2010.06.03 13:09:07.
