data_PCOD9204784
_publ_section_title
;
Structure prediction by ZEFSAII (Michael W. Deem and Ramdas Pophale) SiO2 
 PCOD9204784
Probable space group: C 2/M
;
_chemical_formula_sum "Si O2"
_cell_formula_units_Z 40
_cell_length_a 26.685833
_cell_length_b 7.541402
_cell_length_c 18.785903
_cell_angle_alpha 90.000000
_cell_angle_beta 148.678731
_cell_angle_gamma 90.000000
_cell_volume 1965.311988
_symmetry_space_group_name_H-M "C 2/M"
_symmetry_group_IT_number 12
_symmetry_cell_setting 'monoclinic'
loop_
_space_group_symop_operation_xyz
x,y,z
-x,y,-z
-x,-y,-z
x,-y,z
1/2+x,1/2+y,z
1/2-x,1/2+y,-z
1/2-x,1/2-y,-z
1/2+x,1/2-y,z
loop_
_atom_site_type_symbol
_atom_site_label
_atom_site_fract_x
_atom_site_fract_y
_atom_site_fract_z
Si Si1 0.334406 0.789589 0.768543
Si Si2 0.187256 0.202516 0.094817
Si Si3 0.156055 0.000000 0.727826
Si Si4 0.955875 0.000000 0.558342
Si Si5 0.154480 0.202145 0.463793
Si Si6 0.474583 0.285669 0.818945
O O1 0.327111 0.705425 0.836974
O O2 0.249536 0.717656 0.613917
O O3 0.432951 0.763597 0.845364
O O4 0.317850 0.000000 0.758977
O O5 0.275308 0.329618 0.182993
O O6 0.203231 0.000000 0.091199
O O7 0.084417 0.271471 0.941177
O O8 0.067665 0.000000 0.675421
O O9 0.105947 0.000000 0.589008
O O10 0.921859 0.165850 0.565307
O O11 0.099473 0.283832 0.330550
O O12 0.183399 0.000000 0.476400
O O13 0.476495 0.500000 0.816409
#
# Coordination Sequence:
#
# PCOD9204784 Si02
#       6
#     8   8   4   4   8   8
#     4  11  19  33  56  84 113 158 194 228 278 341
#     4  11  22  37  57  85 119 151 188 235 286 338
#     4  11  20  40  66  87 106 146 195 249 283 341
#     4   9  18  38  69  80 106 153 187 241 309 313
#     4   8  16  35  55  79 111 151 186 235 280 338
#     4  10  21  33  53  79 121 154 184 225 286 340
#
# _framework density 20.353003000000001
#
# number of rings (size 3 to 8) (size 9 to 14) (size 15 to 20)
#    0.600    1.400    3.000    1.800    1.400    2.400 
#    0.000    4.000    0.000    0.000    0.000    0.000 
#    0.000    0.000    0.000    0.000    0.000    0.000 
#
# Total GULP energy -111599.906769 kJ/mol
# GULP energy per Si atom -5579.995338 kJ/mol
# Density = 2.030668 g / cm^3
# Si number density = 20.353003 Si / 1000 Ang^3
#
#
#
# Elastic Constant Matrix: (Units=GPa)
#
#
# Indices 1 2 3 4 5 6 
#
# 1 77.9829 6.5260 2.2924 0.0000 28.0201 0.0000
# 2 6.5260 70.0530 10.6534 0.0000 13.9817 0.0000
# 3 2.2924 10.6534 75.5199 0.0000 8.2275 0.0000
# 4 0.0000 0.0000 0.0000 -6.6605 0.0000 -26.8403
# 5 28.0201 13.9817 8.2275 0.0000 37.7775 0.0000
# 6 0.0000 0.0000 0.0000 -26.8403 0.0000 -30.9052
#
#
#
# Elastic Compliance Matrix: (Units=1/GPa)
#
#
# Indices 1 2 3 4 5 6 
#
# 1 0.017600 0.000948 0.000812 0.000000 -0.013582 0.000000
# 2 0.000948 0.015653 -0.001566 0.000000 -0.006155 0.000000
# 3 0.000812 -0.001566 0.013767 0.000000 -0.003021 0.000000
# 4 0.000000 0.000000 0.000000 0.060062 0.000000 -0.052162
# 5 -0.013582 -0.006155 -0.003021 0.000000 0.039481 0.000000
# 6 0.000000 0.000000 0.000000 -0.052162 0.000000 0.012944
#
#
# Mechanical properties :
#
#
# Convention : Reuss Voigt Hill
#
# Bulk Modulus (GPa) = 21.09404 29.16661 25.13033
# Shear Modulus (GPa) = 28.58399 13.64796 21.11598
#
# Velocity S-wave (km/s) = 3.75161 2.59233 3.22450
# Velocity P-wave (km/s) = 5.39933 4.82926 5.12223
#
# Compressibility (1/GPa) = 0.04740675
#
# Stress axis : x y z
#
# Youngs Moduli (GPa) = 56.81725 63.88418 72.63775
#
# Poissons Ratio (x) = -0.06055 -0.05896
# Poissons Ratio (y) = -0.05385 0.11378
# Poissons Ratio (z) = -0.04612 0.10007
#
# Static dielectric constant tensor:
#      x y z
#    x 1.690940 0.000000 -0.016080 
#    y 0.000000 1.749380 0.000000 
#    z -0.016080 0.000000 1.761490 
# 
# From -- ./inp_files/292341.got.cif
#   From: 2010.05.17/outbox.cif.g08.bks.cpg/sg12_147_cif.got.tgz:292341.got - 2010.06.03 13:09:07.
