data_PCOD9204214
_publ_section_title
;
Structure prediction by ZEFSAII (Michael W. Deem and Ramdas Pophale) SiO2 
 PCOD9204214
Probable space group: C 2/M
;
_chemical_formula_sum "Si O2"
_cell_formula_units_Z 38
_cell_length_a 13.738964
_cell_length_b 17.656699
_cell_length_c 11.120575
_cell_angle_alpha 90.000000
_cell_angle_beta 43.451034
_cell_angle_gamma 90.000000
_cell_volume 1855.288679
_symmetry_space_group_name_H-M "C 2/M"
_symmetry_group_IT_number 12
_symmetry_cell_setting 'monoclinic'
loop_
_space_group_symop_operation_xyz
x,y,z
-x,y,-z
-x,-y,-z
x,-y,z
1/2+x,1/2+y,z
1/2-x,1/2+y,-z
1/2-x,1/2-y,-z
1/2+x,1/2-y,z
loop_
_atom_site_type_symbol
_atom_site_label
_atom_site_fract_x
_atom_site_fract_y
_atom_site_fract_z
Si Si1 0.542236 0.305541 0.601448
Si Si2 0.000000 0.726147 0.000000
Si Si3 0.148090 0.654662 0.646059
Si Si4 0.560883 0.914914 0.319091
Si Si5 0.500000 0.500000 0.000000
Si Si6 0.141531 0.858269 0.020198
O O1 0.500000 0.301300 0.500000
O O2 0.684419 0.354147 0.497658
O O3 0.595547 0.224712 0.607610
O O4 0.416864 0.340149 0.794713
O O5 0.910197 0.676338 0.171713
O O6 0.100893 0.783390 0.981699
O O7 0.066942 0.585545 0.659695
O O8 0.500000 0.885301 0.500000
O O9 0.612411 0.000000 0.298476
O O10 0.691473 0.870188 0.145489
O O11 0.435131 0.431791 0.968926
#
# Coordination Sequence:
#
# PCOD9204214 Si02
#       6
#     8   4   8   8   2   8
#     4  10  23  40  64  92 127 163 209 261 312 371
#     4   9  22  37  65  94 121 162 208 260 311 362
#     4  10  23  39  63  95 125 162 207 261 319 365
#     4  11  25  40  63  93 125 164 208 259 314 372
#     4  10  20  40  68  84 128 154 218 254 304 380
#     4  10  22  39  65  93 120 167 208 257 313 366
#
# _framework density 20.481988999999999
#
# number of rings (size 3 to 8) (size 9 to 14) (size 15 to 20)
#    0.000    1.895    1.053    0.632   17.684    1.684 
#    0.000    1.053    0.000    0.000    0.000    0.000 
#    0.000    0.000    0.000    0.000    0.000    0.000 
#
# Total GULP energy -105805.479750 kJ/mol
# GULP energy per Si atom -5568.709461 kJ/mol
# Density = 2.043537 g / cm^3
# Si number density = 20.481989 Si / 1000 Ang^3
#
#
#
# Elastic Constant Matrix: (Units=GPa)
#
#
# Indices 1 2 3 4 5 6 
#
# 1 96.6826 12.1534 82.2922 0.0001 12.7165 -0.0001
# 2 12.1534 47.3428 32.7880 0.0001 6.2155 -0.0001
# 3 82.2922 32.7880 172.2859 0.0001 3.7397 -0.0002
# 4 0.0001 0.0001 0.0001 18.7360 -0.0001 -7.1778
# 5 12.7165 6.2155 3.7397 -0.0001 36.5155 0.0001
# 6 -0.0001 -0.0001 -0.0002 -7.1778 0.0001 20.5419
#
#
#
# Elastic Compliance Matrix: (Units=1/GPa)
#
#
# Indices 1 2 3 4 5 6 
#
# 1 0.018714 0.002397 -0.009265 0.000000 -0.005976 0.000000
# 2 0.002397 0.025139 -0.005831 0.000000 -0.004517 0.000000
# 3 -0.009265 -0.005831 0.011273 0.000000 0.003065 0.000000
# 4 0.000000 0.000000 0.000000 0.061622 0.000000 0.021532
# 5 -0.005976 -0.004517 0.003065 0.000000 0.029922 0.000000
# 6 0.000000 0.000000 0.000000 0.021532 0.000000 0.056205
#
#
# Mechanical properties :
#
#
# Convention : Reuss Voigt Hill
#
# Bulk Modulus (GPa) = 33.63898 63.41982 48.52940
# Shear Modulus (GPa) = 20.99236 27.76386 24.37811
#
# Velocity S-wave (km/s) = 3.20491 3.68574 3.45370
# Velocity P-wave (km/s) = 5.49132 7.01027 6.29676
#
# Compressibility (1/GPa) = 0.02972742
#
# Stress axis : x y z
#
# Youngs Moduli (GPa) = 53.43590 39.77950 88.70708
#
# Poissons Ratio (x) = -0.09536 0.82189
# Poissons Ratio (y) = -0.12810 0.51727
# Poissons Ratio (z) = 0.49510 0.23196
#
# Static dielectric constant tensor:
#      x y z
#    x 1.744220 0.000000 -0.026930 
#    y 0.000000 1.765690 0.000000 
#    z -0.026930 0.000000 1.741110 
# 
# From -- ./inp_files/145284.got.cif
#   From: 2010.05.17/outbox.cif.g08.bks.cpg/sg12_73_cif.got.tgz:145284.got - 2010.06.03 13:09:07.
