data_PCOD9204532
_publ_section_title
;
Structure prediction by ZEFSAII (Michael W. Deem and Ramdas Pophale) SiO2 
 PCOD9204532
Probable space group: C 2/M
;
_chemical_formula_sum "Si O2"
_cell_formula_units_Z 50
_cell_length_a 5.812705
_cell_length_b 27.563789
_cell_length_c 14.206750
_cell_angle_alpha 90.000000
_cell_angle_beta 115.440628
_cell_angle_gamma 90.000000
_cell_volume 2055.486147
_symmetry_space_group_name_H-M "C 2/M"
_symmetry_group_IT_number 12
_symmetry_cell_setting 'monoclinic'
loop_
_space_group_symop_operation_xyz
x,y,z
-x,y,-z
-x,-y,-z
x,-y,z
1/2+x,1/2+y,z
1/2-x,1/2+y,-z
1/2-x,1/2-y,-z
1/2+x,1/2-y,z
loop_
_atom_site_type_symbol
_atom_site_label
_atom_site_fract_x
_atom_site_fract_y
_atom_site_fract_z
Si Si1 0.929049 0.178752 0.385092
Si Si2 0.912431 0.860417 0.089456
Si Si3 0.805322 0.555730 0.841130
Si Si4 0.930124 0.616982 0.256386
Si Si5 0.164064 0.078408 0.374663
Si Si6 0.500000 0.000000 0.500000
Si Si7 0.731279 0.726770 0.828121
O O1 0.654969 0.151924 0.328009
O O2 0.000000 0.198946 0.500000
O O3 0.120159 0.133244 0.401191
O O4 0.911408 0.216515 0.296607
O O5 0.807349 0.914423 0.090698
O O6 0.169833 0.854234 0.196008
O O7 0.725680 0.823321 0.107991
O O8 0.000000 0.850323 0.000000
O O9 0.864932 0.500000 0.870414
O O10 0.024091 0.587800 0.831888
O O11 0.591189 0.559664 0.721041
O O12 0.869038 0.578504 0.326125
O O13 0.277494 0.042149 0.468519
O O14 0.014442 0.746620 0.853656
#
# Coordination Sequence:
#
# PCOD9204532 Si02
#       7
#     8   8   8   8   8   2   8
#     4  11  23  44  68  99 141 190 237 292 363 443
#     4  11  25  47  74 101 141 186 238 308 381 445
#     4  10  21  40  66  99 139 185 237 292 362 435
#     4  10  20  42  66  96 140 193 232 293 364 430
#     4  10  21  36  59  94 140 184 231 291 353 423
#     4  12  20  32  58 108 130 182 252 284 358 436
#     4  12  27  49  77 111 148 191 250 316 378 453
#
# _framework density 24.325146
#
# number of rings (size 3 to 8) (size 9 to 14) (size 15 to 20)
#    0.000    1.280    5.600    1.920    1.120    2.880 
#    0.000    2.800    0.000    0.000    0.000    0.000 
#    0.000    0.000    0.000    0.000    0.000    0.000 
#
# Total GULP energy -139453.472571 kJ/mol
# GULP energy per Si atom -5578.138903 kJ/mol
# Density = 2.426978 g / cm^3
# Si number density = 24.325146 Si / 1000 Ang^3
#
#
#
# Elastic Constant Matrix: (Units=GPa)
#
#
# Indices 1 2 3 4 5 6 
#
# 1 102.9048 31.4911 4.5484 0.0000 -6.2232 0.0000
# 2 31.4911 67.9374 -3.8649 0.0000 -1.1470 0.0000
# 3 4.5484 -3.8649 90.8387 0.0000 -1.4849 0.0000
# 4 0.0000 0.0000 0.0000 2.3607 0.0000 4.4767
# 5 -6.2232 -1.1470 -1.4849 0.0000 28.9292 0.0000
# 6 0.0000 0.0000 0.0000 4.4767 0.0000 9.2952
#
#
#
# Elastic Compliance Matrix: (Units=1/GPa)
#
#
# Indices 1 2 3 4 5 6 
#
# 1 0.011523 -0.005347 -0.000768 0.000000 0.002227 0.000000
# 2 -0.005347 0.017248 0.000995 0.000000 -0.000415 0.000000
# 3 -0.000768 0.000995 0.011097 0.000000 0.000444 0.000000
# 4 0.000000 0.000000 0.000000 4.887243 0.000000 -2.353767
# 5 0.002227 -0.000415 0.000444 0.000000 0.035053 0.000000
# 6 0.000000 0.000000 0.000000 -2.353767 0.000000 1.241191
#
#
# Mechanical properties :
#
#
# Convention : Reuss Voigt Hill
#
# Bulk Modulus (GPa) = 33.75424 36.22556 34.98990
# Shear Modulus (GPa) = 0.80341 23.41742 12.11041
#
# Velocity S-wave (km/s) = 0.57532 3.10608 2.23369
# Velocity P-wave (km/s) = 3.78784 5.27145 4.58999
#
# Compressibility (1/GPa) = 0.02962590
#
# Stress axis : x y z
#
# Youngs Moduli (GPa) = 86.78494 57.97900 90.11803
#
# Poissons Ratio (x) = 0.31003 0.06922
# Poissons Ratio (y) = 0.46406 -0.08965
# Poissons Ratio (z) = 0.06666 -0.05768
#
# Static dielectric constant tensor:
#      x y z
#    x 1.989810 0.000000 -0.020150 
#    y 0.000000 1.448670 0.000000 
#    z -0.020150 0.000000 1.962000 
# 
# From -- ./inp_files/192630.got.cif
#   From: 2010.05.17/outbox.cif.g08.bks.cpg/sg12_97_cif.got.tgz:192630.got - 2010.06.03 13:09:07.
