data_PCOD9204175
_publ_section_title
;
Structure prediction by ZEFSAII (Michael W. Deem and Ramdas Pophale) SiO2 
 PCOD9204175
Probable space group: C 2/M
;
_chemical_formula_sum "Si O2"
_cell_formula_units_Z 48
_cell_length_a 14.338173
_cell_length_b 10.935227
_cell_length_c 15.559183
_cell_angle_alpha 90.000000
_cell_angle_beta 78.003694
_cell_angle_gamma 90.000000
_cell_volume 2386.265445
_symmetry_space_group_name_H-M "C 2/M"
_symmetry_group_IT_number 12
_symmetry_cell_setting 'monoclinic'
loop_
_space_group_symop_operation_xyz
x,y,z
-x,y,-z
-x,-y,-z
x,-y,z
1/2+x,1/2+y,z
1/2-x,1/2+y,-z
1/2-x,1/2-y,-z
1/2+x,1/2-y,z
loop_
_atom_site_type_symbol
_atom_site_label
_atom_site_fract_x
_atom_site_fract_y
_atom_site_fract_z
Si Si1 0.044528 0.144038 0.400332
Si Si2 0.076483 0.705820 0.713007
Si Si3 0.299622 0.359450 0.178060
Si Si4 0.249008 0.862393 0.433174
Si Si5 0.398621 0.134800 0.848999
Si Si6 0.105837 0.860478 0.019460
O O1 0.158285 0.158767 0.388100
O O2 0.000000 0.185316 0.500000
O O3 0.990660 0.211366 0.334479
O O4 0.025179 0.000000 0.395205
O O5 0.141779 0.780717 0.766710
O O6 0.152054 0.639142 0.637378
O O7 0.001080 0.633107 0.784675
O O8 0.328066 0.500000 0.186022
O O9 0.185802 0.350061 0.204379
O O10 0.325916 0.330887 0.073979
O O11 0.250000 0.750000 0.500000
O O12 0.235184 0.000000 0.474048
O O13 0.392359 0.251971 0.912117
O O14 0.381951 0.000000 0.893585
O O15 0.126637 0.000000 0.047191
O O16 0.000000 0.863357 0.000000
#
# Coordination Sequence:
#
# PCOD9204175 Si02
#       6
#     8   8   8   8   8   8
#     4  10  21  39  64  92 120 158 210 258 307 372
#     4  12  22  40  64  92 126 166 205 260 315 368
#     4  10  22  40  64  94 129 168 210 253 305 373
#     4  11  24  43  64  91 123 160 207 260 313 375
#     4  11  24  41  62  95 133 164 204 257 315 371
#     4  10  20  40  66  93 124 167 218 255 295 365
#
# _framework density 20.115113000000001
#
# number of rings (size 3 to 8) (size 9 to 14) (size 15 to 20)
#    0.000    1.333    3.333    2.500    0.000    1.667 
#    0.000    4.167    0.000    0.000    0.000    0.000 
#    0.000    0.000    0.000    0.000    0.000    0.000 
#
# Total GULP energy -133938.418876 kJ/mol
# GULP energy per Si atom -5580.767453 kJ/mol
# Density = 2.006933 g / cm^3
# Si number density = 20.115113 Si / 1000 Ang^3
#
#
#
# Elastic Constant Matrix: (Units=GPa)
#
#
# Indices 1 2 3 4 5 6 
#
# 1 113.3167 49.0711 23.0741 0.0000 -4.5049 0.0000
# 2 49.0711 149.5063 67.4157 0.0000 24.1786 0.0000
# 3 23.0741 67.4157 58.9997 0.0000 0.8162 0.0000
# 4 0.0000 0.0000 0.0000 34.2371 0.0000 2.5339
# 5 -4.5049 24.1786 0.8162 0.0000 34.8932 0.0000
# 6 0.0000 0.0000 0.0000 2.5339 0.0000 27.9159
#
#
#
# Elastic Compliance Matrix: (Units=1/GPa)
#
#
# Indices 1 2 3 4 5 6 
#
# 1 0.010889 -0.004953 0.001335 0.000000 0.004807 0.000000
# 2 -0.004953 0.019803 -0.020498 0.000000 -0.013882 0.000000
# 3 0.001335 -0.020498 0.039663 0.000000 0.013448 0.000000
# 4 0.000000 0.000000 0.000000 0.029406 0.000000 -0.002669
# 5 0.004807 -0.013882 0.013448 0.000000 0.038584 0.000000
# 6 0.000000 0.000000 0.000000 -0.002669 0.000000 0.036064
#
#
# Mechanical properties :
#
#
# Convention : Reuss Voigt Hill
#
# Bulk Modulus (GPa) = 45.20452 66.77160 55.98806
# Shear Modulus (GPa) = 21.73764 31.56002 26.64883
#
# Velocity S-wave (km/s) = 3.29091 3.96532 3.64375
# Velocity P-wave (km/s) = 6.07962 7.36423 6.75254
#
# Compressibility (1/GPa) = 0.02212168
#
# Stress axis : x y z
#
# Youngs Moduli (GPa) = 91.83468 50.49867 25.21229
#
# Poissons Ratio (x) = 0.25014 -0.03365
# Poissons Ratio (y) = 0.45489 0.51680
# Poissons Ratio (z) = -0.12258 1.03512
#
# Static dielectric constant tensor:
#      x y z
#    x 1.709800 0.000000 -0.050990 
#    y 0.000000 1.701460 0.000000 
#    z -0.050990 0.000000 1.737910 
# 
# From -- ./inp_files/212532.got.cif
#   From: 2010.05.17/outbox.cif.g08.bks.cpg/sg12_107_cif.got.tgz:212532.got - 2010.06.03 13:09:07.
