data_PCOD9204345
_publ_section_title
;
Structure prediction by ZEFSAII (Michael W. Deem and Ramdas Pophale) SiO2 
 PCOD9204345
Probable space group: C 2/M
;
_chemical_formula_sum "Si O2"
_cell_formula_units_Z 32
_cell_length_a 9.995121
_cell_length_b 25.097220
_cell_length_c 14.559055
_cell_angle_alpha 90.000000
_cell_angle_beta 153.581722
_cell_angle_gamma 90.000000
_cell_volume 1624.911327
_symmetry_space_group_name_H-M "C 2/M"
_symmetry_group_IT_number 12
_symmetry_cell_setting 'monoclinic'
loop_
_space_group_symop_operation_xyz
x,y,z
-x,y,-z
-x,-y,-z
x,-y,z
1/2+x,1/2+y,z
1/2-x,1/2+y,-z
1/2-x,1/2-y,-z
1/2+x,1/2-y,z
loop_
_atom_site_type_symbol
_atom_site_label
_atom_site_fract_x
_atom_site_fract_y
_atom_site_fract_z
Si Si1 0.646417 0.614902 0.304526
Si Si2 0.232836 0.500000 0.408642
Si Si3 0.304127 0.698789 0.969788
Si Si4 0.144800 0.000000 0.305373
Si Si5 0.768912 0.619089 0.591825
O O1 0.487623 0.658739 0.147106
O O2 0.521307 0.556642 0.199033
O O3 0.629947 0.623168 0.403941
O O4 0.000000 0.615309 0.500000
O O5 0.500000 0.500000 0.500000
O O6 0.374591 0.500000 0.596970
O O7 0.085888 0.559018 0.311857
O O8 0.500000 0.712105 0.000000
O O9 0.250000 0.750000 0.000000
O O10 0.007433 0.666027 0.756027
O O11 0.500000 0.000000 0.500000
O O12 0.500000 0.622348 0.500000
#
# Coordination Sequence:
#
# PCOD9204345 Si02
#       5
#     8   4   8   4   8
#     4  10  20  41  64  92 128 158 198 254 311 364
#     4   8  16  35  61  93 127 155 193 241 305 377
#     4  12  28  44  62  90 121 164 219 256 299 366
#     4   8  16  31  61  93 121 154 191 245 307 370
#     4  10  22  41  67  95 126 163 199 251 312 365
#
# _framework density 19.693382
#
# number of rings (size 3 to 8) (size 9 to 14) (size 15 to 20)
#    0.000    2.000    2.500    0.000    3.500    3.000 
#    0.000    1.250    0.000    9.000    0.000    0.000 
#    0.000    0.000    0.000    0.000    0.000    0.000 
#
# Total GULP energy -89187.505332 kJ/mol
# GULP energy per Si atom -5574.219083 kJ/mol
# Density = 1.964856 g / cm^3
# Si number density = 19.693382 Si / 1000 Ang^3
#
#
#
# Elastic Constant Matrix: (Units=GPa)
#
#
# Indices 1 2 3 4 5 6 
#
# 1 159.8878 56.4911 23.4579 -0.0001 -6.6448 0.0001
# 2 56.4911 197.9689 48.1857 0.0000 -9.9269 0.0000
# 3 23.4579 48.1857 51.1199 -0.0004 -13.1081 -0.0001
# 4 -0.0001 0.0000 -0.0004 28.8640 0.0001 -6.8981
# 5 -6.6448 -9.9269 -13.1081 0.0001 20.3805 0.0001
# 6 0.0001 0.0000 -0.0001 -6.8981 0.0001 33.1829
#
#
#
# Elastic Compliance Matrix: (Units=1/GPa)
#
#
# Indices 1 2 3 4 5 6 
#
# 1 0.007077 -0.001603 -0.001611 0.000000 0.000491 0.000000
# 2 -0.001603 0.006933 -0.006069 0.000000 -0.001049 0.000000
# 3 -0.001611 -0.006069 0.030092 0.000000 0.015873 0.000000
# 4 0.000000 0.000000 0.000000 0.036456 0.000000 0.007579
# 5 0.000491 -0.001049 0.015873 0.000000 0.058924 0.000000
# 6 0.000000 0.000000 0.000000 0.007579 0.000000 0.031711
#
#
# Mechanical properties :
#
#
# Convention : Reuss Voigt Hill
#
# Bulk Modulus (GPa) = 39.15876 73.91623 56.53749
# Shear Modulus (GPa) = 25.21789 35.20827 30.21308
#
# Velocity S-wave (km/s) = 3.58233 4.23285 3.92110
# Velocity P-wave (km/s) = 6.08590 7.84247 7.01935
#
# Compressibility (1/GPa) = 0.02553707
#
# Stress axis : x y z
#
# Youngs Moduli (GPa) = 141.29377 144.23344 33.23197
#
# Poissons Ratio (x) = 0.23118 0.05354
# Poissons Ratio (y) = 0.22647 0.20167
# Poissons Ratio (z) = 0.22763 0.87530
#
# Static dielectric constant tensor:
#      x y z
#    x 1.768290 0.000000 0.075150 
#    y 0.000000 1.743980 0.000000 
#    z 0.075150 0.000000 1.739720 
# 
# From -- ./inp_files/7133.got.cif
#   From: 2010.05.17/outbox.cif.g08.bks.cpg/sg12_4_cif.got.tgz:7133.got - 2010.06.03 13:09:07.
