data_PCOD9204115
_publ_section_title
;
Structure prediction by ZEFSAII (Michael W. Deem and Ramdas Pophale) SiO2 
 PCOD9204115
Probable space group: C 2/M
;
_chemical_formula_sum "Si O2"
_cell_formula_units_Z 40
_cell_length_a 15.044776
_cell_length_b 14.918656
_cell_length_c 14.600631
_cell_angle_alpha 90.000000
_cell_angle_beta 36.263231
_cell_angle_gamma 90.000000
_cell_volume 1938.379288
_symmetry_space_group_name_H-M "C 2/M"
_symmetry_group_IT_number 12
_symmetry_cell_setting 'monoclinic'
loop_
_space_group_symop_operation_xyz
x,y,z
-x,y,-z
-x,-y,-z
x,-y,z
1/2+x,1/2+y,z
1/2-x,1/2+y,-z
1/2-x,1/2-y,-z
1/2+x,1/2-y,z
loop_
_atom_site_type_symbol
_atom_site_label
_atom_site_fract_x
_atom_site_fract_y
_atom_site_fract_z
Si Si1 0.757269 0.643242 0.509767
Si Si2 0.078266 0.842875 0.189073
Si Si3 0.709978 0.500000 0.404172
Si Si4 0.851841 0.000000 0.747220
Si Si5 0.543719 0.185499 0.365453
Si Si6 0.648608 0.606118 0.935861
O O1 0.750000 0.750000 0.500000
O O2 0.592276 0.619811 0.684830
O O3 0.772369 0.587483 0.403777
O O4 0.900442 0.626208 0.454367
O O5 0.171624 0.913913 0.170637
O O6 0.063435 0.757952 0.268017
O O7 0.143654 0.836493 0.033652
O O8 0.529569 0.500000 0.571922
O O9 0.735985 0.500000 0.274764
O O10 0.500000 0.228027 0.500000
O O11 0.698733 0.132023 0.242917
O O12 0.649623 0.500000 0.958002
O O13 0.500000 0.624409 0.000000
#
# Coordination Sequence:
#
# PCOD9204115 Si02
#       6
#     8   8   4   4   8   8
#     4   9  20  35  58  92 125 155 205 251 311 368
#     4  10  20  40  65  91 120 159 206 256 305 369
#     4   9  18  32  56  87 124 159 188 261 301 365
#     4   9  18  32  62  89 116 149 208 243 309 355
#     4  11  24  39  64  92 125 159 205 258 311 363
#     4  11  24  43  63  87 125 168 210 248 303 373
#
# _framework density 20.635795999999999
#
# number of rings (size 3 to 8) (size 9 to 14) (size 15 to 20)
#    0.000    2.000    1.000    1.800    9.800    0.400 
#    0.000    0.000    0.000    1.200    0.000    0.000 
#    0.000    0.000    0.000    0.000    0.000    0.000 
#
# Total GULP energy -111548.343851 kJ/mol
# GULP energy per Si atom -5577.417193 kJ/mol
# Density = 2.058883 g / cm^3
# Si number density = 20.635796 Si / 1000 Ang^3
#
#
#
# Elastic Constant Matrix: (Units=GPa)
#
#
# Indices 1 2 3 4 5 6 
#
# 1 122.0721 38.9018 56.8700 0.0001 5.5507 0.0000
# 2 38.9018 64.4876 14.7356 0.0000 8.1962 0.0000
# 3 56.8700 14.7356 97.0699 0.0000 9.8136 0.0000
# 4 0.0001 0.0000 0.0000 10.0665 0.0000 1.2765
# 5 5.5507 8.1962 9.8136 0.0000 43.7406 0.0000
# 6 0.0000 0.0000 0.0000 1.2765 0.0000 27.4708
#
#
#
# Elastic Compliance Matrix: (Units=1/GPa)
#
#
# Indices 1 2 3 4 5 6 
#
# 1 0.013559 -0.006713 -0.007038 0.000000 0.001116 0.000000
# 2 -0.006713 0.019664 0.001263 0.000000 -0.003116 0.000000
# 3 -0.007038 0.001263 0.014496 0.000000 -0.002596 0.000000
# 4 0.000000 0.000000 0.000000 0.099928 0.000000 -0.004644
# 5 0.001116 -0.003116 -0.002596 0.000000 0.023887 0.000000
# 6 0.000000 0.000000 0.000000 -0.004644 0.000000 0.036618
#
#
# Mechanical properties :
#
#
# Convention : Reuss Voigt Hill
#
# Bulk Modulus (GPa) = 43.96921 56.07161 50.02041
# Shear Modulus (GPa) = 20.77203 27.79706 24.28455
#
# Velocity S-wave (km/s) = 3.17614 3.67417 3.43420
# Velocity P-wave (km/s) = 5.89949 6.72536 6.32592
#
# Compressibility (1/GPa) = 0.02274319
#
# Stress axis : x y z
#
# Youngs Moduli (GPa) = 73.75126 50.85428 68.98632
#
# Poissons Ratio (x) = 0.34140 0.48550
# Poissons Ratio (y) = 0.49511 -0.08713
# Poissons Ratio (z) = 0.51903 -0.06423
#
# Static dielectric constant tensor:
#      x y z
#    x 1.750180 0.000000 -0.012600 
#    y 0.000000 1.730250 0.000000 
#    z -0.012600 0.000000 1.762190 
# 
# From -- ./inp_files/214597.got.cif
#   From: 2010.05.17/outbox.cif.g08.bks.cpg/sg12_108_cif.got.tgz:214597.got - 2010.06.03 13:09:07.
