data_PCOD9204344
_publ_section_title
;
Structure prediction by ZEFSAII (Michael W. Deem and Ramdas Pophale) SiO2 
 PCOD9204344
Probable space group: C 2/M
;
_chemical_formula_sum "Si O2"
_cell_formula_units_Z 34
_cell_length_a 13.320647
_cell_length_b 11.621640
_cell_length_c 15.395893
_cell_angle_alpha 90.000000
_cell_angle_beta 39.803881
_cell_angle_gamma 90.000000
_cell_volume 1525.763901
_symmetry_space_group_name_H-M "C 2/M"
_symmetry_group_IT_number 12
_symmetry_cell_setting 'monoclinic'
loop_
_space_group_symop_operation_xyz
x,y,z
-x,y,-z
-x,-y,-z
x,-y,z
1/2+x,1/2+y,z
1/2-x,1/2+y,-z
1/2-x,1/2-y,-z
1/2+x,1/2-y,z
loop_
_atom_site_type_symbol
_atom_site_label
_atom_site_fract_x
_atom_site_fract_y
_atom_site_fract_z
Si Si1 0.500000 0.000000 0.000000
Si Si2 0.491974 0.249106 0.405222
Si Si3 0.995332 0.298364 0.873043
Si Si4 0.759444 0.633057 0.877077
Si Si5 0.674404 0.628646 0.632720
O O1 0.444671 0.101530 0.105179
O O2 0.500000 0.283323 0.500000
O O3 0.649557 0.193829 0.262417
O O4 0.433371 0.349678 0.380303
O O5 0.354543 0.152924 0.489578
O O6 0.878106 0.356501 0.880387
O O7 0.120656 0.225977 0.735600
O O8 0.890597 0.206094 0.994907
O O9 0.725084 0.500000 0.882376
O O10 0.652229 0.500000 0.680861
#
# Coordination Sequence:
#
# PCOD9204344 Si02
#       5
#     2   8   8   8   8
#     4  12  24  44  62  98 126 166 204 276 308 404
#     4  10  23  41  62  96 131 172 213 254 331 374
#     4  10  23  40  65  92 125 165 211 260 327 366
#     4  10  20  41  64  91 125 168 209 261 314 383
#     4  10  22  44  66  94 132 168 215 268 313 381
#
# _framework density 22.283920999999999
#
# number of rings (size 3 to 8) (size 9 to 14) (size 15 to 20)
#    0.000    1.882    1.176    1.412    3.294    2.353 
#    4.235    1.176    0.000    0.000    0.000    0.000 
#    0.000    0.000    0.000    0.000    0.000    0.000 
#
# Total GULP energy -94831.189214 kJ/mol
# GULP energy per Si atom -5578.305248 kJ/mol
# Density = 2.223320 g / cm^3
# Si number density = 22.283921 Si / 1000 Ang^3
#
#
#
# Elastic Constant Matrix: (Units=GPa)
#
#
# Indices 1 2 3 4 5 6 
#
# 1 58.6925 8.2794 7.1438 0.0000 21.0229 0.0000
# 2 8.2794 102.9512 15.8767 0.0000 10.9509 0.0000
# 3 7.1438 15.8767 114.8621 0.0000 18.8834 0.0000
# 4 0.0000 0.0000 0.0000 0.5225 0.0000 6.9872
# 5 21.0229 10.9509 18.8834 0.0000 28.7899 0.0000
# 6 0.0000 0.0000 0.0000 6.9872 0.0000 5.9391
#
#
#
# Elastic Compliance Matrix: (Units=1/GPa)
#
#
# Indices 1 2 3 4 5 6 
#
# 1 0.023308 -0.000201 0.001529 0.000000 -0.017946 0.000000
# 2 -0.000201 0.010201 -0.000878 0.000000 -0.003157 0.000000
# 3 0.001529 -0.000878 0.009932 0.000000 -0.007296 0.000000
# 4 0.000000 0.000000 0.000000 -0.129906 0.000000 0.152832
# 5 -0.017946 -0.003157 -0.007296 0.000000 0.053826 0.000000
# 6 0.000000 0.000000 0.000000 0.152832 0.000000 -0.011428
#
#
# Mechanical properties :
#
#
# Convention : Reuss Voigt Hill
#
# Bulk Modulus (GPa) = 22.55360 37.67841 30.11601
# Shear Modulus (GPa) = -165.64834 23.39733 -71.12550
#
# Velocity S-wave (km/s) = -8.63115 3.24383 -5.65572
# Velocity P-wave (km/s) = 9.44383 5.56552 5.39495
#
# Compressibility (1/GPa) = 0.04433881
#
# Stress axis : x y z
#
# Youngs Moduli (GPa) = 42.90290 98.03146 100.68480
#
# Poissons Ratio (x) = 0.01973 -0.15390
# Poissons Ratio (y) = 0.00863 0.08845
# Poissons Ratio (z) = -0.06558 0.08612
#
# Static dielectric constant tensor:
#      x y z
#    x 1.889630 0.000000 0.024830 
#    y 0.000000 1.730500 0.000000 
#    z 0.024830 0.000000 1.795190 
# 
# From -- ./inp_files/213197.got.cif
#   From: 2010.05.17/outbox.cif.g08.bks.cpg/sg12_107_cif.got.tgz:213197.got - 2010.06.03 13:09:07.
