data_PCOD9204480
_publ_section_title
;
Structure prediction by ZEFSAII (Michael W. Deem and Ramdas Pophale) SiO2 
 PCOD9204480
Probable space group: C 2/M
;
_chemical_formula_sum "Si O2"
_cell_formula_units_Z 50
_cell_length_a 12.117784
_cell_length_b 27.897373
_cell_length_c 12.573549
_cell_angle_alpha 90.000000
_cell_angle_beta 37.105438
_cell_angle_gamma 90.000000
_cell_volume 2564.283128
_symmetry_space_group_name_H-M "C 2/M"
_symmetry_group_IT_number 12
_symmetry_cell_setting 'monoclinic'
loop_
_space_group_symop_operation_xyz
x,y,z
-x,y,-z
-x,-y,-z
x,-y,z
1/2+x,1/2+y,z
1/2-x,1/2+y,-z
1/2-x,1/2-y,-z
1/2+x,1/2-y,z
loop_
_atom_site_type_symbol
_atom_site_label
_atom_site_fract_x
_atom_site_fract_y
_atom_site_fract_z
Si Si1 0.275543 0.074572 0.259983
Si Si2 0.289355 0.786573 0.694689
Si Si3 0.786509 0.680813 0.318403
Si Si4 0.798366 0.695971 0.930752
Si Si5 0.000000 0.500000 0.000000
Si Si6 0.052371 0.156279 0.705017
Si Si7 0.543108 0.552869 0.648861
O O1 0.288443 0.131731 0.250436
O O2 0.168100 0.059932 0.448702
O O3 0.158629 0.056640 0.248460
O O4 0.454592 0.042825 0.121072
O O5 0.500000 0.793342 0.500000
O O6 0.249193 0.729555 0.718389
O O7 0.258277 0.806926 0.836048
O O8 0.162120 0.813253 0.707670
O O9 0.631870 0.673964 0.529483
O O10 0.987999 0.685733 0.214741
O O11 0.750000 0.750000 0.000000
O O12 0.660779 0.664946 0.107695
O O13 0.083075 0.099289 0.688442
O O14 0.567951 0.500000 0.676051
#
# Coordination Sequence:
#
# PCOD9204480 Si02
#       7
#     8   8   8   8   2   8   8
#     4  10  22  34  60  90 128 161 199 253 315 372
#     4  12  24  42  64  87 131 167 207 262 310 367
#     4  11  25  40  60  94 126 167 210 249 311 384
#     4  12  25  40  61  89 125 167 212 253 304 367
#     4  12  20  34  56  92 132 158 200 252 308 372
#     4  11  24  42  63  91 122 166 207 257 314 369
#     4  10  20  42  62  87 120 164 205 255 314 370
#
# _framework density 19.498628
#
# number of rings (size 3 to 8) (size 9 to 14) (size 15 to 20)
#    0.000    0.960    4.800    2.400    8.960    0.000 
#    0.000    0.000    0.000    2.400    0.000    0.000 
#    0.000    0.000    0.000    0.000    0.000    0.000 
#
# Total GULP energy -139418.752944 kJ/mol
# GULP energy per Si atom -5576.750118 kJ/mol
# Density = 1.945425 g / cm^3
# Si number density = 19.498628 Si / 1000 Ang^3
#
#
#
# Elastic Constant Matrix: (Units=GPa)
#
#
# Indices 1 2 3 4 5 6 
#
# 1 36.8474 17.2678 20.1090 0.0000 4.4355 0.0000
# 2 17.2678 147.9650 35.3259 0.0000 3.3858 0.0000
# 3 20.1090 35.3259 108.5394 0.0000 -7.4957 0.0000
# 4 0.0000 0.0000 0.0000 28.8754 0.0000 3.7191
# 5 4.4355 3.3858 -7.4957 0.0000 15.2825 0.0000
# 6 0.0000 0.0000 0.0000 3.7191 0.0000 14.5842
#
#
#
# Elastic Compliance Matrix: (Units=1/GPa)
#
#
# Indices 1 2 3 4 5 6 
#
# 1 0.033008 -0.002073 -0.006284 0.000000 -0.012203 0.000000
# 2 -0.002073 0.007583 -0.002234 0.000000 -0.002174 0.000000
# 3 -0.006284 -0.002234 0.011660 0.000000 0.008037 0.000000
# 4 0.000000 0.000000 0.000000 0.035808 0.000000 -0.009131
# 5 -0.012203 -0.002174 0.008037 0.000000 0.073400 0.000000
# 6 0.000000 0.000000 0.000000 -0.009131 0.000000 0.070896
#
#
# Mechanical properties :
#
#
# Convention : Reuss Voigt Hill
#
# Bulk Modulus (GPa) = 32.18513 48.75081 40.46797
# Shear Modulus (GPa) = 18.94710 26.45836 22.70273
#
# Velocity S-wave (km/s) = 3.12062 3.68766 3.41592
# Velocity P-wave (km/s) = 5.43383 6.57177 6.02971
#
# Compressibility (1/GPa) = 0.03107024
#
# Stress axis : x y z
#
# Youngs Moduli (GPa) = 30.29536 131.86642 85.76585
#
# Poissons Ratio (x) = 0.27333 0.53891
# Poissons Ratio (y) = 0.06279 0.19163
# Poissons Ratio (z) = 0.19036 0.29463
#
# Static dielectric constant tensor:
#      x y z
#    x 1.707850 0.000000 -0.072300 
#    y 0.000000 1.392710 0.000000 
#    z -0.072300 0.000000 1.810730 
# 
# From -- ./inp_files/137574.got.cif
#   From: 2010.05.17/outbox.cif.g08.bks.cpg/sg12_69_cif.got.tgz:137574.got - 2010.06.03 13:09:07.
