data_PCOD9204989
_publ_section_title
;
Structure prediction by ZEFSAII (Michael W. Deem and Ramdas Pophale) SiO2 
 PCOD9204989
Probable space group: C 2/M
;
_chemical_formula_sum "Si O2"
_cell_formula_units_Z 44
_cell_length_a 15.682310
_cell_length_b 20.174371
_cell_length_c 8.546630
_cell_angle_alpha 90.000000
_cell_angle_beta 49.175747
_cell_angle_gamma 90.000000
_cell_volume 2046.158320
_symmetry_space_group_name_H-M "C 2/M"
_symmetry_group_IT_number 12
_symmetry_cell_setting 'monoclinic'
loop_
_space_group_symop_operation_xyz
x,y,z
-x,y,-z
-x,-y,-z
x,-y,z
1/2+x,1/2+y,z
1/2-x,1/2+y,-z
1/2-x,1/2-y,-z
1/2+x,1/2-y,z
loop_
_atom_site_type_symbol
_atom_site_label
_atom_site_fract_x
_atom_site_fract_y
_atom_site_fract_z
Si Si1 0.119526 0.573727 0.376189
Si Si2 0.791015 0.576034 0.087376
Si Si3 0.420204 0.747632 0.361232
Si Si4 0.655372 0.306899 0.129085
Si Si5 0.000000 0.352262 0.000000
Si Si6 0.283500 0.670384 0.288066
O O1 0.095618 0.500000 0.462425
O O2 0.169118 0.573168 0.142276
O O3 0.208641 0.605051 0.385594
O O4 0.000000 0.610490 0.500000
O O5 0.760544 0.500000 0.168122
O O6 0.896725 0.603717 0.059450
O O7 0.695445 0.633456 0.193808
O O8 0.534819 0.724982 0.302667
O O9 0.454139 0.804531 0.193671
O O10 0.366675 0.687561 0.326525
O O11 0.316147 0.774094 0.589306
O O12 0.750000 0.250000 0.000000
O O13 0.651686 0.331959 0.953146
#
# Coordination Sequence:
#
# PCOD9204989 Si02
#       6
#     8   8   8   8   4   8
#     4   9  18  33  52  78 109 144 186 229 279 335
#     4  10  21  34  55  81 111 151 186 228 287 338
#     4  11  21  35  55  85 113 148 188 232 283 331
#     4  11  20  37  57  82 116 147 188 236 275 335
#     4  12  19  36  52  80 119 144 188 236 277 328
#     4  10  21  34  55  82 114 144 185 234 281 333
#
# _framework density 21.503712
#
# number of rings (size 3 to 8) (size 9 to 14) (size 15 to 20)
#    0.000    1.636    3.636    1.364    2.545    0.000 
#    0.000    1.818    0.000    4.364    0.000   12.727 
#    0.000    0.000    0.000    0.000    0.000    0.000 
#
# Total GULP energy -122830.820231 kJ/mol
# GULP energy per Si atom -5583.219101 kJ/mol
# Density = 2.145477 g / cm^3
# Si number density = 21.503712 Si / 1000 Ang^3
#
#
#
# Elastic Constant Matrix: (Units=GPa)
#
#
# Indices 1 2 3 4 5 6 
#
# 1 150.0317 67.9870 21.3829 0.0000 -21.1177 0.0000
# 2 67.9870 117.0148 8.0773 0.0000 -1.4484 0.0000
# 3 21.3829 8.0773 68.2767 0.0000 -3.8111 0.0000
# 4 0.0000 0.0000 0.0000 10.4519 0.0000 -7.5776
# 5 -21.1177 -1.4484 -3.8111 0.0000 26.3035 0.0000
# 6 0.0000 0.0000 0.0000 -7.5776 0.0000 36.4633
#
#
#
# Elastic Compliance Matrix: (Units=1/GPa)
#
#
# Indices 1 2 3 4 5 6 
#
# 1 0.010864 -0.006058 -0.002236 0.000000 0.008065 0.000000
# 2 -0.006058 0.011997 0.000245 0.000000 -0.004168 0.000000
# 3 -0.002236 0.000245 0.015342 0.000000 0.000442 0.000000
# 4 0.000000 0.000000 0.000000 0.112649 0.000000 0.023410
# 5 0.008065 -0.004168 0.000442 0.000000 0.044327 0.000000
# 6 0.000000 0.000000 0.000000 0.023410 0.000000 0.032290
#
#
# Mechanical properties :
#
#
# Convention : Reuss Voigt Hill
#
# Bulk Modulus (GPa) = 45.23495 58.91306 52.07401
# Shear Modulus (GPa) = 19.92551 30.50216 25.21383
#
# Velocity S-wave (km/s) = 3.04733 3.77033 3.42794
# Velocity P-wave (km/s) = 5.78473 6.81249 6.31954
#
# Compressibility (1/GPa) = 0.02210680
#
# Stress axis : x y z
#
# Youngs Moduli (GPa) = 92.04466 83.35246 65.18032
#
# Poissons Ratio (x) = 0.50496 0.14572
# Poissons Ratio (y) = 0.55762 -0.01599
# Poissons Ratio (z) = 0.20578 -0.02045
#
# Static dielectric constant tensor:
#      x y z
#    x 1.766570 0.000000 0.026550 
#    y 0.000000 1.838720 0.000000 
#    z 0.026550 0.000000 1.825570 
# 
# From -- ./inp_files/63270.got.cif
#   From: 2010.05.17/outbox.cif.g08.bks.cpg/sg12_32_cif.got.tgz:63270.got - 2010.06.03 13:09:07.
