data_PCOD9204211
_publ_section_title
;
Structure prediction by ZEFSAII (Michael W. Deem and Ramdas Pophale) SiO2 
 PCOD9204211
Probable space group: C 2/M
;
_chemical_formula_sum "Si O2"
_cell_formula_units_Z 48
_cell_length_a 24.478814
_cell_length_b 21.267097
_cell_length_c 10.629610
_cell_angle_alpha 90.000000
_cell_angle_beta 155.584010
_cell_angle_gamma 90.000000
_cell_volume 2287.403896
_symmetry_space_group_name_H-M "C 2/M"
_symmetry_group_IT_number 12
_symmetry_cell_setting 'monoclinic'
loop_
_space_group_symop_operation_xyz
x,y,z
-x,y,-z
-x,-y,-z
x,-y,z
1/2+x,1/2+y,z
1/2-x,1/2+y,-z
1/2-x,1/2-y,-z
1/2+x,1/2-y,z
loop_
_atom_site_type_symbol
_atom_site_label
_atom_site_fract_x
_atom_site_fract_y
_atom_site_fract_z
Si Si1 0.351755 0.208953 0.131049
Si Si2 0.159720 0.433298 0.835206
Si Si3 0.288590 0.696387 0.411310
Si Si4 0.264854 0.431415 0.772760
Si Si5 0.547380 0.428015 0.244792
Si Si6 0.367083 0.822998 0.659507
O O1 0.500000 0.217233 0.500000
O O2 0.312833 0.135580 0.057027
O O3 0.250000 0.250000 0.000000
O O4 0.322060 0.220066 0.920772
O O5 0.202669 0.500000 0.986219
O O6 0.224172 0.432882 0.832434
O O7 0.000000 0.435495 0.500000
O O8 0.358837 0.630540 0.526528
O O9 0.386170 0.755881 0.631524
O O10 0.229917 0.685493 0.426348
O O11 0.226268 0.500000 0.637071
O O12 0.190081 0.373890 0.554027
O O13 0.419619 0.424476 0.067297
O O14 0.600400 0.500000 0.363607
O O15 0.500000 0.419798 0.000000
O O16 0.500000 0.846785 0.000000
#
# Coordination Sequence:
#
# PCOD9204211 Si02
#       6
#     8   8   8   8   8   8
#     4  11  26  44  66  92 128 173 223 271 322 386
#     4   9  20  40  64  90 125 169 213 262 317 376
#     4  11  25  41  64  95 131 170 216 265 332 386
#     4  10  21  40  66  96 132 170 213 267 323 388
#     4  10  20  40  67  98 133 166 209 263 324 392
#     4  11  25  38  63  97 132 170 210 266 327 400
#
# _framework density 20.984487999999999
#
# number of rings (size 3 to 8) (size 9 to 14) (size 15 to 20)
#    0.000    1.667    1.667    1.500    9.333    2.333 
#    0.000    0.000    0.000    3.500    0.000    0.000 
#    0.000    0.000    0.000    0.000    0.000    0.000 
#
# Total GULP energy -133794.437116 kJ/mol
# GULP energy per Si atom -5574.768213 kJ/mol
# Density = 2.093673 g / cm^3
# Si number density = 20.984488 Si / 1000 Ang^3
#
#
#
# Elastic Constant Matrix: (Units=GPa)
#
#
# Indices 1 2 3 4 5 6 
#
# 1 57.5881 -4.9421 26.2431 0.0000 12.5305 0.0000
# 2 -4.9421 116.0017 38.1062 0.0000 11.7014 0.0000
# 3 26.2431 38.1062 78.7803 0.0000 -5.2480 0.0000
# 4 0.0000 0.0000 0.0000 18.1735 0.0000 1.9583
# 5 12.5305 11.7014 -5.2480 0.0000 31.3520 0.0000
# 6 0.0000 0.0000 0.0000 1.9583 0.0000 27.5785
#
#
#
# Elastic Compliance Matrix: (Units=1/GPa)
#
#
# Indices 1 2 3 4 5 6 
#
# 1 0.027902 0.007416 -0.013965 0.000000 -0.016257 0.000000
# 2 0.007416 0.012957 -0.009362 0.000000 -0.009367 0.000000
# 3 -0.013965 -0.009362 0.022732 0.000000 0.012881 0.000000
# 4 0.000000 0.000000 0.000000 0.055450 0.000000 -0.003937
# 5 -0.016257 -0.009367 0.012881 0.000000 0.044046 0.000000
# 6 0.000000 0.000000 0.000000 -0.003937 0.000000 0.036540
#
#
# Mechanical properties :
#
#
# Convention : Reuss Voigt Hill
#
# Bulk Modulus (GPa) = 31.47623 41.24273 36.35948
# Shear Modulus (GPa) = 20.65802 28.28498 24.47150
#
# Velocity S-wave (km/s) = 3.14099 3.67536 3.41863
# Velocity P-wave (km/s) = 5.30912 6.14065 5.73996
#
# Compressibility (1/GPa) = 0.03177001
#
# Stress axis : x y z
#
# Youngs Moduli (GPa) = 35.83910 77.18055 43.99127
#
# Poissons Ratio (x) = -0.57238 0.61434
# Poissons Ratio (y) = -0.26579 0.41183
# Poissons Ratio (z) = 0.50049 0.72253
#
# Static dielectric constant tensor:
#      x y z
#    x 1.810380 0.000000 -0.038560 
#    y 0.000000 2.727010 0.000000 
#    z -0.038560 0.000000 1.808970 
# 
# From -- ./inp_files/184823.got.cif
#   From: 2010.05.17/outbox.cif.g08.bks.cpg/sg12_93_cif.got.tgz:184823.got - 2010.06.03 13:09:07.
