data_PCOD9204625
_publ_section_title
;
Structure prediction by ZEFSAII (Michael W. Deem and Ramdas Pophale) SiO2 
 PCOD9204625
Probable space group: C 2/M
;
_chemical_formula_sum "Si O2"
_cell_formula_units_Z 58
_cell_length_a 8.465791
_cell_length_b 28.830857
_cell_length_c 10.358624
_cell_angle_alpha 90.000000
_cell_angle_beta 79.442456
_cell_angle_gamma 90.000000
_cell_volume 2485.491141
_symmetry_space_group_name_H-M "C 2/M"
_symmetry_group_IT_number 12
_symmetry_cell_setting 'monoclinic'
loop_
_space_group_symop_operation_xyz
x,y,z
-x,y,-z
-x,-y,-z
x,-y,z
1/2+x,1/2+y,z
1/2-x,1/2+y,-z
1/2-x,1/2-y,-z
1/2+x,1/2-y,z
loop_
_atom_site_type_symbol
_atom_site_label
_atom_site_fract_x
_atom_site_fract_y
_atom_site_fract_z
Si Si1 0.840244 0.856738 0.937121
Si Si2 0.596511 0.944496 0.313607
Si Si3 0.875424 0.241863 0.297835
Si Si4 0.860499 0.820202 0.641919
Si Si5 0.250343 0.417273 0.556940
Si Si6 0.186085 0.446901 0.011179
Si Si7 0.337561 0.786195 0.891285
Si Si8 0.000000 0.000000 0.500000
O O1 0.847519 0.833004 0.797152
O O2 0.804973 0.910867 0.927804
O O3 0.688400 0.834935 0.036064
O O4 0.000000 0.848271 0.000000
O O5 0.694261 0.922096 0.416299
O O6 0.416597 0.923825 0.339158
O O7 0.687208 0.939194 0.165194
O O8 0.582615 0.000000 0.341037
O O9 0.779614 0.284247 0.373951
O O10 0.752322 0.212125 0.232228
O O11 0.973982 0.208711 0.376632
O O12 0.991758 0.266074 0.174057
O O13 0.831382 0.868209 0.574480
O O14 0.371579 0.459183 0.563389
O O15 0.228932 0.500000 0.975766
O O16 0.000000 0.440526 0.000000
O O17 0.250000 0.750000 0.000000
#
# Coordination Sequence:
#
# PCOD9204625 Si02
#       8
#     8   8   8   8   8   8   8   2
#     4  12  23  36  58 100 142 181 225 281 335 413
#     4  10  20  46  74  95 132 180 231 277 328 426
#     4  10  21  37  58  91 138 179 223 285 338 388
#     4  11  24  40  65 102 139 182 233 285 338 406
#     4  11  23  43  71 107 127 173 237 283 341 397
#     4  10  24  42  65  99 138 180 217 267 343 417
#     4  11  18  32  57  87 128 180 226 274 320 397
#     4  12  24  46  76 104 134 162 218 312 326 394
#
# _framework density 23.335428
#
# number of rings (size 3 to 8) (size 9 to 14) (size 15 to 20)
#    0.000    1.241    5.517    1.655    3.862    1.379 
#    1.241    1.379    0.000    5.793    0.000    0.000 
#    0.000    0.000    0.000    0.000    0.000    0.000 
#
# Total GULP energy -162042.099656 kJ/mol
# GULP energy per Si atom -5587.658609 kJ/mol
# Density = 2.328232 g / cm^3
# Si number density = 23.335428 Si / 1000 Ang^3
#
#
#
# Elastic Constant Matrix: (Units=GPa)
#
#
# Indices 1 2 3 4 5 6 
#
# 1 79.3025 62.1793 20.7524 0.0000 8.3787 0.0000
# 2 62.1793 181.1405 38.1639 0.0000 12.4620 0.0000
# 3 20.7524 38.1639 59.7092 0.0000 8.4958 0.0000
# 4 0.0000 0.0000 0.0000 22.2252 0.0000 10.5337
# 5 8.3787 12.4620 8.4958 0.0000 29.5140 0.0000
# 6 0.0000 0.0000 0.0000 10.5337 0.0000 23.4929
#
#
#
# Elastic Compliance Matrix: (Units=1/GPa)
#
#
# Indices 1 2 3 4 5 6 
#
# 1 0.017714 -0.005436 -0.002391 0.000000 -0.002045 0.000000
# 2 -0.005436 0.008120 -0.003162 0.000000 -0.000975 0.000000
# 3 -0.002391 -0.003162 0.020138 0.000000 -0.003783 0.000000
# 4 0.000000 0.000000 0.000000 0.057136 0.000000 -0.025619
# 5 -0.002045 -0.000975 -0.003783 0.000000 0.035964 0.000000
# 6 0.000000 0.000000 0.000000 -0.025619 0.000000 0.054053
#
#
# Mechanical properties :
#
#
# Convention : Reuss Voigt Hill
#
# Bulk Modulus (GPa) = 41.67717 62.48259 52.07988
# Shear Modulus (GPa) = 22.41143 28.31685 25.36414
#
# Velocity S-wave (km/s) = 3.10240 3.48727 3.30045
# Velocity P-wave (km/s) = 5.54364 6.56115 6.07374
#
# Compressibility (1/GPa) = 0.02399395
#
# Stress axis : x y z
#
# Youngs Moduli (GPa) = 56.45211 123.15486 49.65726
#
# Poissons Ratio (x) = 0.66949 0.11874
# Poissons Ratio (y) = 0.30688 0.15701
# Poissons Ratio (z) = 0.13498 0.38939
#
# Static dielectric constant tensor:
#      x y z
#    x 1.921440 0.000000 -0.017490 
#    y 0.000000 1.864570 0.000000 
#    z -0.017490 0.000000 1.917760 
# 
# From -- ./inp_files/124313.got.cif
#   From: 2010.05.17/outbox.cif.g08.bks.cpg/sg12_63_cif.got.tgz:124313.got - 2010.06.03 13:09:07.
