data_PCOD9204031
_publ_section_title
;
Structure prediction by ZEFSAII (Michael W. Deem and Ramdas Pophale) SiO2 
 PCOD9204031
Probable space group: C 2/M
;
_chemical_formula_sum "Si O2"
_cell_formula_units_Z 64
_cell_length_a 20.948964
_cell_length_b 8.587014
_cell_length_c 20.953729
_cell_angle_alpha 90.000000
_cell_angle_beta 73.356813
_cell_angle_gamma 90.000000
_cell_volume 3611.436979
_symmetry_space_group_name_H-M "C 2/M"
_symmetry_group_IT_number 12
_symmetry_cell_setting 'monoclinic'
loop_
_space_group_symop_operation_xyz
x,y,z
-x,y,-z
-x,-y,-z
x,-y,z
1/2+x,1/2+y,z
1/2-x,1/2+y,-z
1/2-x,1/2-y,-z
1/2+x,1/2-y,z
loop_
_atom_site_type_symbol
_atom_site_label
_atom_site_fract_x
_atom_site_fract_y
_atom_site_fract_z
Si Si1 0.920832 0.681344 0.506057
Si Si2 0.394230 0.190166 0.650066
Si Si3 0.046076 0.688941 0.639328
Si Si4 0.658781 0.815078 0.853195
Si Si5 0.413683 0.311845 0.861625
Si Si6 0.806498 0.686648 0.793194
Si Si7 0.575949 0.688039 0.994484
Si Si8 0.438402 0.313494 0.227420
O O1 0.900719 0.500000 0.507568
O O2 0.886605 0.748335 0.579342
O O3 0.916581 0.746138 0.435685
O O4 0.000000 0.682470 0.500000
O O5 0.467985 0.234024 0.654051
O O6 0.339161 0.239409 0.716620
O O7 0.394120 0.000000 0.647580
O O8 0.048249 0.500000 0.639295
O O9 0.072927 0.753512 0.697797
O O10 0.733832 0.755021 0.824998
O O11 0.614180 0.751208 0.807907
O O12 0.657983 0.000000 0.852231
O O13 0.625580 0.756456 0.928246
O O14 0.409400 0.500000 0.858872
O O15 0.357145 0.238465 0.833987
O O16 0.407754 0.267294 0.937565
O O17 0.487002 0.265516 0.815602
O O18 0.802501 0.500000 0.793334
O O19 0.578493 0.500000 0.989500
O O20 0.500000 0.734887 0.000000
O O21 0.435774 0.500000 0.226780
#
# Coordination Sequence:
#
# PCOD9204031 Si02
#       8
#     8   8   8   8   8   8   8   8
#     4   7  11  21  42  74 111 142 175 222 272 320
#     4   8  14  26  48  79 110 145 183 222 270 325
#     4   9  15  27  50  82 112 141 182 229 273 322
#     4  12  26  41  58  82 112 145 187 230 277 333
#     4  10  21  37  60  85 112 145 181 223 275 331
#     4  11  22  37  58  83 115 149 188 230 273 326
#     4  10  20  40  64  85 111 144 181 225 279 330
#     4  11  21  36  57  82 113 148 184 226 278 328
#
# _framework density 17.721478999999999
#
# number of rings (size 3 to 8) (size 9 to 14) (size 15 to 20)
#    0.000    2.250    2.500    3.375    0.000    1.750 
#    0.000    0.000    0.000    5.625    0.000    0.000 
#    0.000    0.000    0.000    0.000    0.000    0.000 
#
# Total GULP energy -178476.577203 kJ/mol
# GULP energy per Si atom -5577.393038 kJ/mol
# Density = 1.768114 g / cm^3
# Si number density = 17.721479 Si / 1000 Ang^3
#
#
#
# Elastic Constant Matrix: (Units=GPa)
#
#
# Indices 1 2 3 4 5 6 
#
# 1 108.6488 30.9997 82.2653 0.0000 -2.7217 0.0000
# 2 30.9997 30.0857 42.9639 0.0000 1.4313 0.0000
# 3 82.2653 42.9639 208.1369 0.0000 4.2913 0.0000
# 4 0.0000 0.0000 0.0000 13.1213 0.0000 2.3780
# 5 -2.7217 1.4313 4.2913 0.0000 22.6142 0.0000
# 6 0.0000 0.0000 0.0000 2.3780 0.0000 18.3397
#
#
#
# Elastic Compliance Matrix: (Units=1/GPa)
#
#
# Indices 1 2 3 4 5 6 
#
# 1 0.015184 -0.010115 -0.003980 0.000000 0.003223 0.000000
# 2 -0.010115 0.053900 -0.007060 0.000000 -0.003289 0.000000
# 3 -0.003980 -0.007060 0.007866 0.000000 -0.001525 0.000000
# 4 0.000000 0.000000 0.000000 0.078046 0.000000 -0.010120
# 5 0.003223 -0.003289 -0.001525 0.000000 0.045105 0.000000
# 6 0.000000 0.000000 0.000000 -0.010120 0.000000 0.055839
#
#
# Mechanical properties :
#
#
# Convention : Reuss Voigt Hill
#
# Bulk Modulus (GPa) = 28.86874 73.25880 51.06377
# Shear Modulus (GPa) = 16.13955 23.52456 19.83205
#
# Velocity S-wave (km/s) = 3.02111 3.64739 3.34892
# Velocity P-wave (km/s) = 5.33808 7.69198 6.62049
#
# Compressibility (1/GPa) = 0.03463955
#
# Stress axis : x y z
#
# Youngs Moduli (GPa) = 65.85739 18.55289 127.12261
#
# Poissons Ratio (x) = 0.18767 0.50594
# Poissons Ratio (y) = 0.66617 0.89752
# Poissons Ratio (z) = 0.26211 0.13099
#
# Static dielectric constant tensor:
#      x y z
#    x 1.565470 0.000000 -0.005540 
#    y 0.000000 1.599560 0.000000 
#    z -0.005540 0.000000 1.633770 
# 
# From -- ./inp_files/319103.got.cif
#   From: 2010.05.17/outbox.cif.g08.bks.cpg/sg12_160_cif.got.tgz:319103.got - 2010.06.03 13:09:07.
