data_PCOD9204952
_publ_section_title
;
Structure prediction by ZEFSAII (Michael W. Deem and Ramdas Pophale) SiO2 
 PCOD9204952
Probable space group: C 2/M
;
_chemical_formula_sum "Si O2"
_cell_formula_units_Z 40
_cell_length_a 8.922192
_cell_length_b 23.820392
_cell_length_c 14.283504
_cell_angle_alpha 90.000000
_cell_angle_beta 36.726746
_cell_angle_gamma 90.000000
_cell_volume 1815.331507
_symmetry_space_group_name_H-M "C 2/M"
_symmetry_group_IT_number 12
_symmetry_cell_setting 'monoclinic'
loop_
_space_group_symop_operation_xyz
x,y,z
-x,y,-z
-x,-y,-z
x,-y,z
1/2+x,1/2+y,z
1/2-x,1/2+y,-z
1/2-x,1/2-y,-z
1/2+x,1/2-y,z
loop_
_atom_site_type_symbol
_atom_site_label
_atom_site_fract_x
_atom_site_fract_y
_atom_site_fract_z
Si Si1 0.181722 0.746890 0.743765
Si Si2 0.656648 0.436573 0.071992
Si Si3 0.358214 0.672830 0.807968
Si Si4 0.650753 0.823551 0.570098
Si Si5 0.888140 0.436595 0.752271
O O1 0.163744 0.703677 0.838066
O O2 0.945003 0.787397 0.849367
O O3 0.417669 0.788110 0.644847
O O4 0.209847 0.709186 0.636652
O O5 0.693013 0.500000 0.089560
O O6 0.702768 0.388365 0.123906
O O7 0.370298 0.431966 0.177279
O O8 0.819883 0.429760 0.895987
O O9 0.611436 0.672826 0.616815
O O10 0.564931 0.886549 0.633266
O O11 0.985455 0.500000 0.689417
#
# Coordination Sequence:
#
# PCOD9204952 Si02
#       5
#     8   8   8   8   8
#     4  10  21  34  53  80 113 140 167 212 267 306
#     4   9  19  36  55  76 105 138 173 218 266 305
#     4  11  19  34  56  80 106 139 175 212 255 312
#     4  11  19  34  56  80 106 139 175 212 255 312
#     4   9  19  36  55  76 105 138 173 218 266 305
#
# _framework density 22.034542999999999
#
# number of rings (size 3 to 8) (size 9 to 14) (size 15 to 20)
#    0.000    2.000    2.000    6.000    0.000    0.800 
#    0.000   10.000    0.000    4.800    0.000    0.000 
#    0.000    0.000    0.000    0.000    0.000    0.000 
#
# Total GULP energy -111918.745659 kJ/mol
# GULP energy per Si atom -5595.937283 kJ/mol
# Density = 2.198439 g / cm^3
# Si number density = 22.034543 Si / 1000 Ang^3
#
#
#
# Elastic Constant Matrix: (Units=GPa)
#
#
# Indices 1 2 3 4 5 6 
#
# 1 113.2875 63.0188 29.4876 0.0000 16.1406 0.0000
# 2 63.0188 217.0430 67.9214 0.0000 16.7627 0.0000
# 3 29.4876 67.9214 65.5918 0.0000 0.4784 0.0000
# 4 0.0000 0.0000 0.0000 43.2755 0.0000 15.3846
# 5 16.1406 16.7627 0.4784 0.0000 20.8797 0.0000
# 6 0.0000 0.0000 0.0000 15.3846 0.0000 17.0502
#
#
#
# Elastic Compliance Matrix: (Units=1/GPa)
#
#
# Indices 1 2 3 4 5 6 
#
# 1 0.011782 -0.001765 -0.003414 0.000000 -0.007613 0.000000
# 2 -0.001765 0.007725 -0.007172 0.000000 -0.004673 0.000000
# 3 -0.003414 -0.007172 0.024150 0.000000 0.007844 0.000000
# 4 0.000000 0.000000 0.000000 0.034021 0.000000 -0.030697
# 5 -0.007613 -0.004673 0.007844 0.000000 0.057351 0.000000
# 6 0.000000 0.000000 0.000000 -0.030697 0.000000 0.086349
#
#
# Mechanical properties :
#
#
# Convention : Reuss Voigt Hill
#
# Bulk Modulus (GPa) = 52.75369 79.64197 66.19783
# Shear Modulus (GPa) = 19.81001 31.94071 25.87536
#
# Velocity S-wave (km/s) = 3.00166 3.81146 3.43054
# Velocity P-wave (km/s) = 6.00055 7.45602 6.76753
#
# Compressibility (1/GPa) = 0.01895602
#
# Stress axis : x y z
#
# Youngs Moduli (GPa) = 84.87551 129.44797 41.40752
#
# Poissons Ratio (x) = 0.22842 0.14136
# Poissons Ratio (y) = 0.14977 0.29698
# Poissons Ratio (z) = 0.28976 0.92841
#
# Static dielectric constant tensor:
#      x y z
#    x 1.841430 0.000000 -0.008220 
#    y 0.000000 1.776650 0.000000 
#    z -0.008220 0.000000 1.811630 
# 
# From -- ./inp_files/39210.got.cif
#   From: 2010.05.17/outbox.cif.g08.bks.cpg/sg12_20_cif.got.tgz:39210.got - 2010.06.03 13:09:07.
