data_PCOD9204519
_publ_section_title
;
Structure prediction by ZEFSAII (Michael W. Deem and Ramdas Pophale) SiO2 
 PCOD9204519
Probable space group: C 2/M
;
_chemical_formula_sum "Si O2"
_cell_formula_units_Z 50
_cell_length_a 14.580262
_cell_length_b 14.811364
_cell_length_c 17.696011
_cell_angle_alpha 90.000000
_cell_angle_beta 126.027250
_cell_angle_gamma 90.000000
_cell_volume 3090.603300
_symmetry_space_group_name_H-M "C 2/M"
_symmetry_group_IT_number 12
_symmetry_cell_setting 'monoclinic'
loop_
_space_group_symop_operation_xyz
x,y,z
-x,y,-z
-x,-y,-z
x,-y,z
1/2+x,1/2+y,z
1/2-x,1/2+y,-z
1/2-x,1/2-y,-z
1/2+x,1/2-y,z
loop_
_atom_site_type_symbol
_atom_site_label
_atom_site_fract_x
_atom_site_fract_y
_atom_site_fract_z
Si Si1 0.262054 0.000000 0.805630
Si Si2 0.739977 0.742412 0.624456
Si Si3 0.500000 0.000000 0.000000
Si Si4 0.467770 0.000000 0.808040
Si Si5 0.086374 0.898042 0.470336
Si Si6 0.117005 0.820479 0.717052
Si Si7 0.517121 0.176763 0.282115
Si Si8 0.598586 0.105099 0.484724
O O1 0.330882 0.000000 0.758598
O O2 0.187797 0.909207 0.773424
O O3 0.362103 0.000000 0.915272
O O4 0.689584 0.664433 0.545210
O O5 0.678777 0.724913 0.674900
O O6 0.873184 0.729165 0.696207
O O7 0.700893 0.835462 0.567509
O O8 0.480350 0.000000 0.083093
O O9 0.499230 0.911341 0.776657
O O10 0.000000 0.900972 0.500000
O O11 0.007816 0.854652 0.368549
O O12 0.120610 0.000000 0.469618
O O13 0.090492 0.742889 0.764641
O O14 0.550295 0.144949 0.383134
O O15 0.500000 0.113164 0.500000
O O16 0.626364 0.000000 0.488399
#
# Coordination Sequence:
#
# PCOD9204519 Si02
#       8
#     4   8   2   4   8   8   8   8
#     4  10  20  42  66  81 112 140 178 248 309 346
#     4  11  20  34  46  71 115 163 200 245 263 315
#     4   8  20  44  72  90 102 136 180 242 316 366
#     4  10  22  40  66  83 108 142 189 237 296 360
#     4   9  17  25  44  69 104 151 194 226 273 304
#     4  11  20  34  54  83 115 146 192 245 282 322
#     4  12  22  34  54  84 113 153 204 235 280 335
#     4  11  21  33  46  66 111 166 202 234 269 314
#
# _framework density 16.178072
#
# number of rings (size 3 to 8) (size 9 to 14) (size 15 to 20)
#    0.480    0.960    6.400    0.960    2.240    0.000 
#    1.440    0.800    0.000    0.000    0.000    0.000 
#    0.000    2.560    0.000    0.000    0.000    0.000 
#
# Total GULP energy -139217.278634 kJ/mol
# GULP energy per Si atom -5568.691145 kJ/mol
# Density = 1.614125 g / cm^3
# Si number density = 16.178072 Si / 1000 Ang^3
#
#
#
# Elastic Constant Matrix: (Units=GPa)
#
#
# Indices 1 2 3 4 5 6 
#
# 1 79.1852 43.1103 23.4524 0.0000 -1.0112 0.0000
# 2 43.1103 125.5717 31.5961 0.0000 -2.8513 0.0000
# 3 23.4524 31.5961 64.6637 0.0000 -4.3682 0.0000
# 4 0.0000 0.0000 0.0000 2.4698 0.0000 2.6958
# 5 -1.0112 -2.8513 -4.3682 0.0000 12.5611 0.0000
# 6 0.0000 0.0000 0.0000 2.6958 0.0000 18.2779
#
#
#
# Elastic Compliance Matrix: (Units=1/GPa)
#
#
# Indices 1 2 3 4 5 6 
#
# 1 0.016251 -0.004677 -0.003678 0.000000 -0.001033 0.000000
# 2 -0.004677 0.010429 -0.003344 0.000000 0.000828 0.000000
# 3 -0.003678 -0.003344 0.018803 0.000000 0.005484 0.000000
# 4 0.000000 0.000000 0.000000 0.482572 0.000000 -0.071173
# 5 -0.001033 0.000828 0.005484 0.000000 0.081623 0.000000
# 6 0.000000 0.000000 0.000000 -0.071173 0.000000 0.065208
#
#
# Mechanical properties :
#
#
# Convention : Reuss Voigt Hill
#
# Bulk Modulus (GPa) = 45.27973 51.74870 48.51421
# Shear Modulus (GPa) = 7.08569 18.07920 12.58245
#
# Velocity S-wave (km/s) = 2.09507 3.34655 2.79184
# Velocity P-wave (km/s) = 5.82250 6.85484 6.35965
#
# Compressibility (1/GPa) = 0.02208494
#
# Stress axis : x y z
#
# Youngs Moduli (GPa) = 61.53372 95.88218 53.18289
#
# Poissons Ratio (x) = 0.44845 0.19563
# Poissons Ratio (y) = 0.28780 0.17783
# Poissons Ratio (z) = 0.22635 0.32061
#
# Static dielectric constant tensor:
#      x y z
#    x 1.590260 0.000000 -0.005430 
#    y 0.000000 1.563900 0.000000 
#    z -0.005430 0.000000 1.499650 
# 
# From -- ./inp_files/270001.got.cif
#   From: 2010.05.17/outbox.cif.g08.bks.cpg/sg12_136_cif.got.tgz:270001.got - 2010.06.03 13:09:07.
