data_PCOD9204826
_publ_section_title
;
Structure prediction by ZEFSAII (Michael W. Deem and Ramdas Pophale) SiO2 
 PCOD9204826
Probable space group: C 2/M
;
_chemical_formula_sum "Si O2"
_cell_formula_units_Z 52
_cell_length_a 18.602414
_cell_length_b 7.290926
_cell_length_c 15.198957
_cell_angle_alpha 90.000000
_cell_angle_beta 77.978646
_cell_angle_gamma 90.000000
_cell_volume 2016.209887
_symmetry_space_group_name_H-M "C 2/M"
_symmetry_group_IT_number 12
_symmetry_cell_setting 'monoclinic'
loop_
_space_group_symop_operation_xyz
x,y,z
-x,y,-z
-x,-y,-z
x,-y,z
1/2+x,1/2+y,z
1/2-x,1/2+y,-z
1/2-x,1/2-y,-z
1/2+x,1/2-y,z
loop_
_atom_site_type_symbol
_atom_site_label
_atom_site_fract_x
_atom_site_fract_y
_atom_site_fract_z
Si Si1 0.793198 0.204365 0.602394
Si Si2 0.334745 0.206110 0.778006
Si Si3 0.070961 0.275702 0.074364
Si Si4 0.299070 0.215923 0.074098
Si Si5 0.429747 0.722259 0.460686
Si Si6 0.560183 0.500000 0.854194
Si Si7 0.365393 0.785499 0.296445
O O1 0.833702 0.192549 0.686510
O O2 0.853426 0.290383 0.523365
O O3 0.712727 0.282528 0.643246
O O4 0.778638 0.000000 0.571801
O O5 0.384864 0.268728 0.846227
O O6 0.251557 0.207396 0.836429
O O7 0.357425 0.000000 0.752246
O O8 0.062794 0.500000 0.071761
O O9 0.998328 0.160845 0.099095
O O10 0.122709 0.212329 0.979433
O O11 0.305910 0.000000 0.086550
O O12 0.250000 0.250000 0.000000
O O13 0.500000 0.782840 0.500000
O O14 0.429498 0.500000 0.464669
O O15 0.425801 0.774123 0.359320
O O16 0.608754 0.660225 0.789460
O O17 0.356338 0.000000 0.273652
#
# Coordination Sequence:
#
# PCOD9204826 Si02
#       7
#     8   8   8   8   8   4   8
#     4  10  23  40  63  91 129 167 211 259 310 373
#     4  10  21  33  58  93 127 164 209 261 312 379
#     4   9  21  36  57  96 128 164 209 262 319 373
#     4   9  17  31  53  84 127 163 204 256 316 371
#     4  10  22  41  68  97 125 164 208 257 317 376
#     4  12  24  38  69  85 131 170 208 265 312 375
#     4  11  25  44  64  92 126 171 214 255 312 380
#
# _framework density 25.790965
#
# number of rings (size 3 to 8) (size 9 to 14) (size 15 to 20)
#    0.000    2.000    0.769    2.769    9.692    0.923 
#    0.000    0.000    0.000    1.846    0.000    4.308 
#    0.000    0.000    0.000    0.000    0.000    0.000 
#
# Total GULP energy -145015.630387 kJ/mol
# GULP energy per Si atom -5577.524246 kJ/mol
# Density = 2.573226 g / cm^3
# Si number density = 25.790965 Si / 1000 Ang^3
#
#
#
# Elastic Constant Matrix: (Units=GPa)
#
#
# Indices 1 2 3 4 5 6 
#
# 1 156.2091 10.2083 38.0889 0.0000 0.2559 0.0000
# 2 10.2083 122.5860 -3.9084 0.0000 -16.0949 0.0000
# 3 38.0889 -3.9084 92.9144 0.0000 2.5662 0.0000
# 4 0.0000 0.0000 0.0000 115.6733 0.0000 102.3866
# 5 0.2559 -16.0949 2.5662 0.0000 54.5881 0.0000
# 6 0.0000 0.0000 0.0000 102.3866 0.0000 128.5613
#
#
#
# Elastic Compliance Matrix: (Units=1/GPa)
#
#
# Indices 1 2 3 4 5 6 
#
# 1 0.007171 -0.000705 -0.002967 0.000000 -0.000102 0.000000
# 2 -0.000705 0.008563 0.000580 0.000000 0.002501 0.000000
# 3 -0.002967 0.000580 0.012014 0.000000 -0.000380 0.000000
# 4 0.000000 0.000000 0.000000 0.029298 0.000000 -0.023333
# 5 -0.000102 0.002501 -0.000380 0.000000 0.019075 0.000000
# 6 0.000000 0.000000 0.000000 -0.023333 0.000000 0.026361
#
#
# Mechanical properties :
#
#
# Convention : Reuss Voigt Hill
#
# Bulk Modulus (GPa) = 46.37174 51.16522 48.76848
# Shear Modulus (GPa) = 43.15825 81.58592 62.37209
#
# Velocity S-wave (km/s) = 4.09514 5.63047 4.92303
# Velocity P-wave (km/s) = 6.35446 7.88360 7.15997
#
# Compressibility (1/GPa) = 0.02156486
#
# Stress axis : x y z
#
# Youngs Moduli (GPa) = 139.44506 116.78011 83.23898
#
# Poissons Ratio (x) = 0.08235 0.24694
# Poissons Ratio (y) = 0.09833 -0.04830
# Poissons Ratio (z) = 0.41368 -0.06776
#
# Static dielectric constant tensor:
#      x y z
#    x 2.049410 0.000000 0.054960 
#    y 0.000000 1.911350 0.000000 
#    z 0.054960 0.000000 2.001820 
# 
# From -- ./inp_files/280134.got.cif
#   From: 2010.05.17/outbox.cif.g08.bks.cpg/sg12_141_cif.got.tgz:280134.got - 2010.06.03 13:09:07.
