data_PCOD9204089
_publ_section_title
;
Structure prediction by ZEFSAII (Michael W. Deem and Ramdas Pophale) SiO2 
 PCOD9204089
Probable space group: C 2/M
;
_chemical_formula_sum "Si O2"
_cell_formula_units_Z 48
_cell_length_a 20.892838
_cell_length_b 8.794338
_cell_length_c 21.564900
_cell_angle_alpha 90.000000
_cell_angle_beta 138.430114
_cell_angle_gamma 90.000000
_cell_volume 2629.121292
_symmetry_space_group_name_H-M "C 2/M"
_symmetry_group_IT_number 12
_symmetry_cell_setting 'monoclinic'
loop_
_space_group_symop_operation_xyz
x,y,z
-x,y,-z
-x,-y,-z
x,-y,z
1/2+x,1/2+y,z
1/2-x,1/2+y,-z
1/2-x,1/2-y,-z
1/2+x,1/2-y,z
loop_
_atom_site_type_symbol
_atom_site_label
_atom_site_fract_x
_atom_site_fract_y
_atom_site_fract_z
Si Si1 0.548142 0.182830 0.744671
Si Si2 0.844677 0.316795 0.537251
Si Si3 0.603302 0.317408 0.046612
Si Si4 0.797578 0.180701 0.239952
Si Si5 0.386409 0.817180 0.426307
Si Si6 0.356496 0.682007 0.067074
O O1 0.442331 0.228448 0.643971
O O2 0.627438 0.243456 0.753741
O O3 0.574212 0.249009 0.830541
O O4 0.553599 0.000000 0.749912
O O5 0.840065 0.500000 0.535547
O O6 0.750000 0.250000 0.500000
O O7 0.854907 0.272145 0.472583
O O8 0.615529 0.500000 0.062333
O O9 0.691229 0.235956 0.144587
O O10 0.500000 0.275505 0.000000
O O11 0.609592 0.282536 0.978020
O O12 0.826804 0.235764 0.329497
O O13 0.804667 0.000000 0.240082
O O14 0.500000 0.783832 0.500000
O O15 0.375152 0.000000 0.411619
O O16 0.352144 0.500000 0.070847
O O17 0.250000 0.750000 0.000000
#
# Coordination Sequence:
#
# PCOD9204089 Si02
#       6
#     8   8   8   8   8   8
#     4  11  22  40  63  88 121 163 207 248 298 364
#     4  10  23  41  63  90 123 163 200 250 306 358
#     4  10  23  43  64  87 122 165 204 245 300 366
#     4  12  24  37  61  95 124 155 201 257 308 355
#     4  10  20  40  65  87 119 163 208 245 295 364
#     4  11  22  37  62  93 122 158 204 252 301 357
#
# _framework density 18.25705
#
# number of rings (size 3 to 8) (size 9 to 14) (size 15 to 20)
#    0.000    1.333    3.333    2.500    0.000    4.667 
#    0.000    5.000    0.000    0.000    0.000    0.000 
#    0.000    0.000    0.000    0.000    0.000    0.000 
#
# Total GULP energy -134176.222203 kJ/mol
# GULP energy per Si atom -5590.675925 kJ/mol
# Density = 1.821550 g / cm^3
# Si number density = 18.257050 Si / 1000 Ang^3
#
#
#
# Elastic Constant Matrix: (Units=GPa)
#
#
# Indices 1 2 3 4 5 6 
#
# 1 168.8211 62.1028 101.5484 0.0000 1.8812 0.0000
# 2 62.1028 60.8181 75.5723 0.0000 -3.2422 0.0000
# 3 101.5484 75.5723 193.7803 0.0000 -8.8002 0.0000
# 4 0.0000 0.0000 0.0000 33.3477 0.0000 -2.8104
# 5 1.8812 -3.2422 -8.8002 0.0000 33.9683 0.0000
# 6 0.0000 0.0000 0.0000 -2.8104 0.0000 29.8841
#
#
#
# Elastic Compliance Matrix: (Units=1/GPa)
#
#
# Indices 1 2 3 4 5 6 
#
# 1 0.010178 -0.007294 -0.002577 0.000000 -0.001927 0.000000
# 2 -0.007294 0.037131 -0.010604 0.000000 0.001201 0.000000
# 3 -0.002577 -0.010604 0.010733 0.000000 0.001911 0.000000
# 4 0.000000 0.000000 0.000000 0.030227 0.000000 0.002843
# 5 -0.001927 0.001201 0.001911 0.000000 0.030156 0.000000
# 6 0.000000 0.000000 0.000000 0.002843 0.000000 0.033730
#
#
# Mechanical properties :
#
#
# Convention : Reuss Voigt Hill
#
# Bulk Modulus (GPa) = 58.50395 100.20739 79.35567
# Shear Modulus (GPa) = 25.15090 31.71976 28.43533
#
# Velocity S-wave (km/s) = 3.71563 4.17273 3.95080
# Velocity P-wave (km/s) = 7.10788 8.84430 8.02321
#
# Compressibility (1/GPa) = 0.01709286
#
# Stress axis : x y z
#
# Youngs Moduli (GPa) = 98.25150 26.93188 93.17221
#
# Poissons Ratio (x) = 0.19644 0.24006
# Poissons Ratio (y) = 0.71665 0.98797
# Poissons Ratio (z) = 0.25315 0.28558
#
# Static dielectric constant tensor:
#      x y z
#    x 1.599780 0.000000 -0.009690 
#    y 0.000000 1.614750 0.000000 
#    z -0.009690 0.000000 1.604650 
# 
# From -- ./inp_files/248806.got.cif
#   From: 2010.05.17/outbox.cif.g08.bks.cpg/sg12_125_cif.got.tgz:248806.got - 2010.06.03 13:09:07.
