data_PCOD9204569
_publ_section_title
;
Structure prediction by ZEFSAII (Michael W. Deem and Ramdas Pophale) SiO2 
 PCOD9204569
Probable space group: C 2/M
;
_chemical_formula_sum "Si O2"
_cell_formula_units_Z 44
_cell_length_a 13.873097
_cell_length_b 20.357818
_cell_length_c 10.787354
_cell_angle_alpha 90.000000
_cell_angle_beta 31.810739
_cell_angle_gamma 90.000000
_cell_volume 1605.924131
_symmetry_space_group_name_H-M "C 2/M"
_symmetry_group_IT_number 12
_symmetry_cell_setting 'monoclinic'
loop_
_space_group_symop_operation_xyz
x,y,z
-x,y,-z
-x,-y,-z
x,-y,z
1/2+x,1/2+y,z
1/2-x,1/2+y,-z
1/2-x,1/2-y,-z
1/2+x,1/2-y,z
loop_
_atom_site_type_symbol
_atom_site_label
_atom_site_fract_x
_atom_site_fract_y
_atom_site_fract_z
Si Si1 0.409878 0.859694 0.886184
Si Si2 0.992401 0.871352 0.325696
Si Si3 0.233475 0.148377 0.834603
Si Si4 0.382805 0.000000 0.925884
Si Si5 0.800063 0.271098 0.307923
Si Si6 0.331367 0.500000 0.590558
Si Si7 0.193641 0.000000 0.862372
O O1 0.198661 0.874656 0.154981
O O2 0.512989 0.811698 0.865101
O O3 0.491366 0.932522 0.790233
O O4 0.386367 0.833544 0.771752
O O5 0.048686 0.857246 0.121325
O O6 0.869759 0.819030 0.529564
O O7 0.871766 0.936240 0.465854
O O8 0.208287 0.208369 0.770801
O O9 0.269184 0.073682 0.748864
O O10 0.324493 0.000000 0.134520
O O11 0.233787 0.000000 0.971920
O O12 0.750000 0.250000 0.500000
O O13 0.500000 0.500000 0.500000
O O14 0.000000 0.000000 0.000000
#
# Coordination Sequence:
#
# PCOD9204569 Si02
#       7
#     8   8   8   4   8   4   4
#     4   9  22  51  78 112 165 208 260 350 412 466
#     4  10  24  49  77 117 159 208 270 339 409 487
#     4   9  23  51  77 117 161 205 275 343 406 483
#     4  10  20  45  84 122 155 209 277 341 419 476
#     4  12  28  49  73 118 159 219 274 318 420 502
#     4  12  18  47  85 119 155 209 279 332 421 490
#     4  10  20  42  87 109 155 207 261 344 400 478
#
# _framework density 27.398554000000001
#
# number of rings (size 3 to 8) (size 9 to 14) (size 15 to 20)
#    1.091    0.727    1.818    0.545    2.545    2.182 
#   13.091    1.818    0.000    3.273    0.000    0.000 
#    0.000    0.000    0.000    0.000    0.000    0.000 
#
# Total GULP energy -122848.909671 kJ/mol
# GULP energy per Si atom -5584.041349 kJ/mol
# Density = 2.733619 g / cm^3
# Si number density = 27.398554 Si / 1000 Ang^3
#
#
#
# Elastic Constant Matrix: (Units=GPa)
#
#
# Indices 1 2 3 4 5 6 
#
# 1 195.2597 106.8466 68.7349 0.0054 -12.1405 -0.0520
# 2 106.8466 264.1879 101.6509 0.0120 35.2365 0.0120
# 3 68.7349 101.6509 117.6134 -0.0065 33.0904 0.0044
# 4 0.0054 0.0120 -0.0065 46.4950 -0.0167 39.1101
# 5 -12.1405 35.2365 33.0904 -0.0167 37.6792 -0.0161
# 6 -0.0520 0.0120 0.0044 39.1101 -0.0161 79.3046
#
#
#
# Elastic Compliance Matrix: (Units=1/GPa)
#
#
# Indices 1 2 3 4 5 6 
#
# 1 0.009711 -0.003045 -0.006276 -0.000009 0.011488 0.000014
# 2 -0.003045 0.006676 -0.002601 0.000000 -0.004941 -0.000004
# 3 -0.006276 -0.002601 0.018996 0.000009 -0.016272 -0.000012
# 4 -0.000009 0.000000 0.000009 0.036755 -0.000001 -0.018126
# 5 0.011488 -0.004941 -0.016272 -0.000001 0.049153 0.000020
# 6 0.000014 -0.000004 -0.000012 -0.018126 0.000020 0.021549
#
#
# Mechanical properties :
#
#
# Convention : Reuss Voigt Hill
#
# Bulk Modulus (GPa) = 86.64932 125.72508 106.18720
# Shear Modulus (GPa) = 29.32059 52.68434 41.00247
#
# Velocity S-wave (km/s) = 3.27487 4.38983 3.87268
# Velocity P-wave (km/s) = 6.78187 8.46648 7.67056
#
# Compressibility (1/GPa) = 0.01154077
#
# Stress axis : x y z
#
# Youngs Moduli (GPa) = 102.97535 149.78364 52.64315
#
# Poissons Ratio (x) = 0.45610 0.33037
# Poissons Ratio (y) = 0.31357 0.13690
# Poissons Ratio (z) = 0.64623 0.38952
#
# Static dielectric constant tensor:
#      x y z
#    x 2.328510 -0.000010 -0.116460 
#    y -0.000010 2.253000 0.000000 
#    z -0.116460 0.000000 2.371130 
# 
# From -- ./inp_files/156894.got.cif
#   From: 2010.05.17/outbox.cif.g08.bks.cpg/sg12_79_cif.got.tgz:156894.got - 2010.06.03 13:09:07.
