data_PCOD9204623
_publ_section_title
;
Structure prediction by ZEFSAII (Michael W. Deem and Ramdas Pophale) SiO2 
 PCOD9204623
Probable space group: C 2/M
;
_chemical_formula_sum "Si O2"
_cell_formula_units_Z 46
_cell_length_a 7.139830
_cell_length_b 16.782060
_cell_length_c 20.953021
_cell_angle_alpha 90.000000
_cell_angle_beta 122.652569
_cell_angle_gamma 90.000000
_cell_volume 2113.830072
_symmetry_space_group_name_H-M "C 2/M"
_symmetry_group_IT_number 12
_symmetry_cell_setting 'monoclinic'
loop_
_space_group_symop_operation_xyz
x,y,z
-x,y,-z
-x,-y,-z
x,-y,z
1/2+x,1/2+y,z
1/2-x,1/2+y,-z
1/2-x,1/2-y,-z
1/2+x,1/2-y,z
loop_
_atom_site_type_symbol
_atom_site_label
_atom_site_fract_x
_atom_site_fract_y
_atom_site_fract_z
Si Si1 0.000000 0.290777 0.000000
Si Si2 0.023770 0.148595 0.915928
Si Si3 0.304101 0.591471 0.517386
Si Si4 0.466658 0.146393 0.353616
Si Si5 0.638967 0.330653 0.670993
Si Si6 0.993322 0.909473 0.769260
Si Si7 0.000000 0.000000 0.000000
O O1 0.210955 0.343851 0.022454
O O2 0.065552 0.230362 0.069405
O O3 0.991752 0.137969 0.835204
O O4 0.939500 0.070877 0.936740
O O5 0.500000 0.591180 0.500000
O O6 0.261886 0.500000 0.527724
O O7 0.092546 0.629054 0.443142
O O8 0.412270 0.639624 0.595034
O O9 0.369997 0.235593 0.333236
O O10 0.652911 0.139606 0.332497
O O11 0.259714 0.090037 0.302341
O O12 0.637513 0.365705 0.741616
O O13 0.072067 0.000000 0.793884
#
# Coordination Sequence:
#
# PCOD9204623 Si02
#       7
#     4   8   8   8   8   8   2
#     4   9  22  42  72  93 126 166 218 243 316 384
#     4  10  22  43  67  98 127 168 206 263 307 388
#     4   9  19  37  61  87 127 171 222 271 319 381
#     4  11  23  41  65  93 129 177 217 269 328 379
#     4  11  23  41  64  93 128 173 223 273 318 383
#     4  12  26  43  64  99 135 165 213 268 329 387
#     4  10  20  46  64  94 136 162 204 258 314 364
#
# _framework density 21.761448000000001
#
# number of rings (size 3 to 8) (size 9 to 14) (size 15 to 20)
#    0.000    1.565    2.609    1.565    2.435    3.130 
#    6.261    1.739    0.000    0.000    0.000    0.000 
#    0.000    0.000    0.000    0.000    0.000    0.000 
#
# Total GULP energy -128353.417992 kJ/mol
# GULP energy per Si atom -5580.583391 kJ/mol
# Density = 2.171192 g / cm^3
# Si number density = 21.761448 Si / 1000 Ang^3
#
#
#
# Elastic Constant Matrix: (Units=GPa)
#
#
# Indices 1 2 3 4 5 6 
#
# 1 57.1513 -5.4401 1.6278 0.0000 -5.4357 0.0000
# 2 -5.4401 83.7297 15.6235 0.0000 -3.9281 0.0000
# 3 1.6278 15.6235 71.1397 0.0000 -34.4938 0.0000
# 4 0.0000 0.0000 0.0000 17.0092 0.0000 -3.6670
# 5 -5.4357 -3.9281 -34.4938 0.0000 37.0539 0.0000
# 6 0.0000 0.0000 0.0000 -3.6670 0.0000 6.0518
#
#
#
# Elastic Compliance Matrix: (Units=1/GPa)
#
#
# Indices 1 2 3 4 5 6 
#
# 1 0.017940 0.001118 0.001235 0.000000 0.003900 0.000000
# 2 0.001118 0.012626 -0.003773 0.000000 -0.002010 0.000000
# 3 0.001235 -0.003773 0.026887 0.000000 0.024811 0.000000
# 4 0.000000 0.000000 0.000000 0.067626 0.000000 0.040976
# 5 0.003900 -0.002010 0.024811 0.000000 0.050443 0.000000
# 6 0.000000 0.000000 0.000000 0.040976 0.000000 0.190068
#
#
# Mechanical properties :
#
#
# Convention : Reuss Voigt Hill
#
# Bulk Modulus (GPa) = 18.31076 26.18255 22.24666
# Shear Modulus (GPa) = 12.93215 25.37027 19.15121
#
# Velocity S-wave (km/s) = 2.44041 3.41814 2.96979
# Velocity P-wave (km/s) = 4.04640 5.25699 4.69091
#
# Compressibility (1/GPa) = 0.05461270
#
# Stress axis : x y z
#
# Youngs Moduli (GPa) = 55.74264 79.20448 37.19230
#
# Poissons Ratio (x) = -0.08856 -0.04593
# Poissons Ratio (y) = -0.06233 0.14032
# Poissons Ratio (z) = -0.06883 0.29882
#
# Static dielectric constant tensor:
#      x y z
#    x 1.839300 0.000000 -0.019770 
#    y 0.000000 1.779190 0.000000 
#    z -0.019770 0.000000 1.789870 
# 
# From -- ./inp_files/300950.got.cif
#   From: 2010.05.17/outbox.cif.g08.bks.cpg/sg12_151_cif.got.tgz:300950.got - 2010.06.03 13:09:07.
