data_PCOD9204869
_publ_section_title
;
Structure prediction by ZEFSAII (Michael W. Deem and Ramdas Pophale) SiO2 
 PCOD9204869
Probable space group: C 2/M
;
_chemical_formula_sum "Si O2"
_cell_formula_units_Z 64
_cell_length_a 14.499152
_cell_length_b 8.021507
_cell_length_c 31.490426
_cell_angle_alpha 90.000000
_cell_angle_beta 60.061108
_cell_angle_gamma 90.000000
_cell_volume 3173.765472
_symmetry_space_group_name_H-M "C 2/M"
_symmetry_group_IT_number 12
_symmetry_cell_setting 'monoclinic'
loop_
_space_group_symop_operation_xyz
x,y,z
-x,y,-z
-x,-y,-z
x,-y,z
1/2+x,1/2+y,z
1/2-x,1/2+y,-z
1/2-x,1/2-y,-z
1/2+x,1/2-y,z
loop_
_atom_site_type_symbol
_atom_site_label
_atom_site_fract_x
_atom_site_fract_y
_atom_site_fract_z
Si Si1 0.474462 0.800144 0.318275
Si Si2 0.600991 0.194607 0.509578
Si Si3 0.296487 0.299174 0.944180
Si Si4 0.474530 0.696321 0.140003
Si Si5 0.949918 0.697097 0.790003
Si Si6 0.281007 0.195531 0.127113
Si Si7 0.053922 0.704412 0.386421
Si Si8 0.744157 0.798037 0.404455
O O1 0.501340 0.736783 0.265219
O O2 0.552271 0.741584 0.338130
O O3 0.357738 0.758682 0.362276
O O4 0.482394 0.000000 0.314350
O O5 0.500000 0.197985 0.500000
O O6 0.551167 0.266731 0.564046
O O7 0.700001 0.265868 0.460251
O O8 0.624575 0.000000 0.512218
O O9 0.296827 0.500000 0.942181
O O10 0.418210 0.242036 0.908443
O O11 0.228338 0.238772 0.919156
O O12 0.250000 0.250000 0.000000
O O13 0.487716 0.500000 0.144016
O O14 0.474412 0.775984 0.186751
O O15 0.371039 0.724778 0.135533
O O16 0.930160 0.500000 0.790426
O O17 0.836661 0.779782 0.826577
O O18 0.305135 0.000000 0.119756
O O19 0.050476 0.500000 0.388351
O O20 0.156690 0.754264 0.389527
O O21 0.742680 0.000000 0.406807
#
# Coordination Sequence:
#
# PCOD9204869 Si02
#       8
#     8   8   8   8   8   8   8   8
#     4  10  21  34  49  73 102 130 163 207 264 317
#     4   7  11  23  45  69  91 121 163 203 240 294
#     4   9  20  36  55  83 119 152 183 220 261 307
#     4  10  21  38  59  83 109 144 187 226 269 320
#     4  10  21  37  54  75 105 141 182 229 275 320
#     4  10  21  38  59  84 111 144 185 226 270 318
#     4   8  15  30  49  68  95 130 164 201 248 308
#     4   9  17  30  50  73  95 126 168 207 246 301
#
# _framework density 20.165322
#
# number of rings (size 3 to 8) (size 9 to 14) (size 15 to 20)
#    0.000    2.875    0.000    3.375    0.000    6.000 
#    0.000    4.375    0.000    3.375    0.000    0.000 
#    0.000    0.000    0.000    0.000    0.000    0.000 
#
# Total GULP energy -178446.967072 kJ/mol
# GULP energy per Si atom -5576.467721 kJ/mol
# Density = 2.011943 g / cm^3
# Si number density = 20.165322 Si / 1000 Ang^3
#
#
#
# Elastic Constant Matrix: (Units=GPa)
#
#
# Indices 1 2 3 4 5 6 
#
# 1 82.8138 -3.7260 36.2760 0.0000 18.9613 0.0000
# 2 -3.7260 17.7710 3.4504 0.0000 4.4968 0.0000
# 3 36.2760 3.4504 134.9263 0.0000 29.8884 0.0000
# 4 0.0000 0.0000 0.0000 19.0099 0.0000 -9.0851
# 5 18.9613 4.4968 29.8884 0.0000 20.0143 0.0000
# 6 0.0000 0.0000 0.0000 -9.0851 0.0000 18.6654
#
#
#
# Elastic Compliance Matrix: (Units=1/GPa)
#
#
# Indices 1 2 3 4 5 6 
#
# 1 0.016505 0.007635 -0.001179 0.000000 -0.015592 0.000000
# 2 0.007635 0.063619 0.001627 0.000000 -0.023957 0.000000
# 3 -0.001179 0.001627 0.011238 0.000000 -0.016031 0.000000
# 4 0.000000 0.000000 0.000000 0.068550 0.000000 0.033366
# 5 -0.015592 -0.023957 -0.016031 0.000000 0.094058 0.000000
# 6 0.000000 0.000000 0.000000 0.033366 0.000000 0.069815
#
#
# Mechanical properties :
#
#
# Convention : Reuss Voigt Hill
#
# Bulk Modulus (GPa) = 9.29988 34.16798 21.73393
# Shear Modulus (GPa) = 14.55766 24.83862 19.69814
#
# Velocity S-wave (km/s) = 2.68976 3.51344 3.12882
# Velocity P-wave (km/s) = 3.77734 5.78271 4.88405
#
# Compressibility (1/GPa) = 0.10752823
#
# Stress axis : x y z
#
# Youngs Moduli (GPa) = 60.58718 15.71867 88.98435
#
# Poissons Ratio (x) = -0.12001 0.10491
# Poissons Ratio (y) = -0.46258 -0.14481
# Poissons Ratio (z) = 0.07143 -0.02558
#
# Static dielectric constant tensor:
#      x y z
#    x 1.718920 0.000000 0.019600 
#    y 0.000000 1.720050 0.000000 
#    z 0.019600 0.000000 1.728040 
# 
# From -- ./inp_files/375044.got.cif
#   From: 2010.05.17/outbox.cif.g08.bks.cpg/sg12_188_cif.got.tgz:375044.got - 2010.06.03 13:09:07.
