data_PCOD9204382
_publ_section_title
;
Structure prediction by ZEFSAII (Michael W. Deem and Ramdas Pophale) SiO2 
 PCOD9204382
Probable space group: C 2/M
;
_chemical_formula_sum "Si O2"
_cell_formula_units_Z 60
_cell_length_a 17.150432
_cell_length_b 20.226715
_cell_length_c 9.498705
_cell_angle_alpha 90.000000
_cell_angle_beta 102.074243
_cell_angle_gamma 90.000000
_cell_volume 3222.175679
_symmetry_space_group_name_H-M "C 2/M"
_symmetry_group_IT_number 12
_symmetry_cell_setting 'monoclinic'
loop_
_space_group_symop_operation_xyz
x,y,z
-x,y,-z
-x,-y,-z
x,-y,z
1/2+x,1/2+y,z
1/2-x,1/2+y,-z
1/2-x,1/2-y,-z
1/2+x,1/2-y,z
loop_
_atom_site_type_symbol
_atom_site_label
_atom_site_fract_x
_atom_site_fract_y
_atom_site_fract_z
Si Si1 0.500000 0.373027 0.000000
Si Si2 0.591903 0.834245 0.538276
Si Si3 0.803763 0.682508 0.697908
Si Si4 0.862226 0.172766 0.758945
Si Si5 0.381905 0.682821 0.446224
Si Si6 0.588046 0.426390 0.765564
Si Si7 0.224548 0.573977 0.090269
Si Si8 0.216003 0.422363 0.754951
O O1 0.427894 0.331791 0.905260
O O2 0.533774 0.414315 0.881422
O O3 0.500000 0.854879 0.500000
O O4 0.633050 0.832573 0.400416
O O5 0.595538 0.757420 0.588632
O O6 0.645954 0.882015 0.652835
O O7 0.816233 0.757694 0.751272
O O8 0.714398 0.677054 0.602274
O O9 0.811638 0.630760 0.826804
O O10 0.900415 0.171629 0.617418
O O11 0.799463 0.113121 0.748797
O O12 0.419154 0.629156 0.356393
O O13 0.573994 0.500000 0.703448
O O14 0.679766 0.422640 0.853255
O O15 0.199523 0.500000 0.125399
O O16 0.206246 0.582355 0.919463
O O17 0.216936 0.500000 0.716478
#
# Coordination Sequence:
#
# PCOD9204382 Si02
#       8
#     4   8   8   8   8   8   8   8
#     4  12  25  36  60  90 135 166 198 254 297 362
#     4  11  23  40  64  92 121 155 199 261 311 354
#     4  10  20  41  66  90 119 158 206 255 300 363
#     4  11  22  40  60  93 123 163 207 245 305 363
#     4  10  21  41  67  86 122 160 208 253 302 360
#     4  10  22  38  59  91 125 161 200 248 301 358
#     4   9  20  39  62  89 119 156 203 249 303 366
#     4  11  22  40  63  89 121 163 204 247 307 372
#
# _framework density 18.620958999999999
#
# number of rings (size 3 to 8) (size 9 to 14) (size 15 to 20)
#    0.000    1.600    4.000    1.000    3.733    3.467 
#    0.000    0.667    0.000    1.600    0.000    0.000 
#    0.000    0.000    0.000    0.000    0.000    0.000 
#
# Total GULP energy -167557.699787 kJ/mol
# GULP energy per Si atom -5585.256660 kJ/mol
# Density = 1.857858 g / cm^3
# Si number density = 18.620959 Si / 1000 Ang^3
#
#
#
# Elastic Constant Matrix: (Units=GPa)
#
#
# Indices 1 2 3 4 5 6 
#
# 1 87.8471 37.1747 26.2588 0.0000 6.3449 0.0000
# 2 37.1747 146.4450 70.0991 0.0000 -14.1852 0.0000
# 3 26.2588 70.0991 73.8557 0.0000 5.6972 0.0000
# 4 0.0000 0.0000 0.0000 21.6576 0.0000 16.8022
# 5 6.3449 -14.1852 5.6972 0.0000 29.7085 0.0000
# 6 0.0000 0.0000 0.0000 16.8022 0.0000 -36.4833
#
#
#
# Elastic Compliance Matrix: (Units=1/GPa)
#
#
# Indices 1 2 3 4 5 6 
#
# 1 0.013434 -0.003045 -0.001576 0.000000 -0.004021 0.000000
# 2 -0.003045 0.015661 -0.014625 0.000000 0.010933 0.000000
# 3 -0.001576 -0.014625 0.028922 0.000000 -0.012193 0.000000
# 4 0.000000 0.000000 0.000000 0.034019 0.000000 0.015667
# 5 -0.004021 0.010933 -0.012193 0.000000 0.042078 0.000000
# 6 0.000000 0.000000 0.000000 0.015667 0.000000 -0.020194
#
#
# Mechanical properties :
#
#
# Convention : Reuss Voigt Hill
#
# Bulk Modulus (GPa) = 51.21787 63.91257 57.56522
# Shear Modulus (GPa) = 31.46257 14.61758 23.04007
#
# Velocity S-wave (km/s) = 4.11497 2.80484 3.52137
# Velocity P-wave (km/s) = 7.08114 6.69977 6.89309
#
# Compressibility (1/GPa) = 0.01952444
#
# Stress axis : x y z
#
# Youngs Moduli (GPa) = 74.44068 63.85180 34.57580
#
# Poissons Ratio (x) = 0.19445 0.05447
# Poissons Ratio (y) = 0.22670 0.50568
# Poissons Ratio (z) = 0.11728 0.93385
#
# Static dielectric constant tensor:
#      x y z
#    x 1.648210 0.000000 0.005790 
#    y 0.000000 1.638990 0.000000 
#    z 0.005790 0.000000 1.622300 
# 
# From -- ./inp_files/77556.got.cif
#   From: 2010.05.17/outbox.cif.g08.bks.cpg/sg12_39_cif.got.tgz:77556.got - 2010.06.03 13:09:07.
