data_PCOD9204523
_publ_section_title
;
Structure prediction by ZEFSAII (Michael W. Deem and Ramdas Pophale) SiO2 
 PCOD9204523
Probable space group: C 2/M
;
_chemical_formula_sum "Si O2"
_cell_formula_units_Z 64
_cell_length_a 22.274947
_cell_length_b 18.434850
_cell_length_c 14.802235
_cell_angle_alpha 90.000000
_cell_angle_beta 31.843509
_cell_angle_gamma 90.000000
_cell_volume 3206.928062
_symmetry_space_group_name_H-M "C 2/M"
_symmetry_group_IT_number 12
_symmetry_cell_setting 'monoclinic'
loop_
_space_group_symop_operation_xyz
x,y,z
-x,y,-z
-x,-y,-z
x,-y,z
1/2+x,1/2+y,z
1/2-x,1/2+y,-z
1/2-x,1/2-y,-z
1/2+x,1/2-y,z
loop_
_atom_site_type_symbol
_atom_site_label
_atom_site_fract_x
_atom_site_fract_y
_atom_site_fract_z
Si Si1 0.193272 0.337167 0.219526
Si Si2 0.351879 0.187118 0.267977
Si Si3 0.092023 0.799529 0.651705
Si Si4 0.497833 0.915495 0.818636
Si Si5 0.870825 0.080959 0.696542
Si Si6 0.696015 0.189845 0.874573
Si Si7 0.396941 0.415364 0.874465
Si Si8 0.958441 0.335030 0.410623
O O1 0.264856 0.262222 0.125337
O O2 0.137142 0.343230 0.390350
O O3 0.083710 0.337329 0.294416
O O4 0.284236 0.397676 0.075863
O O5 0.221078 0.177221 0.465790
O O6 0.403259 0.252555 0.262176
O O7 0.420066 0.114928 0.208007
O O8 0.355249 0.204922 0.158188
O O9 0.057717 0.741775 0.618392
O O10 0.001398 0.863947 0.769091
O O11 0.552791 0.896298 0.651690
O O12 0.472609 0.000000 0.859835
O O13 0.388293 0.862980 0.963871
O O14 0.807445 0.140859 0.719799
O O15 0.867507 0.099643 0.806794
O O16 0.000000 0.079180 0.500000
O O17 0.822107 0.000000 0.746505
O O18 0.427559 0.500000 0.841630
#
# Coordination Sequence:
#
# PCOD9204523 Si02
#       8
#     8   8   8   8   8   8   8   8
#     4  11  23  38  66  95 122 155 207 253 303 363
#     4  10  22  38  65  91 119 161 206 259 303 354
#     4  10  20  42  66  89 122 157 211 255 306 356
#     4  11  25  41  59  88 126 165 204 247 304 366
#     4  10  22  37  58  92 132 164 191 238 309 381
#     4  12  22  37  63  93 122 160 200 258 304 360
#     4  11  24  41  62  93 129 162 200 248 307 368
#     4  10  22  41  64  92 120 162 202 253 303 361
#
# _framework density 19.956792
#
# number of rings (size 3 to 8) (size 9 to 14) (size 15 to 20)
#    0.000    1.375    1.250    4.500    1.750    5.500 
#    0.000    1.250    0.000    0.750    0.000    0.000 
#    0.000    0.000    0.000    0.000    0.000    0.000 
#
# Total GULP energy -178890.881545 kJ/mol
# GULP energy per Si atom -5590.340048 kJ/mol
# Density = 1.991137 g / cm^3
# Si number density = 19.956792 Si / 1000 Ang^3
#
#
#
# Elastic Constant Matrix: (Units=GPa)
#
#
# Indices 1 2 3 4 5 6 
#
# 1 68.7762 25.9369 21.1998 0.0000 3.5450 0.0000
# 2 25.9369 58.2957 29.9838 0.0000 3.1243 0.0000
# 3 21.1998 29.9838 88.7110 0.0000 -1.2030 0.0000
# 4 0.0000 0.0000 0.0000 25.7208 0.0000 -2.4338
# 5 3.5450 3.1243 -1.2030 0.0000 26.1793 0.0000
# 6 0.0000 0.0000 0.0000 -2.4338 0.0000 -2.4076
#
#
#
# Elastic Compliance Matrix: (Units=1/GPa)
#
#
# Indices 1 2 3 4 5 6 
#
# 1 0.017806 -0.006816 -0.001974 0.000000 -0.001688 0.000000
# 2 -0.006816 0.023580 -0.006371 0.000000 -0.002184 0.000000
# 3 -0.001974 -0.006371 0.013920 0.000000 0.001667 0.000000
# 4 0.000000 0.000000 0.000000 0.035485 0.000000 -0.035870
# 5 -0.001688 -0.002184 0.001667 0.000000 0.038764 0.000000
# 6 0.000000 0.000000 0.000000 -0.035870 0.000000 -0.379087
#
#
# Mechanical properties :
#
#
# Convention : Reuss Voigt Hill
#
# Bulk Modulus (GPa) = 40.02543 41.11376 40.56960
# Shear Modulus (GPa) = -23.71002 19.14266 -2.28368
#
# Velocity S-wave (km/s) = -3.45057 3.10046 -1.07088
# Velocity P-wave (km/s) = 2.05531 5.78475 4.34094
#
# Compressibility (1/GPa) = 0.02498411
#
# Stress axis : x y z
#
# Youngs Moduli (GPa) = 56.16065 42.40816 71.83793
#
# Poissons Ratio (x) = 0.28907 0.14183
# Poissons Ratio (y) = 0.38281 0.45766
# Poissons Ratio (z) = 0.11087 0.27017
#
# Static dielectric constant tensor:
#      x y z
#    x 1.711460 0.000000 -0.000570 
#    y 0.000000 1.679330 0.000000 
#    z -0.000570 0.000000 1.743990 
# 
# From -- ./inp_files/241478.got.cif
#   From: 2010.05.17/outbox.cif.g08.bks.cpg/sg12_121_cif.got.tgz:241478.got - 2010.06.03 13:09:07.
