data_PCOD9204336
_publ_section_title
;
Structure prediction by ZEFSAII (Michael W. Deem and Ramdas Pophale) SiO2 
 PCOD9204336
Probable space group: C 2/M
;
_chemical_formula_sum "Si O2"
_cell_formula_units_Z 50
_cell_length_a 8.149916
_cell_length_b 18.569092
_cell_length_c 25.837231
_cell_angle_alpha 90.000000
_cell_angle_beta 39.486466
_cell_angle_gamma 90.000000
_cell_volume 2486.427596
_symmetry_space_group_name_H-M "C 2/M"
_symmetry_group_IT_number 12
_symmetry_cell_setting 'monoclinic'
loop_
_space_group_symop_operation_xyz
x,y,z
-x,y,-z
-x,-y,-z
x,-y,z
1/2+x,1/2+y,z
1/2-x,1/2+y,-z
1/2-x,1/2-y,-z
1/2+x,1/2-y,z
loop_
_atom_site_type_symbol
_atom_site_label
_atom_site_fract_x
_atom_site_fract_y
_atom_site_fract_z
Si Si1 0.380230 0.659549 0.204595
Si Si2 0.095008 0.582266 0.116535
Si Si3 0.369846 0.417061 0.950779
Si Si4 0.337550 0.317613 0.756397
Si Si5 0.000000 0.000000 0.500000
Si Si6 0.642936 0.137069 0.618429
Si Si7 0.129883 0.285390 0.413643
O O1 0.560649 0.625789 0.117196
O O2 0.541320 0.664361 0.217786
O O3 0.290151 0.739442 0.211506
O O4 0.108048 0.621178 0.284801
O O5 0.010219 0.500000 0.130931
O O6 0.362336 0.582397 0.082404
O O7 0.886353 0.626141 0.198961
O O8 0.158704 0.611479 0.043240
O O9 0.304655 0.500000 0.954414
O O10 0.580783 0.317020 0.659238
O O11 0.206345 0.935080 0.432587
O O12 0.823379 0.198718 0.601179
O O13 0.530528 0.178943 0.594419
O O14 0.000000 0.300818 0.500000
#
# Coordination Sequence:
#
# PCOD9204336 Si02
#       7
#     8   8   8   8   2   8   8
#     4  10  21  37  57  86 112 152 191 238 282 346
#     4   9  19  38  57  83 115 151 189 235 291 348
#     4   9  19  36  59  81 114 153 190 231 292 354
#     4  10  21  36  58  85 113 146 195 240 280 341
#     4  12  24  40  58  96 124 150 194 266 294 332
#     4  10  23  39  64  86 123 155 201 244 297 352
#     4  10  20  41  64  84 113 164 200 234 291 365
#
# _framework density 20.109171
#
# number of rings (size 3 to 8) (size 9 to 14) (size 15 to 20)
#    0.000    2.240    0.800    2.400    1.120    3.200 
#    4.320    2.000    0.000    0.000    0.000    0.000 
#    0.000    0.000    0.000    0.000    0.000    0.000 
#
# Total GULP energy -139245.733927 kJ/mol
# GULP energy per Si atom -5569.829357 kJ/mol
# Density = 2.006340 g / cm^3
# Si number density = 20.109171 Si / 1000 Ang^3
#
#
#
# Elastic Constant Matrix: (Units=GPa)
#
#
# Indices 1 2 3 4 5 6 
#
# 1 34.6455 15.4482 15.4793 -0.0013 -1.1649 0.0238
# 2 15.4482 81.3625 37.9748 0.0067 -20.0404 0.0228
# 3 15.4793 37.9748 82.5184 0.0068 -5.1043 -0.0234
# 4 -0.0013 0.0067 0.0068 43.4799 -0.0011 3.0588
# 5 -1.1649 -20.0404 -5.1043 -0.0011 29.5240 0.0073
# 6 0.0238 0.0228 -0.0234 3.0588 0.0073 -9.3575
#
#
#
# Elastic Compliance Matrix: (Units=1/GPa)
#
#
# Indices 1 2 3 4 5 6 
#
# 1 0.032813 -0.005060 -0.004002 -0.000003 -0.002832 0.000078
# 2 -0.005060 0.019587 -0.007333 -0.000006 0.011828 0.000060
# 3 -0.004002 -0.007333 0.016098 0.000003 -0.002352 -0.000069
# 4 -0.000003 -0.000006 0.000003 0.022482 -0.000005 0.007349
# 5 -0.002832 0.011828 -0.002352 -0.000005 0.041381 0.000058
# 6 0.000078 0.000060 -0.000069 0.007349 0.000058 -0.104464
#
#
# Mechanical properties :
#
#
# Convention : Reuss Voigt Hill
#
# Bulk Modulus (GPa) = 28.00440 37.37010 32.68725
# Shear Modulus (GPa) = 68.87964 21.37091 45.12528
#
# Velocity S-wave (km/s) = 5.85894 3.26351 4.74224
# Velocity P-wave (km/s) = 7.72826 5.72928 6.80260
#
# Compressibility (1/GPa) = 0.03570868
#
# Stress axis : x y z
#
# Youngs Moduli (GPa) = 30.47612 51.05313 62.11788
#
# Poissons Ratio (x) = 0.25832 0.24858
# Poissons Ratio (y) = 0.15420 0.45553
# Poissons Ratio (z) = 0.12196 0.37439
#
# Static dielectric constant tensor:
#      x y z
#    x 1.751940 0.000000 0.002300 
#    y 0.000000 1.676550 0.000000 
#    z 0.002300 0.000000 1.747640 
# 
# From -- ./inp_files/356521.got.cif
#   From: 2010.05.17/outbox.cif.g08.bks.cpg/sg12_179_cif.got.tgz:356521.got - 2010.06.03 13:09:07.
