data_PCOD9204550
_publ_section_title
;
Structure prediction by ZEFSAII (Michael W. Deem and Ramdas Pophale) SiO2 
 PCOD9204550
Probable space group: C 2/M
;
_chemical_formula_sum "Si O2"
_cell_formula_units_Z 36
_cell_length_a 20.230345
_cell_length_b 7.230138
_cell_length_c 12.022041
_cell_angle_alpha 90.000000
_cell_angle_beta 51.642483
_cell_angle_gamma 90.000000
_cell_volume 1378.889085
_symmetry_space_group_name_H-M "C 2/M"
_symmetry_group_IT_number 12
_symmetry_cell_setting 'monoclinic'
loop_
_space_group_symop_operation_xyz
x,y,z
-x,y,-z
-x,-y,-z
x,-y,z
1/2+x,1/2+y,z
1/2-x,1/2+y,-z
1/2-x,1/2-y,-z
1/2+x,1/2-y,z
loop_
_atom_site_type_symbol
_atom_site_label
_atom_site_fract_x
_atom_site_fract_y
_atom_site_fract_z
Si Si1 0.045062 0.277183 0.761013
Si Si2 0.894235 0.710792 0.533020
Si Si3 0.630895 0.500000 0.242116
Si Si4 0.291551 0.776314 0.277142
Si Si5 0.855614 0.277791 0.972579
O O1 0.051248 0.500000 0.752818
O O2 0.049599 0.216616 0.627924
O O3 0.125995 0.211301 0.743953
O O4 0.953355 0.234137 0.903510
O O5 0.916286 0.500000 0.536557
O O6 0.893214 0.840412 0.639742
O O7 0.798112 0.709508 0.586339
O O8 0.658964 0.660435 0.121573
O O9 0.289309 0.000000 0.283137
O O10 0.300981 0.728738 0.137343
O O11 0.849746 0.500000 0.961345
#
# Coordination Sequence:
#
# PCOD9204550 Si02
#       5
#     8   8   4   8   8
#     4   9  20  41  70  95 129 164 209 268 326 377
#     4  11  24  42  64  95 129 172 211 263 317 374
#     4  12  26  45  63  94 132 171 224 252 310 385
#     4  10  20  42  68  98 127 165 212 264 326 376
#     4  10  23  43  66  96 127 170 211 263 318 375
#
# _framework density 26.107972
#
# number of rings (size 3 to 8) (size 9 to 14) (size 15 to 20)
#    0.000    1.778    1.111    2.000    1.556    6.222 
#    4.000    4.444    0.000    0.000    0.000    0.000 
#    0.000    0.000    0.000    0.000    0.000    0.000 
#
# Total GULP energy -100432.771169 kJ/mol
# GULP energy per Si atom -5579.598398 kJ/mol
# Density = 2.604855 g / cm^3
# Si number density = 26.107972 Si / 1000 Ang^3
#
#
#
# Elastic Constant Matrix: (Units=GPa)
#
#
# Indices 1 2 3 4 5 6 
#
# 1 122.9807 -1.7005 7.7525 0.0000 -8.4265 0.0000
# 2 -1.7005 150.8798 4.5366 0.0000 24.6157 0.0000
# 3 7.7525 4.5366 78.9243 0.0000 2.4135 0.0000
# 4 0.0000 0.0000 0.0000 -11.2835 0.0000 9.3391
# 5 -8.4265 24.6157 2.4135 0.0000 43.4780 0.0000
# 6 0.0000 0.0000 0.0000 9.3391 0.0000 19.5286
#
#
#
# Elastic Compliance Matrix: (Units=1/GPa)
#
#
# Indices 1 2 3 4 5 6 
#
# 1 0.008303 -0.000166 -0.000860 0.000000 0.001751 0.000000
# 2 -0.000166 0.007312 -0.000277 0.000000 -0.004157 0.000000
# 3 -0.000860 -0.000277 0.012793 0.000000 -0.000720 0.000000
# 4 0.000000 0.000000 0.000000 -0.063493 0.000000 0.030364
# 5 0.001751 -0.004157 -0.000720 0.000000 0.025733 0.000000
# 6 0.000000 0.000000 0.000000 0.030364 0.000000 0.036686
#
#
# Mechanical properties :
#
#
# Convention : Reuss Voigt Hill
#
# Bulk Modulus (GPa) = 38.75528 41.55135 40.15332
# Shear Modulus (GPa) = 129.73298 33.15769 81.44534
#
# Velocity S-wave (km/s) = 7.05683 3.56760 5.59136
# Velocity P-wave (km/s) = 9.01526 5.73761 7.55629
#
# Compressibility (1/GPa) = 0.02580293
#
# Stress axis : x y z
#
# Youngs Moduli (GPa) = 120.43507 136.75338 78.16939
#
# Poissons Ratio (x) = 0.02274 0.06719
# Poissons Ratio (y) = 0.02002 0.02164
# Poissons Ratio (z) = 0.10353 0.03786
#
# Static dielectric constant tensor:
#      x y z
#    x 2.168430 0.000000 -0.027240 
#    y 0.000000 1.995010 0.000000 
#    z -0.027240 0.000000 1.909310 
# 
# From -- ./inp_files/162310.got.cif
#   From: 2010.05.17/outbox.cif.g08.bks.cpg/sg12_82_cif.got.tgz:162310.got - 2010.06.03 13:09:07.
