data_PCOD9204022
_publ_section_title
;
Structure prediction by ZEFSAII (Michael W. Deem and Ramdas Pophale) SiO2 
 PCOD9204022
Probable space group: C 2/M
;
_chemical_formula_sum "Si O2"
_cell_formula_units_Z 52
_cell_length_a 21.829953
_cell_length_b 20.982270
_cell_length_c 5.491565
_cell_angle_alpha 90.000000
_cell_angle_beta 105.603590
_cell_angle_gamma 90.000000
_cell_volume 2422.665179
_symmetry_space_group_name_H-M "C 2/M"
_symmetry_group_IT_number 12
_symmetry_cell_setting 'monoclinic'
loop_
_space_group_symop_operation_xyz
x,y,z
-x,y,-z
-x,-y,-z
x,-y,z
1/2+x,1/2+y,z
1/2-x,1/2+y,-z
1/2-x,1/2-y,-z
1/2+x,1/2-y,z
loop_
_atom_site_type_symbol
_atom_site_label
_atom_site_fract_x
_atom_site_fract_y
_atom_site_fract_z
Si Si1 0.133622 0.074266 0.118208
Si Si2 0.427776 0.623572 0.448408
Si Si3 0.129107 0.363353 0.367229
Si Si4 0.500000 0.163520 0.000000
Si Si5 0.574371 0.233394 0.691848
Si Si6 0.717471 0.071002 0.790714
Si Si7 0.198471 0.297096 0.061141
O O1 0.102420 0.103460 0.327237
O O2 0.210020 0.078490 0.219989
O O3 0.116136 0.000000 0.094429
O O4 0.110891 0.102764 0.834699
O O5 0.500000 0.598626 0.500000
O O6 0.431181 0.699973 0.445852
O O7 0.097885 0.323838 0.550307
O O8 0.165845 0.422909 0.519106
O O9 0.186279 0.318109 0.325949
O O10 0.067236 0.373141 0.124600
O O11 0.515831 0.209188 0.789691
O O12 0.632820 0.239573 0.940758
O O13 0.712206 0.000000 0.897993
O O14 0.705090 0.132494 0.947470
O O15 0.250000 0.250000 0.000000
#
# Coordination Sequence:
#
# PCOD9204022 Si02
#       7
#     8   8   8   4   8   8   8
#     4  11  27  46  66  93 133 181 231 288 340 404
#     4  12  26  42  70  97 132 178 229 283 343 413
#     4  10  22  39  65  96 130 173 218 280 342 408
#     4  10  20  40  63  94 137 166 216 272 352 404
#     4  10  23  37  64  97 133 169 213 277 345 407
#     4  10  24  43  64  94 133 181 229 277 346 415
#     4  10  22  38  64  96 132 172 224 286 342 407
#
# _framework density 21.463963
#
# number of rings (size 3 to 8) (size 9 to 14) (size 15 to 20)
#    0.000    1.538    0.000    3.231   12.923    3.692 
#    0.000    0.385    0.000   12.000    0.000    0.000 
#    0.000    0.000    0.000    0.000    0.000    0.000 
#
# Total GULP energy -144867.521748 kJ/mol
# GULP energy per Si atom -5571.827760 kJ/mol
# Density = 2.141511 g / cm^3
# Si number density = 21.463963 Si / 1000 Ang^3
#
#
#
# Elastic Constant Matrix: (Units=GPa)
#
#
# Indices 1 2 3 4 5 6 
#
# 1 111.2521 40.2938 34.1038 0.0000 0.1394 0.0000
# 2 40.2938 95.1283 28.5518 0.0000 6.5804 0.0000
# 3 34.1038 28.5518 85.0456 0.0000 -2.7384 0.0000
# 4 0.0000 0.0000 0.0000 25.8469 0.0000 6.3692
# 5 0.1394 6.5804 -2.7384 0.0000 39.6664 0.0000
# 6 0.0000 0.0000 0.0000 6.3692 0.0000 9.5908
#
#
#
# Elastic Compliance Matrix: (Units=1/GPa)
#
#
# Indices 1 2 3 4 5 6 
#
# 1 0.011389 -0.003873 -0.003254 0.000000 0.000378 0.000000
# 2 -0.003873 0.013205 -0.002957 0.000000 -0.002381 0.000000
# 3 -0.003254 -0.002957 0.014104 0.000000 0.001476 0.000000
# 4 0.000000 0.000000 0.000000 0.046260 0.000000 -0.030721
# 5 0.000378 -0.002381 0.001476 0.000000 0.025706 0.000000
# 6 0.000000 0.000000 0.000000 -0.030721 0.000000 0.124669
#
#
# Mechanical properties :
#
#
# Convention : Reuss Voigt Hill
#
# Bulk Modulus (GPa) = 53.97120 55.25833 54.61476
# Shear Modulus (GPa) = 19.10761 27.58593 23.34677
#
# Velocity S-wave (km/s) = 2.98689 3.58889 3.30164
# Velocity P-wave (km/s) = 6.09056 6.55546 6.32728
#
# Compressibility (1/GPa) = 0.01852840
#
# Stress axis : x y z
#
# Youngs Moduli (GPa) = 87.80729 75.72979 70.90409
#
# Poissons Ratio (x) = 0.29332 0.23075
# Poissons Ratio (y) = 0.34010 0.20964
# Poissons Ratio (z) = 0.28576 0.22391
#
# Static dielectric constant tensor:
#      x y z
#    x 1.842760 0.000000 0.059450 
#    y 0.000000 1.762320 0.000000 
#    z 0.059450 0.000000 1.888570 
# 
# From -- ./inp_files/21249.got.cif
#   From: 2010.05.17/outbox.cif.g08.bks.cpg/sg12_11_cif.got.tgz:21249.got - 2010.06.03 13:09:07.
