data_PCOD9204476
_publ_section_title
;
Structure prediction by ZEFSAII (Michael W. Deem and Ramdas Pophale) SiO2 
 PCOD9204476
Probable space group: C 2/M
;
_chemical_formula_sum "Si O2"
_cell_formula_units_Z 42
_cell_length_a 31.518987
_cell_length_b 12.995898
_cell_length_c 5.081168
_cell_angle_alpha 90.000000
_cell_angle_beta 102.082919
_cell_angle_gamma 90.000000
_cell_volume 2035.224973
_symmetry_space_group_name_H-M "C 2/M"
_symmetry_group_IT_number 12
_symmetry_cell_setting 'monoclinic'
loop_
_space_group_symop_operation_xyz
x,y,z
-x,y,-z
-x,-y,-z
x,-y,z
1/2+x,1/2+y,z
1/2-x,1/2+y,-z
1/2-x,1/2-y,-z
1/2+x,1/2-y,z
loop_
_atom_site_type_symbol
_atom_site_label
_atom_site_fract_x
_atom_site_fract_y
_atom_site_fract_z
Si Si1 0.388993 0.000000 0.477517
Si Si2 0.813454 0.000000 0.411145
Si Si3 0.137988 0.000000 0.029676
Si Si4 0.173396 0.500000 0.106551
Si Si5 0.246100 0.676580 0.243349
Si Si6 0.429723 0.671112 0.939277
Si Si7 0.448144 0.197476 0.453339
Si Si8 0.000000 0.000000 0.000000
O O1 0.420347 0.098301 0.493677
O O2 0.362816 0.000000 0.714857
O O3 0.352375 0.000000 0.201934
O O4 0.819654 0.000000 0.732716
O O5 0.786577 0.099758 0.299417
O O6 0.855309 0.000000 0.274726
O O7 0.113216 0.102932 0.088981
O O8 0.204055 0.601306 0.177281
O O9 0.250000 0.750000 0.500000
O O10 0.250000 0.750000 0.000000
O O11 0.438651 0.715411 0.661116
O O12 0.431767 0.762213 0.150809
O O13 0.466991 0.589906 0.061027
O O14 0.500000 0.178756 0.500000
#
# Coordination Sequence:
#
# PCOD9204476 Si02
#       8
#     4   4   4   4   8   8   8   2
#     4  12  27  43  68  91 139 169 215 282 313 367
#     4  11  24  42  62  93 135 159 209 258 312 390
#     4  11  24  40  60 100 129 165 202 264 322 380
#     4  11  26  46  65 104 129 167 222 259 324 392
#     4  11  24  43  71  95 126 173 207 258 320 383
#     4  11  24  39  66  91 128 166 219 263 327 377
#     4  12  24  44  63  95 123 177 221 267 317 387
#     4  10  20  42  60  90 120 166 202 278 316 376
#
# _framework density 20.636541000000001
#
# number of rings (size 3 to 8) (size 9 to 14) (size 15 to 20)
#    0.000    0.762    1.905    4.857    0.000   15.238 
#    0.000    2.857    0.000    0.000    0.000    0.000 
#    0.000    0.000    0.000    0.000    0.000    0.000 
#
# Total GULP energy -117146.483012 kJ/mol
# GULP energy per Si atom -5578.403953 kJ/mol
# Density = 2.058957 g / cm^3
# Si number density = 20.636541 Si / 1000 Ang^3
#
#
#
# Elastic Constant Matrix: (Units=GPa)
#
#
# Indices 1 2 3 4 5 6 
#
# 1 65.8939 34.3742 -1.8705 0.0000 -8.3397 0.0000
# 2 34.3742 111.9872 7.7929 0.0000 -0.7557 0.0000
# 3 -1.8705 7.7929 86.0336 0.0000 -9.5719 0.0000
# 4 0.0000 0.0000 0.0000 -7.6472 0.0000 6.7245
# 5 -8.3397 -0.7557 -9.5719 0.0000 31.5468 0.0000
# 6 0.0000 0.0000 0.0000 6.7245 0.0000 35.0316
#
#
#
# Elastic Compliance Matrix: (Units=1/GPa)
#
#
# Indices 1 2 3 4 5 6 
#
# 1 0.018970 -0.005894 0.001541 0.000000 0.005341 0.000000
# 2 -0.005894 0.010818 -0.001296 0.000000 -0.001692 0.000000
# 3 0.001541 -0.001296 0.012229 0.000000 0.004087 0.000000
# 4 0.000000 0.000000 0.000000 -0.111882 0.000000 0.021476
# 5 0.005341 -0.001692 0.004087 0.000000 0.034310 0.000000
# 6 0.000000 0.000000 0.000000 0.021476 0.000000 0.024423
#
#
# Mechanical properties :
#
#
# Convention : Reuss Voigt Hill
#
# Bulk Modulus (GPa) = 32.55493 38.27865 35.41679
# Shear Modulus (GPa) = 480.42514 26.69411 253.55963
#
# Velocity S-wave (km/s) = 15.27444 3.60048 11.09667
# Velocity P-wave (km/s) = 18.08003 5.98948 13.46777
#
# Compressibility (1/GPa) = 0.03071732
#
# Stress axis : x y z
#
# Youngs Moduli (GPa) = 52.71389 92.44245 81.77310
#
# Poissons Ratio (x) = 0.54486 -0.12598
# Poissons Ratio (y) = 0.31070 0.10600
# Poissons Ratio (z) = -0.08121 0.11983
#
# Static dielectric constant tensor:
#      x y z
#    x 1.765720 0.000000 0.032430 
#    y 0.000000 1.695870 0.000000 
#    z 0.032430 0.000000 1.738260 
# 
# From -- ./inp_files/30923.got.cif
#   From: 2010.05.17/outbox.cif.g08.bks.cpg/sg12_16_cif.got.tgz:30923.got - 2010.06.03 13:09:07.
