data_PCOD9204828
_publ_section_title
;
Structure prediction by ZEFSAII (Michael W. Deem and Ramdas Pophale) SiO2 
 PCOD9204828
Probable space group: C 2/M
;
_chemical_formula_sum "Si O2"
_cell_formula_units_Z 48
_cell_length_a 19.079983
_cell_length_b 14.389138
_cell_length_c 10.053620
_cell_angle_alpha 90.000000
_cell_angle_beta 110.377804
_cell_angle_gamma 90.000000
_cell_volume 2587.426554
_symmetry_space_group_name_H-M "C 2/M"
_symmetry_group_IT_number 12
_symmetry_cell_setting 'monoclinic'
loop_
_space_group_symop_operation_xyz
x,y,z
-x,y,-z
-x,-y,-z
x,-y,z
1/2+x,1/2+y,z
1/2-x,1/2+y,-z
1/2-x,1/2-y,-z
1/2+x,1/2-y,z
loop_
_atom_site_type_symbol
_atom_site_label
_atom_site_fract_x
_atom_site_fract_y
_atom_site_fract_z
Si Si1 0.752459 0.000000 0.462594
Si Si2 0.415154 0.500000 0.639167
Si Si3 0.685554 0.197105 0.380243
Si Si4 0.561315 0.293882 0.932311
Si Si5 0.211063 0.000000 0.819428
Si Si6 0.461704 0.702194 0.610242
Si Si7 0.204722 0.310244 0.077237
Si Si8 0.931366 0.000000 0.100156
O O1 0.700259 0.090307 0.429171
O O2 0.789028 0.000000 0.339684
O O3 0.825248 0.000000 0.608360
O O4 0.431056 0.596723 0.574307
O O5 0.480539 0.500000 0.797613
O O6 0.750000 0.250000 0.500000
O O7 0.606166 0.236114 0.377465
O O8 0.699999 0.213439 0.232213
O O9 0.525220 0.300770 0.764038
O O10 0.586187 0.400853 0.981397
O O11 0.500000 0.270293 0.000000
O O12 0.621256 0.212405 0.975701
O O13 0.257038 0.089341 0.899379
O O14 0.126405 0.000000 0.815189
O O15 0.500000 0.734617 0.500000
O O16 0.250000 0.250000 0.000000
#
# Coordination Sequence:
#
# PCOD9204828 Si02
#       8
#     4   4   8   8   4   8   8   4
#     4  10  22  37  61  87 127 158 203 245 306 367
#     4  10  21  33  59  95 121 158 194 249 308 372
#     4  11  23  41  62  91 124 163 204 252 303 367
#     4  11  22  40  59  88 124 162 199 249 306 363
#     4  10  22  38  59  94 118 161 205 250 300 365
#     4  11  24  38  62  90 125 158 204 250 308 362
#     4  11  23  41  64  88 125 163 207 249 304 367
#     4  10  21  33  59  91 126 150 194 256 310 354
#
# _framework density 18.55125
#
# number of rings (size 3 to 8) (size 9 to 14) (size 15 to 20)
#    0.000    1.333    5.000    0.500    7.000    0.000 
#    0.000    4.167    0.000    0.000    0.000    0.000 
#    0.000    0.000    0.000    0.000    0.000    0.000 
#
# Total GULP energy -133729.436585 kJ/mol
# GULP energy per Si atom -5572.059858 kJ/mol
# Density = 1.850903 g / cm^3
# Si number density = 18.551250 Si / 1000 Ang^3
#
#
#
# Elastic Constant Matrix: (Units=GPa)
#
#
# Indices 1 2 3 4 5 6 
#
# 1 98.0606 40.5791 37.6094 0.0000 -16.2627 0.0000
# 2 40.5791 101.6850 45.2332 0.0000 0.5155 0.0000
# 3 37.6094 45.2332 80.8920 0.0000 -0.8991 0.0000
# 4 0.0000 0.0000 0.0000 16.2859 0.0000 10.3844
# 5 -16.2627 0.5155 -0.8991 0.0000 34.3525 0.0000
# 6 0.0000 0.0000 0.0000 10.3844 0.0000 12.0419
#
#
#
# Elastic Compliance Matrix: (Units=1/GPa)
#
#
# Indices 1 2 3 4 5 6 
#
# 1 0.014702 -0.003854 -0.004604 0.000000 0.006898 0.000000
# 2 -0.003854 0.014106 -0.006120 0.000000 -0.002196 0.000000
# 3 -0.004604 -0.006120 0.017907 0.000000 -0.001619 0.000000
# 4 0.000000 0.000000 0.000000 0.136408 0.000000 -0.117632
# 5 0.006898 -0.002196 -0.001619 0.000000 0.032366 0.000000
# 6 0.000000 0.000000 0.000000 -0.117632 0.000000 0.184483
#
#
# Mechanical properties :
#
#
# Convention : Reuss Voigt Hill
#
# Bulk Modulus (GPa) = 56.95146 58.60899 57.78022
# Shear Modulus (GPa) = 11.49475 23.01713 17.25594
#
# Velocity S-wave (km/s) = 2.49192 3.52622 3.05319
# Velocity P-wave (km/s) = 6.24866 6.94555 6.60630
#
# Compressibility (1/GPa) = 0.01755881
#
# Stress axis : x y z
#
# Youngs Moduli (GPa) = 68.01647 70.89165 55.84439
#
# Poissons Ratio (x) = 0.27324 0.25709
# Poissons Ratio (y) = 0.26215 0.34178
# Poissons Ratio (z) = 0.31313 0.43387
#
# Static dielectric constant tensor:
#      x y z
#    x 1.617500 0.000000 0.002090 
#    y 0.000000 1.799140 0.000000 
#    z 0.002090 0.000000 1.697850 
# 
# From -- ./inp_files/154365.got.cif
#   From: 2010.05.17/outbox.cif.g08.bks.cpg/sg12_78_cif.got.tgz:154365.got - 2010.06.03 13:09:07.
