data_PCOD9204753
_publ_section_title
;
Structure prediction by ZEFSAII (Michael W. Deem and Ramdas Pophale) SiO2 
 PCOD9204753
Probable space group: C 2/M
;
_chemical_formula_sum "Si O2"
_cell_formula_units_Z 56
_cell_length_a 10.851098
_cell_length_b 28.913324
_cell_length_c 11.272067
_cell_angle_alpha 90.000000
_cell_angle_beta 39.735293
_cell_angle_gamma 90.000000
_cell_volume 2260.686395
_symmetry_space_group_name_H-M "C 2/M"
_symmetry_group_IT_number 12
_symmetry_cell_setting 'monoclinic'
loop_
_space_group_symop_operation_xyz
x,y,z
-x,y,-z
-x,-y,-z
x,-y,z
1/2+x,1/2+y,z
1/2-x,1/2+y,-z
1/2-x,1/2-y,-z
1/2+x,1/2-y,z
loop_
_atom_site_type_symbol
_atom_site_label
_atom_site_fract_x
_atom_site_fract_y
_atom_site_fract_z
Si Si1 0.292235 0.799467 0.632952
Si Si2 0.203230 0.702272 0.104096
Si Si3 0.862131 0.598620 0.852482
Si Si4 0.312644 0.116010 0.225210
Si Si5 0.922992 0.053393 0.765805
Si Si6 0.761176 0.802844 0.572639
Si Si7 0.188980 0.053393 0.773900
O O1 0.500000 0.822712 0.500000
O O2 0.213717 0.795243 0.823689
O O3 0.171872 0.818186 0.609249
O O4 0.329225 0.747300 0.560049
O O5 0.239456 0.648320 0.041026
O O6 0.970623 0.700805 0.271747
O O7 0.250000 0.750000 0.000000
O O8 0.834546 0.586257 0.735728
O O9 0.081600 0.598852 0.733735
O O10 0.752570 0.559849 0.010148
O O11 0.155034 0.083240 0.284608
O O12 0.214685 0.163524 0.334894
O O13 0.500000 0.122098 0.000000
O O14 0.110301 0.067540 0.703315
O O15 0.944869 0.000000 0.717145
O O16 0.254586 0.000000 0.720214
O O17 0.000000 0.054513 0.000000
#
# Coordination Sequence:
#
# PCOD9204753 Si02
#       7
#     8   8   8   8   8   8   8
#     4   9  19  36  53  69  98 144 191 220 267 331
#     4  10  21  33  50  78 109 142 180 232 277 317
#     4   9  17  29  43  71 102 137 174 215 268 325
#     4   9  18  28  49  76 107 136 173 227 279 325
#     4   9  17  29  45  70 106 142 172 217 277 335
#     4   9  19  36  52  70 102 145 179 226 274 322
#     4   8  14  27  44  62  98 140 174 211 262 328
#
# _framework density 24.771236999999999
#
# number of rings (size 3 to 8) (size 9 to 14) (size 15 to 20)
#    0.000    3.000    0.000    1.286    6.000    3.143 
#    7.714    1.429    0.000    0.000    0.000    2.000 
#    0.000   22.857    0.000    0.000    0.000    0.000 
#
# Total GULP energy -156124.696250 kJ/mol
# GULP energy per Si atom -5575.882009 kJ/mol
# Density = 2.471486 g / cm^3
# Si number density = 24.771237 Si / 1000 Ang^3
#
#
#
# Elastic Constant Matrix: (Units=GPa)
#
#
# Indices 1 2 3 4 5 6 
#
# 1 146.4482 77.4772 35.8690 0.0000 31.7440 0.0000
# 2 77.4772 117.9305 25.2864 0.0000 29.3584 0.0000
# 3 35.8690 25.2864 63.1185 0.0000 12.2967 0.0000
# 4 0.0000 0.0000 0.0000 18.7956 0.0000 13.6720
# 5 31.7440 29.3584 12.2967 0.0000 29.0270 0.0000
# 6 0.0000 0.0000 0.0000 13.6720 0.0000 29.0450
#
#
#
# Elastic Compliance Matrix: (Units=1/GPa)
#
#
# Indices 1 2 3 4 5 6 
#
# 1 0.011913 -0.005636 -0.003362 0.000000 -0.005904 0.000000
# 2 -0.005636 0.014378 -0.001008 0.000000 -0.007951 0.000000
# 3 -0.003362 -0.001008 0.018794 0.000000 -0.003265 0.000000
# 4 0.000000 0.000000 0.000000 0.080906 0.000000 -0.038084
# 5 -0.005904 -0.007951 -0.003265 0.000000 0.050332 0.000000
# 6 0.000000 0.000000 0.000000 -0.038084 0.000000 0.052356
#
#
# Mechanical properties :
#
#
# Convention : Reuss Voigt Hill
#
# Bulk Modulus (GPa) = 39.88423 67.19582 53.54002
# Shear Modulus (GPa) = 19.45152 27.96450 23.70801
#
# Velocity S-wave (km/s) = 2.80526 3.36357 3.09702
# Velocity P-wave (km/s) = 5.16030 6.50156 5.86937
#
# Compressibility (1/GPa) = 0.02507257
#
# Stress axis : x y z
#
# Youngs Moduli (GPa) = 83.94071 69.55095 53.20913
#
# Poissons Ratio (x) = 0.39199 0.17889
# Poissons Ratio (y) = 0.47310 0.05364
# Poissons Ratio (z) = 0.28221 0.07012
#
# Static dielectric constant tensor:
#      x y z
#    x 2.046650 0.000000 0.068470 
#    y 0.000000 1.966620 0.000000 
#    z 0.068470 0.000000 2.030080 
# 
# From -- ./inp_files/136911.got.cif
#   From: 2010.05.17/outbox.cif.g08.bks.cpg/sg12_69_cif.got.tgz:136911.got - 2010.06.03 13:09:07.
