data_PCOD9204142
_publ_section_title
;
Structure prediction by ZEFSAII (Michael W. Deem and Ramdas Pophale) SiO2 
 PCOD9204142
Probable space group: C 2/M
;
_chemical_formula_sum "Si O2"
_cell_formula_units_Z 52
_cell_length_a 21.201898
_cell_length_b 7.405149
_cell_length_c 29.755049
_cell_angle_alpha 90.000000
_cell_angle_beta 150.937155
_cell_angle_gamma 90.000000
_cell_volume 2269.335472
_symmetry_space_group_name_H-M "C 2/M"
_symmetry_group_IT_number 12
_symmetry_cell_setting 'monoclinic'
loop_
_space_group_symop_operation_xyz
x,y,z
-x,y,-z
-x,-y,-z
x,-y,z
1/2+x,1/2+y,z
1/2-x,1/2+y,-z
1/2-x,1/2-y,-z
1/2+x,1/2-y,z
loop_
_atom_site_type_symbol
_atom_site_label
_atom_site_fract_x
_atom_site_fract_y
_atom_site_fract_z
Si Si1 0.185318 0.718495 0.241849
Si Si2 0.553615 0.779278 0.253208
Si Si3 0.733430 0.715581 0.542324
Si Si4 0.129350 0.715321 0.108051
Si Si5 0.286970 0.500000 0.900980
Si Si6 0.521822 0.279720 0.565455
Si Si7 0.257267 0.699110 0.056829
O O1 0.187545 0.500000 0.246083
O O2 0.117578 0.776569 0.245661
O O3 0.116588 0.762641 0.152382
O O4 0.334370 0.779614 0.331697
O O5 0.646970 0.721696 0.352060
O O6 0.408746 0.705721 0.164929
O O7 0.541634 0.000000 0.246625
O O8 0.731596 0.500000 0.547244
O O9 0.750000 0.750000 0.500000
O O10 0.596976 0.783186 0.477636
O O11 0.150626 0.500000 0.116982
O O12 0.236179 0.839741 0.151455
O O13 0.000000 0.769368 0.000000
O O14 0.308184 0.344287 0.952651
O O15 0.500000 0.229306 0.500000
O O16 0.521749 0.500000 0.566951
O O17 0.200815 0.500000 0.028145
O O18 0.250000 0.750000 0.000000
#
# Coordination Sequence:
#
# PCOD9204142 Si02
#       7
#     8   8   8   8   4   8   8
#     4   9  18  34  64  94 127 171 226 279 337 407
#     4  10  20  40  65  96 132 178 229 283 343 411
#     4  10  21  36  62  93 134 175 219 280 347 409
#     4  10  23  42  67 102 136 181 225 283 345 408
#     4  12  25  46  66  96 147 174 229 276 348 407
#     4   9  15  31  59  94 122 162 220 275 333 404
#     4  12  26  45  70 101 134 182 228 284 343 413
#
# _framework density 22.914194999999999
#
# number of rings (size 3 to 8) (size 9 to 14) (size 15 to 20)
#    0.000    1.846    3.077    0.692    2.154    1.846 
#    1.385    1.538    0.000    0.462    0.000    0.000 
#    0.000    0.000    0.000    0.000    0.000    0.000 
#
# Total GULP energy -144882.890068 kJ/mol
# GULP energy per Si atom -5572.418849 kJ/mol
# Density = 2.286204 g / cm^3
# Si number density = 22.914195 Si / 1000 Ang^3
#
#
#
# Elastic Constant Matrix: (Units=GPa)
#
#
# Indices 1 2 3 4 5 6 
#
# 1 138.4869 21.0051 52.0348 -0.0006 -28.2631 0.0003
# 2 21.0051 112.0492 6.8746 -0.0007 -7.6130 0.0008
# 3 52.0348 6.8746 132.5142 0.0001 -14.6061 0.0000
# 4 -0.0006 -0.0007 0.0001 9.9610 0.0001 6.3460
# 5 -28.2631 -7.6130 -14.6061 0.0001 43.7872 -0.0001
# 6 0.0003 0.0008 0.0000 6.3460 -0.0001 54.0734
#
#
#
# Elastic Compliance Matrix: (Units=1/GPa)
#
#
# Indices 1 2 3 4 5 6 
#
# 1 0.009608 -0.001272 -0.003164 0.000001 0.004925 0.000000
# 2 -0.001272 0.009212 0.000112 0.000001 0.000818 0.000000
# 3 -0.003164 0.000112 0.008887 0.000000 0.000942 0.000000
# 4 0.000001 0.000001 0.000000 0.108504 0.000000 -0.012734
# 5 0.004925 0.000818 0.000942 0.000000 0.026473 0.000000
# 6 0.000000 0.000000 0.000000 -0.012734 0.000000 0.019988
#
#
# Mechanical properties :
#
#
# Convention : Reuss Voigt Hill
#
# Bulk Modulus (GPa) = 52.47260 60.31993 56.39627
# Shear Modulus (GPa) = 25.29434 41.77337 33.53386
#
# Velocity S-wave (km/s) = 3.32606 4.27433 3.82966
# Velocity P-wave (km/s) = 6.14000 7.12329 6.64984
#
# Compressibility (1/GPa) = 0.01905757
#
# Stress axis : x y z
#
# Youngs Moduli (GPa) = 104.08242 108.55567 112.52749
#
# Poissons Ratio (x) = 0.13812 0.35602
# Poissons Ratio (y) = 0.13243 -0.01259
# Poissons Ratio (z) = 0.32930 -0.01214
#
# Static dielectric constant tensor:
#      x y z
#    x 1.872870 0.000000 0.039220 
#    y 0.000000 1.867910 0.000000 
#    z 0.039220 0.000000 1.851440 
# 
# From -- ./inp_files/380424.got.cif
#   From: 2010.05.17/outbox.cif.g08.bks.cpg/sg12_191_cif.got.tgz:380424.got - 2010.06.03 13:09:07.
