data_PCOD9204243
_publ_section_title
;
Structure prediction by ZEFSAII (Michael W. Deem and Ramdas Pophale) SiO2 
 PCOD9204243
Probable space group: C 2/M
;
_chemical_formula_sum "Si O2"
_cell_formula_units_Z 56
_cell_length_a 11.631479
_cell_length_b 27.115178
_cell_length_c 8.729746
_cell_angle_alpha 90.000000
_cell_angle_beta 114.774979
_cell_angle_gamma 90.000000
_cell_volume 2499.861772
_symmetry_space_group_name_H-M "C 2/M"
_symmetry_group_IT_number 12
_symmetry_cell_setting 'monoclinic'
loop_
_space_group_symop_operation_xyz
x,y,z
-x,y,-z
-x,-y,-z
x,-y,z
1/2+x,1/2+y,z
1/2-x,1/2+y,-z
1/2-x,1/2-y,-z
1/2+x,1/2-y,z
loop_
_atom_site_type_symbol
_atom_site_label
_atom_site_fract_x
_atom_site_fract_y
_atom_site_fract_z
Si Si1 0.214936 0.362455 0.023300
Si Si2 0.277676 0.554982 0.546329
Si Si3 0.650367 0.446401 0.068324
Si Si4 0.123583 0.789814 0.732826
Si Si5 0.621791 0.055186 0.179771
Si Si6 0.642217 0.338698 0.417034
Si Si7 0.383375 0.825419 0.328373
O O1 0.318568 0.399396 0.013320
O O2 0.117419 0.356017 0.829854
O O3 0.269065 0.309301 0.094224
O O4 0.175215 0.392951 0.149379
O O5 0.332208 0.500000 0.545895
O O6 0.276000 0.557870 0.729276
O O7 0.145933 0.558622 0.377462
O O8 0.359938 0.602796 0.547989
O O9 0.687818 0.500000 0.025571
O O10 0.500000 0.447279 0.000000
O O11 0.163792 0.808964 0.586442
O O12 0.102926 0.731939 0.709271
O O13 0.994105 0.817685 0.708671
O O14 0.678914 0.000000 0.184667
O O15 0.500000 0.052685 0.000000
O O16 0.752943 0.330841 0.353462
O O17 0.500000 0.839758 0.500000
#
# Coordination Sequence:
#
# PCOD9204243 Si02
#       7
#     8   8   8   8   8   8   8
#     4  12  24  39  66  97 130 168 223 271 329 392
#     4  10  20  40  68  96 129 174 218 262 332 401
#     4  10  21  39  63  96 132 165 208 266 332 395
#     4  11  25  44  69  95 127 179 217 275 340 385
#     4  10  23  42  62  91 135 180 221 270 325 394
#     4  11  22  46  70  91 137 169 216 277 329 395
#     4  12  27  44  67  97 130 176 224 277 333 389
#
# _framework density 22.401239
#
# number of rings (size 3 to 8) (size 9 to 14) (size 15 to 20)
#    0.000    1.143    4.286    2.143    2.000    0.000 
#    0.000    2.143    0.000    4.714    0.000    0.000 
#    0.000    0.000    0.000    0.000    0.000    0.000 
#
# Total GULP energy -155948.302783 kJ/mol
# GULP energy per Si atom -5569.582242 kJ/mol
# Density = 2.235025 g / cm^3
# Si number density = 22.401239 Si / 1000 Ang^3
#
#
#
# Elastic Constant Matrix: (Units=GPa)
#
#
# Indices 1 2 3 4 5 6 
#
# 1 29.6469 1.3034 14.3672 0.0000 1.7236 0.0000
# 2 1.3034 115.1792 -12.3868 0.0000 6.0743 0.0000
# 3 14.3672 -12.3868 97.1870 0.0000 17.5877 0.0000
# 4 0.0000 0.0000 0.0000 43.5499 0.0000 1.5886
# 5 1.7236 6.0743 17.5877 0.0000 16.1606 0.0000
# 6 0.0000 0.0000 0.0000 1.5886 0.0000 27.2147
#
#
#
# Elastic Compliance Matrix: (Units=1/GPa)
#
#
# Indices 1 2 3 4 5 6 
#
# 1 0.036580 -0.001249 -0.006159 0.000000 0.003270 0.000000
# 2 -0.001249 0.009279 0.002458 0.000000 -0.006030 0.000000
# 3 -0.006159 0.002458 0.014397 0.000000 -0.015936 0.000000
# 4 0.000000 0.000000 0.000000 0.023011 0.000000 -0.001343
# 5 0.003270 -0.006030 -0.015936 0.000000 0.081139 0.000000
# 6 0.000000 0.000000 0.000000 -0.001343 0.000000 0.036823
#
#
# Mechanical properties :
#
#
# Convention : Reuss Voigt Hill
#
# Bulk Modulus (GPa) = 19.85805 27.62009 23.73907
# Shear Modulus (GPa) = 21.93822 33.30033 27.61927
#
# Velocity S-wave (km/s) = 3.13282 3.85975 3.51513
# Velocity P-wave (km/s) = 4.68722 5.67627 5.20529
#
# Compressibility (1/GPa) = 0.05035740
#
# Stress axis : x y z
#
# Youngs Moduli (GPa) = 27.33766 107.77443 69.45877
#
# Poissons Ratio (x) = 0.13458 0.42777
# Poissons Ratio (y) = 0.03414 -0.17076
# Poissons Ratio (z) = 0.16836 -0.26495
#
# Static dielectric constant tensor:
#      x y z
#    x 1.875110 0.000000 -0.068420 
#    y 0.000000 1.825750 0.000000 
#    z -0.068420 0.000000 2.036880 
# 
# From -- ./inp_files/54808.got.cif
#   From: 2010.05.17/outbox.cif.g08.bks.cpg/sg12_28_cif.got.tgz:54808.got - 2010.06.03 13:09:07.
