data_PCOD9204194
_publ_section_title
;
Structure prediction by ZEFSAII (Michael W. Deem and Ramdas Pophale) SiO2 
 PCOD9204194
Probable space group: C 2/M
;
_chemical_formula_sum "Si O2"
_cell_formula_units_Z 64
_cell_length_a 30.846067
_cell_length_b 8.973303
_cell_length_c 11.865229
_cell_angle_alpha 90.000000
_cell_angle_beta 87.359827
_cell_angle_gamma 90.000000
_cell_volume 3280.703744
_symmetry_space_group_name_H-M "C 2/M"
_symmetry_group_IT_number 12
_symmetry_cell_setting 'monoclinic'
loop_
_space_group_symop_operation_xyz
x,y,z
-x,y,-z
-x,-y,-z
x,-y,z
1/2+x,1/2+y,z
1/2-x,1/2+y,-z
1/2-x,1/2-y,-z
1/2+x,1/2-y,z
loop_
_atom_site_type_symbol
_atom_site_label
_atom_site_fract_x
_atom_site_fract_y
_atom_site_fract_z
Si Si1 0.596971 0.673394 0.049992
Si Si2 0.572275 0.325728 0.799953
Si Si3 0.457843 0.673996 0.584276
Si Si4 0.979189 0.675036 0.811243
Si Si5 0.213704 0.677947 0.584356
Si Si6 0.376616 0.322839 0.431313
Si Si7 0.184784 0.323897 0.050104
Si Si8 0.772081 0.177088 0.173091
O O1 0.599615 0.500000 0.080136
O O2 0.551908 0.740370 0.098228
O O3 0.638381 0.760596 0.091881
O O4 0.597023 0.686562 0.914744
O O5 0.560180 0.500000 0.784375
O O6 0.528383 0.232287 0.810854
O O7 0.602281 0.282536 0.691798
O O8 0.500000 0.693959 0.500000
O O9 0.458178 0.500000 0.621173
O O10 0.461855 0.780320 0.690071
O O11 0.414312 0.700062 0.518478
O O12 0.977185 0.500000 0.831358
O O13 0.217550 0.500000 0.584489
O O14 0.250000 0.750000 0.500000
O O15 0.166616 0.729492 0.545897
O O16 0.218708 0.742129 0.710532
O O17 0.366200 0.500000 0.430308
O O18 0.182050 0.500000 0.028604
O O19 0.222330 0.299993 0.138335
O O20 0.199833 0.241497 0.933900
O O21 0.780137 0.000000 0.183490
#
# Coordination Sequence:
#
# PCOD9204194 Si02
#       8
#     8   8   8   8   8   8   8   8
#     4  11  23  38  60  87 121 163 205 249 302 367
#     4  10  21  40  63  87 117 157 204 249 298 364
#     4  10  20  40  67  90 117 157 204 251 300 366
#     4  12  25  38  57  86 124 162 200 253 306 357
#     4  12  26  43  64  91 126 164 207 258 313 369
#     4  10  21  40  68  95 121 156 201 254 311 369
#     4  10  21  38  63  94 124 156 199 254 307 361
#     4  10  21  40  65  91 123 161 202 248 304 368
#
# _framework density 19.508009999999999
#
# number of rings (size 3 to 8) (size 9 to 14) (size 15 to 20)
#    0.000    1.375    1.250    4.500    0.000    7.250 
#    0.000    0.000    0.000    0.000    0.000    0.000 
#    0.000    0.000    0.000    0.000    0.000    0.000 
#
# Total GULP energy -178976.760531 kJ/mol
# GULP energy per Si atom -5593.023767 kJ/mol
# Density = 1.946361 g / cm^3
# Si number density = 19.508010 Si / 1000 Ang^3
#
#
#
# Elastic Constant Matrix: (Units=GPa)
#
#
# Indices 1 2 3 4 5 6 
#
# 1 115.5039 58.6626 12.1336 0.0000 3.4457 0.0000
# 2 58.6626 93.5930 13.5544 0.0000 13.3992 0.0000
# 3 12.1336 13.5544 23.2423 0.0000 13.1016 0.0000
# 4 0.0000 0.0000 0.0000 26.2174 0.0000 -2.9564
# 5 3.4457 13.3992 13.1016 0.0000 14.1879 0.0000
# 6 0.0000 0.0000 0.0000 -2.9564 0.0000 36.2860
#
#
#
# Elastic Compliance Matrix: (Units=1/GPa)
#
#
# Indices 1 2 3 4 5 6 
#
# 1 0.014129 -0.009521 -0.010340 0.000000 0.015109 0.000000
# 2 -0.009521 0.018791 0.005657 0.000000 -0.020657 0.000000
# 3 -0.010340 0.005657 0.097442 0.000000 -0.092812 0.000000
# 4 0.000000 0.000000 0.000000 0.038496 0.000000 0.003136
# 5 0.015109 -0.020657 -0.092812 0.000000 0.172027 0.000000
# 6 0.000000 0.000000 0.000000 0.003136 0.000000 0.027814
#
#
# Mechanical properties :
#
#
# Convention : Reuss Voigt Hill
#
# Bulk Modulus (GPa) = 9.80862 44.56006 27.18434
# Shear Modulus (GPa) = 11.59842 25.20417 18.40129
#
# Velocity S-wave (km/s) = 2.44098 3.59833 3.07460
# Velocity P-wave (km/s) = 3.60325 6.33683 5.15455
#
# Compressibility (1/GPa) = 0.10195115
#
# Stress axis : x y z
#
# Youngs Moduli (GPa) = 70.77637 53.21805 10.26255
#
# Poissons Ratio (x) = 0.50671 0.10612
# Poissons Ratio (y) = 0.67389 -0.05805
# Poissons Ratio (z) = 0.73185 -0.30104
#
# Static dielectric constant tensor:
#      x y z
#    x 1.676730 0.000000 0.009250 
#    y 0.000000 1.653590 0.000000 
#    z 0.009250 0.000000 1.673460 
# 
# From -- ./inp_files/187509.got.cif
#   From: 2010.05.17/outbox.cif.g08.bks.cpg/sg12_94_cif.got.tgz:187509.got - 2010.06.03 13:09:07.
