data_PCOD9204597
_publ_section_title
;
Structure prediction by ZEFSAII (Michael W. Deem and Ramdas Pophale) SiO2 
 PCOD9204597
Probable space group: C 2/M
;
_chemical_formula_sum "Si O2"
_cell_formula_units_Z 56
_cell_length_a 22.326122
_cell_length_b 23.219190
_cell_length_c 16.007210
_cell_angle_alpha 90.000000
_cell_angle_beta 158.947465
_cell_angle_gamma 90.000000
_cell_volume 2980.856795
_symmetry_space_group_name_H-M "C 2/M"
_symmetry_group_IT_number 12
_symmetry_cell_setting 'monoclinic'
loop_
_space_group_symop_operation_xyz
x,y,z
-x,y,-z
-x,-y,-z
x,-y,z
1/2+x,1/2+y,z
1/2-x,1/2+y,-z
1/2-x,1/2-y,-z
1/2+x,1/2-y,z
loop_
_atom_site_type_symbol
_atom_site_label
_atom_site_fract_x
_atom_site_fract_y
_atom_site_fract_z
Si Si1 0.878299 0.290267 0.421250
Si Si2 0.171862 0.282239 0.259920
Si Si3 0.981450 0.188950 0.114060
Si Si4 0.873817 0.119888 0.257546
Si Si5 0.307408 0.500000 0.227476
Si Si6 0.695972 0.000000 0.272516
Si Si7 0.116335 0.285568 0.878776
Si Si8 0.623408 0.613473 0.424231
O O1 0.806557 0.229951 0.363005
O O2 0.000000 0.286512 0.500000
O O3 0.984621 0.311106 0.640229
O O4 0.702598 0.318563 0.165860
O O5 0.248523 0.332895 0.412714
O O6 0.116224 0.221644 0.230209
O O7 0.000000 0.305092 0.000000
O O8 0.961216 0.238813 0.159138
O O9 0.031004 0.127399 0.216971
O O10 0.000000 0.126038 0.500000
O O11 0.985750 0.120578 0.318983
O O12 0.779960 0.058557 0.142317
O O13 0.728913 0.167174 0.070390
O O14 0.500000 0.500000 0.500000
O O15 0.243596 0.500000 0.237633
O O16 0.774664 0.055732 0.421721
O O17 0.500000 0.000000 0.000000
O O18 0.250000 0.250000 0.000000
#
# Coordination Sequence:
#
# PCOD9204597 Si02
#       8
#     8   8   8   8   4   4   8   8
#     4  11  21  37  54  83 123 152 203 246 292 364
#     4  10  23  36  55  84 122 161 191 246 306 366
#     4  11  24  38  57  85 126 164 202 247 315 367
#     4  11  22  35  63  88 122 165 205 248 302 361
#     4  10  20  44  60  87 119 165 201 253 300 356
#     4  12  26  42  62  93 122 158 210 258 308 365
#     4  12  22  32  56  92 118 164 205 253 303 359
#     4  12  21  39  59  86 121 163 203 244 307 364
#
# _framework density 18.786545
#
# number of rings (size 3 to 8) (size 9 to 14) (size 15 to 20)
#    0.000    0.857    7.143    0.857    6.000    1.143 
#    0.000    0.000    0.000    0.857    0.000    7.500 
#    0.000    0.000    0.000    0.000    0.000    0.000 
#
# Total GULP energy -155927.996157 kJ/mol
# GULP energy per Si atom -5568.857006 kJ/mol
# Density = 1.874379 g / cm^3
# Si number density = 18.786545 Si / 1000 Ang^3
#
#
#
# Elastic Constant Matrix: (Units=GPa)
#
#
# Indices 1 2 3 4 5 6 
#
# 1 79.7965 21.7174 35.0079 0.0000 7.0426 0.0000
# 2 21.7174 91.2665 49.9473 0.0000 0.8129 0.0000
# 3 35.0079 49.9473 119.1804 0.0000 -13.2530 0.0000
# 4 0.0000 0.0000 0.0000 6.1479 0.0000 -7.6851
# 5 7.0426 0.8129 -13.2530 0.0000 34.3653 0.0000
# 6 0.0000 0.0000 0.0000 -7.6851 0.0000 22.8876
#
#
#
# Elastic Compliance Matrix: (Units=1/GPa)
#
#
# Indices 1 2 3 4 5 6 
#
# 1 0.015261 -0.001089 -0.004567 0.000000 -0.004863 0.000000
# 2 -0.001089 0.014549 -0.006051 0.000000 -0.002454 0.000000
# 3 -0.004567 -0.006051 0.012943 0.000000 0.006071 0.000000
# 4 0.000000 0.000000 0.000000 0.280312 0.000000 0.094122
# 5 -0.004863 -0.002454 0.006071 0.000000 0.032495 0.000000
# 6 0.000000 0.000000 0.000000 0.094122 0.000000 0.075296
#
#
# Mechanical properties :
#
#
# Convention : Reuss Voigt Hill
#
# Bulk Modulus (GPa) = 51.70562 55.95428 53.82995
# Shear Modulus (GPa) = 10.85268 24.91823 17.88545
#
# Velocity S-wave (km/s) = 2.40611 3.64591 3.08885
# Velocity P-wave (km/s) = 5.94152 6.89728 6.43716
#
# Compressibility (1/GPa) = 0.01934026
#
# Stress axis : x y z
#
# Youngs Moduli (GPa) = 65.52605 68.73277 77.26160
#
# Poissons Ratio (x) = 0.07482 0.35288
# Poissons Ratio (y) = 0.07133 0.46748
# Poissons Ratio (z) = 0.29928 0.41587
#
# Static dielectric constant tensor:
#      x y z
#    x 1.721770 0.000000 -0.027470 
#    y 0.000000 2.575350 0.000000 
#    z -0.027470 0.000000 1.726790 
# 
# From -- ./inp_files/290872.got.cif
#   From: 2010.05.17/outbox.cif.g08.bks.cpg/sg12_146_cif.got.tgz:290872.got - 2010.06.03 13:09:07.
