data_PCOD9204258
_publ_section_title
;
Structure prediction by ZEFSAII (Michael W. Deem and Ramdas Pophale) SiO2 
 PCOD9204258
Probable space group: C 2/M
;
_chemical_formula_sum "Si O2"
_cell_formula_units_Z 64
_cell_length_a 27.612963
_cell_length_b 17.705814
_cell_length_c 11.638774
_cell_angle_alpha 90.000000
_cell_angle_beta 147.390762
_cell_angle_gamma 90.000000
_cell_volume 3066.547202
_symmetry_space_group_name_H-M "C 2/M"
_symmetry_group_IT_number 12
_symmetry_cell_setting 'monoclinic'
loop_
_space_group_symop_operation_xyz
x,y,z
-x,y,-z
-x,-y,-z
x,-y,z
1/2+x,1/2+y,z
1/2-x,1/2+y,-z
1/2-x,1/2-y,-z
1/2+x,1/2-y,z
loop_
_atom_site_type_symbol
_atom_site_label
_atom_site_fract_x
_atom_site_fract_y
_atom_site_fract_z
Si Si1 0.683845 0.583193 0.980541
Si Si2 0.262199 0.320031 0.605453
Si Si3 0.887391 0.089233 0.547533
Si Si4 0.699450 0.910419 0.285430
Si Si5 0.579623 0.584535 0.015154
Si Si6 0.995807 0.408716 0.129604
Si Si7 0.651800 0.839668 0.599620
Si Si8 0.403206 0.301968 0.364001
O O1 0.671455 0.500000 0.901295
O O2 0.618832 0.584300 0.962606
O O3 0.659543 0.653776 0.851883
O O4 0.786876 0.593452 0.226413
O O5 0.250000 0.250000 0.500000
O O6 0.206249 0.386403 0.431791
O O7 0.220788 0.303229 0.645750
O O8 0.363112 0.350091 0.812821
O O9 0.792295 0.112825 0.411330
O O10 0.908196 0.140931 0.480999
O O11 0.973477 0.096620 0.802558
O O12 0.882753 0.000000 0.508926
O O13 0.696143 0.000000 0.274027
O O14 0.606410 0.883318 0.044318
O O15 0.599571 0.500000 0.101966
O O16 0.005395 0.500000 0.161432
O O17 0.066841 0.368077 0.355068
O O18 0.000000 0.393085 0.000000
O O19 0.627638 0.778391 0.647495
O O20 0.500000 0.293528 0.500000
#
# Coordination Sequence:
#
# PCOD9204258 Si02
#       8
#     8   8   8   8   8   8   8   8
#     4  10  21  41  70  95 120 163 220 276 326 382
#     4  11  22  37  58  88 125 169 206 253 322 394
#     4  10  21  39  62  93 129 166 215 270 323 380
#     4  10  21  38  62  93 126 165 212 264 315 373
#     4   9  19  36  61  91 123 160 212 267 315 377
#     4  10  20  40  69  95 122 167 221 262 307 379
#     4  11  24  42  62  95 131 169 212 266 325 381
#     4  12  24  42  65  94 130 175 214 268 332 394
#
# _framework density 20.870377999999999
#
# number of rings (size 3 to 8) (size 9 to 14) (size 15 to 20)
#    0.000    1.625    2.500    2.250    0.000    3.000 
#    4.500    1.875    0.000    0.750    0.000    0.000 
#    0.000    0.000    0.000    0.000    0.000    0.000 
#
# Total GULP energy -178671.356276 kJ/mol
# GULP energy per Si atom -5583.479884 kJ/mol
# Density = 2.082288 g / cm^3
# Si number density = 20.870378 Si / 1000 Ang^3
#
#
#
# Elastic Constant Matrix: (Units=GPa)
#
#
# Indices 1 2 3 4 5 6 
#
# 1 98.2917 45.3438 35.2779 0.0000 19.0637 0.0000
# 2 45.3438 74.1812 46.6812 0.0000 9.4085 0.0000
# 3 35.2779 46.6812 119.9832 0.0000 26.6792 0.0000
# 4 0.0000 0.0000 0.0000 33.7597 0.0000 -14.2620
# 5 19.0637 9.4085 26.6792 0.0000 31.8787 0.0000
# 6 0.0000 0.0000 0.0000 -14.2620 0.0000 26.4328
#
#
#
# Elastic Compliance Matrix: (Units=1/GPa)
#
#
# Indices 1 2 3 4 5 6 
#
# 1 0.015448 -0.008841 0.000456 0.000000 -0.007011 0.000000
# 2 -0.008841 0.022922 -0.007360 0.000000 0.004681 0.000000
# 3 0.000456 -0.007360 0.013074 0.000000 -0.009043 0.000000
# 4 0.000000 0.000000 0.000000 0.038366 0.000000 0.020701
# 5 -0.007011 0.004681 -0.009043 0.000000 0.041748 0.000000
# 6 0.000000 0.000000 0.000000 0.020701 0.000000 0.049001
#
#
# Mechanical properties :
#
#
# Convention : Reuss Voigt Hill
#
# Bulk Modulus (GPa) = 50.10854 60.78463 55.44658
# Shear Modulus (GPa) = 22.86237 29.42447 26.14342
#
# Velocity S-wave (km/s) = 3.31334 3.75889 3.54313
# Velocity P-wave (km/s) = 6.22087 6.93016 6.58507
#
# Compressibility (1/GPa) = 0.01995668
#
# Stress axis : x y z
#
# Youngs Moduli (GPa) = 64.73252 43.62588 76.48519
#
# Poissons Ratio (x) = 0.38569 -0.03491
# Poissons Ratio (y) = 0.57229 0.56291
# Poissons Ratio (z) = -0.02955 0.32107
#
# Static dielectric constant tensor:
#      x y z
#    x 1.785850 0.000000 -0.026090 
#    y 0.000000 1.864340 0.000000 
#    z -0.026090 0.000000 1.837360 
# 
# From -- ./inp_files/190077.got.cif
#   From: 2010.05.17/outbox.cif.g08.bks.cpg/sg12_96_cif.got.tgz:190077.got - 2010.06.03 13:09:07.
