data_PCOD9204236
_publ_section_title
;
Structure prediction by ZEFSAII (Michael W. Deem and Ramdas Pophale) SiO2 
 PCOD9204236
Probable space group: C 2/M
;
_chemical_formula_sum "Si O2"
_cell_formula_units_Z 58
_cell_length_a 19.874807
_cell_length_b 7.493797
_cell_length_c 18.363317
_cell_angle_alpha 90.000000
_cell_angle_beta 115.244120
_cell_angle_gamma 90.000000
_cell_volume 2473.796821
_symmetry_space_group_name_H-M "C 2/M"
_symmetry_group_IT_number 12
_symmetry_cell_setting 'monoclinic'
loop_
_space_group_symop_operation_xyz
x,y,z
-x,y,-z
-x,-y,-z
x,-y,z
1/2+x,1/2+y,z
1/2-x,1/2+y,-z
1/2-x,1/2-y,-z
1/2+x,1/2-y,z
loop_
_atom_site_type_symbol
_atom_site_label
_atom_site_fract_x
_atom_site_fract_y
_atom_site_fract_z
Si Si1 0.921168 0.793652 0.641992
Si Si2 0.612179 0.715161 0.535925
Si Si3 0.178089 0.195836 0.920115
Si Si4 0.517582 0.280393 0.813658
Si Si5 0.434314 0.282966 0.917377
Si Si6 0.276600 0.212388 0.668443
Si Si7 0.500000 0.000000 0.500000
Si Si8 0.771386 0.791933 0.836098
O O1 0.904346 0.719275 0.554575
O O2 0.846337 0.787062 0.655973
O O3 0.987481 0.717035 0.721898
O O4 0.939536 0.000000 0.637190
O O5 0.600459 0.500000 0.538760
O O6 0.698087 0.751414 0.593787
O O7 0.557374 0.840387 0.555667
O O8 0.097586 0.286640 0.878240
O O9 0.207063 0.195431 0.850427
O O10 0.160514 0.000000 0.940916
O O11 0.250000 0.250000 0.000000
O O12 0.519993 0.500000 0.811552
O O13 0.456567 0.232635 0.846000
O O14 0.432424 0.500000 0.918917
O O15 0.352013 0.222607 0.899285
O O16 0.500000 0.222795 0.000000
O O17 0.271617 0.275471 0.749419
O O18 0.286132 0.000000 0.674039
O O19 0.764338 0.000000 0.852103
#
# Coordination Sequence:
#
# PCOD9204236 Si02
#       8
#     8   8   8   8   8   8   2   8
#     4  10  20  40  68  95 129 168 221 278 334 398
#     4  10  25  44  67 101 139 181 223 278 336 400
#     4  11  23  40  62  89 126 169 216 267 334 402
#     4   9  18  35  60  89 119 164 214 266 320 385
#     4   9  16  30  56  86 114 153 207 263 318 376
#     4  11  23  40  64  96 136 170 214 275 337 399
#     4  12  26  44  72  94 136 180 234 266 328 410
#     4  11  22  38  63  92 125 166 216 272 325 395
#
# _framework density 23.445741999999999
#
# number of rings (size 3 to 8) (size 9 to 14) (size 15 to 20)
#    0.000    1.793    1.379    2.690    2.897    3.310 
#    0.000    4.138    0.000    1.655    0.000    0.000 
#    0.000    0.000    0.000    0.000    0.000    0.000 
#
# Total GULP energy -161754.778225 kJ/mol
# GULP energy per Si atom -5577.750973 kJ/mol
# Density = 2.339238 g / cm^3
# Si number density = 23.445742 Si / 1000 Ang^3
#
#
#
# Elastic Constant Matrix: (Units=GPa)
#
#
# Indices 1 2 3 4 5 6 
#
# 1 73.5831 -4.8998 7.2753 0.0000 15.6672 0.0000
# 2 -4.8998 76.9548 8.5065 0.0000 14.5644 0.0000
# 3 7.2753 8.5065 103.4746 0.0000 14.5698 0.0000
# 4 0.0000 0.0000 0.0000 15.0844 0.0000 8.0831
# 5 15.6672 14.5644 14.5698 0.0000 44.5778 0.0000
# 6 0.0000 0.0000 0.0000 8.0831 0.0000 3.9920
#
#
#
# Elastic Compliance Matrix: (Units=1/GPa)
#
#
# Indices 1 2 3 4 5 6 
#
# 1 0.015012 0.002104 -0.000408 0.000000 -0.005830 0.000000
# 2 0.002104 0.014173 -0.000584 0.000000 -0.005179 0.000000
# 3 -0.000408 -0.000584 0.010161 0.000000 -0.002987 0.000000
# 4 0.000000 0.000000 0.000000 -0.779722 0.000000 1.578807
# 5 -0.005830 -0.005179 -0.002987 0.000000 0.027150 0.000000
# 6 0.000000 0.000000 0.000000 1.578807 0.000000 -2.946316
#
#
# Mechanical properties :
#
#
# Convention : Reuss Voigt Hill
#
# Bulk Modulus (GPa) = 24.05425 30.64183 27.34804
# Shear Modulus (GPa) = -1.37065 28.93955 13.78445
#
# Velocity S-wave (km/s) = -0.76542 3.51710 2.42736
# Velocity P-wave (km/s) = 3.08231 5.43976 4.42106
#
# Compressibility (1/GPa) = 0.04157269
#
# Stress axis : x y z
#
# Youngs Moduli (GPa) = 66.61393 70.55458 98.41096
#
# Poissons Ratio (x) = -0.14847 0.04011
# Poissons Ratio (y) = -0.14018 0.05746
# Poissons Ratio (z) = 0.02715 0.04119
#
# Static dielectric constant tensor:
#      x y z
#    x 1.880290 0.000000 -0.014000 
#    y 0.000000 1.911470 0.000000 
#    z -0.014000 0.000000 1.914620 
# 
# From -- ./inp_files/282124.got.cif
#   From: 2010.05.17/outbox.cif.g08.bks.cpg/sg12_142_cif.got.tgz:282124.got - 2010.06.03 13:09:07.
