data_PCOD9204165
_publ_section_title
;
Structure prediction by ZEFSAII (Michael W. Deem and Ramdas Pophale) SiO2 
 PCOD9204165
Probable space group: C 2/M
;
_chemical_formula_sum "Si O2"
_cell_formula_units_Z 48
_cell_length_a 16.108074
_cell_length_b 16.760145
_cell_length_c 9.610591
_cell_angle_alpha 90.000000
_cell_angle_beta 55.576787
_cell_angle_gamma 90.000000
_cell_volume 2140.250691
_symmetry_space_group_name_H-M "C 2/M"
_symmetry_group_IT_number 12
_symmetry_cell_setting 'monoclinic'
loop_
_space_group_symop_operation_xyz
x,y,z
-x,y,-z
-x,-y,-z
x,-y,z
1/2+x,1/2+y,z
1/2-x,1/2+y,-z
1/2-x,1/2-y,-z
1/2+x,1/2-y,z
loop_
_atom_site_type_symbol
_atom_site_label
_atom_site_fract_x
_atom_site_fract_y
_atom_site_fract_z
Si Si1 0.235754 0.659839 0.966489
Si Si2 0.720639 0.589904 0.788343
Si Si3 0.972975 0.729999 0.863450
Si Si4 0.972697 0.906428 0.226583
Si Si5 0.676225 0.823463 0.537232
Si Si6 0.691079 0.409836 0.380890
O O1 0.270734 0.602020 0.056011
O O2 0.115322 0.664709 0.063759
O O3 0.250000 0.750000 0.000000
O O4 0.292068 0.644349 0.768717
O O5 0.747876 0.500000 0.725809
O O6 0.611298 0.602550 0.818142
O O7 0.798818 0.649541 0.641634
O O8 0.960667 0.825491 0.840454
O O9 0.065121 0.701850 0.680781
O O10 0.000000 0.730156 0.000000
O O11 0.908739 0.900539 0.430800
O O12 0.010402 0.000000 0.181286
O O13 0.750000 0.750000 0.500000
O O14 0.717467 0.892303 0.600037
O O15 0.693663 0.500000 0.327488
#
# Coordination Sequence:
#
# PCOD9204165 Si02
#       6
#     8   8   8   8   8   8
#     4  12  25  40  60  94 132 168 204 258 321 378
#     4  10  21  40  65  93 127 164 205 264 326 369
#     4  12  23  38  64  97 124 164 217 259 309 379
#     4   9  20  41  71  96 120 163 218 270 321 374
#     4  11  19  39  67  93 122 160 216 258 311 375
#     4  10  20  40  66  91 123 166 210 255 312 375
#
# _framework density 22.427278000000001
#
# number of rings (size 3 to 8) (size 9 to 14) (size 15 to 20)
#    0.000    1.333    5.000    4.000    0.000    1.000 
#    0.000    6.667    0.000    2.000    0.000    0.000 
#    0.000    0.000    0.000    0.000    0.000    0.000 
#
# Total GULP energy -134073.120285 kJ/mol
# GULP energy per Si atom -5586.380012 kJ/mol
# Density = 2.237623 g / cm^3
# Si number density = 22.427278 Si / 1000 Ang^3
#
#
#
# Elastic Constant Matrix: (Units=GPa)
#
#
# Indices 1 2 3 4 5 6 
#
# 1 48.5783 13.0025 32.6586 0.0000 0.3605 0.0000
# 2 13.0025 86.9723 25.5670 0.0000 0.0880 0.0000
# 3 32.6586 25.5670 102.3135 0.0000 12.7703 0.0000
# 4 0.0000 0.0000 0.0000 47.6262 0.0000 4.8930
# 5 0.3605 0.0880 12.7703 0.0000 30.1707 0.0000
# 6 0.0000 0.0000 0.0000 4.8930 0.0000 25.0925
#
#
#
# Elastic Compliance Matrix: (Units=1/GPa)
#
#
# Indices 1 2 3 4 5 6 
#
# 1 0.026720 -0.001478 -0.008573 0.000000 0.003314 0.000000
# 2 -0.001478 0.012543 -0.002809 0.000000 0.001170 0.000000
# 3 -0.008573 -0.002809 0.013935 0.000000 -0.005787 0.000000
# 4 0.000000 0.000000 0.000000 0.021426 0.000000 -0.004178
# 5 0.003314 0.001170 -0.005787 0.000000 0.035551 0.000000
# 6 0.000000 0.000000 0.000000 -0.004178 0.000000 0.040667
#
#
# Mechanical properties :
#
#
# Convention : Reuss Voigt Hill
#
# Bulk Modulus (GPa) = 36.39231 42.25780 39.32506
# Shear Modulus (GPa) = 26.92192 31.68695 29.30444
#
# Velocity S-wave (km/s) = 3.46845 3.76290 3.61867
# Velocity P-wave (km/s) = 5.68351 6.14510 5.91881
#
# Compressibility (1/GPa) = 0.02747833
#
# Stress axis : x y z
#
# Youngs Moduli (GPa) = 37.42500 79.72358 71.76285
#
# Poissons Ratio (x) = 0.11781 0.61526
# Poissons Ratio (y) = 0.05530 0.20157
# Poissons Ratio (z) = 0.32086 0.22393
#
# Static dielectric constant tensor:
#      x y z
#    x 2.062620 0.000000 -0.071960 
#    y 0.000000 1.835890 0.000000 
#    z -0.071960 0.000000 1.810990 
# 
# From -- ./inp_files/75073.got.cif
#   From: 2010.05.17/outbox.cif.g08.bks.cpg/sg12_38_cif.got.tgz:75073.got - 2010.06.03 13:09:07.
