data_PCOD9204735
_publ_section_title
;
Structure prediction by ZEFSAII (Michael W. Deem and Ramdas Pophale) SiO2 
 PCOD9204735
Probable space group: C 2/M
;
_chemical_formula_sum "Si O2"
_cell_formula_units_Z 64
_cell_length_a 9.115608
_cell_length_b 26.577712
_cell_length_c 14.596592
_cell_angle_alpha 90.000000
_cell_angle_beta 78.067275
_cell_angle_gamma 90.000000
_cell_volume 3459.928883
_symmetry_space_group_name_H-M "C 2/M"
_symmetry_group_IT_number 12
_symmetry_cell_setting 'monoclinic'
loop_
_space_group_symop_operation_xyz
x,y,z
-x,y,-z
-x,-y,-z
x,-y,z
1/2+x,1/2+y,z
1/2-x,1/2+y,-z
1/2-x,1/2-y,-z
1/2+x,1/2-y,z
loop_
_atom_site_type_symbol
_atom_site_label
_atom_site_fract_x
_atom_site_fract_y
_atom_site_fract_z
Si Si1 0.620187 0.366513 0.915313
Si Si2 0.147054 0.627367 0.260146
Si Si3 0.177200 0.142269 0.482619
Si Si4 0.343392 0.943320 0.572994
Si Si5 0.421616 0.703306 0.810403
Si Si6 0.180301 0.211367 0.647379
Si Si7 0.671505 0.826341 0.719980
Si Si8 0.634599 0.790488 0.053470
O O1 0.718970 0.392116 0.823283
O O2 0.515086 0.325900 0.875993
O O3 0.758518 0.338103 0.946599
O O4 0.500000 0.391638 0.000000
O O5 0.123376 0.583344 0.335390
O O6 0.210187 0.677122 0.304658
O O7 0.987583 0.646293 0.241824
O O8 0.237239 0.094859 0.531911
O O9 0.209887 0.192345 0.540661
O O10 0.251457 0.143034 0.373144
O O11 0.000000 0.139648 0.500000
O O12 0.500000 0.945223 0.500000
O O13 0.283788 0.000000 0.589191
O O14 0.514208 0.697338 0.704263
O O15 0.262179 0.679987 0.803546
O O16 0.415158 0.760613 0.847647
O O17 0.182179 0.269771 0.674883
O O18 0.500000 0.797820 0.000000
O O19 0.750000 0.750000 0.000000
#
# Coordination Sequence:
#
# PCOD9204735 Si02
#       8
#     8   8   8   8   8   8   8   8
#     4  11  22  36  51  76 113 149 189 248 293 328
#     4  10  23  36  57  85 111 151 205 236 286 352
#     4  11  22  37  53  84 115 151 191 237 285 350
#     4  10  21  43  68  87 112 143 186 250 304 344
#     4  11  20  33  47  71 106 157 198 246 272 317
#     4  10  21  33  48  73 116 160 194 231 275 326
#     4  12  21  34  52  77 118 160 200 231 273 339
#     4  12  21  33  50  72 106 155 211 243 277 326
#
# _framework density 18.497491
#
# number of rings (size 3 to 8) (size 9 to 14) (size 15 to 20)
#    0.000    1.125    5.000    3.375    1.750    0.250 
#    0.000    0.000    0.000    0.375    0.000    0.000 
#    0.000    1.750    0.000    0.000    0.000    0.000 
#
# Total GULP energy -178266.739593 kJ/mol
# GULP energy per Si atom -5570.835612 kJ/mol
# Density = 1.845539 g / cm^3
# Si number density = 18.497491 Si / 1000 Ang^3
#
#
#
# Elastic Constant Matrix: (Units=GPa)
#
#
# Indices 1 2 3 4 5 6 
#
# 1 119.3078 19.5715 37.9214 0.0000 12.5628 0.0000
# 2 19.5715 70.5158 15.9007 0.0000 6.3081 0.0000
# 3 37.9214 15.9007 88.6553 0.0000 -11.6965 0.0000
# 4 0.0000 0.0000 0.0000 -20.7031 0.0000 9.0729
# 5 12.5628 6.3081 -11.6965 0.0000 38.1987 0.0000
# 6 0.0000 0.0000 0.0000 9.0729 0.0000 8.5718
#
#
#
# Elastic Compliance Matrix: (Units=1/GPa)
#
#
# Indices 1 2 3 4 5 6 
#
# 1 0.010694 -0.001422 -0.004952 0.000000 -0.004799 0.000000
# 2 -0.001422 0.015401 -0.002530 0.000000 -0.002850 0.000000
# 3 -0.004952 -0.002530 0.014716 0.000000 0.006553 0.000000
# 4 0.000000 0.000000 0.000000 -0.032996 0.000000 0.034925
# 5 -0.004799 -0.002850 0.006553 0.000000 0.030234 0.000000
# 6 0.000000 0.000000 0.000000 0.034925 0.000000 0.079695
#
#
# Mechanical properties :
#
#
# Convention : Reuss Voigt Hill
#
# Bulk Modulus (GPa) = 43.47307 47.25179 45.36243
# Shear Modulus (GPa) = 34.91089 18.88584 26.89836
#
# Velocity S-wave (km/s) = 4.34906 3.19877 3.81749
# Velocity P-wave (km/s) = 6.98371 6.26444 6.63383
#
# Compressibility (1/GPa) = 0.02300274
#
# Stress axis : x y z
#
# Youngs Moduli (GPa) = 93.50699 64.92907 67.95192
#
# Poissons Ratio (x) = 0.09234 0.33653
# Poissons Ratio (y) = 0.13298 0.17192
# Poissons Ratio (z) = 0.46309 0.16427
#
# Static dielectric constant tensor:
#      x y z
#    x 1.685070 0.000000 -0.028540 
#    y 0.000000 1.604600 0.000000 
#    z -0.028540 0.000000 1.762230 
# 
# From -- ./inp_files/199791.got.cif
#   From: 2010.05.17/outbox.cif.g08.bks.cpg/sg12_100_cif.got.tgz:199791.got - 2010.06.03 13:09:07.
