data_PCOD9204950
_publ_section_title
;
Structure prediction by ZEFSAII (Michael W. Deem and Ramdas Pophale) SiO2 
 PCOD9204950
Probable space group: C 2/M
;
_chemical_formula_sum "Si O2"
_cell_formula_units_Z 36
_cell_length_a 15.950875
_cell_length_b 15.603045
_cell_length_c 25.207264
_cell_angle_alpha 90.000000
_cell_angle_beta 161.518504
_cell_angle_gamma 90.000000
_cell_volume 1988.733622
_symmetry_space_group_name_H-M "C 2/M"
_symmetry_group_IT_number 12
_symmetry_cell_setting 'monoclinic'
loop_
_space_group_symop_operation_xyz
x,y,z
-x,y,-z
-x,-y,-z
x,-y,z
1/2+x,1/2+y,z
1/2-x,1/2+y,-z
1/2-x,1/2-y,-z
1/2+x,1/2-y,z
loop_
_atom_site_type_symbol
_atom_site_label
_atom_site_fract_x
_atom_site_fract_y
_atom_site_fract_z
Si Si1 0.668141 0.401520 0.154449
Si Si2 0.500000 0.801707 0.500000
Si Si3 0.721089 0.899033 0.528911
Si Si4 0.544548 0.243933 0.155829
Si Si5 0.288446 0.100138 0.825586
O O1 0.625641 0.500000 0.147368
O O2 0.579058 0.329542 0.141615
O O3 0.986987 0.389890 0.344759
O O4 0.500000 0.391078 0.000000
O O5 0.621463 0.855855 0.523647
O O6 0.260654 0.747891 0.331963
O O7 0.002805 0.868303 0.675741
O O8 0.753699 0.000000 0.559515
O O9 0.606309 0.161416 0.157232
O O10 0.250000 0.250000 0.000000
O O11 0.262596 0.000000 0.793845
O O12 0.500000 0.103789 0.000000
#
# Coordination Sequence:
#
# PCOD9204950 Si02
#       5
#     8   4   8   8   8
#     4   9  19  35  56  80 104 135 175 218 264 313
#     4  10  21  34  53  80 110 140 174 216 266 318
#     4   9  18  34  56  80 106 138 177 220 264 312
#     4  11  23  36  53  79 109 142 178 217 264 315
#     4  10  21  37  57  79 104 139 181 222 264 312
#
# _framework density 18.101972
#
# number of rings (size 3 to 8) (size 9 to 14) (size 15 to 20)
#    0.000    2.222    0.000    2.333    0.000    7.111 
#    0.000    0.556    0.000    0.000    0.000    0.000 
#    0.000    0.000    0.000    0.000    0.000    0.000 
#
# Total GULP energy -100352.639235 kJ/mol
# GULP energy per Si atom -5575.146624 kJ/mol
# Density = 1.806077 g / cm^3
# Si number density = 18.101972 Si / 1000 Ang^3
#
#
#
# Elastic Constant Matrix: (Units=GPa)
#
#
# Indices 1 2 3 4 5 6 
#
# 1 90.2615 52.9036 76.0727 -0.0040 15.4855 0.0458
# 2 52.9036 70.8538 64.1451 0.0246 2.7033 0.0504
# 3 76.0727 64.1451 153.6142 0.1121 14.6186 -0.0419
# 4 -0.0040 0.0246 0.1121 21.6892 -0.0234 6.4400
# 5 15.4855 2.7033 14.6186 -0.0234 43.0992 0.0205
# 6 0.0458 0.0504 -0.0419 6.4400 0.0205 -68.3217
#
#
#
# Elastic Compliance Matrix: (Units=1/GPa)
#
#
# Indices 1 2 3 4 5 6 
#
# 1 0.024940 -0.012421 -0.006598 0.000042 -0.005944 0.000014
# 2 -0.012421 0.029022 -0.006426 -0.000002 0.004822 0.000018
# 3 -0.006598 -0.006426 0.012604 -0.000054 -0.001501 -0.000022
# 4 0.000042 -0.000002 -0.000054 0.044851 0.000026 0.004228
# 5 -0.005944 0.004822 -0.001501 0.000026 0.025545 0.000011
# 6 0.000014 0.000018 -0.000022 0.004228 0.000011 -0.014238
#
#
# Mechanical properties :
#
#
# Convention : Reuss Voigt Hill
#
# Bulk Modulus (GPa) = 63.80137 77.88581 70.84359
# Shear Modulus (GPa) = 27.95789 7.40056 17.67922
#
# Velocity S-wave (km/s) = 3.93423 2.02414 3.12852
# Velocity P-wave (km/s) = 7.48062 6.97011 7.22987
#
# Compressibility (1/GPa) = 0.01567365
#
# Stress axis : x y z
#
# Youngs Moduli (GPa) = 40.09597 34.45655 79.34084
#
# Poissons Ratio (x) = 0.42800 0.52352
# Poissons Ratio (y) = 0.49805 0.50988
# Poissons Ratio (z) = 0.26457 0.22143
#
# Static dielectric constant tensor:
#      x y z
#    x 1.595210 0.000010 0.003110 
#    y 0.000010 1.619220 -0.000020 
#    z 0.003110 -0.000020 1.645590 
# 
# From -- ./inp_files/61482.got.cif
#   From: 2010.05.17/outbox.cif.g08.bks.cpg/sg12_31_cif.got.tgz:61482.got - 2010.06.03 13:09:07.
