data_PCOD9204393
_publ_section_title
;
Structure prediction by ZEFSAII (Michael W. Deem and Ramdas Pophale) SiO2 
 PCOD9204393
Probable space group: C 2/M
;
_chemical_formula_sum "Si O2"
_cell_formula_units_Z 48
_cell_length_a 14.555953
_cell_length_b 24.317290
_cell_length_c 11.767318
_cell_angle_alpha 90.000000
_cell_angle_beta 28.448842
_cell_angle_gamma 90.000000
_cell_volume 1984.180896
_symmetry_space_group_name_H-M "C 2/M"
_symmetry_group_IT_number 12
_symmetry_cell_setting 'monoclinic'
loop_
_space_group_symop_operation_xyz
x,y,z
-x,y,-z
-x,-y,-z
x,-y,z
1/2+x,1/2+y,z
1/2-x,1/2+y,-z
1/2-x,1/2-y,-z
1/2+x,1/2-y,z
loop_
_atom_site_type_symbol
_atom_site_label
_atom_site_fract_x
_atom_site_fract_y
_atom_site_fract_z
Si Si1 0.781447 0.374193 0.691056
Si Si2 0.779025 0.743823 0.257121
Si Si3 0.592135 0.288699 0.230232
Si Si4 0.638293 0.438986 0.444662
Si Si5 0.409897 0.933813 0.329925
Si Si6 0.158581 0.907600 0.058950
O O1 0.722472 0.310403 0.750286
O O2 0.792448 0.403053 0.557318
O O3 0.000000 0.372945 0.500000
O O4 0.669618 0.407736 0.910622
O O5 0.630934 0.730477 0.521193
O O6 0.675584 0.713156 0.265805
O O7 0.000000 0.727090 0.000000
O O8 0.605541 0.345887 0.152295
O O9 0.750000 0.250000 0.000000
O O10 0.500000 0.411931 0.500000
O O11 0.688181 0.500000 0.345084
O O12 0.830336 0.414594 0.292989
O O13 0.499815 0.442984 0.704820
O O14 0.386505 0.000000 0.360709
O O15 0.632898 0.921208 0.113743
#
# Coordination Sequence:
#
# PCOD9204393 Si02
#       6
#     8   8   8   8   8   8
#     4  10  20  41  66  98 140 182 221 282 349 411
#     4  11  24  40  65  96 138 184 237 285 349 409
#     4  11  22  43  63  95 136 181 234 286 343 410
#     4  10  24  44  64  93 135 177 223 282 341 406
#     4  10  23  42  69 104 137 177 229 281 348 422
#     4  11  23  39  68  95 135 181 227 282 341 409
#
# _framework density 24.191343
#
# number of rings (size 3 to 8) (size 9 to 14) (size 15 to 20)
#    0.000    1.500    3.333    1.500    4.667    6.333 
#    0.000    4.167    0.000    0.000    0.000    0.000 
#    0.000    0.000    0.000    0.000    0.000    0.000 
#
# Total GULP energy -134038.994730 kJ/mol
# GULP energy per Si atom -5584.958114 kJ/mol
# Density = 2.413628 g / cm^3
# Si number density = 24.191343 Si / 1000 Ang^3
#
#
#
# Elastic Constant Matrix: (Units=GPa)
#
#
# Indices 1 2 3 4 5 6 
#
# 1 144.7381 15.0943 31.4511 0.0067 -16.0912 -0.0021
# 2 15.0943 75.4405 18.0113 0.0024 3.9949 -0.0012
# 3 31.4511 18.0113 143.0331 0.0050 -18.8735 0.0034
# 4 0.0067 0.0024 0.0050 32.1377 -0.0005 6.2803
# 5 -16.0912 3.9949 -18.8735 -0.0005 31.3386 -0.0011
# 6 -0.0021 -0.0012 0.0034 6.2803 -0.0011 14.7210
#
#
#
# Elastic Compliance Matrix: (Units=1/GPa)
#
#
# Indices 1 2 3 4 5 6 
#
# 1 0.007678 -0.001473 -0.001040 -0.000002 0.003504 0.000002
# 2 -0.001473 0.014217 -0.001961 -0.000001 -0.003750 0.000001
# 3 -0.001040 -0.001961 0.008071 -0.000001 0.004576 -0.000002
# 4 -0.000002 -0.000001 -0.000001 0.033946 -0.000001 -0.014482
# 5 0.003504 -0.003750 0.004576 -0.000001 0.036943 0.000002
# 6 0.000002 0.000001 -0.000002 -0.014482 0.000002 0.074109
#
#
# Mechanical properties :
#
#
# Convention : Reuss Voigt Hill
#
# Bulk Modulus (GPa) = 47.58198 54.70279 51.14239
# Shear Modulus (GPa) = 26.18904 35.54978 30.86941
#
# Velocity S-wave (km/s) = 3.29383 3.83760 3.57606
# Velocity P-wave (km/s) = 5.84615 6.50368 6.18366
#
# Compressibility (1/GPa) = 0.02101636
#
# Stress axis : x y z
#
# Youngs Moduli (GPa) = 130.23700 70.33795 123.90037
#
# Poissons Ratio (x) = 0.10364 0.12892
# Poissons Ratio (y) = 0.19189 0.24298
# Poissons Ratio (z) = 0.13551 0.13794
#
# Static dielectric constant tensor:
#      x y z
#    x 1.973760 0.000020 -0.020930 
#    y 0.000020 2.099310 -0.000040 
#    z -0.020930 -0.000040 2.020190 
# 
# From -- ./inp_files/149649.got.cif
#   From: 2010.05.17/outbox.cif.g08.bks.cpg/sg12_75_cif.got.tgz:149649.got - 2010.06.03 13:09:07.
