data_PCOD9204505
_publ_section_title
;
Structure prediction by ZEFSAII (Michael W. Deem and Ramdas Pophale) SiO2 
 PCOD9204505
Probable space group: C 2/M
;
_chemical_formula_sum "Si O2"
_cell_formula_units_Z 28
_cell_length_a 5.205124
_cell_length_b 31.668798
_cell_length_c 8.845761
_cell_angle_alpha 90.000000
_cell_angle_beta 57.999328
_cell_angle_gamma 90.000000
_cell_volume 1236.559908
_symmetry_space_group_name_H-M "C 2/M"
_symmetry_group_IT_number 12
_symmetry_cell_setting 'monoclinic'
loop_
_space_group_symop_operation_xyz
x,y,z
-x,y,-z
-x,-y,-z
x,-y,z
1/2+x,1/2+y,z
1/2-x,1/2+y,-z
1/2-x,1/2-y,-z
1/2+x,1/2-y,z
loop_
_atom_site_type_symbol
_atom_site_label
_atom_site_fract_x
_atom_site_fract_y
_atom_site_fract_z
Si Si1 0.927180 0.268805 0.799404
Si Si2 0.862064 0.000000 0.872650
Si Si3 0.701442 0.408936 0.199192
Si Si4 0.598535 0.860771 0.300982
O O1 0.766062 0.246489 0.710753
O O2 0.896605 0.318818 0.801306
O O3 0.750000 0.250000 0.000000
O O4 0.930401 0.956542 0.764377
O O5 0.500000 0.000000 0.000000
O O6 0.000000 0.000000 0.000000
O O7 0.432028 0.380742 0.214498
O O8 0.844736 0.392230 0.310913
O O9 0.000000 0.407728 0.000000
O O10 0.500000 0.848506 0.500000
#
# Coordination Sequence:
#
# PCOD9204505 Si02
#       4
#     8   4   8   8
#     4  10  23  40  63  92 127 168 231 270 328 394
#     4  10  20  42  65 106 133 168 231 282 313 382
#     4  11  24  42  73  97 133 180 226 273 329 396
#     4  12  26  43  65 102 140 173 220 282 343 398
#
# _framework density 22.643467000000001
#
# number of rings (size 3 to 8) (size 9 to 14) (size 15 to 20)
#    0.000    1.143    0.000    6.857   12.000    1.143 
#    0.000    4.286    0.000    0.000    0.000    0.000 
#    0.000    0.000    0.000    0.000    0.000    0.000 
#
# Total GULP energy -78244.477554 kJ/mol
# GULP energy per Si atom -5588.891254 kJ/mol
# Density = 2.259193 g / cm^3
# Si number density = 22.643467 Si / 1000 Ang^3
#
#
#
# Elastic Constant Matrix: (Units=GPa)
#
#
# Indices 1 2 3 4 5 6 
#
# 1 216.7016 69.1287 10.2709 0.0000 15.7419 0.0000
# 2 69.1287 172.1432 30.0479 0.0000 5.6548 0.0000
# 3 10.2709 30.0479 64.2460 0.0000 3.1966 0.0000
# 4 0.0000 0.0000 0.0000 -14.8311 0.0000 14.7587
# 5 15.7419 5.6548 3.1966 0.0000 28.0013 0.0000
# 6 0.0000 0.0000 0.0000 14.7587 0.0000 41.3274
#
#
#
# Elastic Compliance Matrix: (Units=1/GPa)
#
#
# Indices 1 2 3 4 5 6 
#
# 1 0.005486 -0.002162 0.000267 0.000000 -0.002678 0.000000
# 2 -0.002162 0.007202 -0.003028 0.000000 0.000107 0.000000
# 3 0.000267 -0.003028 0.017012 0.000000 -0.001481 0.000000
# 4 0.000000 0.000000 0.000000 -0.049747 0.000000 0.017766
# 5 -0.002678 0.000107 -0.001481 0.000000 0.037366 0.000000
# 6 0.000000 0.000000 0.000000 0.017766 0.000000 0.017853
#
#
# Mechanical properties :
#
#
# Convention : Reuss Voigt Hill
#
# Bulk Modulus (GPa) = 50.36416 74.66508 62.51462
# Shear Modulus (GPa) = 96.83140 33.80909 65.32024
#
# Velocity S-wave (km/s) = 6.54648 3.86826 5.37679
# Velocity P-wave (km/s) = 8.91248 7.27991 8.13724
#
# Compressibility (1/GPa) = 0.01985539
#
# Stress axis : x y z
#
# Youngs Moduli (GPa) = 182.27757 138.84407 58.78057
#
# Poissons Ratio (x) = 0.30015 -0.01571
# Poissons Ratio (y) = 0.39404 0.17800
# Poissons Ratio (z) = -0.04872 0.42045
#
# Static dielectric constant tensor:
#      x y z
#    x 1.838970 0.000000 0.018720 
#    y 0.000000 1.867970 0.000000 
#    z 0.018720 0.000000 1.835540 
# 
# From -- ./inp_files/33961.got.cif
#   From: 2010.05.17/outbox.cif.g08.bks.cpg/sg12_17_cif.got.tgz:33961.got - 2010.06.03 13:09:07.
