data_PCOD9204370
_publ_section_title
;
Structure prediction by ZEFSAII (Michael W. Deem and Ramdas Pophale) SiO2 
 PCOD9204370
Probable space group: C 2/M
;
_chemical_formula_sum "Si O2"
_cell_formula_units_Z 52
_cell_length_a 17.121584
_cell_length_b 14.294234
_cell_length_c 22.489258
_cell_angle_alpha 90.000000
_cell_angle_beta 27.811685
_cell_angle_gamma 90.000000
_cell_volume 2567.993998
_symmetry_space_group_name_H-M "C 2/M"
_symmetry_group_IT_number 12
_symmetry_cell_setting 'monoclinic'
loop_
_space_group_symop_operation_xyz
x,y,z
-x,y,-z
-x,-y,-z
x,-y,z
1/2+x,1/2+y,z
1/2-x,1/2+y,-z
1/2-x,1/2-y,-z
1/2+x,1/2-y,z
loop_
_atom_site_type_symbol
_atom_site_label
_atom_site_fract_x
_atom_site_fract_y
_atom_site_fract_z
Si Si1 0.838813 0.893690 0.650219
Si Si2 0.081721 0.897196 0.265515
Si Si3 0.296915 0.500000 0.234417
Si Si4 0.855679 0.178165 0.892840
Si Si5 0.184144 0.000000 0.999825
Si Si6 0.204107 0.347713 0.500218
Si Si7 0.441288 0.000000 0.718800
Si Si8 0.260728 0.308635 0.332917
O O1 0.890106 0.880521 0.684320
O O2 0.764746 0.793008 0.679889
O O3 0.000000 0.901679 0.500000
O O4 0.756189 0.000000 0.701435
O O5 0.170077 0.826962 0.160478
O O6 0.883903 0.898833 0.383785
O O7 0.149800 0.000000 0.205931
O O8 0.500049 0.500000 0.092270
O O9 0.195885 0.500000 0.241252
O O10 0.249524 0.403496 0.301198
O O11 0.813668 0.084817 0.956147
O O12 0.050438 0.196399 0.770854
O O13 0.750000 0.250000 0.000000
O O14 0.336554 0.000000 0.850486
O O15 0.250000 0.250000 0.500000
O O16 0.154850 0.326694 0.464746
O O17 0.062754 0.409777 0.627540
#
# Coordination Sequence:
#
# PCOD9204370 Si02
#       8
#     8   8   4   8   4   8   4   8
#     4  10  22  40  63  96 133 172 210 265 334 396
#     4  10  20  41  66  85 129 168 210 264 321 382
#     4  10  24  42  67  95 128 177 215 276 328 403
#     4  10  22  42  66  94 122 175 218 271 326 379
#     4  10  23  44  62  94 132 164 223 272 324 391
#     4  11  24  39  59  98 129 164 212 270 323 390
#     4  12  26  40  67  99 131 173 217 270 340 400
#     4  10  23  42  66  91 135 169 219 271 328 401
#
# _framework density 20.249269000000002
#
# number of rings (size 3 to 8) (size 9 to 14) (size 15 to 20)
#    0.000    1.692    1.538    1.615   10.769    0.615 
#    2.769    2.308    0.000    1.846    0.000    0.000 
#    0.000    0.000    0.000    0.000    0.000    0.000 
#
# Total GULP energy -144881.852085 kJ/mol
# GULP energy per Si atom -5572.378926 kJ/mol
# Density = 2.020318 g / cm^3
# Si number density = 20.249269 Si / 1000 Ang^3
#
#
#
# Elastic Constant Matrix: (Units=GPa)
#
#
# Indices 1 2 3 4 5 6 
#
# 1 61.2896 57.7891 43.9467 0.0004 41.2499 0.0050
# 2 57.7891 159.2069 45.7917 -0.0041 3.5250 0.0033
# 3 43.9467 45.7917 119.5112 -0.0016 23.0881 -0.0016
# 4 0.0004 -0.0041 -0.0016 31.1719 -0.0001 -19.0942
# 5 41.2499 3.5250 23.0881 -0.0001 18.7037 -0.0001
# 6 0.0050 0.0033 -0.0016 -19.0942 -0.0001 -31.3095
#
#
#
# Elastic Compliance Matrix: (Units=1/GPa)
#
#
# Indices 1 2 3 4 5 6 
#
# 1 -0.019812 0.007545 -0.004953 0.000000 0.048387 -0.000002
# 2 0.007545 0.004286 -0.001374 0.000001 -0.015752 0.000001
# 3 -0.004953 -0.001374 0.011234 0.000000 -0.002684 -0.000001
# 4 0.000000 0.000001 0.000000 0.023355 0.000001 -0.014243
# 5 0.048387 -0.015752 -0.002684 0.000001 -0.046967 0.000006
# 6 -0.000002 0.000001 -0.000001 -0.014243 0.000006 -0.023253
#
#
# Mechanical properties :
#
#
# Convention : Reuss Voigt Hill
#
# Bulk Modulus (GPa) = -538.67812 70.56253 -234.05779
# Shear Modulus (GPa) = -92.23314 16.54523 -37.84395
#
# Velocity S-wave (km/s) = -6.75631 2.86156 -4.32777
# Velocity P-wave (km/s) = 18.09599 6.77057 11.86642
#
# Compressibility (1/GPa) = -0.00185640
#
# Stress axis : x y z
#
# Youngs Moduli (GPa) = -50.47436 233.29550 89.01794
#
# Poissons Ratio (x) = -1.76015 0.44093
# Poissons Ratio (y) = 0.38082 0.12228
# Poissons Ratio (z) = -0.25001 0.32048
#
# Static dielectric constant tensor:
#      x y z
#    x 1.710530 0.000000 -0.010320 
#    y 0.000000 1.804800 0.000000 
#    z -0.010320 0.000000 1.717580 
# 
# From -- ./inp_files/316499.got.cif
#   From: 2010.05.17/outbox.cif.g08.bks.cpg/sg12_159_cif.got.tgz:316499.got - 2010.06.03 13:09:07.
