data_PCOD9204792
_publ_section_title
;
Structure prediction by ZEFSAII (Michael W. Deem and Ramdas Pophale) SiO2 
 PCOD9204792
Probable space group: C 2/M
;
_chemical_formula_sum "Si O2"
_cell_formula_units_Z 40
_cell_length_a 20.493092
_cell_length_b 9.998176
_cell_length_c 13.242970
_cell_angle_alpha 90.000000
_cell_angle_beta 53.378732
_cell_angle_gamma 90.000000
_cell_volume 2177.763473
_symmetry_space_group_name_H-M "C 2/M"
_symmetry_group_IT_number 12
_symmetry_cell_setting 'monoclinic'
loop_
_space_group_symop_operation_xyz
x,y,z
-x,y,-z
-x,-y,-z
x,-y,z
1/2+x,1/2+y,z
1/2-x,1/2+y,-z
1/2-x,1/2-y,-z
1/2+x,1/2-y,z
loop_
_atom_site_type_symbol
_atom_site_label
_atom_site_fract_x
_atom_site_fract_y
_atom_site_fract_z
Si Si1 0.912071 0.000000 0.449318
Si Si2 0.893305 0.000000 0.697944
Si Si3 0.318307 0.230054 0.851380
Si Si4 0.825093 0.151545 0.143353
Si Si5 0.085407 0.149749 0.740642
Si Si6 0.563139 0.152912 0.093497
O O1 0.890073 0.126841 0.398598
O O2 0.876758 0.000000 0.593356
O O3 0.009910 0.000000 0.372638
O O4 0.854652 0.870520 0.783958
O O5 0.267899 0.168323 0.805587
O O6 0.389734 0.152699 0.842633
O O7 0.250000 0.250000 0.000000
O O8 0.842404 0.167084 0.246129
O O9 0.849855 0.000000 0.090834
O O10 0.880792 0.260665 0.034719
O O11 0.019782 0.264574 0.817064
O O12 0.049058 0.000000 0.798003
O O13 0.552040 0.000000 0.070175
#
# Coordination Sequence:
#
# PCOD9204792 Si02
#       6
#     4   4   8   8   8   8
#     4   9  20  38  68  83 106 150 217 237 266 351
#     4  11  20  40  63  90 110 152 199 243 289 339
#     4  10  22  33  56  86 119 146 185 239 296 349
#     4  10  21  33  54  79 121 155 188 231 294 356
#     4   9  18  37  56  80 108 152 202 235 277 343
#     4  11  21  32  52  85 121 152 188 243 296 342
#
# _framework density 18.367467000000001
#
# number of rings (size 3 to 8) (size 9 to 14) (size 15 to 20)
#    0.600    1.400    2.000    1.800   11.200    3.200 
#    0.000    1.000    0.000    3.600    0.000    0.000 
#    0.000    0.000    0.000    0.000    0.000    0.000 
#
# Total GULP energy -111373.689767 kJ/mol
# GULP energy per Si atom -5568.684488 kJ/mol
# Density = 1.832566 g / cm^3
# Si number density = 18.367467 Si / 1000 Ang^3
#
#
#
# Elastic Constant Matrix: (Units=GPa)
#
#
# Indices 1 2 3 4 5 6 
#
# 1 116.8025 14.8950 14.2024 0.0000 27.4519 0.0000
# 2 14.8950 120.7772 23.7790 0.0000 6.1395 0.0000
# 3 14.2024 23.7790 52.4061 0.0000 17.7140 0.0000
# 4 0.0000 0.0000 0.0000 -1.0813 0.0000 8.2277
# 5 27.4519 6.1395 17.7140 0.0000 26.0397 0.0000
# 6 0.0000 0.0000 0.0000 8.2277 0.0000 16.7526
#
#
#
# Elastic Compliance Matrix: (Units=1/GPa)
#
#
# Indices 1 2 3 4 5 6 
#
# 1 0.011582 -0.001117 0.001826 0.000000 -0.013189 0.000000
# 2 -0.001117 0.009215 -0.004600 0.000000 0.002135 0.000000
# 3 0.001826 -0.004600 0.027216 0.000000 -0.019355 0.000000
# 4 0.000000 0.000000 0.000000 -0.195232 0.000000 0.095884
# 5 -0.013189 0.002135 -0.019355 0.000000 0.064970 0.000000
# 6 0.000000 0.000000 0.000000 0.095884 0.000000 0.012601
#
#
# Mechanical properties :
#
#
# Convention : Reuss Voigt Hill
#
# Bulk Modulus (GPa) = 24.85669 43.97097 34.41383
# Shear Modulus (GPa) = -103.18561 24.14950 -39.51805
#
# Velocity S-wave (km/s) = -7.50336 3.62995 -4.64348
# Velocity P-wave (km/s) = 7.84250 6.44672 3.15789
#
# Compressibility (1/GPa) = 0.04023062
#
# Stress axis : x y z
#
# Youngs Moduli (GPa) = 86.34389 108.52316 36.74278
#
# Poissons Ratio (x) = 0.12127 -0.06710
# Poissons Ratio (y) = 0.09649 0.16901
# Poissons Ratio (z) = -0.15769 0.49918
#
# Static dielectric constant tensor:
#      x y z
#    x 1.692030 0.000000 0.042740 
#    y 0.000000 1.629360 0.000000 
#    z 0.042740 0.000000 1.651040 
# 
# From -- ./inp_files/236529.got.cif
#   From: 2010.05.17/outbox.cif.g08.bks.cpg/sg12_119_cif.got.tgz:236529.got - 2010.06.03 13:09:07.
