data_PCOD9204767
_publ_section_title
;
Structure prediction by ZEFSAII (Michael W. Deem and Ramdas Pophale) SiO2 
 PCOD9204767
Probable space group: C 2/M
;
_chemical_formula_sum "Si O2"
_cell_formula_units_Z 60
_cell_length_a 18.668061
_cell_length_b 27.538363
_cell_length_c 5.232988
_cell_angle_alpha 90.000000
_cell_angle_beta 76.267061
_cell_angle_gamma 90.000000
_cell_volume 2613.309778
_symmetry_space_group_name_H-M "C 2/M"
_symmetry_group_IT_number 12
_symmetry_cell_setting 'monoclinic'
loop_
_space_group_symop_operation_xyz
x,y,z
-x,y,-z
-x,-y,-z
x,-y,z
1/2+x,1/2+y,z
1/2-x,1/2+y,-z
1/2-x,1/2-y,-z
1/2+x,1/2-y,z
loop_
_atom_site_type_symbol
_atom_site_label
_atom_site_fract_x
_atom_site_fract_y
_atom_site_fract_z
Si Si1 0.170509 0.117586 0.306932
Si Si2 0.098066 0.447113 0.189154
Si Si3 0.639593 0.182972 0.627422
Si Si4 0.698019 0.730205 0.276194
Si Si5 0.587334 0.638671 0.867982
Si Si6 0.000000 0.636465 0.500000
Si Si7 0.311148 0.925166 0.391792
Si Si8 0.082935 0.755568 0.015406
O O1 0.207307 0.172022 0.284606
O O2 0.107814 0.117893 0.576462
O O3 0.228673 0.076215 0.345264
O O4 0.134946 0.114262 0.055250
O O5 0.060745 0.500000 0.232774
O O6 0.160269 0.446317 0.362790
O O7 0.043206 0.401741 0.279850
O O8 0.136143 0.442093 0.881839
O O9 0.693485 0.224870 0.477666
O O10 0.560642 0.171836 0.567646
O O11 0.675558 0.131463 0.574466
O O12 0.619493 0.204199 0.920105
O O13 0.750000 0.750000 0.000000
O O14 0.609648 0.731980 0.273075
O O15 0.610563 0.695910 0.845204
O O16 0.500000 0.636663 0.000000
O O17 0.000000 0.751786 0.000000
#
# Coordination Sequence:
#
# PCOD9204767 Si02
#       8
#     8   8   8   8   8   4   8   8
#     4  11  22  39  58  88 129 163 222 264 315 371
#     4  11  25  49  69  95 126 163 214 283 360 415
#     4  11  23  37  55  84 125 162 228 266 323 369
#     4  11  24  35  55  78 123 178 217 272 322 376
#     4  10  21  37  57  85 122 178 220 251 299 364
#     4  10  25  40  68  94 124 174 228 286 329 384
#     4  11  26  39  68  95 125 161 210 276 336 410
#     4  10  21  33  52  73 114 167 218 266 304 355
#
# _framework density 22.959391
#
# number of rings (size 3 to 8) (size 9 to 14) (size 15 to 20)
#    0.000    1.333    1.333    3.400   13.067    2.667 
#    0.000    3.333    0.000    0.000    0.000    0.000 
#    0.000   37.333    0.000    0.000    0.000    0.000 
#
# Total GULP energy -167266.288599 kJ/mol
# GULP energy per Si atom -5575.542953 kJ/mol
# Density = 2.290713 g / cm^3
# Si number density = 22.959391 Si / 1000 Ang^3
#
#
#
# Elastic Constant Matrix: (Units=GPa)
#
#
# Indices 1 2 3 4 5 6 
#
# 1 73.1822 20.2967 -11.4754 0.0000 -0.1370 0.0000
# 2 20.2967 66.7366 5.1459 0.0000 -2.2890 0.0000
# 3 -11.4754 5.1459 74.1281 0.0000 0.7096 0.0000
# 4 0.0000 0.0000 0.0000 37.1865 0.0000 4.4820
# 5 -0.1370 -2.2890 0.7096 0.0000 28.5675 0.0000
# 6 0.0000 0.0000 0.0000 4.4820 0.0000 6.3282
#
#
#
# Elastic Compliance Matrix: (Units=1/GPa)
#
#
# Indices 1 2 3 4 5 6 
#
# 1 0.015460 -0.004926 0.002739 0.000000 -0.000389 0.000000
# 2 -0.004926 0.016678 -0.001933 0.000000 0.001361 0.000000
# 3 0.002739 -0.001933 0.014053 0.000000 -0.000491 0.000000
# 4 0.000000 0.000000 0.000000 0.029401 0.000000 -0.020824
# 5 -0.000389 0.001361 -0.000491 0.000000 0.035124 0.000000
# 6 0.000000 0.000000 0.000000 -0.020824 0.000000 0.172772
#
#
# Mechanical properties :
#
#
# Convention : Reuss Voigt Hill
#
# Bulk Modulus (GPa) = 26.35090 26.88680 26.61885
# Shear Modulus (GPa) = 16.42684 27.75508 22.09096
#
# Velocity S-wave (km/s) = 2.67774 3.48066 3.10526
# Velocity P-wave (km/s) = 4.58939 5.28104 4.94731
#
# Compressibility (1/GPa) = 0.03794936
#
# Stress axis : x y z
#
# Youngs Moduli (GPa) = 64.68500 59.95825 71.15881
#
# Poissons Ratio (x) = 0.29537 -0.19490
# Poissons Ratio (y) = 0.31865 0.13758
# Poissons Ratio (z) = -0.17717 0.11592
#
# Static dielectric constant tensor:
#      x y z
#    x 2.002170 0.000000 0.036160 
#    y 0.000000 1.845270 0.000000 
#    z 0.036160 0.000000 1.940840 
# 
# From -- ./inp_files/18296.got.cif
#   From: 2010.05.17/outbox.cif.g08.bks.cpg/sg12_10_cif.got.tgz:18296.got - 2010.06.03 13:09:07.
