data_PCOD9204098
_publ_section_title
;
Structure prediction by ZEFSAII (Michael W. Deem and Ramdas Pophale) SiO2 
 PCOD9204098
Probable space group: C 2/M
;
_chemical_formula_sum "Si O2"
_cell_formula_units_Z 40
_cell_length_a 18.571756
_cell_length_b 13.727065
_cell_length_c 18.347579
_cell_angle_alpha 90.000000
_cell_angle_beta 25.806082
_cell_angle_gamma 90.000000
_cell_volume 2036.219991
_symmetry_space_group_name_H-M "C 2/M"
_symmetry_group_IT_number 12
_symmetry_cell_setting 'monoclinic'
loop_
_space_group_symop_operation_xyz
x,y,z
-x,y,-z
-x,-y,-z
x,-y,z
1/2+x,1/2+y,z
1/2-x,1/2+y,-z
1/2-x,1/2-y,-z
1/2+x,1/2-y,z
loop_
_atom_site_type_symbol
_atom_site_label
_atom_site_fract_x
_atom_site_fract_y
_atom_site_fract_z
Si Si1 0.421643 0.279678 0.380791
Si Si2 0.947985 0.888225 0.870027
Si Si3 0.340507 0.696267 0.197322
Si Si4 0.626567 0.888182 0.267350
Si Si5 0.161609 0.109018 0.403819
O O1 0.250000 0.250000 0.500000
O O2 0.543462 0.316550 0.206339
O O3 0.493846 0.189141 0.360304
O O4 0.391492 0.365963 0.465665
O O5 0.098635 0.860493 0.786763
O O6 0.964610 0.000000 0.830904
O O7 0.781237 0.880932 0.069842
O O8 0.198459 0.642609 0.280537
O O9 0.282936 0.804571 0.269632
O O10 0.500000 0.700845 0.000000
O O11 0.569582 0.000000 0.320072
O O12 0.000000 0.114089 0.500000
O O13 0.231422 0.000000 0.334722
#
# Coordination Sequence:
#
# PCOD9204098 Si02
#       5
#     8   8   8   8   8
#     4  12  23  39  60  86 123 157 193 244 295 347
#     4  10  21  39  63  91 120 155 193 240 298 353
#     4  10  20  40  65  89 117 151 195 245 293 349
#     4  10  22  40  63  89 119 155 199 242 291 352
#     4  11  23  41  60  82 116 159 200 241 290 346
#
# _framework density 19.644241999999998
#
# number of rings (size 3 to 8) (size 9 to 14) (size 15 to 20)
#    0.000    1.400    4.000    1.800    0.000    4.400 
#    0.000    1.000    0.000    0.000    0.000    0.000 
#    0.000    0.000    0.000    0.000    0.000    0.000 
#
# Total GULP energy -111776.621724 kJ/mol
# GULP energy per Si atom -5588.831086 kJ/mol
# Density = 1.959953 g / cm^3
# Si number density = 19.644242 Si / 1000 Ang^3
#
#
#
# Elastic Constant Matrix: (Units=GPa)
#
#
# Indices 1 2 3 4 5 6 
#
# 1 75.9206 5.3939 -2.9567 0.0001 -5.6082 -0.0003
# 2 5.3939 98.4279 -0.0822 -0.0016 -13.2261 0.0006
# 3 -2.9567 -0.0822 17.3455 -0.0018 -2.4395 0.0004
# 4 0.0001 -0.0016 -0.0018 36.0001 0.0006 1.9490
# 5 -5.6082 -13.2261 -2.4395 0.0006 33.9843 -0.0003
# 6 -0.0003 0.0006 0.0004 1.9490 -0.0003 25.8492
#
#
#
# Elastic Compliance Matrix: (Units=1/GPa)
#
#
# Indices 1 2 3 4 5 6 
#
# 1 0.013470 -0.000435 0.002609 0.000000 0.002241 0.000000
# 2 -0.000435 0.010742 0.000560 0.000000 0.004149 0.000000
# 3 0.002609 0.000560 0.058784 0.000003 0.004868 -0.000001
# 4 0.000000 0.000000 0.000003 0.027892 0.000000 -0.002103
# 5 0.002241 0.004149 0.004868 0.000000 0.031759 0.000000
# 6 0.000000 0.000000 -0.000001 -0.002103 0.000000 0.038844
#
#
# Mechanical properties :
#
#
# Convention : Reuss Voigt Hill
#
# Bulk Modulus (GPa) = 11.30400 21.82267 16.56333
# Shear Modulus (GPa) = 24.32978 31.78933 28.05956
#
# Velocity S-wave (km/s) = 3.52308 4.02711 3.78350
# Velocity P-wave (km/s) = 4.72401 5.72334 5.24752
#
# Compressibility (1/GPa) = 0.08846428
#
# Stress axis : x y z
#
# Youngs Moduli (GPa) = 74.24081 93.09670 17.01144
#
# Poissons Ratio (x) = 0.04048 -0.04438
# Poissons Ratio (y) = 0.03228 -0.00953
# Poissons Ratio (z) = -0.19370 -0.05216
#
# Static dielectric constant tensor:
#      x y z
#    x 1.662880 0.000000 0.012150 
#    y 0.000000 1.651190 0.000000 
#    z 0.012150 0.000000 1.696340 
# 
# From -- ./inp_files/71191.got.cif
#   From: 2010.05.17/outbox.cif.g08.bks.cpg/sg12_36_cif.got.tgz:71191.got - 2010.06.03 13:09:07.
