data_PCOD9204126
_publ_section_title
;
Structure prediction by ZEFSAII (Michael W. Deem and Ramdas Pophale) SiO2 
 PCOD9204126
Probable space group: C 2/M
;
_chemical_formula_sum "Si O2"
_cell_formula_units_Z 36
_cell_length_a 7.566062
_cell_length_b 27.606799
_cell_length_c 11.102433
_cell_angle_alpha 90.000000
_cell_angle_beta 43.756470
_cell_angle_gamma 90.000000
_cell_volume 1603.820344
_symmetry_space_group_name_H-M "C 2/M"
_symmetry_group_IT_number 12
_symmetry_cell_setting 'monoclinic'
loop_
_space_group_symop_operation_xyz
x,y,z
-x,y,-z
-x,-y,-z
x,-y,z
1/2+x,1/2+y,z
1/2-x,1/2+y,-z
1/2-x,1/2-y,-z
1/2+x,1/2-y,z
loop_
_atom_site_type_symbol
_atom_site_label
_atom_site_fract_x
_atom_site_fract_y
_atom_site_fract_z
Si Si1 0.070076 0.105807 0.836285
Si Si2 0.443877 0.832100 0.401988
Si Si3 0.331549 0.194495 0.964056
Si Si4 0.000000 0.875157 0.500000
Si Si5 0.744857 0.443949 0.202562
O O1 0.361848 0.122380 0.683014
O O2 0.897287 0.155185 0.919084
O O3 0.984874 0.070079 0.773475
O O4 0.000000 0.083303 0.000000
O O5 0.500000 0.804291 0.500000
O O6 0.147600 0.844928 0.528995
O O7 0.521938 0.810784 0.234868
O O8 0.500000 0.185877 0.000000
O O9 0.250000 0.250000 0.000000
O O10 0.210566 0.908849 0.332572
O O11 0.740914 0.500000 0.239711
O O12 0.000000 0.434472 0.000000
#
# Coordination Sequence:
#
# PCOD9204126 Si02
#       5
#     8   8   8   4   8
#     4  10  20  40  65  92 130 176 224 276 338 406
#     4  11  23  41  71  99 132 174 228 280 341 402
#     4  11  23  43  70  99 134 181 224 278 342 409
#     4  12  23  44  70 100 136 178 230 280 347 392
#     4  11  23  40  65  99 137 179 226 279 342 408
#
# _framework density 22.446404999999999
#
# number of rings (size 3 to 8) (size 9 to 14) (size 15 to 20)
#    0.000    1.111    2.222    7.000    0.000    0.444 
#    0.000    7.778    2.444    0.000    0.000    0.000 
#    0.000    0.000    0.000    0.000    0.000    0.000 
#
# Total GULP energy -100627.129443 kJ/mol
# GULP energy per Si atom -5590.396080 kJ/mol
# Density = 2.239532 g / cm^3
# Si number density = 22.446405 Si / 1000 Ang^3
#
#
#
# Elastic Constant Matrix: (Units=GPa)
#
#
# Indices 1 2 3 4 5 6 
#
# 1 152.9346 20.4603 25.8124 0.0000 16.3171 0.0000
# 2 20.4603 62.8463 16.2570 0.0000 3.0862 0.0000
# 3 25.8124 16.2570 104.1731 0.0000 21.1620 0.0000
# 4 0.0000 0.0000 0.0000 16.2938 0.0000 -33.1582
# 5 16.3171 3.0862 21.1620 0.0000 48.0485 0.0000
# 6 0.0000 0.0000 0.0000 -33.1582 0.0000 -179.0446
#
#
#
# Elastic Compliance Matrix: (Units=1/GPa)
#
#
# Indices 1 2 3 4 5 6 
#
# 1 0.007182 -0.001964 -0.001102 0.000000 -0.001828 0.000000
# 2 -0.001964 0.017118 -0.002303 0.000000 0.000582 0.000000
# 3 -0.001102 -0.002303 0.011121 0.000000 -0.004376 0.000000
# 4 0.000000 0.000000 0.000000 0.044574 0.000000 -0.008255
# 5 -0.001828 0.000582 -0.004376 0.000000 0.023323 0.000000
# 6 0.000000 0.000000 0.000000 -0.008255 0.000000 -0.004056
#
#
# Mechanical properties :
#
#
# Convention : Reuss Voigt Hill
#
# Bulk Modulus (GPa) = 40.51152 49.44594 44.97873
# Shear Modulus (GPa) = 42.29142 -5.77885 18.25629
#
# Velocity S-wave (km/s) = 4.34534 -1.60627 2.85498
# Velocity P-wave (km/s) = 6.57748 4.31696 5.56324
#
# Compressibility (1/GPa) = 0.02468434
#
# Stress axis : x y z
#
# Youngs Moduli (GPa) = 139.22877 58.41713 89.92181
#
# Poissons Ratio (x) = 0.11470 0.09909
# Poissons Ratio (y) = 0.27338 0.20710
# Poissons Ratio (z) = 0.15343 0.13454
#
# Static dielectric constant tensor:
#      x y z
#    x 1.925650 0.000000 0.062610 
#    y 0.000000 1.784670 0.000000 
#    z 0.062610 0.000000 1.946690 
# 
# From -- ./inp_files/123332.got.cif
#   From: 2010.05.17/outbox.cif.g08.bks.cpg/sg12_62_cif.got.tgz:123332.got - 2010.06.03 13:09:07.
