data_PCOD9204715
_publ_section_title
;
Structure prediction by ZEFSAII (Michael W. Deem and Ramdas Pophale) SiO2 
 PCOD9204715
Probable space group: C 2/M
;
_chemical_formula_sum "Si O2"
_cell_formula_units_Z 44
_cell_length_a 25.082714
_cell_length_b 13.403886
_cell_length_c 12.437995
_cell_angle_alpha 90.000000
_cell_angle_beta 33.706467
_cell_angle_gamma 90.000000
_cell_volume 2320.600332
_symmetry_space_group_name_H-M "C 2/M"
_symmetry_group_IT_number 12
_symmetry_cell_setting 'monoclinic'
loop_
_space_group_symop_operation_xyz
x,y,z
-x,y,-z
-x,-y,-z
x,-y,z
1/2+x,1/2+y,z
1/2-x,1/2+y,-z
1/2-x,1/2-y,-z
1/2+x,1/2-y,z
loop_
_atom_site_type_symbol
_atom_site_label
_atom_site_fract_x
_atom_site_fract_y
_atom_site_fract_z
Si Si1 0.336948 0.000000 0.740329
Si Si2 0.000000 0.678178 0.000000
Si Si3 0.973649 0.275084 0.810635
Si Si4 0.308705 0.279354 0.574195
Si Si5 0.221942 0.794446 0.932847
Si Si6 0.028063 0.500000 0.276111
Si Si7 0.294916 0.108985 0.426309
O O1 0.271931 0.098196 0.837841
O O2 0.423306 0.000000 0.508607
O O3 0.391650 0.000000 0.764224
O O4 0.904989 0.620973 0.200367
O O5 0.033467 0.738032 0.048797
O O6 0.963994 0.394579 0.801138
O O7 0.078188 0.236342 0.602289
O O8 0.892241 0.212574 0.887914
O O9 0.260106 0.273580 0.770872
O O10 0.276340 0.187322 0.552049
O O11 0.274000 0.371079 0.559616
O O12 0.250000 0.750000 0.000000
O O13 0.281393 0.000000 0.493694
#
# Coordination Sequence:
#
# PCOD9204715 Si02
#       7
#     4   4   8   8   8   4   8
#     4  11  24  42  64  93 123 172 221 257 317 377
#     4  10  21  32  62  97 116 154 205 256 324 371
#     4  11  23  39  64  94 128 162 211 266 317 377
#     4  10  23  40  60  92 126 167 213 261 321 379
#     4  12  24  42  64  93 130 168 212 270 317 374
#     4  11  22  39  68  93 120 164 222 264 313 374
#     4  10  21  38  61  89 129 165 205 264 322 379
#
# _framework density 18.960612000000001
#
# number of rings (size 3 to 8) (size 9 to 14) (size 15 to 20)
#    0.000    1.273    5.455    0.273    7.636    0.727 
#    3.273    0.000    0.000    2.727    0.000    0.000 
#    0.000    0.000    0.000    0.000    0.000    0.000 
#
# Total GULP energy -122805.977083 kJ/mol
# GULP energy per Si atom -5582.089867 kJ/mol
# Density = 1.891746 g / cm^3
# Si number density = 18.960612 Si / 1000 Ang^3
#
#
#
# Elastic Constant Matrix: (Units=GPa)
#
#
# Indices 1 2 3 4 5 6 
#
# 1 125.5738 10.5912 34.7708 0.0000 -12.0300 0.0000
# 2 10.5912 45.0454 6.3975 0.0000 -13.7050 0.0000
# 3 34.7708 6.3975 54.2684 0.0000 -3.1825 0.0000
# 4 0.0000 0.0000 0.0000 234.1666 0.0000 -227.1020
# 5 -12.0300 -13.7050 -3.1825 0.0000 43.3149 0.0000
# 6 0.0000 0.0000 0.0000 -227.1020 0.0000 241.6257
#
#
#
# Elastic Compliance Matrix: (Units=1/GPa)
#
#
# Indices 1 2 3 4 5 6 
#
# 1 0.009931 -0.000842 -0.006144 0.000000 0.002040 0.000000
# 2 -0.000842 0.024965 -0.001963 0.000000 0.007521 0.000000
# 3 -0.006144 -0.001963 0.022556 0.000000 -0.000670 0.000000
# 4 0.000000 0.000000 0.000000 0.048273 0.000000 0.045372
# 5 0.002040 0.007521 -0.000670 0.000000 0.025984 0.000000
# 6 0.000000 0.000000 0.000000 0.045372 0.000000 0.046783
#
#
# Mechanical properties :
#
#
# Convention : Reuss Voigt Hill
#
# Bulk Modulus (GPa) = 25.28155 36.48963 30.88559
# Shear Modulus (GPa) = 23.85795 115.36331 69.61063
#
# Velocity S-wave (km/s) = 3.55109 7.80870 6.06572
# Velocity P-wave (km/s) = 5.49330 10.02934 8.08591
#
# Compressibility (1/GPa) = 0.03955453
#
# Stress axis : x y z
#
# Youngs Moduli (GPa) = 100.69260 40.05653 44.33463
#
# Poissons Ratio (x) = 0.03371 0.27240
# Poissons Ratio (y) = 0.08474 0.08702
# Poissons Ratio (z) = 0.61868 0.07862
#
# Static dielectric constant tensor:
#      x y z
#    x 1.675750 0.000000 -0.018070 
#    y 0.000000 1.653440 0.000000 
#    z -0.018070 0.000000 1.689810 
# 
# From -- ./inp_files/167074.got.cif
#   From: 2010.05.17/outbox.cif.g08.bks.cpg/sg12_84_cif.got.tgz:167074.got - 2010.06.03 13:09:07.
