data_PCOD9204056
_publ_section_title
;
Structure prediction by ZEFSAII (Michael W. Deem and Ramdas Pophale) SiO2 
 PCOD9204056
Probable space group: C 2/M
;
_chemical_formula_sum "Si O2"
_cell_formula_units_Z 54
_cell_length_a 20.152369
_cell_length_b 17.641973
_cell_length_c 9.299966
_cell_angle_alpha 90.000000
_cell_angle_beta 124.589521
_cell_angle_gamma 90.000000
_cell_volume 2721.956592
_symmetry_space_group_name_H-M "C 2/M"
_symmetry_group_IT_number 12
_symmetry_cell_setting 'monoclinic'
loop_
_space_group_symop_operation_xyz
x,y,z
-x,y,-z
-x,-y,-z
x,-y,z
1/2+x,1/2+y,z
1/2-x,1/2+y,-z
1/2-x,1/2-y,-z
1/2+x,1/2-y,z
loop_
_atom_site_type_symbol
_atom_site_label
_atom_site_fract_x
_atom_site_fract_y
_atom_site_fract_z
Si Si1 0.218055 0.912295 0.023407
Si Si2 0.374429 0.086943 0.011361
Si Si3 0.500000 0.696461 0.000000
Si Si4 0.457992 0.634879 0.244504
Si Si5 0.058740 0.299693 0.682683
Si Si6 0.000000 0.000000 0.500000
Si Si7 0.790965 0.699640 0.336611
Si Si8 0.851241 0.306104 0.732880
O O1 0.290137 0.908984 0.995852
O O2 0.242721 0.868044 0.198359
O O3 0.202777 0.000000 0.037309
O O4 0.137492 0.878614 0.855321
O O5 0.427933 0.148221 0.162756
O O6 0.402614 0.000000 0.052787
O O7 0.365553 0.117017 0.838923
O O8 0.526729 0.642073 0.904746
O O9 0.426189 0.749849 0.856408
O O10 0.478948 0.719099 0.323812
O O11 0.502334 0.567440 0.379322
O O12 0.141205 0.282818 0.698785
O O13 0.000000 0.341316 0.500000
O O14 0.833138 0.682298 0.541768
O O15 0.727312 0.765861 0.292700
#
# Coordination Sequence:
#
# PCOD9204056 Si02
#       8
#     8   8   4   8   8   2   8   8
#     4  10  20  40  64  88 124 170 209 266 325 381
#     4  10  22  40  64  93 125 163 220 274 324 372
#     4  12  24  41  69  92 132 178 210 264 329 393
#     4  12  23  42  65  95 131 167 217 258 324 393
#     4  11  21  39  67  91 124 171 215 267 319 386
#     4  12  28  42  64 104 126 166 218 272 322 390
#     4  10  22  38  63  92 124 167 223 261 316 397
#     4  11  22  39  62  96 126 166 218 266 326 384
#
# _framework density 19.83867
#
# number of rings (size 3 to 8) (size 9 to 14) (size 15 to 20)
#    0.000    1.185    4.444    1.778    0.000    3.556 
#    0.000    0.370    0.000    0.000    0.000    0.000 
#    0.000    0.000    0.000    0.000    0.000    0.000 
#
# Total GULP energy -150465.733131 kJ/mol
# GULP energy per Si atom -5572.804931 kJ/mol
# Density = 1.979352 g / cm^3
# Si number density = 19.838670 Si / 1000 Ang^3
#
#
#
# Elastic Constant Matrix: (Units=GPa)
#
#
# Indices 1 2 3 4 5 6 
#
# 1 18.8428 5.7268 -11.2005 0.0000 -2.4836 0.0000
# 2 5.7268 111.3627 23.9182 0.0000 -18.8406 0.0000
# 3 -11.2005 23.9182 36.3294 0.0000 -16.6515 0.0000
# 4 0.0000 0.0000 0.0000 -5.4614 0.0000 -4.0725
# 5 -2.4836 -18.8406 -16.6515 0.0000 25.9830 0.0000
# 6 0.0000 0.0000 0.0000 -4.0725 0.0000 0.8745
#
#
#
# Elastic Compliance Matrix: (Units=1/GPa)
#
#
# Indices 1 2 3 4 5 6 
#
# 1 0.089446 -0.009534 0.048995 0.000000 0.033036 0.000000
# 2 -0.009534 0.011858 -0.010227 0.000000 0.001133 0.000000
# 3 0.048995 -0.010227 0.068122 0.000000 0.040924 0.000000
# 4 0.000000 0.000000 0.000000 -0.040938 0.000000 -0.190650
# 5 0.033036 0.001133 0.040924 0.000000 0.068693 0.000000
# 6 0.000000 0.000000 0.000000 -0.190650 0.000000 0.255668
#
#
# Mechanical properties :
#
#
# Convention : Reuss Voigt Hill
#
# Bulk Modulus (GPa) = 4.38797 22.60266 13.49532
# Shear Modulus (GPa) = 10.63048 14.15191 12.39120
#
# Velocity S-wave (km/s) = 2.31735 2.67376 2.50191
# Velocity P-wave (km/s) = 3.06215 4.57711 3.89401
#
# Compressibility (1/GPa) = 0.22789560
#
# Stress axis : x y z
#
# Youngs Moduli (GPa) = 11.17991 84.33000 14.67952
#
# Poissons Ratio (x) = 0.80398 -0.71923
# Poissons Ratio (y) = 0.10659 0.15013
# Poissons Ratio (z) = -0.54776 0.86244
#
# Static dielectric constant tensor:
#      x y z
#    x 1.734970 0.000000 0.028670 
#    y 0.000000 1.667460 0.000000 
#    z 0.028670 0.000000 1.748950 
# 
# From -- ./inp_files/76037.got.cif
#   From: 2010.05.17/outbox.cif.g08.bks.cpg/sg12_39_cif.got.tgz:76037.got - 2010.06.03 13:09:07.
