data_PCOD9204622
_publ_section_title
;
Structure prediction by ZEFSAII (Michael W. Deem and Ramdas Pophale) SiO2 
 PCOD9204622
Probable space group: C 2/M
;
_chemical_formula_sum "Si O2"
_cell_formula_units_Z 40
_cell_length_a 13.425575
_cell_length_b 17.379376
_cell_length_c 16.056743
_cell_angle_alpha 90.000000
_cell_angle_beta 150.743572
_cell_angle_gamma 90.000000
_cell_volume 1830.981110
_symmetry_space_group_name_H-M "C 2/M"
_symmetry_group_IT_number 12
_symmetry_cell_setting 'monoclinic'
loop_
_space_group_symop_operation_xyz
x,y,z
-x,y,-z
-x,-y,-z
x,-y,z
1/2+x,1/2+y,z
1/2-x,1/2+y,-z
1/2-x,1/2-y,-z
1/2+x,1/2-y,z
loop_
_atom_site_type_symbol
_atom_site_label
_atom_site_fract_x
_atom_site_fract_y
_atom_site_fract_z
Si Si1 0.827846 0.846903 0.637853
Si Si2 0.500000 0.360497 0.500000
Si Si3 0.885871 0.871432 0.994367
Si Si4 0.936455 0.738765 0.312715
Si Si5 0.983760 0.000000 0.678607
Si Si6 0.821922 0.500000 0.063230
Si Si7 0.243792 0.500000 0.290997
O O1 0.947754 0.777384 0.680490
O O2 0.591575 0.822991 0.466553
O O3 0.855780 0.922532 0.600746
O O4 0.943192 0.856598 0.810188
O O5 0.417876 0.306420 0.367049
O O6 0.322193 0.421544 0.391080
O O7 0.772121 0.797314 0.872691
O O8 0.706834 0.924449 0.901717
O O9 0.000000 0.909822 0.000000
O O10 0.141041 0.000000 0.714696
O O11 0.125914 0.000000 0.862633
O O12 0.006599 0.500000 0.133441
#
# Coordination Sequence:
#
# PCOD9204622 Si02
#       7
#     8   4   8   8   4   4   4
#     4  10  23  41  68  98 136 176 219 267 332 395
#     4  11  24  40  66 101 136 174 222 273 326 410
#     4  11  24  45  66  95 132 174 227 277 325 389
#     4  11  23  41  65 100 138 173 218 269 333 394
#     4  10  20  46  64 101 133 171 222 278 321 409
#     4  10  25  41  69  93 129 179 225 271 337 391
#     4  11  23  41  65  97 133 177 219 271 338 391
#
# _framework density 21.846212000000001
#
# number of rings (size 3 to 8) (size 9 to 14) (size 15 to 20)
#    0.000    1.400    2.000    2.400    5.600    0.800 
#    7.200    0.000    0.000    6.000    0.000    0.000 
#    0.000    0.000    0.000    0.000    0.000    0.000 
#
# Total GULP energy -111567.632153 kJ/mol
# GULP energy per Si atom -5578.381608 kJ/mol
# Density = 2.179649 g / cm^3
# Si number density = 21.846212 Si / 1000 Ang^3
#
#
#
# Elastic Constant Matrix: (Units=GPa)
#
#
# Indices 1 2 3 4 5 6 
#
# 1 93.6086 37.5372 33.3191 0.0003 -20.4724 0.0009
# 2 37.5372 112.3169 46.4787 -0.0049 -5.8209 0.0083
# 3 33.3191 46.4787 94.2958 0.0103 -17.4482 -0.0028
# 4 0.0003 -0.0049 0.0103 23.3732 0.0052 1.4795
# 5 -20.4724 -5.8209 -17.4482 0.0052 42.0349 0.0010
# 6 0.0009 0.0083 -0.0028 1.4795 0.0010 15.4897
#
#
#
# Elastic Compliance Matrix: (Units=1/GPa)
#
#
# Indices 1 2 3 4 5 6 
#
# 1 0.014071 -0.003492 -0.002245 -0.000001 0.005438 0.000000
# 2 -0.003492 0.012076 -0.005117 0.000006 -0.002152 -0.000008
# 3 -0.002245 -0.005117 0.014717 -0.000009 0.004307 0.000006
# 4 -0.000001 0.000006 -0.000009 0.043044 -0.000009 -0.004111
# 5 0.005438 -0.002152 0.004307 -0.000009 0.027928 0.000001
# 6 0.000000 -0.000008 0.000006 -0.004111 0.000001 0.064952
#
#
# Mechanical properties :
#
#
# Convention : Reuss Voigt Hill
#
# Bulk Modulus (GPa) = 52.19800 59.43236 55.81518
# Shear Modulus (GPa) = 24.40431 28.37199 26.38815
#
# Velocity S-wave (km/s) = 3.34592 3.60768 3.47926
# Velocity P-wave (km/s) = 6.23476 6.67965 6.46103
#
# Compressibility (1/GPa) = 0.01915782
#
# Stress axis : x y z
#
# Youngs Moduli (GPa) = 71.06646 82.80649 67.94805
#
# Poissons Ratio (x) = 0.28917 0.15252
# Poissons Ratio (y) = 0.24817 0.34768
# Poissons Ratio (z) = 0.15951 0.42371
#
# Static dielectric constant tensor:
#      x y z
#    x 1.817330 0.000000 -0.021450 
#    y 0.000000 1.849360 -0.000010 
#    z -0.021450 -0.000010 1.803760 
# 
# From -- ./inp_files/270837.got.cif
#   From: 2010.05.17/outbox.cif.g08.bks.cpg/sg12_136_cif.got.tgz:270837.got - 2010.06.03 13:09:07.
