data_PCOD9204288
_publ_section_title
;
Structure prediction by ZEFSAII (Michael W. Deem and Ramdas Pophale) SiO2 
 PCOD9204288
Probable space group: C 2/M
;
_chemical_formula_sum "Si O2"
_cell_formula_units_Z 34
_cell_length_a 17.752285
_cell_length_b 12.756286
_cell_length_c 21.139278
_cell_angle_alpha 90.000000
_cell_angle_beta 161.458328
_cell_angle_gamma 90.000000
_cell_volume 1522.257058
_symmetry_space_group_name_H-M "C 2/M"
_symmetry_group_IT_number 12
_symmetry_cell_setting 'monoclinic'
loop_
_space_group_symop_operation_xyz
x,y,z
-x,y,-z
-x,-y,-z
x,-y,z
1/2+x,1/2+y,z
1/2-x,1/2+y,-z
1/2-x,1/2-y,-z
1/2+x,1/2-y,z
loop_
_atom_site_type_symbol
_atom_site_label
_atom_site_fract_x
_atom_site_fract_y
_atom_site_fract_z
Si Si1 0.718051 0.344049 0.278786
Si Si2 0.616717 0.617900 0.449632
Si Si3 0.508927 0.294932 0.779901
Si Si4 0.694845 0.115286 0.210448
Si Si5 0.500000 0.500000 0.000000
O O1 0.615168 0.367584 0.266183
O O2 0.667386 0.220044 0.228569
O O3 0.591921 0.409143 0.123566
O O4 0.000000 0.361597 0.500000
O O5 0.706446 0.500000 0.514293
O O6 0.465774 0.647117 0.266920
O O7 0.829525 0.699010 0.624335
O O8 0.445616 0.623709 0.373825
O O9 0.750000 0.250000 0.000000
O O10 0.680194 0.000000 0.230483
O O11 0.500000 0.116100 0.000000
#
# Coordination Sequence:
#
# PCOD9204288 Si02
#       5
#     8   8   8   8   2
#     4  12  25  47  71  99 138 182 238 278 344 412
#     4  10  23  44  68 101 140 172 222 289 350 407
#     4  11  25  43  68 101 136 181 224 280 341 410
#     4  10  20  40  73 103 135 174 215 289 353 408
#     4  12  30  44  70  98 140 192 238 290 322 404
#
# _framework density 22.335255
#
# number of rings (size 3 to 8) (size 9 to 14) (size 15 to 20)
#    0.000    1.176    3.529    1.765    1.647    2.353 
#    4.235    0.000    0.000    0.000    0.000    0.000 
#    0.000    0.000    0.000    0.000    0.000    0.000 
#
# Total GULP energy -94890.514548 kJ/mol
# GULP energy per Si atom -5581.794973 kJ/mol
# Density = 2.228442 g / cm^3
# Si number density = 22.335255 Si / 1000 Ang^3
#
#
#
# Elastic Constant Matrix: (Units=GPa)
#
#
# Indices 1 2 3 4 5 6 
#
# 1 73.3911 31.9186 18.9364 0.0056 -18.8664 -0.0039
# 2 31.9186 140.6200 18.6962 0.0511 -21.4848 -0.0107
# 3 18.9364 18.6962 98.9013 0.0145 -19.4051 0.0277
# 4 0.0056 0.0511 0.0145 8.7051 0.0122 8.7193
# 5 -18.8664 -21.4848 -19.4051 0.0122 40.5446 0.0033
# 6 -0.0039 -0.0107 0.0277 8.7193 0.0033 -4.9739
#
#
#
# Elastic Compliance Matrix: (Units=1/GPa)
#
#
# Indices 1 2 3 4 5 6 
#
# 1 0.016643 -0.002720 -0.001584 0.000004 0.005545 -0.000004
# 2 -0.002720 0.008230 -0.000472 -0.000012 0.002870 -0.000038
# 3 -0.001584 -0.000472 0.011378 -0.000033 0.004458 0.000011
# 4 0.000004 -0.000012 -0.000033 0.041684 -0.000039 0.073072
# 5 0.005545 0.002870 0.004458 -0.000039 0.030899 -0.000033
# 6 -0.000004 -0.000038 0.000011 0.073072 -0.000033 -0.072953
#
#
# Mechanical properties :
#
#
# Convention : Reuss Voigt Hill
#
# Bulk Modulus (GPa) = 37.45528 50.22385 43.83957
# Shear Modulus (GPa) = 92.02421 25.07922 58.55172
#
# Velocity S-wave (km/s) = 6.42579 3.35454 5.12561
# Velocity P-wave (km/s) = 8.47705 6.12691 7.39592
#
# Compressibility (1/GPa) = 0.02669850
#
# Stress axis : x y z
#
# Youngs Moduli (GPa) = 60.08647 121.50806 87.88525
#
# Poissons Ratio (x) = 0.33048 0.13925
# Poissons Ratio (y) = 0.16342 0.04148
# Poissons Ratio (z) = 0.09521 0.05735
#
# Static dielectric constant tensor:
#      x y z
#    x 1.821780 0.000000 -0.003560 
#    y 0.000000 1.811660 -0.000050 
#    z -0.003560 -0.000050 1.811900 
# 
# From -- ./inp_files/316557.got.cif
#   From: 2010.05.17/outbox.cif.g08.bks.cpg/sg12_159_cif.got.tgz:316557.got - 2010.06.03 13:09:07.
