data_PCOD9204644
_publ_section_title
;
Structure prediction by ZEFSAII (Michael W. Deem and Ramdas Pophale) SiO2 
 PCOD9204644
Probable space group: C 2/M
;
_chemical_formula_sum "Si O2"
_cell_formula_units_Z 56
_cell_length_a 9.431209
_cell_length_b 28.524494
_cell_length_c 19.631995
_cell_angle_alpha 90.000000
_cell_angle_beta 38.870882
_cell_angle_gamma 90.000000
_cell_volume 3314.440114
_symmetry_space_group_name_H-M "C 2/M"
_symmetry_group_IT_number 12
_symmetry_cell_setting 'monoclinic'
loop_
_space_group_symop_operation_xyz
x,y,z
-x,y,-z
-x,-y,-z
x,-y,z
1/2+x,1/2+y,z
1/2-x,1/2+y,-z
1/2-x,1/2-y,-z
1/2+x,1/2-y,z
loop_
_atom_site_type_symbol
_atom_site_label
_atom_site_fract_x
_atom_site_fract_y
_atom_site_fract_z
Si Si1 0.467255 0.283409 0.933352
Si Si2 0.695602 0.446348 0.829361
Si Si3 0.871953 0.633294 0.114364
Si Si4 0.783403 0.216230 0.737782
Si Si5 0.168418 0.446615 0.069149
Si Si6 0.242661 0.281371 0.374714
Si Si7 0.412737 0.362349 0.215172
O O1 0.683320 0.254368 0.827381
O O2 0.473465 0.330965 0.887395
O O3 0.500000 0.293829 0.000000
O O4 0.250000 0.250000 0.000000
O O5 0.745752 0.500000 0.788988
O O6 0.822551 0.437236 0.853181
O O7 0.728200 0.405007 0.763257
O O8 0.427669 0.444418 0.947019
O O9 0.834540 0.669180 0.190643
O O10 0.622819 0.619768 0.181558
O O11 0.017361 0.589858 0.085358
O O12 0.000000 0.654742 0.000000
O O13 0.727877 0.235333 0.683843
O O14 0.051483 0.214567 0.649330
O O15 0.090036 0.500000 0.088107
O O16 0.271732 0.325826 0.313401
O O17 0.000000 0.280739 0.500000
#
# Coordination Sequence:
#
# PCOD9204644 Si02
#       7
#     8   8   8   8   8   8   8
#     4  11  21  32  48  72 108 138 167 200 245 300
#     4   9  18  33  48  70 101 133 170 202 237 299
#     4  11  19  29  47  71 107 132 164 201 238 293
#     4  10  21  34  50  74  96 133 171 203 254 301
#     4   9  19  31  47  70 103 141 167 194 238 291
#     4  10  21  38  54  70  98 127 171 223 259 295
#     4  10  21  31  48  75  95 134 169 200 252 299
#
# _framework density 16.895765000000001
#
# number of rings (size 3 to 8) (size 9 to 14) (size 15 to 20)
#    0.000    2.000    1.429    5.143    2.000    3.143 
#    0.000    0.000    0.000    0.429    0.000    0.000 
#    0.000    9.714    0.000    0.000    0.000    0.000 
#
# Total GULP energy -156177.419118 kJ/mol
# GULP energy per Si atom -5577.764969 kJ/mol
# Density = 1.685731 g / cm^3
# Si number density = 16.895765 Si / 1000 Ang^3
#
#
#
# Elastic Constant Matrix: (Units=GPa)
#
#
# Indices 1 2 3 4 5 6 
#
# 1 57.5703 38.6819 18.2907 0.0000 2.9786 0.0000
# 2 38.6819 73.6026 9.0615 0.0000 2.9135 0.0000
# 3 18.2907 9.0615 56.5783 -0.0001 -7.5791 0.0002
# 4 0.0000 0.0000 -0.0001 9.4794 0.0000 1.5136
# 5 2.9786 2.9135 -7.5791 0.0000 18.6144 -0.0001
# 6 0.0000 0.0000 0.0002 1.5136 -0.0001 27.0181
#
#
#
# Elastic Compliance Matrix: (Units=1/GPa)
#
#
# Indices 1 2 3 4 5 6 
#
# 1 0.030046 -0.014554 -0.008167 0.000000 -0.005855 0.000000
# 2 -0.014554 0.021098 0.001265 0.000000 -0.000458 0.000000
# 3 -0.008167 0.001265 0.021430 0.000000 0.009834 0.000000
# 4 0.000000 0.000000 0.000000 0.106444 0.000000 -0.005963
# 5 -0.005855 -0.000458 0.009834 0.000000 0.058735 0.000000
# 6 0.000000 0.000000 0.000000 -0.005963 0.000000 0.037346
#
#
# Mechanical properties :
#
#
# Convention : Reuss Voigt Hill
#
# Bulk Modulus (GPa) = 33.71355 35.53550 34.62452
# Shear Modulus (GPa) = 15.24862 19.13685 17.19274
#
# Velocity S-wave (km/s) = 3.00744 3.36913 3.19341
# Velocity P-wave (km/s) = 5.66187 6.01768 5.84249
#
# Compressibility (1/GPa) = 0.02966167
#
# Stress axis : x y z
#
# Youngs Moduli (GPa) = 33.28179 47.39868 46.66423
#
# Poissons Ratio (x) = 0.68983 0.38110
# Poissons Ratio (y) = 0.48437 -0.05901
# Poissons Ratio (z) = 0.27181 -0.05994
#
# Static dielectric constant tensor:
#      x y z
#    x 1.589740 0.000000 0.010490 
#    y 0.000000 1.589300 0.000000 
#    z 0.010490 0.000000 1.554900 
# 
# From -- ./inp_files/125327.got.cif
#   From: 2010.05.17/outbox.cif.g08.bks.cpg/sg12_63_cif.got.tgz:125327.got - 2010.06.03 13:09:07.
