data_PCOD9204891
_publ_section_title
;
Structure prediction by ZEFSAII (Michael W. Deem and Ramdas Pophale) SiO2 
 PCOD9204891
Probable space group: C 2/M
;
_chemical_formula_sum "Si O2"
_cell_formula_units_Z 56
_cell_length_a 34.455787
_cell_length_b 7.563871
_cell_length_c 11.675192
_cell_angle_alpha 90.000000
_cell_angle_beta 55.620709
_cell_angle_gamma 90.000000
_cell_volume 2511.258673
_symmetry_space_group_name_H-M "C 2/M"
_symmetry_group_IT_number 12
_symmetry_cell_setting 'monoclinic'
loop_
_space_group_symop_operation_xyz
x,y,z
-x,y,-z
-x,-y,-z
x,-y,z
1/2+x,1/2+y,z
1/2-x,1/2+y,-z
1/2-x,1/2-y,-z
1/2+x,1/2-y,z
loop_
_atom_site_type_symbol
_atom_site_label
_atom_site_fract_x
_atom_site_fract_y
_atom_site_fract_z
Si Si1 0.221738 0.300404 0.660319
Si Si2 0.051344 0.791790 0.448387
Si Si3 0.634353 0.781877 0.938951
Si Si4 0.148176 0.703911 0.169619
Si Si5 0.098642 0.286912 0.603459
Si Si6 0.446367 0.215998 0.084590
Si Si7 0.193981 0.284608 0.322325
O O1 0.207864 0.500000 0.659862
O O2 0.250000 0.250000 0.500000
O O3 0.173379 0.215890 0.783565
O O4 0.258033 0.284250 0.704795
O O5 0.095167 0.708351 0.307989
O O6 0.062626 0.765999 0.563393
O O7 0.000000 0.722737 0.500000
O O8 0.052588 0.000000 0.419879
O O9 0.583226 0.731067 0.977550
O O10 0.634973 0.000000 0.941882
O O11 0.646996 0.718092 0.044929
O O12 0.162767 0.500000 0.133383
O O13 0.180931 0.778430 0.216245
O O14 0.100062 0.500000 0.603353
O O15 0.081483 0.226031 0.755403
O O16 0.150439 0.228988 0.476499
O O17 0.447089 0.000000 0.084867
O O18 0.500000 0.276324 0.000000
O O19 0.195498 0.500000 0.320269
#
# Coordination Sequence:
#
# PCOD9204891 Si02
#       7
#     8   8   8   8   8   8   8
#     4  11  22  36  57  82 110 147 185 223 272 325
#     4  10  21  34  50  75 109 145 179 223 273 321
#     4   9  19  35  53  79 113 141 175 229 278 318
#     4   9  19  36  58  80 106 142 181 226 274 321
#     4   9  18  33  54  79 105 138 181 227 269 315
#     4   9  17  29  50  81 108 133 172 227 278 314
#     4   9  18  34  54  80 111 140 177 227 275 319
#
# _framework density 22.299572000000001
#
# number of rings (size 3 to 8) (size 9 to 14) (size 15 to 20)
#    0.000    2.571    0.000    2.571    2.000    6.286 
#    0.000    1.429    0.000    1.286    0.000    0.000 
#    0.000    0.000    0.000    0.000    0.000    0.000 
#
# Total GULP energy -156322.245797 kJ/mol
# GULP energy per Si atom -5582.937350 kJ/mol
# Density = 2.224882 g / cm^3
# Si number density = 22.299572 Si / 1000 Ang^3
#
#
#
# Elastic Constant Matrix: (Units=GPa)
#
#
# Indices 1 2 3 4 5 6 
#
# 1 92.6561 -16.2355 37.5721 0.0000 -4.0498 0.0000
# 2 -16.2355 47.2369 0.2836 0.0000 2.6194 0.0000
# 3 37.5721 0.2836 91.2240 0.0000 24.3469 0.0000
# 4 0.0000 0.0000 0.0000 -1.3482 0.0000 -0.1832
# 5 -4.0498 2.6194 24.3469 0.0000 27.4200 0.0000
# 6 0.0000 0.0000 0.0000 -0.1832 0.0000 15.2610
#
#
#
# Elastic Compliance Matrix: (Units=1/GPa)
#
#
# Indices 1 2 3 4 5 6 
#
# 1 0.015837 0.004941 -0.009222 0.000000 0.010056 0.000000
# 2 0.004941 0.022851 -0.002252 0.000000 0.000546 0.000000
# 3 -0.009222 -0.002252 0.019755 0.000000 -0.018688 0.000000
# 4 0.000000 0.000000 0.000000 -0.740507 0.000000 -0.008891
# 5 0.010056 0.000546 -0.018688 0.000000 0.054496 0.000000
# 6 0.000000 0.000000 0.000000 -0.008891 0.000000 0.065420
#
#
# Mechanical properties :
#
#
# Convention : Reuss Voigt Hill
#
# Bulk Modulus (GPa) = 22.03708 30.48417 26.26062
# Shear Modulus (GPa) = -9.36407 22.23301 6.43447
#
# Velocity S-wave (km/s) = -2.05142 3.16098 1.70051
# Velocity P-wave (km/s) = 2.07187 5.19830 3.95696
#
# Compressibility (1/GPa) = 0.04537807
#
# Stress axis : x y z
#
# Youngs Moduli (GPa) = 63.14143 43.76098 50.62032
#
# Poissons Ratio (x) = -0.21623 0.46682
# Poissons Ratio (y) = -0.31199 0.11400
# Poissons Ratio (z) = 0.58229 0.09855
#
# Static dielectric constant tensor:
#      x y z
#    x 1.803250 0.000000 0.011110 
#    y 0.000000 1.832240 0.000000 
#    z 0.011110 0.000000 1.824030 
# 
# From -- ./inp_files/187141.got.cif
#   From: 2010.05.17/outbox.cif.g08.bks.cpg/sg12_94_cif.got.tgz:187141.got - 2010.06.03 13:09:07.
