data_PCOD9204965
_publ_section_title
;
Structure prediction by ZEFSAII (Michael W. Deem and Ramdas Pophale) SiO2 
 PCOD9204965
Probable space group: C 2/M
;
_chemical_formula_sum "Si O2"
_cell_formula_units_Z 40
_cell_length_a 16.442926
_cell_length_b 19.846228
_cell_length_c 8.862102
_cell_angle_alpha 90.000000
_cell_angle_beta 130.671529
_cell_angle_gamma 90.000000
_cell_volume 2193.438787
_symmetry_space_group_name_H-M "C 2/M"
_symmetry_group_IT_number 12
_symmetry_cell_setting 'monoclinic'
loop_
_space_group_symop_operation_xyz
x,y,z
-x,y,-z
-x,-y,-z
x,-y,z
1/2+x,1/2+y,z
1/2-x,1/2+y,-z
1/2-x,1/2-y,-z
1/2+x,1/2-y,z
loop_
_atom_site_type_symbol
_atom_site_label
_atom_site_fract_x
_atom_site_fract_y
_atom_site_fract_z
Si Si1 0.219256 0.681376 0.057669
Si Si2 0.912532 0.077853 0.263779
Si Si3 0.488978 0.197715 0.666623
Si Si4 0.777359 0.674363 0.575447
Si Si5 0.544812 0.657525 0.217300
O O1 0.310132 0.626141 0.137514
O O2 0.213213 0.680136 0.232714
O O3 0.250000 0.750000 0.000000
O O4 0.099013 0.666918 0.860398
O O5 0.000000 0.094996 0.500000
O O6 0.975447 0.094759 0.187981
O O7 0.883211 0.000000 0.246027
O O8 0.500000 0.196765 0.500000
O O9 0.386725 0.159880 0.617050
O O10 0.478081 0.276175 0.706744
O O11 0.750000 0.750000 0.500000
O O12 0.669591 0.637655 0.388149
O O13 0.500000 0.677638 0.000000
#
# Coordination Sequence:
#
# PCOD9204965 Si02
#       5
#     8   8   8   8   8
#     4  12  21  36  63  89 123 159 204 256 308 363
#     4  11  24  42  63  89 125 166 206 249 305 375
#     4  11  22  34  57  92 123 157 195 258 313 359
#     4  10  21  34  53  91 124 154 196 255 309 358
#     4  11  21  36  59  88 125 156 202 252 307 362
#
# _framework density 18.236205999999999
#
# number of rings (size 3 to 8) (size 9 to 14) (size 15 to 20)
#    0.000    1.000    4.000    6.000    2.800    0.400 
#    0.000    0.000    0.000    4.200    0.000    0.000 
#    0.000    0.000    0.000    0.000    0.000    0.000 
#
# Total GULP energy -111410.253233 kJ/mol
# GULP energy per Si atom -5570.512662 kJ/mol
# Density = 1.819470 g / cm^3
# Si number density = 18.236206 Si / 1000 Ang^3
#
#
#
# Elastic Constant Matrix: (Units=GPa)
#
#
# Indices 1 2 3 4 5 6 
#
# 1 161.9776 36.4632 96.0732 0.0000 15.8665 0.0000
# 2 36.4632 64.0808 38.8677 0.0000 15.5906 0.0000
# 3 96.0732 38.8677 166.0748 0.0000 10.5620 0.0000
# 4 0.0000 0.0000 0.0000 38.7607 0.0000 10.5583
# 5 15.8665 15.5906 10.5620 0.0000 48.7055 0.0000
# 6 0.0000 0.0000 0.0000 10.5583 0.0000 12.3158
#
#
#
# Elastic Compliance Matrix: (Units=1/GPa)
#
#
# Indices 1 2 3 4 5 6 
#
# 1 0.009811 -0.002159 -0.005081 0.000000 -0.001403 0.000000
# 2 -0.002159 0.019930 -0.003097 0.000000 -0.005005 0.000000
# 3 -0.005081 -0.003097 0.009650 0.000000 0.000554 0.000000
# 4 0.000000 0.000000 0.000000 0.033660 0.000000 -0.028856
# 5 -0.001403 -0.005005 0.000554 0.000000 0.022470 0.000000
# 6 0.000000 0.000000 0.000000 -0.028856 0.000000 0.105935
#
#
# Mechanical properties :
#
#
# Convention : Reuss Voigt Hill
#
# Bulk Modulus (GPa) = 53.42832 81.66017 67.54424
# Shear Modulus (GPa) = 21.89437 34.67167 28.28302
#
# Velocity S-wave (km/s) = 3.46873 4.36507 3.94245
# Velocity P-wave (km/s) = 6.73827 8.38340 7.60545
#
# Compressibility (1/GPa) = 0.01871667
#
# Stress axis : x y z
#
# Youngs Moduli (GPa) = 101.92788 50.17557 103.62468
#
# Poissons Ratio (x) = 0.10835 0.52651
# Poissons Ratio (y) = 0.22011 0.32091
# Poissons Ratio (z) = 0.51789 0.15539
#
# Static dielectric constant tensor:
#      x y z
#    x 2.000550 0.000000 0.815400 
#    y 0.000000 1.614310 0.000000 
#    z 0.815400 0.000000 3.643930 
# 
# From -- ./inp_files/63795.got.cif
#   From: 2010.05.17/outbox.cif.g08.bks.cpg/sg12_32_cif.got.tgz:63795.got - 2010.06.03 13:09:07.
