data_PCOD9204926
_publ_section_title
;
Structure prediction by ZEFSAII (Michael W. Deem and Ramdas Pophale) SiO2 
 PCOD9204926
Probable space group: C 2/M
;
_chemical_formula_sum "Si O2"
_cell_formula_units_Z 48
_cell_length_a 13.866178
_cell_length_b 31.694391
_cell_length_c 5.278233
_cell_angle_alpha 90.000000
_cell_angle_beta 98.003017
_cell_angle_gamma 90.000000
_cell_volume 2297.086242
_symmetry_space_group_name_H-M "C 2/M"
_symmetry_group_IT_number 12
_symmetry_cell_setting 'monoclinic'
loop_
_space_group_symop_operation_xyz
x,y,z
-x,y,-z
-x,-y,-z
x,-y,z
1/2+x,1/2+y,z
1/2-x,1/2+y,-z
1/2-x,1/2-y,-z
1/2+x,1/2-y,z
loop_
_atom_site_type_symbol
_atom_site_label
_atom_site_fract_x
_atom_site_fract_y
_atom_site_fract_z
Si Si1 0.326216 0.844847 0.542393
Si Si2 0.763592 0.546439 0.965538
Si Si3 0.889236 0.747123 0.662482
Si Si4 0.892398 0.217736 0.169390
Si Si5 0.109128 0.563417 0.490110
Si Si6 0.796903 0.137791 0.003889
O O1 0.382080 0.800653 0.567255
O O2 0.392837 0.885770 0.526242
O O3 0.278966 0.849951 0.802448
O O4 0.248103 0.850155 0.285471
O O5 0.717070 0.500000 0.939200
O O6 0.835512 0.550025 0.747902
O O7 0.693294 0.587394 0.956511
O O8 0.827102 0.550254 0.244420
O O9 0.842658 0.775007 0.422844
O O10 0.999397 0.764172 0.745617
O O11 0.847028 0.755653 0.923964
O O12 0.886888 0.168869 0.090465
O O13 0.000000 0.548033 0.500000
#
# Coordination Sequence:
#
# PCOD9204926 Si02
#       6
#     8   8   8   8   8   8
#     4  10  21  35  52  75 108 140 179 211 255 298
#     4  10  21  37  54  77 102 132 175 217 265 316
#     4  10  21  35  52  77 103 145 175 214 252 308
#     4  10  21  35  52  77 104 137 180 213 260 299
#     4  10  21  34  52  77 105 140 170 217 255 302
#     4  10  21  37  54  77 105 137 173 221 260 308
#
# _framework density 20.896037
#
# number of rings (size 3 to 8) (size 9 to 14) (size 15 to 20)
#    0.000    2.000    0.000    3.000    2.333    6.000 
#    6.000    0.000    0.000    0.000    0.000    4.667 
#    0.000    0.000    0.000    0.000    0.000    0.000 
#
# Total GULP energy -133860.585672 kJ/mol
# GULP energy per Si atom -5577.524403 kJ/mol
# Density = 2.084848 g / cm^3
# Si number density = 20.896037 Si / 1000 Ang^3
#
#
#
# Elastic Constant Matrix: (Units=GPa)
#
#
# Indices 1 2 3 4 5 6 
#
# 1 42.4739 24.8938 8.3379 0.0000 -3.5157 0.0000
# 2 24.8938 217.9935 28.9304 0.0000 14.6821 0.0000
# 3 8.3379 28.9304 150.2725 0.0000 -27.3824 0.0000
# 4 0.0000 0.0000 0.0000 63.9635 0.0000 -2.1983
# 5 -3.5157 14.6821 -27.3824 0.0000 22.9726 0.0000
# 6 0.0000 0.0000 0.0000 -2.1983 0.0000 6.8964
#
#
#
# Elastic Compliance Matrix: (Units=1/GPa)
#
#
# Indices 1 2 3 4 5 6 
#
# 1 0.026061 -0.003493 0.000460 0.000000 0.006769 0.000000
# 2 -0.003493 0.005723 -0.002136 0.000000 -0.006738 0.000000
# 3 0.000460 -0.002136 0.009328 0.000000 0.012554 0.000000
# 4 0.000000 0.000000 0.000000 0.015807 0.000000 0.005039
# 5 0.006769 -0.006738 0.012554 0.000000 0.063836 0.000000
# 6 0.000000 0.000000 0.000000 0.005039 0.000000 0.146610
#
#
# Mechanical properties :
#
#
# Convention : Reuss Voigt Hill
#
# Bulk Modulus (GPa) = 32.49464 59.45157 45.97310
# Shear Modulus (GPa) = 17.36344 42.00502 29.68423
#
# Velocity S-wave (km/s) = 2.88574 4.48838 3.77313
# Velocity P-wave (km/s) = 5.16601 7.44134 6.40552
#
# Compressibility (1/GPa) = 0.03077431
#
# Stress axis : x y z
#
# Youngs Moduli (GPa) = 38.37139 174.71893 107.20627
#
# Poissons Ratio (x) = 0.61029 -0.04930
# Poissons Ratio (y) = 0.13403 0.22899
# Poissons Ratio (z) = -0.01765 0.37319
#
# Static dielectric constant tensor:
#      x y z
#    x -0.485820 0.000000 0.621660 
#    y 0.000000 1.795430 0.000000 
#    z 0.621660 0.000000 1.578810 
# 
# From -- ./inp_files/12967.got.cif
#   From: 2010.05.17/outbox.cif.g08.bks.cpg/sg12_7_cif.got.tgz:12967.got - 2010.06.03 13:09:07.
