data_PCOD9204743
_publ_section_title
;
Structure prediction by ZEFSAII (Michael W. Deem and Ramdas Pophale) SiO2 
 PCOD9204743
Probable space group: C 2/M
;
_chemical_formula_sum "Si O2"
_cell_formula_units_Z 48
_cell_length_a 14.902496
_cell_length_b 8.684014
_cell_length_c 28.290751
_cell_angle_alpha 90.000000
_cell_angle_beta 37.311364
_cell_angle_gamma 90.000000
_cell_volume 2219.225146
_symmetry_space_group_name_H-M "C 2/M"
_symmetry_group_IT_number 12
_symmetry_cell_setting 'monoclinic'
loop_
_space_group_symop_operation_xyz
x,y,z
-x,y,-z
-x,-y,-z
x,-y,z
1/2+x,1/2+y,z
1/2-x,1/2+y,-z
1/2-x,1/2-y,-z
1/2+x,1/2-y,z
loop_
_atom_site_type_symbol
_atom_site_label
_atom_site_fract_x
_atom_site_fract_y
_atom_site_fract_z
Si Si1 0.139193 0.173911 0.476141
Si Si2 0.563695 0.175627 0.688909
Si Si3 0.227336 0.181880 0.154879
Si Si4 0.820643 0.684068 0.922708
Si Si5 0.559131 0.828732 0.365729
Si Si6 0.353413 0.686878 0.199870
O O1 0.274741 0.243783 0.389839
O O2 0.000000 0.167942 0.500000
O O3 0.071312 0.247851 0.551101
O O4 0.188845 0.000000 0.466871
O O5 0.447415 0.279682 0.765060
O O6 0.493269 0.162168 0.666257
O O7 0.571841 0.000000 0.705425
O O8 0.262713 0.252429 0.088906
O O9 0.309853 0.259170 0.164995
O O10 0.252759 0.000000 0.145033
O O11 0.816697 0.500000 0.924138
O O12 0.989547 0.743745 0.852373
O O13 0.750000 0.750000 0.000000
O O14 0.723600 0.758871 0.290709
O O15 0.574324 0.000000 0.379611
O O16 0.355392 0.500000 0.200097
#
# Coordination Sequence:
#
# PCOD9204743 Si02
#       6
#     8   8   8   8   8   8
#     4  10  21  33  49  79 115 154 202 253 302 358
#     4   9  19  37  56  79 115 159 203 253 310 362
#     4  11  23  41  66  97 128 167 214 258 312 377
#     4  12  26  45  69  98 130 166 205 255 313 375
#     4   9  19  35  56  80 112 154 199 250 305 361
#     4  10  22  43  67  96 130 166 210 261 315 374
#
# _framework density 21.629172000000001
#
# number of rings (size 3 to 8) (size 9 to 14) (size 15 to 20)
#    0.000    1.833    0.000    5.000    2.333    5.000 
#    0.000    3.333    0.000    0.000    0.000    0.000 
#    0.000    0.000    0.000    0.000    0.000    0.000 
#
# Total GULP energy -134015.409671 kJ/mol
# GULP energy per Si atom -5583.975403 kJ/mol
# Density = 2.157994 g / cm^3
# Si number density = 21.629172 Si / 1000 Ang^3
#
#
#
# Elastic Constant Matrix: (Units=GPa)
#
#
# Indices 1 2 3 4 5 6 
#
# 1 53.5426 14.2505 12.3911 0.0000 10.6324 -0.0002
# 2 14.2505 97.3730 6.0227 0.0000 16.4117 -0.0002
# 3 12.3911 6.0227 27.5459 0.0000 16.1456 0.0000
# 4 0.0000 0.0000 0.0000 30.1696 0.0000 -5.3402
# 5 10.6324 16.4117 16.1456 0.0000 42.4065 0.0000
# 6 -0.0002 -0.0002 0.0000 -5.3402 0.0000 24.1476
#
#
#
# Elastic Compliance Matrix: (Units=1/GPa)
#
#
# Indices 1 2 3 4 5 6 
#
# 1 0.021517 -0.002417 -0.008414 0.000000 -0.001256 0.000000
# 2 -0.002417 0.011258 0.001061 0.000000 -0.004155 0.000000
# 3 -0.008414 0.001061 0.050024 0.000000 -0.017347 0.000000
# 4 0.000000 0.000000 0.000000 0.034496 0.000000 0.007629
# 5 -0.001256 -0.004155 -0.017347 0.000000 0.032109 0.000000
# 6 0.000000 0.000000 0.000000 0.007629 0.000000 0.043099
#
#
# Mechanical properties :
#
#
# Convention : Reuss Voigt Hill
#
# Bulk Modulus (GPa) = 15.80831 27.08781 21.44806
# Shear Modulus (GPa) = 21.44737 29.06456 25.25597
#
# Velocity S-wave (km/s) = 3.15238 3.66972 3.42084
# Velocity P-wave (km/s) = 4.53593 5.52329 5.05378
#
# Compressibility (1/GPa) = 0.06325788
#
# Stress axis : x y z
#
# Youngs Moduli (GPa) = 46.47563 88.82444 19.99058
#
# Poissons Ratio (x) = 0.21467 0.16821
# Poissons Ratio (y) = 0.11232 -0.02121
# Poissons Ratio (z) = 0.39107 -0.09425
#
# Static dielectric constant tensor:
#      x y z
#    x 1.811690 0.000000 -0.010180 
#    y 0.000000 1.773980 0.000000 
#    z -0.010180 0.000000 1.893830 
# 
# From -- ./inp_files/377899.got.cif
#   From: 2010.05.17/outbox.cif.g08.bks.cpg/sg12_189_cif.got.tgz:377899.got - 2010.06.03 13:09:07.
