data_PCOD9204882
_publ_section_title
;
Structure prediction by ZEFSAII (Michael W. Deem and Ramdas Pophale) SiO2 
 PCOD9204882
Probable space group: C 2/M
;
_chemical_formula_sum "Si O2"
_cell_formula_units_Z 56
_cell_length_a 5.506089
_cell_length_b 22.511967
_cell_length_c 21.544992
_cell_angle_alpha 90.000000
_cell_angle_beta 99.752624
_cell_angle_gamma 90.000000
_cell_volume 2631.969921
_symmetry_space_group_name_H-M "C 2/M"
_symmetry_group_IT_number 12
_symmetry_cell_setting 'monoclinic'
loop_
_space_group_symop_operation_xyz
x,y,z
-x,y,-z
-x,-y,-z
x,-y,z
1/2+x,1/2+y,z
1/2-x,1/2+y,-z
1/2-x,1/2-y,-z
1/2+x,1/2-y,z
loop_
_atom_site_type_symbol
_atom_site_label
_atom_site_fract_x
_atom_site_fract_y
_atom_site_fract_z
Si Si1 0.847727 0.264458 0.305980
Si Si2 0.116147 0.928480 0.751811
Si Si3 0.245175 0.382831 0.643870
Si Si4 0.656443 0.072180 0.820344
Si Si5 0.727136 0.072434 0.965819
Si Si6 0.547683 0.683516 0.567881
Si Si7 0.854590 0.563178 0.558670
O O1 0.567370 0.257435 0.273075
O O2 0.880409 0.333707 0.319151
O O3 0.863194 0.226131 0.371899
O O4 0.390931 0.908574 0.781552
O O5 0.004219 0.902926 0.683404
O O6 0.901825 0.911839 0.792250
O O7 0.119973 0.000000 0.748010
O O8 0.301236 0.346250 0.584006
O O9 0.061025 0.434893 0.621235
O O10 0.681658 0.090914 0.892876
O O11 0.650073 0.000000 0.819277
O O12 0.727159 0.000000 0.966756
O O13 0.500000 0.091232 0.000000
O O14 0.000000 0.090962 0.000000
O O15 0.500000 0.714729 0.500000
O O16 0.711429 0.625079 0.560347
O O17 0.713994 0.500000 0.557767
O O18 0.000000 0.562462 0.500000
#
# Coordination Sequence:
#
# PCOD9204882 Si02
#       7
#     8   8   8   8   8   8   8
#     4  10  22  38  60  82 104 129 170 222 277 337
#     4  10  21  34  50  70 101 144 184 225 264 322
#     4  11  23  38  55  77 102 137 185 224 283 331
#     4   9  18  32  47  70 103 141 186 226 265 310
#     4   9  15  24  43  69  98 134 179 229 267 299
#     4  11  23  39  58  80 105 133 171 230 291 351
#     4  11  23  38  55  78 107 135 172 225 283 341
#
# _framework density 21.276838999999999
#
# number of rings (size 3 to 8) (size 9 to 14) (size 15 to 20)
#    0.000    1.857    2.857    1.286    2.000    7.714 
#    0.000    0.000    0.000    0.000    0.000    0.000 
#    0.000    0.000    0.000    0.000    0.000  200.000 
#
# Total GULP energy -156231.322956 kJ/mol
# GULP energy per Si atom -5579.690106 kJ/mol
# Density = 2.122841 g / cm^3
# Si number density = 21.276839 Si / 1000 Ang^3
#
#
#
# Elastic Constant Matrix: (Units=GPa)
#
#
# Indices 1 2 3 4 5 6 
#
# 1 134.1648 23.4506 36.6039 0.0000 10.3439 0.0000
# 2 23.4506 74.6241 10.3197 0.0000 4.8605 0.0000
# 3 36.6039 10.3197 76.6415 0.0000 8.9336 0.0000
# 4 0.0000 0.0000 0.0000 19.6367 0.0000 4.3795
# 5 10.3439 4.8605 8.9336 0.0000 36.6227 0.0000
# 6 0.0000 0.0000 0.0000 4.3795 0.0000 25.6943
#
#
#
# Elastic Compliance Matrix: (Units=1/GPa)
#
#
# Indices 1 2 3 4 5 6 
#
# 1 0.008989 -0.002208 -0.003843 0.000000 -0.001308 0.000000
# 2 -0.002208 0.014268 -0.000740 0.000000 -0.001089 0.000000
# 3 -0.003843 -0.000740 0.015279 0.000000 -0.002544 0.000000
# 4 0.000000 0.000000 0.000000 0.052937 0.000000 -0.009023
# 5 -0.001308 -0.001089 -0.002544 0.000000 0.028440 0.000000
# 6 0.000000 0.000000 0.000000 -0.009023 0.000000 0.040457
#
#
# Mechanical properties :
#
#
# Convention : Reuss Voigt Hill
#
# Bulk Modulus (GPa) = 40.07359 47.35321 43.71340
# Shear Modulus (GPa) = 27.43182 30.72783 29.07983
#
# Velocity S-wave (km/s) = 3.59455 3.80437 3.70095
# Velocity P-wave (km/s) = 6.00858 6.44994 6.23317
#
# Compressibility (1/GPa) = 0.02495409
#
# Stress axis : x y z
#
# Youngs Moduli (GPa) = 111.24848 70.08875 65.44773
#
# Poissons Ratio (x) = 0.15476 0.25153
# Poissons Ratio (y) = 0.24564 0.04840
# Poissons Ratio (z) = 0.42756 0.05183
#
# Static dielectric constant tensor:
#      x y z
#    x 1.849230 0.000000 0.012500 
#    y 0.000000 1.778050 0.000000 
#    z 0.012500 0.000000 1.807160 
# 
# From -- ./inp_files/298104.got.cif
#   From: 2010.05.17/outbox.cif.g08.bks.cpg/sg12_150_cif.got.tgz:298104.got - 2010.06.03 13:09:07.
