data_PCOD9204223
_publ_section_title
;
Structure prediction by ZEFSAII (Michael W. Deem and Ramdas Pophale) SiO2 
 PCOD9204223
Probable space group: C 2/M
;
_chemical_formula_sum "Si O2"
_cell_formula_units_Z 58
_cell_length_a 20.298341
_cell_length_b 19.133465
_cell_length_c 7.084834
_cell_angle_alpha 90.000000
_cell_angle_beta 67.385032
_cell_angle_gamma 90.000000
_cell_volume 2540.020415
_symmetry_space_group_name_H-M "C 2/M"
_symmetry_group_IT_number 12
_symmetry_cell_setting 'monoclinic'
loop_
_space_group_symop_operation_xyz
x,y,z
-x,y,-z
-x,-y,-z
x,-y,z
1/2+x,1/2+y,z
1/2-x,1/2+y,-z
1/2-x,1/2-y,-z
1/2+x,1/2-y,z
loop_
_atom_site_type_symbol
_atom_site_label
_atom_site_fract_x
_atom_site_fract_y
_atom_site_fract_z
Si Si1 0.975476 0.152500 0.808869
Si Si2 0.000000 0.500000 0.000000
Si Si3 0.834313 0.078460 0.060555
Si Si4 0.757395 0.345547 0.309243
Si Si5 0.896754 0.419238 0.045536
Si Si6 0.566671 0.196049 0.297094
Si Si7 0.773273 0.305687 0.732233
Si Si8 0.382103 0.580061 0.451157
O O1 0.952367 0.227734 0.761591
O O2 0.043869 0.121150 0.628005
O O3 0.907445 0.101531 0.880354
O O4 0.000000 0.159270 0.000000
O O5 0.049601 0.435795 0.844004
O O6 0.770917 0.134609 0.109584
O O7 0.855863 0.078450 0.260140
O O8 0.812159 0.000000 0.033352
O O9 0.817127 0.401783 0.189513
O O10 0.767183 0.326185 0.518666
O O11 0.762632 0.270523 0.201064
O O12 0.679946 0.379152 0.372873
O O13 0.912176 0.500000 0.947930
O O14 0.920285 0.358468 0.884249
O O15 0.500000 0.175325 0.500000
O O16 0.643234 0.199052 0.315875
O O17 0.390203 0.500000 0.502511
#
# Coordination Sequence:
#
# PCOD9204223 Si02
#       8
#     8   2   8   8   8   8   8   8
#     4  10  21  37  63  91 123 161 199 242 300 371
#     4   8  24  44  62  92 116 156 220 256 294 378
#     4   9  18  35  59  89 121 156 194 249 299 351
#     4  10  20  40  68  90 123 162 202 254 302 363
#     4  10  24  42  63  89 117 162 209 251 306 358
#     4  12  27  41  61  88 124 159 202 258 310 361
#     4  10  23  39  61  95 124 160 208 248 302 366
#     4   9  17  33  60  97 122 150 197 244 300 360
#
# _framework density 22.834464000000001
#
# number of rings (size 3 to 8) (size 9 to 14) (size 15 to 20)
#    0.414    1.655    0.000    2.483    2.897    7.448 
#    0.000    0.000    0.000    8.276    0.000    0.000 
#    0.000    0.000    0.000    0.000    0.000    0.000 
#
# Total GULP energy -161895.628277 kJ/mol
# GULP energy per Si atom -5582.607872 kJ/mol
# Density = 2.278249 g / cm^3
# Si number density = 22.834464 Si / 1000 Ang^3
#
#
#
# Elastic Constant Matrix: (Units=GPa)
#
#
# Indices 1 2 3 4 5 6 
#
# 1 151.7209 77.1793 48.4614 0.0000 -31.8397 0.0000
# 2 77.1793 204.4125 61.5717 0.0000 -34.0909 0.0000
# 3 48.4614 61.5717 85.4872 0.0000 -34.6334 0.0000
# 4 0.0000 0.0000 0.0000 14.5240 0.0000 -19.9436
# 5 -31.8397 -34.0909 -34.6334 0.0000 50.3444 0.0000
# 6 0.0000 0.0000 0.0000 -19.9436 0.0000 39.7802
#
#
#
# Elastic Compliance Matrix: (Units=1/GPa)
#
#
# Indices 1 2 3 4 5 6 
#
# 1 0.009058 -0.002251 -0.002510 0.000000 0.002478 0.000000
# 2 -0.002251 0.006898 -0.003295 0.000000 0.000981 0.000000
# 3 -0.002510 -0.003295 0.019335 0.000000 0.009483 0.000000
# 4 0.000000 0.000000 0.000000 0.220974 0.000000 0.110784
# 5 0.002478 0.000981 0.009483 0.000000 0.028618 0.000000
# 6 0.000000 0.000000 0.000000 0.110784 0.000000 0.080679
#
#
# Mechanical properties :
#
#
# Convention : Reuss Voigt Hill
#
# Bulk Modulus (GPa) = 52.13727 90.67174 71.40451
# Shear Modulus (GPa) = 12.88440 37.89028 25.38734
#
# Velocity S-wave (km/s) = 2.37798 4.07793 3.33798
# Velocity P-wave (km/s) = 5.51561 7.87192 6.79666
#
# Compressibility (1/GPa) = 0.01918014
#
# Stress axis : x y z
#
# Youngs Moduli (GPa) = 110.40511 144.97183 51.71865
#
# Poissons Ratio (x) = 0.32628 0.12980
# Poissons Ratio (y) = 0.24848 0.17041
# Poissons Ratio (z) = 0.27709 0.47768
#
# Static dielectric constant tensor:
#      x y z
#    x 2.019210 0.000000 0.051550 
#    y 0.000000 1.814180 0.000000 
#    z 0.051550 0.000000 1.907220 
# 
# From -- ./inp_files/88432.got.cif
#   From: 2010.05.17/outbox.cif.g08.bks.cpg/sg12_45_cif.got.tgz:88432.got - 2010.06.03 13:09:07.
