data_PCOD9204473
_publ_section_title
;
Structure prediction by ZEFSAII (Michael W. Deem and Ramdas Pophale) SiO2 
 PCOD9204473
Probable space group: C 2/M
;
_chemical_formula_sum "Si O2"
_cell_formula_units_Z 52
_cell_length_a 10.647289
_cell_length_b 27.942333
_cell_length_c 9.270043
_cell_angle_alpha 90.000000
_cell_angle_beta 95.102006
_cell_angle_gamma 90.000000
_cell_volume 2747.004316
_symmetry_space_group_name_H-M "C 2/M"
_symmetry_group_IT_number 12
_symmetry_cell_setting 'monoclinic'
loop_
_space_group_symop_operation_xyz
x,y,z
-x,y,-z
-x,-y,-z
x,-y,z
1/2+x,1/2+y,z
1/2-x,1/2+y,-z
1/2-x,1/2-y,-z
1/2+x,1/2-y,z
loop_
_atom_site_type_symbol
_atom_site_label
_atom_site_fract_x
_atom_site_fract_y
_atom_site_fract_z
Si Si1 0.708612 0.185893 0.745440
Si Si2 0.130283 0.056091 0.930399
Si Si3 0.146404 0.851356 0.480433
Si Si4 0.364909 0.551182 0.409709
Si Si5 0.144112 0.633247 0.030487
Si Si6 0.195730 0.711273 0.287537
Si Si7 0.500000 0.205526 0.500000
O O1 0.827338 0.160322 0.682724
O O2 0.740300 0.241674 0.770014
O O3 0.601701 0.178730 0.610825
O O4 0.668898 0.164055 0.890547
O O5 0.108484 0.057753 0.756335
O O6 0.249538 0.091636 0.961523
O O7 0.157444 0.000000 0.971615
O O8 0.000000 0.069559 0.000000
O O9 0.202606 0.902878 0.531131
O O10 0.206844 0.812451 0.591844
O O11 0.000000 0.852417 0.500000
O O12 0.500000 0.548500 0.500000
O O13 0.298948 0.500000 0.423613
O O14 0.157338 0.670263 0.168147
O O15 0.000000 0.615057 0.000000
O O16 0.082638 0.729461 0.381557
#
# Coordination Sequence:
#
# PCOD9204473 Si02
#       7
#     8   8   8   8   8   8   4
#     4  11  25  37  63  85 126 169 213 261 313 371
#     4  10  23  44  68  96 125 161 211 263 318 379
#     4  10  21  35  60  94 118 157 213 258 310 376
#     4   9  18  35  60  90 124 153 191 261 323 364
#     4  12  25  44  62  92 132 173 209 255 320 383
#     4  11  23  40  61  87 122 171 212 262 312 371
#     4  10  20  42  60  82 115 170 211 264 308 356
#
# _framework density 18.929711000000001
#
# number of rings (size 3 to 8) (size 9 to 14) (size 15 to 20)
#    0.000    1.538    3.077    2.308    8.615    0.308 
#    0.000    0.000    0.000    0.000    0.000    5.385 
#    0.000    0.000    0.000    0.000    0.000    0.000 
#
# Total GULP energy -144820.548777 kJ/mol
# GULP energy per Si atom -5570.021107 kJ/mol
# Density = 1.888663 g / cm^3
# Si number density = 18.929711 Si / 1000 Ang^3
#
#
#
# Elastic Constant Matrix: (Units=GPa)
#
#
# Indices 1 2 3 4 5 6 
#
# 1 107.7107 54.7033 38.9031 0.0000 -2.8369 0.0000
# 2 54.7033 114.3621 28.3366 0.0000 -7.4949 0.0000
# 3 38.9031 28.3366 84.9373 0.0000 -1.1963 0.0000
# 4 0.0000 0.0000 0.0000 22.3100 0.0000 0.9574
# 5 -2.8369 -7.4949 -1.1963 0.0000 21.4207 0.0000
# 6 0.0000 0.0000 0.0000 0.9574 0.0000 21.5172
#
#
#
# Elastic Compliance Matrix: (Units=1/GPa)
#
#
# Indices 1 2 3 4 5 6 
#
# 1 0.013646 -0.005451 -0.004436 0.000000 -0.000348 0.000000
# 2 -0.005451 0.011928 -0.001435 0.000000 0.003371 0.000000
# 3 -0.004436 -0.001435 0.014280 0.000000 -0.000292 0.000000
# 4 0.000000 0.000000 0.000000 0.044909 0.000000 -0.001998
# 5 -0.000348 0.003371 -0.000292 0.000000 0.047801 0.000000
# 6 0.000000 0.000000 0.000000 -0.001998 0.000000 0.046563
#
#
# Mechanical properties :
#
#
# Convention : Reuss Voigt Hill
#
# Bulk Modulus (GPa) = 58.11002 61.21068 59.66035
# Shear Modulus (GPa) = 24.09543 25.38737 24.74140
#
# Velocity S-wave (km/s) = 3.57163 3.66613 3.61919
# Velocity P-wave (km/s) = 6.91181 7.09413 7.00356
#
# Compressibility (1/GPa) = 0.01720874
#
# Stress axis : x y z
#
# Youngs Moduli (GPa) = 73.28383 83.83623 70.02750
#
# Poissons Ratio (x) = 0.45696 0.31067
# Poissons Ratio (y) = 0.39945 0.10052
# Poissons Ratio (z) = 0.32512 0.12034
#
# Static dielectric constant tensor:
#      x y z
#    x 1.720270 0.000000 -0.005000 
#    y 0.000000 1.737650 0.000000 
#    z -0.005000 0.000000 1.644220 
# 
# From -- ./inp_files/52647.got.cif
#   From: 2010.05.17/outbox.cif.g08.bks.cpg/sg12_27_cif.got.tgz:52647.got - 2010.06.03 13:09:07.
