data_PCOD9204840
_publ_section_title
;
Structure prediction by ZEFSAII (Michael W. Deem and Ramdas Pophale) SiO2 
 PCOD9204840
Probable space group: C 2/M
;
_chemical_formula_sum "Si O2"
_cell_formula_units_Z 64
_cell_length_a 14.208169
_cell_length_b 7.336671
_cell_length_c 24.598963
_cell_angle_alpha 90.000000
_cell_angle_beta 86.070666
_cell_angle_gamma 90.000000
_cell_volume 2558.184547
_symmetry_space_group_name_H-M "C 2/M"
_symmetry_group_IT_number 12
_symmetry_cell_setting 'monoclinic'
loop_
_space_group_symop_operation_xyz
x,y,z
-x,y,-z
-x,-y,-z
x,-y,z
1/2+x,1/2+y,z
1/2-x,1/2+y,-z
1/2-x,1/2-y,-z
1/2+x,1/2-y,z
loop_
_atom_site_type_symbol
_atom_site_label
_atom_site_fract_x
_atom_site_fract_y
_atom_site_fract_z
Si Si1 0.610435 0.784937 0.012962
Si Si2 0.661731 0.221334 0.895924
Si Si3 0.305682 0.793258 0.796714
Si Si4 0.609964 0.213199 0.515047
Si Si5 0.165271 0.722957 0.398848
Si Si6 0.050134 0.723343 0.129000
Si Si7 0.193474 0.781675 0.698462
Si Si8 0.040990 0.284092 0.628152
O O1 0.610284 0.711266 0.074034
O O2 0.630100 0.000000 0.015371
O O3 0.500000 0.768106 0.000000
O O4 0.667661 0.714954 0.958561
O O5 0.738522 0.295997 0.852004
O O6 0.558218 0.272579 0.876945
O O7 0.666390 0.000000 0.895640
O O8 0.402035 0.712760 0.817158
O O9 0.243142 0.710928 0.750943
O O10 0.329088 0.000000 0.778618
O O11 0.500000 0.223459 0.500000
O O12 0.668162 0.286919 0.461342
O O13 0.605338 0.292747 0.575880
O O14 0.634025 0.000000 0.517767
O O15 0.166923 0.500000 0.399928
O O16 0.245236 0.785541 0.354914
O O17 0.065183 0.780494 0.376800
O O18 0.053058 0.500000 0.128414
O O19 0.086730 0.741779 0.685124
O O20 0.198203 0.000000 0.700692
O O21 0.036888 0.500000 0.619000
#
# Coordination Sequence:
#
# PCOD9204840 Si02
#       8
#     8   8   8   8   8   8   8   8
#     4   7  11  23  46  74  96 114 145 190 235 278
#     4   9  17  31  53  76  94 117 154 198 238 277
#     4  10  21  34  46  65  95 129 163 195 229 273
#     4   7  11  23  46  74  96 114 145 190 235 278
#     4   8  15  30  51  71  94 126 158 187 227 285
#     4   8  15  30  51  71  94 126 158 187 227 285
#     4  10  21  34  46  65  95 129 163 195 229 273
#     4   9  17  31  53  76  94 117 154 198 238 277
#
# _framework density 25.017741999999998
#
# number of rings (size 3 to 8) (size 9 to 14) (size 15 to 20)
#    0.000    3.500    0.000    3.000    0.000    2.500 
#    0.000    3.750    0.000    6.750    0.000    0.000 
#    0.000    0.000    0.000    0.000    0.000    0.000 
#
# Total GULP energy -178632.392264 kJ/mol
# GULP energy per Si atom -5582.262258 kJ/mol
# Density = 2.496080 g / cm^3
# Si number density = 25.017742 Si / 1000 Ang^3
#
#
#
# Elastic Constant Matrix: (Units=GPa)
#
#
# Indices 1 2 3 4 5 6 
#
# 1 63.4051 -5.6045 33.7869 0.0000 30.4646 0.0000
# 2 -5.6045 98.4150 -1.3670 0.0000 3.5841 0.0000
# 3 33.7869 -1.3670 72.9077 0.0000 47.6021 0.0000
# 4 0.0000 0.0000 0.0000 6.8463 0.0000 -1.0258
# 5 30.4646 3.5841 47.6021 0.0000 50.4273 0.0000
# 6 0.0000 0.0000 0.0000 -1.0258 0.0000 13.5402
#
#
#
# Elastic Compliance Matrix: (Units=1/GPa)
#
#
# Indices 1 2 3 4 5 6 
#
# 1 0.022933 0.001629 -0.003846 0.000000 -0.010339 0.000000
# 2 0.001629 0.010388 0.001471 0.000000 -0.003111 0.000000
# 3 -0.003846 0.001471 0.036691 0.000000 -0.032416 0.000000
# 4 0.000000 0.000000 0.000000 0.147742 0.000000 0.011193
# 5 -0.010339 -0.003111 -0.032416 0.000000 0.056898 0.000000
# 6 0.000000 0.000000 0.000000 0.011193 0.000000 0.074702
#
#
# Mechanical properties :
#
#
# Convention : Reuss Voigt Hill
#
# Bulk Modulus (GPa) = 14.59445 32.03983 23.31714
# Shear Modulus (GPa) = 13.38023 28.02357 20.70190
#
# Velocity S-wave (km/s) = 2.31515 3.35049 2.87973
# Velocity P-wave (km/s) = 3.60456 5.27280 4.51637
#
# Compressibility (1/GPa) = 0.06851918
#
# Stress axis : x y z
#
# Youngs Moduli (GPa) = 43.60502 96.26886 27.25482
#
# Poissons Ratio (x) = -0.15683 0.10483
# Poissons Ratio (y) = -0.07104 -0.04010
# Poissons Ratio (z) = 0.16772 -0.14163
#
# Static dielectric constant tensor:
#      x y z
#    x 2.010380 0.000000 0.025110 
#    y 0.000000 1.995100 0.000000 
#    z 0.025110 0.000000 1.989460 
# 
# From -- ./inp_files/335235.got.cif
#   From: 2010.05.17/outbox.cif.g08.bks.cpg/sg12_168_cif.got.tgz:335235.got - 2010.06.03 13:09:07.
