data_PCOD9204900
_publ_section_title
;
Structure prediction by ZEFSAII (Michael W. Deem and Ramdas Pophale) SiO2 
 PCOD9204900
Probable space group: C 2/M
;
_chemical_formula_sum "Si O2"
_cell_formula_units_Z 64
_cell_length_a 14.371109
_cell_length_b 17.103013
_cell_length_c 14.885040
_cell_angle_alpha 90.000000
_cell_angle_beta 86.826442
_cell_angle_gamma 90.000000
_cell_volume 3652.972295
_symmetry_space_group_name_H-M "C 2/M"
_symmetry_group_IT_number 12
_symmetry_cell_setting 'monoclinic'
loop_
_space_group_symop_operation_xyz
x,y,z
-x,y,-z
-x,-y,-z
x,-y,z
1/2+x,1/2+y,z
1/2-x,1/2+y,-z
1/2-x,1/2-y,-z
1/2+x,1/2-y,z
loop_
_atom_site_type_symbol
_atom_site_label
_atom_site_fract_x
_atom_site_fract_y
_atom_site_fract_z
Si Si1 0.720636 0.163765 0.969851
Si Si2 0.203474 0.589905 0.693025
Si Si3 0.526984 0.905866 0.601343
Si Si4 0.435034 0.909290 0.126608
Si Si5 0.227280 0.091324 0.849246
Si Si6 0.861106 0.157249 0.796586
Si Si7 0.906479 0.336210 0.766924
Si Si8 0.525349 0.407321 0.897997
O O1 0.616011 0.146729 0.941922
O O2 0.788641 0.150264 0.882693
O O3 0.750000 0.250000 0.000000
O O4 0.740637 0.104961 0.049943
O O5 0.228428 0.500000 0.673895
O O6 0.133635 0.618295 0.618623
O O7 0.134125 0.591030 0.783156
O O8 0.298392 0.633515 0.714394
O O9 0.500000 0.892437 0.500000
O O10 0.456863 0.862489 0.672843
O O11 0.521195 0.000000 0.619630
O O12 0.532407 0.876475 0.157493
O O13 0.441974 0.000000 0.096698
O O14 0.301032 0.133800 0.782101
O O15 0.122837 0.125385 0.855616
O O16 0.227203 0.000000 0.827026
O O17 0.901263 0.243820 0.781687
O O18 0.946252 0.105560 0.828214
O O19 0.540356 0.500000 0.909429
O O20 0.500000 0.376312 0.000000
#
# Coordination Sequence:
#
# PCOD9204900 Si02
#       8
#     8   8   8   8   8   8   8   8
#     4  11  21  34  48  71 101 141 186 224 266 309
#     4   8  16  32  55  80 103 132 177 220 262 323
#     4   9  18  37  64  87 106 131 168 217 275 342
#     4   9  19  34  52  71 100 139 179 223 270 324
#     4  11  22  35  50  70 104 143 185 229 267 309
#     4  11  21  32  52  74 108 147 182 224 271 305
#     4  11  22  34  53  81 112 137 170 220 279 334
#     4  10  21  34  51  71  99 147 203 238 255 292
#
# _framework density 17.51998
#
# number of rings (size 3 to 8) (size 9 to 14) (size 15 to 20)
#    0.000    2.000    2.500    2.625    1.750    2.500 
#    0.000    1.875    0.000    0.000    0.000    0.000 
#    0.000    6.000    0.000    0.000    0.000    0.000 
#
# Total GULP energy -178356.501038 kJ/mol
# GULP energy per Si atom -5573.640657 kJ/mol
# Density = 1.748010 g / cm^3
# Si number density = 17.519980 Si / 1000 Ang^3
#
#
#
# Elastic Constant Matrix: (Units=GPa)
#
#
# Indices 1 2 3 4 5 6 
#
# 1 118.8104 16.5350 31.9773 0.0000 15.4569 0.0000
# 2 16.5350 32.8659 2.0790 0.0000 1.4349 0.0000
# 3 31.9773 2.0790 59.2454 0.0000 13.0392 0.0000
# 4 0.0000 0.0000 0.0000 9.6633 0.0000 -1.4299
# 5 15.4569 1.4349 13.0392 0.0000 26.3299 0.0000
# 6 0.0000 0.0000 0.0000 -1.4299 0.0000 24.3448
#
#
#
# Elastic Compliance Matrix: (Units=1/GPa)
#
#
# Indices 1 2 3 4 5 6 
#
# 1 0.010917 -0.005020 -0.004900 0.000000 -0.003709 0.000000
# 2 -0.005020 0.032841 0.001462 0.000000 0.000434 0.000000
# 3 -0.004900 0.001462 0.021163 0.000000 -0.007684 0.000000
# 4 0.000000 0.000000 0.000000 0.104391 0.000000 0.006132
# 5 -0.003709 0.000434 -0.007684 0.000000 0.043938 0.000000
# 6 0.000000 0.000000 0.000000 0.006132 0.000000 0.041437
#
#
# Mechanical properties :
#
#
# Convention : Reuss Voigt Hill
#
# Bulk Modulus (GPa) = 20.83140 34.67824 27.75482
# Shear Modulus (GPa) = 17.38492 22.75630 20.07061
#
# Velocity S-wave (km/s) = 3.15348 3.60790 3.38832
# Velocity P-wave (km/s) = 5.01749 6.09856 5.58425
#
# Compressibility (1/GPa) = 0.04800446
#
# Stress axis : x y z
#
# Youngs Moduli (GPa) = 91.60274 30.44968 47.25134
#
# Poissons Ratio (x) = 0.15287 0.23152
# Poissons Ratio (y) = 0.45988 -0.06908
# Poissons Ratio (z) = 0.44884 -0.04451
#
# Static dielectric constant tensor:
#      x y z
#    x 1.634390 0.000000 0.022530 
#    y 0.000000 1.604170 0.000000 
#    z 0.022530 0.000000 1.591120 
# 
# From -- ./inp_files/215915.got.cif
#   From: 2010.05.17/outbox.cif.g08.bks.cpg/sg12_108_cif.got.tgz:215915.got - 2010.06.03 13:09:07.
