data_PCOD9204090
_publ_section_title
;
Structure prediction by ZEFSAII (Michael W. Deem and Ramdas Pophale) SiO2 
 PCOD9204090
Probable space group: C 2/M
;
_chemical_formula_sum "Si O2"
_cell_formula_units_Z 64
_cell_length_a 33.475064
_cell_length_b 13.595788
_cell_length_c 8.337647
_cell_angle_alpha 90.000000
_cell_angle_beta 52.611365
_cell_angle_gamma 90.000000
_cell_volume 3014.965742
_symmetry_space_group_name_H-M "C 2/M"
_symmetry_group_IT_number 12
_symmetry_cell_setting 'monoclinic'
loop_
_space_group_symop_operation_xyz
x,y,z
-x,y,-z
-x,-y,-z
x,-y,z
1/2+x,1/2+y,z
1/2-x,1/2+y,-z
1/2-x,1/2-y,-z
1/2+x,1/2-y,z
loop_
_atom_site_type_symbol
_atom_site_label
_atom_site_fract_x
_atom_site_fract_y
_atom_site_fract_z
Si Si1 0.114001 0.385879 0.888772
Si Si2 0.161403 0.889101 0.127897
Si Si3 0.633133 0.387965 0.830302
Si Si4 0.025881 0.391769 0.610941
Si Si5 0.625637 0.179041 0.225521
Si Si6 0.223670 0.614058 0.145785
Si Si7 0.962837 0.237185 0.961485
Si Si8 0.699947 0.225709 0.525036
O O1 0.103698 0.500000 0.916359
O O2 0.168548 0.360419 0.688518
O O3 0.111183 0.343146 0.076586
O O4 0.073258 0.325241 0.885626
O O5 0.128166 0.795480 0.255553
O O6 0.144583 0.000000 0.212392
O O7 0.161841 0.884719 0.931548
O O8 0.218531 0.874344 0.047707
O O9 0.630297 0.500000 0.783853
O O10 0.663332 0.319870 0.632418
O O11 0.577695 0.342924 0.995852
O O12 0.018745 0.500000 0.706168
O O13 0.084720 0.371991 0.437920
O O14 0.000000 0.398068 0.500000
O O15 0.998884 0.298552 0.756256
O O16 0.681276 0.136247 0.117959
O O17 0.218637 0.500000 0.210029
O O18 0.212648 0.687721 0.318348
O O19 0.000000 0.191993 0.000000
O O20 0.750000 0.250000 0.500000
#
# Coordination Sequence:
#
# PCOD9204090 Si02
#       8
#     8   8   8   8   8   8   8   8
#     4  11  22  38  60  87 123 163 204 247 306 376
#     4  10  20  40  65  87 120 167 207 246 298 364
#     4  10  21  41  65  86 117 164 206 250 307 361
#     4  11  22  38  61  86 119 157 197 247 309 368
#     4  12  22  40  60  92 127 163 203 251 304 368
#     4  11  23  37  61  95 131 163 202 251 310 365
#     4  11  24  41  62  88 117 155 201 261 312 370
#     4  11  21  38  60  93 123 162 205 255 296 359
#
# _framework density 21.227437999999999
#
# number of rings (size 3 to 8) (size 9 to 14) (size 15 to 20)
#    0.000    1.125    5.000    2.250    3.500    1.750 
#    0.000    1.250    0.000    2.250    0.000    0.000 
#    0.000    0.000    0.000    0.000    0.000    0.000 
#
# Total GULP energy -178709.790869 kJ/mol
# GULP energy per Si atom -5584.680965 kJ/mol
# Density = 2.117912 g / cm^3
# Si number density = 21.227438 Si / 1000 Ang^3
#
#
#
# Elastic Constant Matrix: (Units=GPa)
#
#
# Indices 1 2 3 4 5 6 
#
# 1 78.2880 12.5435 -1.6659 0.0000 -20.1076 0.0000
# 2 12.5435 140.0529 14.7459 0.0000 -11.4411 0.0000
# 3 -1.6659 14.7459 28.8451 0.0000 -11.0292 0.0000
# 4 0.0000 0.0000 0.0000 23.9851 0.0000 -0.7487
# 5 -20.1076 -11.4411 -11.0292 0.0000 24.3106 0.0000
# 6 0.0000 0.0000 0.0000 -0.7487 0.0000 16.7957
#
#
#
# Elastic Compliance Matrix: (Units=1/GPa)
#
#
# Indices 1 2 3 4 5 6 
#
# 1 0.017744 -0.001004 0.008432 0.000000 0.018029 0.000000
# 2 -0.001004 0.007700 -0.003540 0.000000 0.001187 0.000000
# 3 0.008432 -0.003540 0.047178 0.000000 0.026712 0.000000
# 4 0.000000 0.000000 0.000000 0.041751 0.000000 0.001861
# 5 0.018029 0.001187 0.026712 0.000000 0.068724 0.000000
# 6 0.000000 0.000000 0.000000 0.001861 0.000000 0.059622
#
#
# Mechanical properties :
#
#
# Convention : Reuss Voigt Hill
#
# Bulk Modulus (GPa) = 12.43830 33.15921 22.79876
# Shear Modulus (GPa) = 19.10271 27.78911 23.44591
#
# Velocity S-wave (km/s) = 3.00310 3.62209 3.32702
# Velocity P-wave (km/s) = 4.23049 5.75739 5.05196
#
# Compressibility (1/GPa) = 0.08039683
#
# Stress axis : x y z
#
# Youngs Moduli (GPa) = 56.35597 129.87322 21.19628
#
# Poissons Ratio (x) = 0.13041 -0.17872
# Poissons Ratio (y) = 0.05659 0.07504
# Poissons Ratio (z) = -0.47518 0.45980
#
# Static dielectric constant tensor:
#      x y z
#    x 1.777680 0.000000 0.000900 
#    y 0.000000 1.779100 0.000000 
#    z 0.000900 0.000000 1.767970 
# 
# From -- ./inp_files/111959.got.cif
#   From: 2010.05.17/outbox.cif.g08.bks.cpg/sg12_56_cif.got.tgz:111959.got - 2010.06.03 13:09:07.
