data_PCOD9204716
_publ_section_title
;
Structure prediction by ZEFSAII (Michael W. Deem and Ramdas Pophale) SiO2 
 PCOD9204716
Probable space group: C 2/M
;
_chemical_formula_sum "Si O2"
_cell_formula_units_Z 56
_cell_length_a 15.733767
_cell_length_b 18.251677
_cell_length_c 20.016301
_cell_angle_alpha 90.000000
_cell_angle_beta 29.726991
_cell_angle_gamma 90.000000
_cell_volume 2850.264925
_symmetry_space_group_name_H-M "C 2/M"
_symmetry_group_IT_number 12
_symmetry_cell_setting 'monoclinic'
loop_
_space_group_symop_operation_xyz
x,y,z
-x,y,-z
-x,-y,-z
x,-y,z
1/2+x,1/2+y,z
1/2-x,1/2+y,-z
1/2-x,1/2-y,-z
1/2+x,1/2-y,z
loop_
_atom_site_type_symbol
_atom_site_label
_atom_site_fract_x
_atom_site_fract_y
_atom_site_fract_z
Si Si1 0.197074 0.082455 0.843404
Si Si2 0.703552 0.823773 0.101557
Si Si3 0.229689 0.162470 0.229062
Si Si4 0.087918 0.083914 0.512705
Si Si5 0.680143 0.195270 0.347693
Si Si6 0.401181 0.180137 0.969619
Si Si7 0.677510 0.223008 0.620776
O O1 0.284944 0.117191 0.848429
O O2 0.227652 0.133493 0.758570
O O3 0.255098 0.000000 0.790497
O O4 0.000000 0.081772 0.000000
O O5 0.866117 0.768297 0.989080
O O6 0.527896 0.780804 0.238247
O O7 0.677782 0.852210 0.043905
O O8 0.152679 0.237175 0.313903
O O9 0.304384 0.164649 0.104108
O O10 0.078458 0.103878 0.330162
O O11 0.402521 0.154596 0.155944
O O12 0.235225 0.143601 0.424575
O O13 0.000000 0.093160 0.500000
O O14 0.144710 0.000000 0.481676
O O15 0.500000 0.168721 0.500000
O O16 0.773895 0.226259 0.349315
O O17 0.750000 0.250000 0.500000
#
# Coordination Sequence:
#
# PCOD9204716 Si02
#       7
#     8   8   8   8   8   8   8
#     4  11  26  46  65  89 130 179 219 267 332 394
#     4  11  21  36  60  96 123 162 215 272 320 374
#     4  11  18  39  61  94 127 166 213 260 323 387
#     4  11  22  40  64  91 128 170 208 257 330 400
#     4  12  21  39  67  96 125 166 223 266 317 390
#     4  10  21  32  63  96 123 161 218 272 311 377
#     4  12  23  38  63  98 130 163 211 271 327 384
#
# _framework density 19.647296999999998
#
# number of rings (size 3 to 8) (size 9 to 14) (size 15 to 20)
#    0.000    0.857    5.714    2.571    2.000    0.857 
#    0.000    3.571    0.000    0.000    0.000    0.000 
#    0.000    0.000    0.000    0.000    0.000    0.000 
#
# Total GULP energy -156224.620404 kJ/mol
# GULP energy per Si atom -5579.450729 kJ/mol
# Density = 1.960258 g / cm^3
# Si number density = 19.647297 Si / 1000 Ang^3
#
#
#
# Elastic Constant Matrix: (Units=GPa)
#
#
# Indices 1 2 3 4 5 6 
#
# 1 105.1045 44.7640 23.2444 -0.0195 22.9499 -0.0140
# 2 44.7640 106.8072 20.5016 0.0370 4.8551 0.0473
# 3 23.2444 20.5016 79.4968 0.0096 13.6549 0.0205
# 4 -0.0195 0.0370 0.0096 42.1141 0.0195 19.1335
# 5 22.9499 4.8551 13.6549 0.0195 39.4487 0.0154
# 6 -0.0140 0.0473 0.0205 19.1335 0.0154 35.2039
#
#
#
# Elastic Compliance Matrix: (Units=1/GPa)
#
#
# Indices 1 2 3 4 5 6 
#
# 1 0.013454 -0.005050 -0.001482 0.000009 -0.006693 0.000011
# 2 -0.005050 0.011751 -0.001924 -0.000007 0.002158 -0.000014
# 3 -0.001482 -0.001924 0.014162 0.000002 -0.003803 -0.000006
# 4 0.000009 -0.000007 0.000002 0.031531 -0.000014 -0.017137
# 5 -0.006693 0.002158 -0.003803 -0.000014 0.030294 -0.000009
# 6 0.000011 -0.000014 -0.000006 -0.017137 -0.000009 0.037720
#
#
# Mechanical properties :
#
#
# Convention : Reuss Voigt Hill
#
# Bulk Modulus (GPa) = 44.53595 52.04761 48.29178
# Shear Modulus (GPa) = 30.61672 36.87989 33.74830
#
# Velocity S-wave (km/s) = 3.95184 4.33725 4.14902
# Velocity P-wave (km/s) = 6.59845 7.18546 6.89820
#
# Compressibility (1/GPa) = 0.02245377
#
# Stress axis : x y z
#
# Youngs Moduli (GPa) = 74.32541 85.10248 70.61162
#
# Poissons Ratio (x) = 0.42978 0.10465
# Poissons Ratio (y) = 0.37535 0.13588
# Poissons Ratio (z) = 0.11015 0.16377
#
# Static dielectric constant tensor:
#      x y z
#    x 1.723750 0.000000 0.000470 
#    y 0.000000 1.694790 0.000000 
#    z 0.000470 0.000000 1.793770 
# 
# From -- ./inp_files/311671.got.cif
#   From: 2010.05.17/outbox.cif.g08.bks.cpg/sg12_156_cif.got.tgz:311671.got - 2010.06.03 13:09:07.
