data_PCOD9204605
_publ_section_title
;
Structure prediction by ZEFSAII (Michael W. Deem and Ramdas Pophale) SiO2 
 PCOD9204605
Probable space group: C 2/M
;
_chemical_formula_sum "Si O2"
_cell_formula_units_Z 48
_cell_length_a 11.683080
_cell_length_b 21.960796
_cell_length_c 13.262844
_cell_angle_alpha 90.000000
_cell_angle_beta 131.923199
_cell_angle_gamma 90.000000
_cell_volume 2531.856017
_symmetry_space_group_name_H-M "C 2/M"
_symmetry_group_IT_number 12
_symmetry_cell_setting 'monoclinic'
loop_
_space_group_symop_operation_xyz
x,y,z
-x,y,-z
-x,-y,-z
x,-y,z
1/2+x,1/2+y,z
1/2-x,1/2+y,-z
1/2-x,1/2-y,-z
1/2+x,1/2-y,z
loop_
_atom_site_type_symbol
_atom_site_label
_atom_site_fract_x
_atom_site_fract_y
_atom_site_fract_z
Si Si1 0.312207 0.500000 0.408928
Si Si2 0.320407 0.690913 0.909233
Si Si3 0.860005 0.726145 0.652962
Si Si4 0.563083 0.869501 0.651667
Si Si5 0.837892 0.130475 0.345839
Si Si6 0.364281 0.686915 0.154280
Si Si7 0.953576 0.500000 0.592552
O O1 0.500000 0.500000 0.500000
O O2 0.267238 0.564804 0.332890
O O3 0.223011 0.500000 0.466393
O O4 0.236783 0.651695 0.773970
O O5 0.246486 0.757763 0.876316
O O6 0.500000 0.696047 0.000000
O O7 0.303195 0.662988 0.011698
O O8 0.750000 0.750000 0.500000
O O9 0.763607 0.687631 0.676772
O O10 0.969636 0.677627 0.663943
O O11 0.968842 0.780214 0.756641
O O12 0.500000 0.864519 0.500000
O O13 0.529868 0.937129 0.671243
O O14 0.867946 0.138050 0.245201
O O15 0.000000 0.135745 0.500000
O O16 0.000000 0.500000 0.500000
#
# Coordination Sequence:
#
# PCOD9204605 Si02
#       7
#     4   8   8   8   8   8   4
#     4  10  22  40  61  94 135 175 212 270 327 385
#     4  10  22  40  58  88 128 164 205 262 328 392
#     4  11  21  32  59  92 124 157 203 264 309 383
#     4  10  23  38  64  89 117 159 212 262 315 375
#     4  11  21  36  58  91 130 165 213 263 317 386
#     4  10  22  36  58  88 125 170 200 258 333 381
#     4  10  20  44  66  92 124 168 221 276 324 376
#
# _framework density 18.958425999999999
#
# number of rings (size 3 to 8) (size 9 to 14) (size 15 to 20)
#    0.000    1.667    3.333    1.000    7.000    0.000 
#    3.000    1.250    0.000    1.000    0.000    0.000 
#    0.000    0.000    0.000    0.000    0.000    0.000 
#
# Total GULP energy -133708.974244 kJ/mol
# GULP energy per Si atom -5571.207260 kJ/mol
# Density = 1.891528 g / cm^3
# Si number density = 18.958426 Si / 1000 Ang^3
#
#
#
# Elastic Constant Matrix: (Units=GPa)
#
#
# Indices 1 2 3 4 5 6 
#
# 1 95.6750 36.0926 35.2835 0.0000 3.2132 0.0000
# 2 36.0926 62.9413 27.8797 0.0000 -4.0705 0.0000
# 3 35.2835 27.8797 111.5278 0.0000 -4.6064 0.0000
# 4 0.0000 0.0000 0.0000 2.3699 0.0000 -3.8727
# 5 3.2132 -4.0705 -4.6064 0.0000 39.4405 0.0000
# 6 0.0000 0.0000 0.0000 -3.8727 0.0000 27.6538
#
#
#
# Elastic Compliance Matrix: (Units=1/GPa)
#
#
# Indices 1 2 3 4 5 6 
#
# 1 0.014230 -0.007049 -0.002831 0.000000 -0.002217 0.000000
# 2 -0.007049 0.021428 -0.003026 0.000000 0.002432 0.000000
# 3 -0.002831 -0.003026 0.010667 0.000000 0.001164 0.000000
# 4 0.000000 0.000000 0.000000 0.547166 0.000000 0.076626
# 5 -0.002217 0.002432 0.001164 0.000000 0.025922 0.000000
# 6 0.000000 0.000000 0.000000 0.076626 0.000000 0.046892
#
#
# Mechanical properties :
#
#
# Convention : Reuss Voigt Hill
#
# Bulk Modulus (GPa) = 48.75333 52.07285 50.41309
# Shear Modulus (GPa) = 7.15354 25.28541 16.21947
#
# Velocity S-wave (km/s) = 1.94460 3.65599 2.92812
# Velocity P-wave (km/s) = 5.55101 6.73410 6.17097
#
# Compressibility (1/GPa) = 0.02051142
#
# Stress axis : x y z
#
# Youngs Moduli (GPa) = 70.27452 46.66859 93.75068
#
# Poissons Ratio (x) = 0.32898 0.26543
# Poissons Ratio (y) = 0.49538 0.28368
# Poissons Ratio (z) = 0.19897 0.14122
#
# Static dielectric constant tensor:
#      x y z
#    x 1.746300 0.000000 0.032560 
#    y 0.000000 1.647060 0.000000 
#    z 0.032560 0.000000 1.747470 
# 
# From -- ./inp_files/135572.got.cif
#   From: 2010.05.17/outbox.cif.g08.bks.cpg/sg12_68_cif.got.tgz:135572.got - 2010.06.03 13:09:07.
