data_PCOD9204385
_publ_section_title
;
Structure prediction by ZEFSAII (Michael W. Deem and Ramdas Pophale) SiO2 
 PCOD9204385
Probable space group: C 2/M
;
_chemical_formula_sum "Si O2"
_cell_formula_units_Z 40
_cell_length_a 23.935173
_cell_length_b 8.579656
_cell_length_c 17.303402
_cell_angle_alpha 90.000000
_cell_angle_beta 146.897161
_cell_angle_gamma 90.000000
_cell_volume 1940.638703
_symmetry_space_group_name_H-M "C 2/M"
_symmetry_group_IT_number 12
_symmetry_cell_setting 'monoclinic'
loop_
_space_group_symop_operation_xyz
x,y,z
-x,y,-z
-x,-y,-z
x,-y,z
1/2+x,1/2+y,z
1/2-x,1/2+y,-z
1/2-x,1/2-y,-z
1/2+x,1/2-y,z
loop_
_atom_site_type_symbol
_atom_site_label
_atom_site_fract_x
_atom_site_fract_y
_atom_site_fract_z
Si Si1 0.621818 0.184095 0.129264
Si Si2 0.052307 0.814605 0.640837
Si Si3 0.221041 0.817509 0.092726
Si Si4 0.658727 0.812038 0.342661
Si Si5 0.037487 0.685994 0.787352
O O1 0.662130 0.281175 0.104252
O O2 0.669140 0.235695 0.265640
O O3 0.644588 0.000000 0.141505
O O4 0.500000 0.195568 0.000000
O O5 0.172173 0.773062 0.779776
O O6 0.008506 0.735014 0.667160
O O7 0.000000 0.762617 0.500000
O O8 0.038246 0.000000 0.630937
O O9 0.242107 0.000000 0.107927
O O10 0.144684 0.760702 0.937131
O O11 0.750000 0.750000 0.500000
O O12 0.550953 0.762716 0.255567
O O13 0.658572 0.000000 0.342840
O O14 0.047569 0.500000 0.804016
#
# Coordination Sequence:
#
# PCOD9204385 Si02
#       5
#     8   8   8   8   8
#     4  10  20  41  66  91 126 168 210 253 310 371
#     4  11  26  46  67  93 125 165 210 261 319 377
#     4  12  25  41  66  97 128 166 211 262 313 371
#     4  10  23  40  63  93 129 169 205 254 314 371
#     4  11  23  44  68  93 127 168 213 260 313 374
#
# _framework density 20.611771000000001
#
# number of rings (size 3 to 8) (size 9 to 14) (size 15 to 20)
#    0.000    1.200    2.000    3.600    2.800    4.400 
#    0.000    0.000    0.000    0.000    0.000    0.000 
#    0.000    0.000    0.000    0.000    0.000    0.000 
#
# Total GULP energy -111891.286327 kJ/mol
# GULP energy per Si atom -5594.564316 kJ/mol
# Density = 2.056486 g / cm^3
# Si number density = 20.611771 Si / 1000 Ang^3
#
#
#
# Elastic Constant Matrix: (Units=GPa)
#
#
# Indices 1 2 3 4 5 6 
#
# 1 72.9972 0.5689 10.5769 0.0000 -20.9717 0.0000
# 2 0.5689 13.1460 0.5181 0.0000 -6.1710 0.0000
# 3 10.5769 0.5181 97.7857 0.0000 -25.6489 0.0000
# 4 0.0000 0.0000 0.0000 30.2791 0.0000 -4.8394
# 5 -20.9717 -6.1710 -25.6489 0.0000 41.2201 0.0000
# 6 0.0000 0.0000 0.0000 -4.8394 0.0000 30.6660
#
#
#
# Elastic Compliance Matrix: (Units=1/GPa)
#
#
# Indices 1 2 3 4 5 6 
#
# 1 0.016217 0.003584 0.000636 0.000000 0.009183 0.000000
# 2 0.003584 0.083523 0.003499 0.000000 0.016505 0.000000
# 3 0.000636 0.003499 0.012382 0.000000 0.008552 0.000000
# 4 0.000000 0.000000 0.000000 0.033881 0.000000 0.005347
# 5 0.009183 0.016505 0.008552 0.000000 0.036724 0.000000
# 6 0.000000 0.000000 0.000000 0.005347 0.000000 0.033453
#
#
# Mechanical properties :
#
#
# Convention : Reuss Voigt Hill
#
# Bulk Modulus (GPa) = 7.83948 23.02853 15.43401
# Shear Modulus (GPa) = 20.55375 31.91735 26.23555
#
# Velocity S-wave (km/s) = 3.16125 3.93937 3.57156
# Velocity P-wave (km/s) = 4.13960 5.64697 4.95099
#
# Compressibility (1/GPa) = 0.12755943
#
# Stress axis : x y z
#
# Youngs Moduli (GPa) = 61.66239 11.97270 80.76036
#
# Poissons Ratio (x) = -0.04291 -0.05133
# Poissons Ratio (y) = -0.22098 -0.28258
# Poissons Ratio (z) = -0.03919 -0.04189
#
# Static dielectric constant tensor:
#      x y z
#    x 1.748670 0.000000 -0.009970 
#    y 0.000000 1.699650 0.000000 
#    z -0.009970 0.000000 1.715620 
# 
# From -- ./inp_files/221242.got.cif
#   From: 2010.05.17/outbox.cif.g08.bks.cpg/sg12_111_cif.got.tgz:221242.got - 2010.06.03 13:09:07.
