data_PCOD9204888
_publ_section_title
;
Structure prediction by ZEFSAII (Michael W. Deem and Ramdas Pophale) SiO2 
 PCOD9204888
Probable space group: C 2/M
;
_chemical_formula_sum "Si O2"
_cell_formula_units_Z 56
_cell_length_a 10.723337
_cell_length_b 19.753700
_cell_length_c 15.630182
_cell_angle_alpha 90.000000
_cell_angle_beta 77.152870
_cell_angle_gamma 90.000000
_cell_volume 3227.990618
_symmetry_space_group_name_H-M "C 2/M"
_symmetry_group_IT_number 12
_symmetry_cell_setting 'monoclinic'
loop_
_space_group_symop_operation_xyz
x,y,z
-x,y,-z
-x,-y,-z
x,-y,z
1/2+x,1/2+y,z
1/2-x,1/2+y,-z
1/2-x,1/2-y,-z
1/2+x,1/2-y,z
loop_
_atom_site_type_symbol
_atom_site_label
_atom_site_fract_x
_atom_site_fract_y
_atom_site_fract_z
Si Si1 0.001848 0.077286 0.785735
Si Si2 0.872994 0.422228 0.564516
Si Si3 0.001870 0.795320 0.898134
Si Si4 0.796091 0.724582 0.810441
Si Si5 0.176605 0.180435 0.519358
Si Si6 0.911599 0.823633 0.653102
Si Si7 0.302763 0.926044 0.761248
O O1 0.985903 0.126924 0.869209
O O2 0.155553 0.074827 0.750708
O O3 0.935355 0.115624 0.716597
O O4 0.957536 0.000000 0.803167
O O5 0.850621 0.500000 0.540915
O O6 0.756840 0.375202 0.556717
O O7 0.888883 0.422625 0.663767
O O8 0.000000 0.396253 0.500000
O O9 0.142016 0.769301 0.844665
O O10 0.884297 0.756568 0.871046
O O11 0.000000 0.789799 0.000000
O O12 0.842940 0.763002 0.716361
O O13 0.821687 0.643949 0.807055
O O14 0.250000 0.250000 0.500000
O O15 0.157117 0.155902 0.424488
O O16 0.049669 0.195903 0.593490
O O17 0.321430 0.000000 0.800920
#
# Coordination Sequence:
#
# PCOD9204888 Si02
#       7
#     8   8   8   8   8   8   8
#     4   9  18  35  56  79 109 140 180 227 274 331
#     4  10  21  34  50  73 104 145 189 234 269 308
#     4  10  21  37  60  87 111 141 178 226 288 343
#     4  10  21  36  58  81 113 141 184 227 278 337
#     4  11  23  33  50  76 112 147 192 232 267 315
#     4  10  22  34  51  81 106 151 184 225 280 317
#     4   9  17  32  53  74 102 143 187 222 267 321
#
# _framework density 17.348254000000001
#
# number of rings (size 3 to 8) (size 9 to 14) (size 15 to 20)
#    0.000    2.143    1.429    1.286    8.000    0.857 
#    0.000    1.429    0.000    3.857    0.000    0.000 
#    0.000    0.000    0.000    0.000    0.000    0.000 
#
# Total GULP energy -155940.965439 kJ/mol
# GULP energy per Si atom -5569.320194 kJ/mol
# Density = 1.730877 g / cm^3
# Si number density = 17.348254 Si / 1000 Ang^3
#
#
#
# Elastic Constant Matrix: (Units=GPa)
#
#
# Indices 1 2 3 4 5 6 
#
# 1 41.4361 30.7595 13.4588 0.0000 0.9568 0.0000
# 2 30.7595 111.3350 26.4945 0.0000 3.3071 0.0000
# 3 13.4588 26.4945 62.8203 0.0000 4.3117 0.0000
# 4 0.0000 0.0000 0.0000 10.9407 0.0000 -2.3740
# 5 0.9568 3.3071 4.3117 0.0000 20.0571 0.0000
# 6 0.0000 0.0000 0.0000 -2.3740 0.0000 19.1623
#
#
#
# Elastic Compliance Matrix: (Units=1/GPa)
#
#
# Indices 1 2 3 4 5 6 
#
# 1 0.030993 -0.007770 -0.003400 0.000000 0.000533 0.000000
# 2 -0.007770 0.011943 -0.003311 0.000000 -0.000887 0.000000
# 3 -0.003400 -0.003311 0.018264 0.000000 -0.003218 0.000000
# 4 0.000000 0.000000 0.000000 0.093926 0.000000 0.011636
# 5 0.000533 -0.000887 -0.003218 0.000000 0.050670 0.000000
# 6 0.000000 0.000000 0.000000 0.011636 0.000000 0.053627
#
#
# Mechanical properties :
#
#
# Convention : Reuss Voigt Hill
#
# Bulk Modulus (GPa) = 31.01881 39.66858 35.34369
# Shear Modulus (GPa) = 16.71502 19.69060 18.20281
#
# Velocity S-wave (km/s) = 3.10739 3.37266 3.24274
# Velocity P-wave (km/s) = 5.54918 6.17107 5.86837
#
# Compressibility (1/GPa) = 0.03223850
#
# Stress axis : x y z
#
# Youngs Moduli (GPa) = 32.26525 83.73231 54.75163
#
# Poissons Ratio (x) = 0.65056 0.18615
# Poissons Ratio (y) = 0.25069 0.18131
# Poissons Ratio (z) = 0.10970 0.27728
#
# Static dielectric constant tensor:
#      x y z
#    x 1.595090 0.000000 -0.007200 
#    y 0.000000 1.593090 0.000000 
#    z -0.007200 0.000000 1.596480 
# 
# From -- ./inp_files/206114.got.cif
#   From: 2010.05.17/outbox.cif.g08.bks.cpg/sg12_104_cif.got.tgz:206114.got - 2010.06.03 13:09:07.
