data_PCOD9204351
_publ_section_title
;
Structure prediction by ZEFSAII (Michael W. Deem and Ramdas Pophale) SiO2 
 PCOD9204351
Probable space group: C 2/M
;
_chemical_formula_sum "Si O2"
_cell_formula_units_Z 48
_cell_length_a 10.047390
_cell_length_b 26.693250
_cell_length_c 9.366218
_cell_angle_alpha 90.000000
_cell_angle_beta 89.786358
_cell_angle_gamma 90.000000
_cell_volume 2511.978725
_symmetry_space_group_name_H-M "C 2/M"
_symmetry_group_IT_number 12
_symmetry_cell_setting 'monoclinic'
loop_
_space_group_symop_operation_xyz
x,y,z
-x,y,-z
-x,-y,-z
x,-y,z
1/2+x,1/2+y,z
1/2-x,1/2+y,-z
1/2-x,1/2-y,-z
1/2+x,1/2-y,z
loop_
_atom_site_type_symbol
_atom_site_label
_atom_site_fract_x
_atom_site_fract_y
_atom_site_fract_z
Si Si1 0.135059 0.687960 0.907831
Si Si2 0.623742 0.696417 0.891275
Si Si3 0.477093 0.381806 0.334941
Si Si4 0.280961 0.898175 0.299072
Si Si5 0.220645 0.560015 0.388006
Si Si6 0.489582 0.056816 0.844594
O O1 0.152786 0.745476 0.856167
O O2 0.152688 0.650992 0.773264
O O3 0.251541 0.675909 0.020247
O O4 0.000000 0.686788 0.000000
O O5 0.585690 0.662814 0.756745
O O6 0.500000 0.695593 0.000000
O O7 0.500000 0.366800 0.500000
O O8 0.622602 0.396509 0.275719
O O9 0.370108 0.426794 0.337480
O O10 0.301832 0.908949 0.466496
O O11 0.363370 0.941463 0.220646
O O12 0.205352 0.500000 0.413481
O O13 0.114692 0.577530 0.269571
O O14 0.442833 0.000000 0.866400
O O15 0.500000 0.080989 0.000000
#
# Coordination Sequence:
#
# PCOD9204351 Si02
#       6
#     8   8   8   8   8   8
#     4  10  22  37  64  95 118 159 197 245 300 358
#     4  10  20  41  65  85 125 158 197 244 302 355
#     4  10  23  39  60  89 119 157 199 248 293 353
#     4  11  21  37  60  89 119 155 202 239 298 358
#     4  10  23  42  62  86 120 163 201 245 302 354
#     4  10  22  39  59  86 120 154 198 252 300 354
#
# _framework density 19.108442
#
# number of rings (size 3 to 8) (size 9 to 14) (size 15 to 20)
#    0.000    1.833    1.667    1.500    4.667    5.000 
#    0.000    5.000    0.000    3.500    0.000    0.000 
#    0.000    0.000    0.000    0.000    0.000    0.000 
#
# Total GULP energy -133802.567347 kJ/mol
# GULP energy per Si atom -5575.106973 kJ/mol
# Density = 1.906495 g / cm^3
# Si number density = 19.108442 Si / 1000 Ang^3
#
#
#
# Elastic Constant Matrix: (Units=GPa)
#
#
# Indices 1 2 3 4 5 6 
#
# 1 125.6712 13.8955 70.8443 0.0000 8.6879 0.0000
# 2 13.8955 74.1874 51.1730 0.0000 19.0499 0.0000
# 3 70.8443 51.1730 114.7486 0.0000 17.3286 0.0000
# 4 0.0000 0.0000 0.0000 -0.9385 0.0000 15.6138
# 5 8.6879 19.0499 17.3286 0.0000 35.8831 0.0000
# 6 0.0000 0.0000 0.0000 15.6138 0.0000 -4.0415
#
#
#
# Elastic Compliance Matrix: (Units=1/GPa)
#
#
# Indices 1 2 3 4 5 6 
#
# 1 0.013207 0.004729 -0.010140 0.000000 -0.000811 0.000000
# 2 0.004729 0.022740 -0.011935 0.000000 -0.007454 0.000000
# 3 -0.010140 -0.011935 0.020462 0.000000 -0.001090 0.000000
# 4 0.000000 0.000000 0.000000 0.016840 0.000000 0.065058
# 5 -0.000811 -0.007454 -0.001090 0.000000 0.032548 0.000000
# 6 0.000000 0.000000 0.000000 0.065058 0.000000 0.003910
#
#
# Mechanical properties :
#
#
# Convention : Reuss Voigt Hill
#
# Bulk Modulus (GPa) = 46.04725 65.15920 55.60322
# Shear Modulus (GPa) = 32.97292 18.09358 25.53325
#
# Velocity S-wave (km/s) = 4.15850 3.08050 3.65941
# Velocity P-wave (km/s) = 6.87079 6.84298 6.85689
#
# Compressibility (1/GPa) = 0.02171682
#
# Stress axis : x y z
#
# Youngs Moduli (GPa) = 75.71888 43.97481 48.87013
#
# Poissons Ratio (x) = -0.20796 0.49555
# Poissons Ratio (y) = -0.35809 0.58328
# Poissons Ratio (z) = 0.76780 0.52485
#
# Static dielectric constant tensor:
#      x y z
#    x 1.681110 0.000000 -0.008200 
#    y 0.000000 1.692090 0.000000 
#    z -0.008200 0.000000 1.666140 
# 
# From -- ./inp_files/42191.got.cif
#   From: 2010.05.17/outbox.cif.g08.bks.cpg/sg12_22_cif.got.tgz:42191.got - 2010.06.03 13:09:07.
