data_PCOD9204278
_publ_section_title
;
Structure prediction by ZEFSAII (Michael W. Deem and Ramdas Pophale) SiO2 
 PCOD9204278
Probable space group: C 2/M
;
_chemical_formula_sum "Si O2"
_cell_formula_units_Z 56
_cell_length_a 14.594281
_cell_length_b 27.912943
_cell_length_c 11.616305
_cell_angle_alpha 90.000000
_cell_angle_beta 31.489872
_cell_angle_gamma 90.000000
_cell_volume 2471.816008
_symmetry_space_group_name_H-M "C 2/M"
_symmetry_group_IT_number 12
_symmetry_cell_setting 'monoclinic'
loop_
_space_group_symop_operation_xyz
x,y,z
-x,y,-z
-x,-y,-z
x,-y,z
1/2+x,1/2+y,z
1/2-x,1/2+y,-z
1/2-x,1/2-y,-z
1/2+x,1/2-y,z
loop_
_atom_site_type_symbol
_atom_site_label
_atom_site_fract_x
_atom_site_fract_y
_atom_site_fract_z
Si Si1 0.694155 0.944949 0.847437
Si Si2 0.163906 0.269561 0.412351
Si Si3 0.194631 0.357400 0.244462
Si Si4 0.878717 0.112728 0.452008
Si Si5 0.748494 0.353355 0.077053
Si Si6 0.907596 0.307047 0.258740
Si Si7 0.422184 0.446723 0.956797
O O1 0.823632 0.922666 0.613349
O O2 0.735478 0.000000 0.829946
O O3 0.500000 0.943195 0.000000
O O4 0.705998 0.908912 0.942350
O O5 0.266435 0.316364 0.252379
O O6 0.090798 0.282084 0.617482
O O7 0.302064 0.227944 0.288035
O O8 0.000000 0.259758 0.500000
O O9 0.218647 0.339060 0.089478
O O10 0.000000 0.361857 0.500000
O O11 0.267525 0.410300 0.151708
O O12 0.711106 0.145044 0.602370
O O13 0.950317 0.081570 0.268092
O O14 0.039483 0.147503 0.318290
O O15 0.895942 0.323222 0.985204
O O16 0.379757 0.500000 0.957876
O O17 0.500000 0.452278 0.000000
#
# Coordination Sequence:
#
# PCOD9204278 Si02
#       7
#     8   8   8   8   8   8   8
#     4  11  24  43  71 105 141 193 245 295 366 437
#     4  10  21  41  74 102 142 189 240 300 368 438
#     4  10  20  40  70  97 142 180 233 294 357 430
#     4  11  24  43  72  98 149 188 234 302 365 427
#     4  11  23  42  72 103 139 189 243 293 358 443
#     4  11  22  43  73 101 142 188 245 298 362 435
#     4  10  22  38  65 104 139 181 234 283 360 440
#
# _framework density 22.655408000000001
#
# number of rings (size 3 to 8) (size 9 to 14) (size 15 to 20)
#    0.000    1.429    4.286    1.714    0.000    4.857 
#    0.000    2.857   40.857    0.000    0.000    0.000 
#    0.000    0.000    0.000    0.000    0.000    0.000 
#
# Total GULP energy -156307.227823 kJ/mol
# GULP energy per Si atom -5582.400994 kJ/mol
# Density = 2.260384 g / cm^3
# Si number density = 22.655408 Si / 1000 Ang^3
#
#
#
# Elastic Constant Matrix: (Units=GPa)
#
#
# Indices 1 2 3 4 5 6 
#
# 1 100.3168 41.3670 41.7990 -0.0001 -0.1119 0.0002
# 2 41.3670 102.0467 44.1325 -0.0001 18.3613 0.0001
# 3 41.7990 44.1325 125.0651 -0.0004 8.2380 0.0008
# 4 -0.0001 -0.0001 -0.0004 31.2131 0.0002 9.7428
# 5 -0.1119 18.3613 8.2380 0.0002 34.9454 -0.0003
# 6 0.0002 0.0001 0.0008 9.7428 -0.0003 35.5044
#
#
#
# Elastic Compliance Matrix: (Units=1/GPa)
#
#
# Indices 1 2 3 4 5 6 
#
# 1 0.013103 -0.004597 -0.002965 0.000000 0.003156 0.000000
# 2 -0.004597 0.014187 -0.003025 0.000000 -0.006756 0.000000
# 3 -0.002965 -0.003025 0.010107 0.000000 -0.000803 0.000000
# 4 0.000000 0.000000 0.000000 0.035039 0.000000 -0.009615
# 5 0.003156 -0.006756 -0.000803 0.000000 0.032365 0.000000
# 6 0.000000 0.000000 0.000000 -0.009615 0.000000 0.030804
#
#
# Mechanical properties :
#
#
# Convention : Reuss Voigt Hill
#
# Bulk Modulus (GPa) = 61.64090 64.66953 63.15522
# Shear Modulus (GPa) = 30.82872 33.67459 32.25166
#
# Velocity S-wave (km/s) = 3.69286 3.85955 3.77712
# Velocity P-wave (km/s) = 6.74166 6.96192 6.85268
#
# Compressibility (1/GPa) = 0.01622299
#
# Stress axis : x y z
#
# Youngs Moduli (GPa) = 76.31774 70.48842 98.94158
#
# Poissons Ratio (x) = 0.32406 0.29335
# Poissons Ratio (y) = 0.35086 0.29926
# Poissons Ratio (z) = 0.22628 0.21320
#
# Static dielectric constant tensor:
#      x y z
#    x 1.945090 0.000000 -0.042340 
#    y 0.000000 1.929230 0.000000 
#    z -0.042340 0.000000 1.821200 
# 
# From -- ./inp_files/150386.got.cif
#   From: 2010.05.17/outbox.cif.g08.bks.cpg/sg12_76_cif.got.tgz:150386.got - 2010.06.03 13:09:07.
