data_PCOD9204527
_publ_section_title
;
Structure prediction by ZEFSAII (Michael W. Deem and Ramdas Pophale) SiO2 
 PCOD9204527
Probable space group: C 2/M
;
_chemical_formula_sum "Si O2"
_cell_formula_units_Z 40
_cell_length_a 17.600066
_cell_length_b 25.422710
_cell_length_c 8.790407
_cell_angle_alpha 90.000000
_cell_angle_beta 147.579403
_cell_angle_gamma 90.000000
_cell_volume 2108.703229
_symmetry_space_group_name_H-M "C 2/M"
_symmetry_group_IT_number 12
_symmetry_cell_setting 'monoclinic'
loop_
_space_group_symop_operation_xyz
x,y,z
-x,y,-z
-x,-y,-z
x,-y,z
1/2+x,1/2+y,z
1/2-x,1/2+y,-z
1/2-x,1/2-y,-z
1/2+x,1/2-y,z
loop_
_atom_site_type_symbol
_atom_site_label
_atom_site_fract_x
_atom_site_fract_y
_atom_site_fract_z
Si Si1 0.123575 0.000000 0.334404
Si Si2 0.379683 0.593615 0.423312
Si Si3 0.445587 0.897945 0.236594
Si Si4 0.929977 0.500000 0.718047
Si Si5 0.889636 0.815311 0.674829
Si Si6 0.091559 0.694747 0.305999
O O1 0.122421 0.950731 0.448572
O O2 0.264202 0.000000 0.470083
O O3 0.000000 0.000000 0.000000
O O4 0.500000 0.582940 0.500000
O O5 0.415046 0.646567 0.576573
O O6 0.223712 0.598450 0.081663
O O7 0.500000 0.901068 0.500000
O O8 0.516709 0.947685 0.274246
O O9 0.508379 0.843645 0.276535
O O10 0.000000 0.500000 0.000000
O O11 0.883947 0.755153 0.604202
O O12 0.740620 0.828617 0.503267
O O13 0.000000 0.819548 0.000000
O O14 0.000000 0.698596 0.000000
#
# Coordination Sequence:
#
# PCOD9204527 Si02
#       6
#     4   8   8   4   8   8
#     4  12  27  44  72  96 125 168 212 263 318 378
#     4  12  26  44  62  96 136 167 207 264 323 382
#     4  12  26  42  66  95 131 170 211 263 319 378
#     4  12  23  46  72  92 119 168 222 260 308 378
#     4  10  22  39  67  94 123 168 216 263 314 372
#     4  10  20  42  66  91 125 167 219 266 307 367
#
# _framework density 18.969004000000002
#
# number of rings (size 3 to 8) (size 9 to 14) (size 15 to 20)
#    0.000    0.800    4.000    3.000    5.600    0.800 
#    0.000    2.000    0.000    0.000    0.000    0.000 
#    0.000    0.000    0.000    0.000    0.000    0.000 
#
# Total GULP energy -111696.917146 kJ/mol
# GULP energy per Si atom -5584.845857 kJ/mol
# Density = 1.892583 g / cm^3
# Si number density = 18.969004 Si / 1000 Ang^3
#
#
#
# Elastic Constant Matrix: (Units=GPa)
#
#
# Indices 1 2 3 4 5 6 
#
# 1 117.1538 57.7259 58.1377 0.0000 5.7907 0.0000
# 2 57.7259 88.0791 15.3964 0.0000 -10.8607 0.0000
# 3 58.1377 15.3964 131.5812 0.0000 11.3993 0.0000
# 4 0.0000 0.0000 0.0000 -24.1288 0.0000 124.8273
# 5 5.7907 -10.8607 11.3993 0.0000 48.2726 0.0000
# 6 0.0000 0.0000 0.0000 124.8273 0.0000 -286.3280
#
#
#
# Elastic Compliance Matrix: (Units=1/GPa)
#
#
# Indices 1 2 3 4 5 6 
#
# 1 0.016660 -0.010244 -0.005911 0.000000 -0.002908 0.000000
# 2 -0.010244 0.018328 0.001958 0.000000 0.004890 0.000000
# 3 -0.005911 0.001958 0.010089 0.000000 -0.001233 0.000000
# 4 0.000000 0.000000 0.000000 0.033013 0.000000 0.014392
# 5 -0.002908 0.004890 -0.001233 0.000000 0.022456 0.000000
# 6 0.000000 0.000000 0.000000 0.014392 0.000000 0.002782
#
#
# Mechanical properties :
#
#
# Convention : Reuss Voigt Hill
#
# Bulk Modulus (GPa) = 59.93787 66.59268 63.26528
# Shear Modulus (GPa) = 36.42085 -38.73323 -1.15619
#
# Velocity S-wave (km/s) = 4.38656 -4.52367 -0.78156
# Velocity P-wave (km/s) = 7.57114 2.81025 5.71051
#
# Compressibility (1/GPa) = 0.01668394
#
# Stress axis : x y z
#
# Youngs Moduli (GPa) = 60.02246 54.56088 99.11683
#
# Poissons Ratio (x) = 0.55894 0.58584
# Poissons Ratio (y) = 0.61489 -0.19408
# Poissons Ratio (z) = 0.35477 -0.10684
#
# Static dielectric constant tensor:
#      x y z
#    x 1.610880 0.000000 0.001090 
#    y 0.000000 2.014040 0.000000 
#    z 0.001090 0.000000 1.643150 
# 
# From -- ./inp_files/79339.got.cif
#   From: 2010.05.17/outbox.cif.g08.bks.cpg/sg12_40_cif.got.tgz:79339.got - 2010.06.03 13:09:07.
