data_PCOD9204855
_publ_section_title
;
Structure prediction by ZEFSAII (Michael W. Deem and Ramdas Pophale) SiO2 
 PCOD9204855
Probable space group: C 2/M
;
_chemical_formula_sum "Si O2"
_cell_formula_units_Z 56
_cell_length_a 19.439046
_cell_length_b 8.698446
_cell_length_c 25.360788
_cell_angle_alpha 90.000000
_cell_angle_beta 137.986815
_cell_angle_gamma 90.000000
_cell_volume 2870.127749
_symmetry_space_group_name_H-M "C 2/M"
_symmetry_group_IT_number 12
_symmetry_cell_setting 'monoclinic'
loop_
_space_group_symop_operation_xyz
x,y,z
-x,y,-z
-x,-y,-z
x,-y,z
1/2+x,1/2+y,z
1/2-x,1/2+y,-z
1/2-x,1/2-y,-z
1/2+x,1/2-y,z
loop_
_atom_site_type_symbol
_atom_site_label
_atom_site_fract_x
_atom_site_fract_y
_atom_site_fract_z
Si Si1 0.916907 0.683798 0.993405
Si Si2 0.363299 0.814911 0.075554
Si Si3 0.560490 0.684129 0.587275
Si Si4 0.970315 0.815926 0.754744
Si Si5 0.017001 0.681179 0.672855
Si Si6 0.759855 0.181186 0.830649
Si Si7 0.288375 0.314047 0.730093
O O1 0.925711 0.500000 0.998970
O O2 0.807861 0.728878 0.906488
O O3 0.925796 0.734539 0.058556
O O4 0.000000 0.749239 0.000000
O O5 0.425200 0.750989 0.160438
O O6 0.358152 0.000000 0.076224
O O7 0.250000 0.750000 0.000000
O O8 0.500000 0.728524 0.500000
O O9 0.566010 0.500000 0.593391
O O10 0.504734 0.745900 0.608197
O O11 0.676069 0.750348 0.651870
O O12 0.958222 0.757042 0.688226
O O13 0.876199 0.766586 0.739120
O O14 0.975649 0.000000 0.758108
O O15 0.995863 0.500000 0.658676
O O16 0.138345 0.701874 0.754895
O O17 0.808598 0.233032 0.802457
O O18 0.779730 0.000000 0.849612
O O19 0.282574 0.500000 0.727070
#
# Coordination Sequence:
#
# PCOD9204855 Si02
#       7
#     8   8   8   8   8   8   8
#     4  10  21  34  48  70  99 133 177 227 275 322
#     4  11  23  37  53  75 107 148 191 237 290 340
#     4  10  21  38  62  91 118 144 180 225 271 326
#     4  11  22  37  57  82 113 147 189 238 284 333
#     4  10  21  37  58  83 111 145 183 222 272 333
#     4   9  18  33  52  74 100 134 179 225 270 325
#     4   9  20  37  57  83 114 149 186 228 281 336
#
# _framework density 19.511326
#
# number of rings (size 3 to 8) (size 9 to 14) (size 15 to 20)
#    0.000    2.000    0.000    4.286    0.000    8.857 
#    0.000    0.714    0.000    0.000    0.000    0.000 
#    0.000    0.000    0.000    0.000    0.000    0.000 
#
# Total GULP energy -156373.597133 kJ/mol
# GULP energy per Si atom -5584.771326 kJ/mol
# Density = 1.946692 g / cm^3
# Si number density = 19.511326 Si / 1000 Ang^3
#
#
#
# Elastic Constant Matrix: (Units=GPa)
#
#
# Indices 1 2 3 4 5 6 
#
# 1 110.3837 24.6346 27.1350 0.0000 -26.5494 0.0000
# 2 24.6346 17.5116 11.5409 0.0000 -10.3997 0.0000
# 3 27.1350 11.5409 85.7146 0.0000 -27.4080 0.0000
# 4 0.0000 0.0000 0.0000 28.5664 0.0000 -1.7387
# 5 -26.5494 -10.3997 -27.4080 0.0000 32.2599 0.0000
# 6 0.0000 0.0000 0.0000 -1.7387 0.0000 25.6288
#
#
#
# Elastic Compliance Matrix: (Units=1/GPa)
#
#
# Indices 1 2 3 4 5 6 
#
# 1 0.014236 -0.016097 -0.000347 0.000000 0.006232 0.000000
# 2 -0.016097 0.089417 -0.002694 0.000000 0.013289 0.000000
# 3 -0.000347 -0.002694 0.016160 0.000000 0.012576 0.000000
# 4 0.000000 0.000000 0.000000 0.035151 0.000000 0.002385
# 5 0.006232 0.013289 0.012576 0.000000 0.051096 0.000000
# 6 0.000000 0.000000 0.000000 0.002385 0.000000 0.039180
#
#
# Mechanical properties :
#
#
# Convention : Reuss Voigt Hill
#
# Bulk Modulus (GPa) = 12.26425 37.80342 25.03383
# Shear Modulus (GPa) = 16.09297 27.31101 21.70199
#
# Velocity S-wave (km/s) = 2.87505 3.74538 3.33870
# Velocity P-wave (km/s) = 4.16180 6.17422 5.26506
#
# Compressibility (1/GPa) = 0.08153781
#
# Stress axis : x y z
#
# Youngs Moduli (GPa) = 70.24533 11.18361 61.87955
#
# Poissons Ratio (x) = 0.18002 0.02144
# Poissons Ratio (y) = 1.13072 0.16672
# Poissons Ratio (z) = 0.02434 0.03013
#
# Static dielectric constant tensor:
#      x y z
#    x 1.740610 0.000000 -0.006810 
#    y 0.000000 1.656830 0.000000 
#    z -0.006810 0.000000 1.651690 
# 
# From -- ./inp_files/342571.got.cif
#   From: 2010.05.17/outbox.cif.g08.bks.cpg/sg12_172_cif.got.tgz:342571.got - 2010.06.03 13:09:07.
