data_PCOD9204920
_publ_section_title
;
Structure prediction by ZEFSAII (Michael W. Deem and Ramdas Pophale) SiO2 
 PCOD9204920
Probable space group: C 2/M
;
_chemical_formula_sum "Si O2"
_cell_formula_units_Z 64
_cell_length_a 23.602338
_cell_length_b 25.722104
_cell_length_c 12.074543
_cell_angle_alpha 90.000000
_cell_angle_beta 151.678212
_cell_angle_gamma 90.000000
_cell_volume 3477.746718
_symmetry_space_group_name_H-M "C 2/M"
_symmetry_group_IT_number 12
_symmetry_cell_setting 'monoclinic'
loop_
_space_group_symop_operation_xyz
x,y,z
-x,y,-z
-x,-y,-z
x,-y,z
1/2+x,1/2+y,z
1/2-x,1/2+y,-z
1/2-x,1/2-y,-z
1/2+x,1/2-y,z
loop_
_atom_site_type_symbol
_atom_site_label
_atom_site_fract_x
_atom_site_fract_y
_atom_site_fract_z
Si Si1 0.021931 0.827666 0.374908
Si Si2 0.230930 0.638802 0.190273
Si Si3 0.974028 0.439733 0.087168
Si Si4 0.085248 0.290329 0.541120
Si Si5 0.588576 0.674779 0.058142
Si Si6 0.663215 0.783115 0.268236
Si Si7 0.136188 0.647638 0.424365
Si Si8 0.734240 0.687718 0.980998
O O1 0.125985 0.870027 0.567026
O O2 0.081301 0.770706 0.502575
O O3 0.903228 0.828664 0.245805
O O4 0.970862 0.832003 0.163109
O O5 0.217455 0.682058 0.263825
O O6 0.207092 0.661106 0.025225
O O7 0.143010 0.592602 0.075272
O O8 0.963498 0.500000 0.099773
O O9 0.086332 0.410214 0.334885
O O10 0.000000 0.437119 0.000000
O O11 0.062846 0.320563 0.390077
O O12 0.000000 0.295811 0.500000
O O13 0.203497 0.318432 0.792951
O O14 0.595610 0.737095 0.089133
O O15 0.722247 0.653086 0.308630
O O16 0.500000 0.653676 0.000000
O O17 0.750000 0.750000 0.500000
O O18 0.607693 0.823816 0.259138
O O19 0.750000 0.750000 0.000000
#
# Coordination Sequence:
#
# PCOD9204920 Si02
#       8
#     8   8   8   8   8   8   8   8
#     4  12  22  35  55  91 133 171 207 241 299 382
#     4  12  23  40  62  86 126 168 210 270 320 366
#     4  11  26  46  70  92 114 157 226 288 330 371
#     4  12  22  33  54  85 131 177 206 239 286 375
#     4  11  22  33  54  87 134 165 200 239 300 397
#     4  10  21  34  51  85 124 166 198 234 300 381
#     4  11  22  40  59  85 120 161 205 260 319 362
#     4  12  22  37  53  91 136 177 211 237 294 383
#
# _framework density 18.402721
#
# number of rings (size 3 to 8) (size 9 to 14) (size 15 to 20)
#    0.000    0.625    5.000    5.625    3.500    0.000 
#    0.000    0.000    0.000    6.000    0.000    0.000 
#    0.000    0.000    0.000    0.000    0.000    0.000 
#
# Total GULP energy -178430.933942 kJ/mol
# GULP energy per Si atom -5575.966686 kJ/mol
# Density = 1.836084 g / cm^3
# Si number density = 18.402721 Si / 1000 Ang^3
#
#
#
# Elastic Constant Matrix: (Units=GPa)
#
#
# Indices 1 2 3 4 5 6 
#
# 1 144.0536 51.2117 47.5016 0.0000 4.6270 0.0000
# 2 51.2117 96.8215 34.9720 0.0000 13.2640 0.0000
# 3 47.5016 34.9720 106.8011 0.0000 12.8735 0.0000
# 4 0.0000 0.0000 0.0000 14.4540 0.0000 2.7566
# 5 4.6270 13.2640 12.8735 0.0000 41.0870 0.0000
# 6 0.0000 0.0000 0.0000 2.7566 0.0000 21.3409
#
#
#
# Elastic Compliance Matrix: (Units=1/GPa)
#
#
# Indices 1 2 3 4 5 6 
#
# 1 0.009310 -0.004013 -0.002968 0.000000 0.001177 0.000000
# 2 -0.004013 0.013735 -0.002320 0.000000 -0.003255 0.000000
# 3 -0.002968 -0.002320 0.011757 0.000000 -0.002600 0.000000
# 4 0.000000 0.000000 0.000000 0.070932 0.000000 -0.009162
# 5 0.001177 -0.003255 -0.002600 0.000000 0.026072 0.000000
# 6 0.000000 0.000000 0.000000 -0.009162 0.000000 0.048042
#
#
# Mechanical properties :
#
#
# Convention : Reuss Voigt Hill
#
# Bulk Modulus (GPa) = 61.73754 68.33854 65.03804
# Shear Modulus (GPa) = 24.52788 29.64245 27.08516
#
# Velocity S-wave (km/s) = 3.65477 4.01779 3.84057
# Velocity P-wave (km/s) = 7.17152 7.66414 7.42192
#
# Compressibility (1/GPa) = 0.01619760
#
# Stress axis : x y z
#
# Youngs Moduli (GPa) = 107.41617 72.80680 85.05839
#
# Poissons Ratio (x) = 0.29219 0.25249
# Poissons Ratio (y) = 0.43108 0.19735
# Poissons Ratio (z) = 0.31885 0.16893
#
# Static dielectric constant tensor:
#      x y z
#    x 1.711570 0.000000 0.024650 
#    y 0.000000 1.591900 0.000000 
#    z 0.024650 0.000000 1.839380 
# 
# From -- ./inp_files/178434.got.cif
#   From: 2010.05.17/outbox.cif.g08.bks.cpg/sg12_90_cif.got.tgz:178434.got - 2010.06.03 13:09:07.
