data_PCOD9204607
_publ_section_title
;
Structure prediction by ZEFSAII (Michael W. Deem and Ramdas Pophale) SiO2 
 PCOD9204607
Probable space group: C 2/M
;
_chemical_formula_sum "Si O2"
_cell_formula_units_Z 38
_cell_length_a 14.923879
_cell_length_b 11.920804
_cell_length_c 15.297708
_cell_angle_alpha 90.000000
_cell_angle_beta 47.592588
_cell_angle_gamma 90.000000
_cell_volume 2009.493295
_symmetry_space_group_name_H-M "C 2/M"
_symmetry_group_IT_number 12
_symmetry_cell_setting 'monoclinic'
loop_
_space_group_symop_operation_xyz
x,y,z
-x,y,-z
-x,-y,-z
x,-y,z
1/2+x,1/2+y,z
1/2-x,1/2+y,-z
1/2-x,1/2-y,-z
1/2+x,1/2-y,z
loop_
_atom_site_type_symbol
_atom_site_label
_atom_site_fract_x
_atom_site_fract_y
_atom_site_fract_z
Si Si1 0.365330 0.500000 0.293896
Si Si2 0.111935 0.811532 0.864936
Si Si3 0.456361 0.127222 0.223252
Si Si4 0.115948 0.000000 0.234669
Si Si5 0.748034 0.000000 0.553624
Si Si6 0.312505 0.743910 0.864828
Si Si7 0.000000 0.000000 0.500000
O O1 0.361768 0.393442 0.232825
O O2 0.494371 0.500000 0.256871
O O3 0.268565 0.500000 0.436144
O O4 0.074766 0.693570 0.844658
O O5 0.229260 0.804299 0.848512
O O6 0.000000 0.849016 0.000000
O O7 0.555940 0.198929 0.210376
O O8 0.502760 0.000000 0.175487
O O9 0.334028 0.105032 0.359737
O O10 0.181382 0.114782 0.167080
O O11 0.085853 0.000000 0.356468
O O12 0.876895 0.000000 0.517021
O O13 0.250000 0.750000 0.000000
#
# Coordination Sequence:
#
# PCOD9204607 Si02
#       7
#     4   8   8   4   4   8   2
#     4  11  23  44  65  93 136 171 217 270 335 409
#     4  12  24  41  66  99 131 176 219 278 339 397
#     4  10  24  46  63 101 132 173 221 278 334 397
#     4  11  23  44  64 100 126 174 231 260 339 397
#     4   9  23  43  71  93 138 176 225 279 331 394
#     4  12  25  42  69  97 134 179 215 286 337 401
#     4  10  20  44  68 102 126 182 224 280 316 406
#
# _framework density 18.910240000000002
#
# number of rings (size 3 to 8) (size 9 to 14) (size 15 to 20)
#    0.632    0.421    4.211    1.579    4.421    1.263 
#    3.789    1.053    0.000    0.000    0.000    0.000 
#    0.000    0.000    0.000    0.000    0.000    0.000 
#
# Total GULP energy -105786.169119 kJ/mol
# GULP energy per Si atom -5567.693112 kJ/mol
# Density = 1.886720 g / cm^3
# Si number density = 18.910240 Si / 1000 Ang^3
#
#
#
# Elastic Constant Matrix: (Units=GPa)
#
#
# Indices 1 2 3 4 5 6 
#
# 1 127.9554 20.3508 47.1196 0.0000 15.6670 0.0000
# 2 20.3508 84.4955 42.9685 0.0000 12.6638 0.0000
# 3 47.1196 42.9685 146.8798 0.0000 20.2003 0.0000
# 4 0.0000 0.0000 0.0000 19.4713 0.0000 3.0546
# 5 15.6670 12.6638 20.2003 0.0000 42.2359 0.0000
# 6 0.0000 0.0000 0.0000 3.0546 0.0000 10.8454
#
#
#
# Elastic Compliance Matrix: (Units=1/GPa)
#
#
# Indices 1 2 3 4 5 6 
#
# 1 0.009062 -0.000639 -0.002445 0.000000 -0.002000 0.000000
# 2 -0.000639 0.014176 -0.003629 0.000000 -0.002278 0.000000
# 3 -0.002445 -0.003629 0.008970 0.000000 -0.002295 0.000000
# 4 0.000000 0.000000 0.000000 0.053732 0.000000 -0.015133
# 5 -0.002000 -0.002278 -0.002295 0.000000 0.026199 0.000000
# 6 0.000000 0.000000 0.000000 -0.015133 0.000000 0.096467
#
#
# Mechanical properties :
#
#
# Convention : Reuss Voigt Hill
#
# Bulk Modulus (GPa) = 53.24374 64.46759 58.85567
# Shear Modulus (GPa) = 21.90172 31.10330 26.50251
#
# Velocity S-wave (km/s) = 3.40692 4.06000 3.74771
# Velocity P-wave (km/s) = 6.61009 7.49289 7.06529
#
# Compressibility (1/GPa) = 0.01878155
#
# Stress axis : x y z
#
# Youngs Moduli (GPa) = 110.34798 70.54392 111.48519
#
# Poissons Ratio (x) = 0.04511 0.27258
# Poissons Ratio (y) = 0.07056 0.40453
# Poissons Ratio (z) = 0.26980 0.25597
#
# Static dielectric constant tensor:
#      x y z
#    x 1.647430 0.000000 -0.020950 
#    y 0.000000 1.672250 0.000000 
#    z -0.020950 0.000000 1.638500 
# 
# From -- ./inp_files/212403.got.cif
#   From: 2010.05.17/outbox.cif.g08.bks.cpg/sg12_107_cif.got.tgz:212403.got - 2010.06.03 13:09:07.
