data_PCOD9204298
_publ_section_title
;
Structure prediction by ZEFSAII (Michael W. Deem and Ramdas Pophale) SiO2 
 PCOD9204298
Probable space group: C 2/M
;
_chemical_formula_sum "Si O2"
_cell_formula_units_Z 48
_cell_length_a 14.186472
_cell_length_b 20.176477
_cell_length_c 22.152598
_cell_angle_alpha 90.000000
_cell_angle_beta 157.064493
_cell_angle_gamma 90.000000
_cell_volume 2470.978462
_symmetry_space_group_name_H-M "C 2/M"
_symmetry_group_IT_number 12
_symmetry_cell_setting 'monoclinic'
loop_
_space_group_symop_operation_xyz
x,y,z
-x,y,-z
-x,-y,-z
x,-y,z
1/2+x,1/2+y,z
1/2-x,1/2+y,-z
1/2-x,1/2-y,-z
1/2+x,1/2-y,z
loop_
_atom_site_type_symbol
_atom_site_label
_atom_site_fract_x
_atom_site_fract_y
_atom_site_fract_z
Si Si1 0.803337 0.826195 0.547864
Si Si2 0.070377 0.921597 0.612247
Si Si3 0.519600 0.293195 0.797238
Si Si4 0.062065 0.925799 0.972258
Si Si5 0.951955 0.343106 0.129649
Si Si6 0.138976 0.387278 0.639601
O O1 0.750000 0.750000 0.500000
O O2 0.997753 0.818986 0.716510
O O3 0.563213 0.856709 0.436252
O O4 0.897310 0.875154 0.551013
O O5 0.333344 0.887105 0.770102
O O6 0.000000 0.918985 0.500000
O O7 0.068500 0.000000 0.628975
O O8 0.464908 0.216074 0.777028
O O9 0.312122 0.331341 0.712486
O O10 0.783941 0.309696 0.979349
O O11 0.825133 0.927561 0.790472
O O12 0.148914 0.000000 0.035950
O O13 0.271247 0.888081 0.061312
O O14 0.000000 0.893573 0.000000
O O15 0.000000 0.418825 0.500000
#
# Coordination Sequence:
#
# PCOD9204298 Si02
#       6
#     8   8   8   8   8   8
#     4  11  22  37  63  92 119 160 205 254 300 364
#     4  11  25  41  60  88 126 169 207 251 315 379
#     4   9  20  38  63  92 117 152 203 252 307 359
#     4  10  22  36  58  86 112 152 200 242 294 353
#     4  10  20  41  60  85 123 157 194 254 302 364
#     4   9  20  39  58  85 119 147 193 250 300 352
#
# _framework density 19.425502999999999
#
# number of rings (size 3 to 8) (size 9 to 14) (size 15 to 20)
#    0.000    2.000    0.000    2.500    4.667    3.000 
#    0.000    8.333    0.000    0.000    0.000    0.000 
#    0.000    0.000    0.000    0.000    0.000    0.000 
#
# Total GULP energy -133861.798967 kJ/mol
# GULP energy per Si atom -5577.574957 kJ/mol
# Density = 1.938129 g / cm^3
# Si number density = 19.425503 Si / 1000 Ang^3
#
#
#
# Elastic Constant Matrix: (Units=GPa)
#
#
# Indices 1 2 3 4 5 6 
#
# 1 108.6197 53.3079 32.9810 0.0515 3.2729 -0.0483
# 2 53.3079 122.8981 28.3138 0.0914 6.5466 -0.1768
# 3 32.9810 28.3138 70.5321 0.1680 5.3408 -0.2734
# 4 0.0515 0.0914 0.1680 41.6456 0.1174 -40.3959
# 5 3.2729 6.5466 5.3408 0.1174 20.5826 -0.1556
# 6 -0.0483 -0.1768 -0.2734 -40.3959 -0.1556 67.1607
#
#
#
# Elastic Compliance Matrix: (Units=1/GPa)
#
#
# Indices 1 2 3 4 5 6 
#
# 1 0.012695 -0.004581 -0.004136 -0.000020 0.000512 -0.000031
# 2 -0.004581 0.010697 -0.001989 0.000019 -0.002158 0.000023
# 3 -0.004136 -0.001989 0.017150 0.000004 -0.003159 0.000057
# 4 -0.000020 0.000019 0.000004 0.057643 -0.000071 0.034671
# 5 0.000512 -0.002158 -0.003159 -0.000071 0.050010 0.000055
# 6 -0.000031 0.000023 0.000057 0.034671 0.000055 0.035744
#
#
# Mechanical properties :
#
#
# Convention : Reuss Voigt Hill
#
# Bulk Modulus (GPa) = 52.27269 59.02835 55.65052
# Shear Modulus (GPa) = 23.61528 38.37426 30.99477
#
# Velocity S-wave (km/s) = 3.49045 4.44943 3.99879
# Velocity P-wave (km/s) = 6.57359 7.53987 7.07325
#
# Compressibility (1/GPa) = 0.01913045
#
# Stress axis : x y z
#
# Youngs Moduli (GPa) = 78.77034 93.48455 58.30995
#
# Poissons Ratio (x) = 0.42825 0.24118
# Poissons Ratio (y) = 0.36085 0.11595
# Poissons Ratio (z) = 0.32580 0.18590
#
# Static dielectric constant tensor:
#      x y z
#    x 1.683720 -0.000130 -0.046510 
#    y -0.000130 1.712920 0.000100 
#    z -0.046510 0.000100 1.696420 
# 
# From -- ./inp_files/341239.got.cif
#   From: 2010.05.17/outbox.cif.g08.bks.cpg/sg12_171_cif.got.tgz:341239.got - 2010.06.03 13:09:07.
