data_PCOD9204058
_publ_section_title
;
Structure prediction by ZEFSAII (Michael W. Deem and Ramdas Pophale) SiO2 
 PCOD9204058
Probable space group: C 2/M
;
_chemical_formula_sum "Si O2"
_cell_formula_units_Z 56
_cell_length_a 23.525944
_cell_length_b 13.709349
_cell_length_c 9.273764
_cell_angle_alpha 90.000000
_cell_angle_beta 121.150638
_cell_angle_gamma 90.000000
_cell_volume 2559.749158
_symmetry_space_group_name_H-M "C 2/M"
_symmetry_group_IT_number 12
_symmetry_cell_setting 'monoclinic'
loop_
_space_group_symop_operation_xyz
x,y,z
-x,y,-z
-x,-y,-z
x,-y,z
1/2+x,1/2+y,z
1/2-x,1/2+y,-z
1/2-x,1/2-y,-z
1/2+x,1/2-y,z
loop_
_atom_site_type_symbol
_atom_site_label
_atom_site_fract_x
_atom_site_fract_y
_atom_site_fract_z
Si Si1 0.062617 0.320966 0.250640
Si Si2 0.740277 0.736499 0.818412
Si Si3 0.704511 0.115743 0.548763
Si Si4 0.627136 0.881122 0.043349
Si Si5 0.678362 0.610375 0.520646
Si Si6 0.538354 0.892091 0.680769
Si Si7 0.466610 0.393002 0.797760
O O1 0.135495 0.332195 0.417016
O O2 0.078101 0.341042 0.103441
O O3 0.023726 0.219756 0.235166
O O4 0.015896 0.399116 0.264235
O O5 0.733149 0.841226 0.733812
O O6 0.803619 0.673724 0.848999
O O7 0.679413 0.676128 0.665786
O O8 0.750000 0.750000 0.000000
O O9 0.760640 0.136920 0.503317
O O10 0.693448 0.000000 0.538264
O O11 0.631625 0.000000 0.061463
O O12 0.601506 0.854000 0.849410
O O13 0.688577 0.500000 0.584178
O O14 0.613194 0.608649 0.333076
O O15 0.500000 0.840419 0.500000
O O16 0.557785 0.000000 0.651632
O O17 0.487184 0.500000 0.759446
O O18 0.500000 0.395411 0.000000
#
# Coordination Sequence:
#
# PCOD9204058 Si02
#       7
#     8   8   8   8   8   8   8
#     4  12  21  39  66  94 124 168 213 268 322 389
#     4  12  25  39  59  91 129 172 213 262 331 391
#     4  11  23  39  64  92 123 165 218 269 317 385
#     4  11  23  40  63  92 125 167 219 268 318 388
#     4  10  20  40  64  89 124 166 216 272 324 386
#     4  10  23  39  60  93 132 169 208 260 325 392
#     4  10  21  36  61  95 126 161 210 270 327 382
#
# _framework density 21.877141999999999
#
# number of rings (size 3 to 8) (size 9 to 14) (size 15 to 20)
#    0.000    1.143    2.857    4.286    2.000    2.286 
#    0.000    0.000    0.000    0.429    0.000    0.000 
#    0.000    0.000    0.000    0.000    0.000    0.000 
#
# Total GULP energy -155896.188130 kJ/mol
# GULP energy per Si atom -5567.721005 kJ/mol
# Density = 2.182735 g / cm^3
# Si number density = 21.877142 Si / 1000 Ang^3
#
#
#
# Elastic Constant Matrix: (Units=GPa)
#
#
# Indices 1 2 3 4 5 6 
#
# 1 24.2286 2.3704 18.5060 0.0000 1.9972 0.0000
# 2 2.3704 137.2014 31.6910 0.0000 -5.7827 0.0000
# 3 18.5060 31.6910 188.1602 0.0000 1.4487 0.0000
# 4 0.0000 0.0000 0.0000 28.0311 0.0000 2.3606
# 5 1.9972 -5.7827 1.4487 0.0000 33.0726 0.0000
# 6 0.0000 0.0000 0.0000 2.3606 0.0000 11.0159
#
#
#
# Elastic Compliance Matrix: (Units=1/GPa)
#
#
# Indices 1 2 3 4 5 6 
#
# 1 0.044837 0.000140 -0.004414 0.000000 -0.002490 0.000000
# 2 0.000140 0.007648 -0.001313 0.000000 0.001386 0.000000
# 3 -0.004414 -0.001313 0.005972 0.000000 -0.000225 0.000000
# 4 0.000000 0.000000 0.000000 0.036330 0.000000 -0.007785
# 5 -0.002490 0.001386 -0.000225 0.000000 0.030639 0.000000
# 6 0.000000 0.000000 0.000000 -0.007785 0.000000 0.092446
#
#
# Mechanical properties :
#
#
# Convention : Reuss Voigt Hill
#
# Bulk Modulus (GPa) = 21.14948 50.52501 35.83724
# Shear Modulus (GPa) = 20.42440 34.22545 27.32493
#
# Velocity S-wave (km/s) = 3.05879 3.95959 3.53798
# Velocity P-wave (km/s) = 4.70780 6.63698 5.75382
#
# Compressibility (1/GPa) = 0.04728250
#
# Stress axis : x y z
#
# Youngs Moduli (GPa) = 22.30321 130.75773 167.46052
#
# Poissons Ratio (x) = -0.01831 0.73920
# Poissons Ratio (y) = -0.00312 0.21980
# Poissons Ratio (z) = 0.09845 0.17162
#
# Static dielectric constant tensor:
#      x y z
#    x 1.777400 0.000000 0.041250 
#    y 0.000000 1.922100 0.000000 
#    z 0.041250 0.000000 1.878740 
# 
# From -- ./inp_files/96977.got.cif
#   From: 2010.05.17/outbox.cif.g08.bks.cpg/sg12_49_cif.got.tgz:96977.got - 2010.06.03 13:09:07.
