data_PCOD9204788
_publ_section_title
;
Structure prediction by ZEFSAII (Michael W. Deem and Ramdas Pophale) SiO2 
 PCOD9204788
Probable space group: C 2/M
;
_chemical_formula_sum "Si O2"
_cell_formula_units_Z 48
_cell_length_a 24.353361
_cell_length_b 7.499945
_cell_length_c 12.440739
_cell_angle_alpha 90.000000
_cell_angle_beta 87.977271
_cell_angle_gamma 90.000000
_cell_volume 2270.871043
_symmetry_space_group_name_H-M "C 2/M"
_symmetry_group_IT_number 12
_symmetry_cell_setting 'monoclinic'
loop_
_space_group_symop_operation_xyz
x,y,z
-x,y,-z
-x,-y,-z
x,-y,z
1/2+x,1/2+y,z
1/2-x,1/2+y,-z
1/2-x,1/2-y,-z
1/2+x,1/2-y,z
loop_
_atom_site_type_symbol
_atom_site_label
_atom_site_fract_x
_atom_site_fract_y
_atom_site_fract_z
Si Si1 0.478064 0.217641 0.169085
Si Si2 0.960809 0.708624 0.410605
Si Si3 0.163521 0.213675 0.527281
Si Si4 0.586407 0.217412 0.033225
Si Si5 0.206126 0.286060 0.095634
Si Si6 0.759499 0.711244 0.674221
O O1 0.468109 0.283273 0.290122
O O2 0.537478 0.269089 0.117680
O O3 0.476551 0.000000 0.169671
O O4 0.432612 0.274152 0.084624
O O5 0.975939 0.500000 0.400108
O O6 0.897770 0.720841 0.450490
O O7 0.000000 0.786871 0.500000
O O8 0.189928 0.264039 0.411208
O O9 0.205758 0.282559 0.615880
O O10 0.162628 0.000000 0.532626
O O11 0.645981 0.281072 0.065596
O O12 0.587391 0.000000 0.032340
O O13 0.200871 0.500000 0.106903
O O14 0.226880 0.215721 0.209275
O O15 0.250000 0.250000 0.000000
O O16 0.750310 0.500000 0.686951
#
# Coordination Sequence:
#
# PCOD9204788 Si02
#       6
#     8   8   8   8   8   8
#     4   8  15  29  49  75 102 131 171 214 258 306
#     4  10  21  33  53  82 108 138 177 223 267 317
#     4  10  21  37  56  78 107 144 180 224 275 320
#     4   8  15  29  50  74 101 133 170 213 256 304
#     4  10  21  34  54  81 109 140 173 216 265 315
#     4   9  20  38  57  78 106 143 184 224 267 318
#
# _framework density 21.137262
#
# number of rings (size 3 to 8) (size 9 to 14) (size 15 to 20)
#    0.000    2.833    0.000    1.500    4.667    1.667 
#    0.000    0.000    0.000    0.000    0.000    2.333 
#    0.000    0.000    0.000    0.000    0.000    0.000 
#
# Total GULP energy -133983.068738 kJ/mol
# GULP energy per Si atom -5582.627864 kJ/mol
# Density = 2.108915 g / cm^3
# Si number density = 21.137262 Si / 1000 Ang^3
#
#
#
# Elastic Constant Matrix: (Units=GPa)
#
#
# Indices 1 2 3 4 5 6 
#
# 1 162.0928 -22.7136 118.4679 0.0000 13.9794 0.0000
# 2 -22.7136 62.2382 -4.9835 0.0000 7.5106 0.0000
# 3 118.4679 -4.9835 224.4742 0.0000 18.5562 0.0000
# 4 0.0000 0.0000 0.0000 -1.2064 0.0000 -8.8338
# 5 13.9794 7.5106 18.5562 0.0000 15.6060 0.0000
# 6 0.0000 0.0000 0.0000 -8.8338 0.0000 6.8484
#
#
#
# Elastic Compliance Matrix: (Units=1/GPa)
#
#
# Indices 1 2 3 4 5 6 
#
# 1 0.011162 0.004343 -0.005318 0.000000 -0.005766 0.000000
# 2 0.004343 0.019031 -0.000877 0.000000 -0.012006 0.000000
# 3 -0.005318 -0.000877 0.007556 0.000000 -0.003799 0.000000
# 4 0.000000 0.000000 0.000000 -0.079357 0.000000 -0.102364
# 5 -0.005766 -0.012006 -0.003799 0.000000 0.079537 0.000000
# 6 0.000000 0.000000 0.000000 -0.102364 0.000000 0.013980
#
#
# Mechanical properties :
#
#
# Convention : Reuss Voigt Hill
#
# Bulk Modulus (GPa) = 29.37239 70.03853 49.70546
# Shear Modulus (GPa) = 74.67160 28.11856 51.39508
#
# Velocity S-wave (km/s) = 5.95010 3.65126 4.93637
# Velocity P-wave (km/s) = 7.81864 7.14021 7.48711
#
# Compressibility (1/GPa) = 0.03404558
#
# Stress axis : x y z
#
# Youngs Moduli (GPa) = 89.59293 52.54574 132.34901
#
# Poissons Ratio (x) = -0.22823 0.70377
# Poissons Ratio (y) = -0.38913 0.11610
# Poissons Ratio (z) = 0.47642 0.04609
#
# Static dielectric constant tensor:
#      x y z
#    x 1.715970 0.000000 0.034820 
#    y 0.000000 1.793830 0.000000 
#    z 0.034820 0.000000 1.752010 
# 
# From -- ./inp_files/172246.got.cif
#   From: 2010.05.17/outbox.cif.g08.bks.cpg/sg12_87_cif.got.tgz:172246.got - 2010.06.03 13:09:07.
