data_PCOD9204807
_publ_section_title
;
Structure prediction by ZEFSAII (Michael W. Deem and Ramdas Pophale) SiO2 
 PCOD9204807
Probable space group: C 2/M
;
_chemical_formula_sum "Si O2"
_cell_formula_units_Z 64
_cell_length_a 14.373153
_cell_length_b 24.145596
_cell_length_c 14.967376
_cell_angle_alpha 90.000000
_cell_angle_beta 138.728124
_cell_angle_gamma 90.000000
_cell_volume 3426.398780
_symmetry_space_group_name_H-M "C 2/M"
_symmetry_group_IT_number 12
_symmetry_cell_setting 'monoclinic'
loop_
_space_group_symop_operation_xyz
x,y,z
-x,y,-z
-x,-y,-z
x,-y,z
1/2+x,1/2+y,z
1/2-x,1/2+y,-z
1/2-x,1/2-y,-z
1/2+x,1/2-y,z
loop_
_atom_site_type_symbol
_atom_site_label
_atom_site_fract_x
_atom_site_fract_y
_atom_site_fract_z
Si Si1 0.681639 0.934444 0.387422
Si Si2 0.389936 0.817012 0.317686
Si Si3 0.731088 0.184370 0.966355
Si Si4 0.336886 0.868006 0.453074
Si Si5 0.018477 0.373087 0.110588
Si Si6 0.585105 0.653085 0.470365
Si Si7 0.473931 0.321958 0.759641
Si Si8 0.701646 0.227162 0.285194
O O1 0.631335 0.914140 0.449687
O O2 0.583037 0.910611 0.236644
O O3 0.833934 0.904839 0.484796
O O4 0.689534 0.000000 0.388786
O O5 0.333369 0.823082 0.178125
O O6 0.362709 0.869294 0.365015
O O7 0.560491 0.816651 0.442972
O O8 0.303834 0.766498 0.300718
O O9 0.626231 0.153920 0.958520
O O10 0.750000 0.250000 0.000000
O O11 0.889081 0.160211 0.087570
O O12 0.170676 0.856307 0.338547
O O13 0.128504 0.322095 0.177894
O O14 0.000000 0.400212 0.000000
O O15 0.500000 0.651787 0.500000
O O16 0.491658 0.673555 0.320290
O O17 0.709299 0.697604 0.573370
O O18 0.422252 0.262986 0.759406
#
# Coordination Sequence:
#
# PCOD9204807 Si02
#       8
#     8   8   8   8   8   8   8   8
#     4  10  22  44  66  84 110 153 212 274 313 348
#     4  10  21  36  59  87 126 159 193 243 296 370
#     4  12  23  34  56  86 130 169 200 232 290 366
#     4   9  20  40  61  87 115 152 202 254 304 361
#     4  11  23  38  55  84 126 159 209 245 294 371
#     4  10  23  35  56  87 116 157 208 255 298 358
#     4  10  22  34  53  84 125 166 194 235 294 356
#     4  10  21  33  55  84 124 165 201 232 294 365
#
# _framework density 18.678502999999999
#
# number of rings (size 3 to 8) (size 9 to 14) (size 15 to 20)
#    0.000    1.750    2.500    1.125    8.750    3.000 
#    0.000    1.250    0.000    0.750    0.000    3.500 
#    0.000    0.000    0.000    0.000    0.000    0.000 
#
# Total GULP energy -178350.792440 kJ/mol
# GULP energy per Si atom -5573.462264 kJ/mol
# Density = 1.863599 g / cm^3
# Si number density = 18.678503 Si / 1000 Ang^3
#
#
#
# Elastic Constant Matrix: (Units=GPa)
#
#
# Indices 1 2 3 4 5 6 
#
# 1 92.1414 29.7579 43.2481 0.0000 -8.5182 0.0000
# 2 29.7579 62.2312 17.6060 0.0000 -1.0782 0.0000
# 3 43.2481 17.6060 131.6350 0.0000 -6.7305 0.0000
# 4 0.0000 0.0000 0.0000 10.9384 0.0000 -2.7022
# 5 -8.5182 -1.0782 -6.7305 0.0000 43.3170 0.0000
# 6 0.0000 0.0000 0.0000 -2.7022 0.0000 15.6592
#
#
#
# Elastic Compliance Matrix: (Units=1/GPa)
#
#
# Indices 1 2 3 4 5 6 
#
# 1 0.014830 -0.005931 -0.003969 0.000000 0.002152 0.000000
# 2 -0.005931 0.019074 -0.000643 0.000000 -0.000792 0.000000
# 3 -0.003969 -0.000643 0.009018 0.000000 0.000605 0.000000
# 4 0.000000 0.000000 0.000000 0.095492 0.000000 0.016479
# 5 0.002152 -0.000792 0.000605 0.000000 0.023583 0.000000
# 6 0.000000 0.000000 0.000000 0.016479 0.000000 0.066704
#
#
# Mechanical properties :
#
#
# Convention : Reuss Voigt Hill
#
# Bulk Modulus (GPa) = 45.79806 51.91460 48.85633
# Shear Modulus (GPa) = 19.45032 27.00930 23.22981
#
# Velocity S-wave (km/s) = 3.23045 3.80677 3.53039
# Velocity P-wave (km/s) = 6.20377 6.86849 6.54457
#
# Compressibility (1/GPa) = 0.02183499
#
# Stress axis : x y z
#
# Youngs Moduli (GPa) = 67.42905 52.42860 110.89325
#
# Poissons Ratio (x) = 0.31098 0.44015
# Poissons Ratio (y) = 0.39995 0.07128
# Poissons Ratio (z) = 0.26763 0.03370
#
# Static dielectric constant tensor:
#      x y z
#    x 1.738570 0.000000 0.000840 
#    y 0.000000 1.625520 0.000000 
#    z 0.000840 0.000000 1.670090 
# 
# From -- ./inp_files/218954.got.cif
#   From: 2010.05.17/outbox.cif.g08.bks.cpg/sg12_110_cif.got.tgz:218954.got - 2010.06.03 13:09:07.
