data_PCOD9204771
_publ_section_title
;
Structure prediction by ZEFSAII (Michael W. Deem and Ramdas Pophale) SiO2 
 PCOD9204771
Probable space group: C 2/M
;
_chemical_formula_sum "Si O2"
_cell_formula_units_Z 64
_cell_length_a 18.310836
_cell_length_b 16.131284
_cell_length_c 25.932363
_cell_angle_alpha 90.000000
_cell_angle_beta 155.507343
_cell_angle_gamma 90.000000
_cell_volume 3175.586945
_symmetry_space_group_name_H-M "C 2/M"
_symmetry_group_IT_number 12
_symmetry_cell_setting 'monoclinic'
loop_
_space_group_symop_operation_xyz
x,y,z
-x,y,-z
-x,-y,-z
x,-y,z
1/2+x,1/2+y,z
1/2-x,1/2+y,-z
1/2-x,1/2-y,-z
1/2+x,1/2-y,z
loop_
_atom_site_type_symbol
_atom_site_label
_atom_site_fract_x
_atom_site_fract_y
_atom_site_fract_z
Si Si1 0.876682 0.357182 0.201809
Si Si2 0.008023 0.598951 0.169883
Si Si3 0.859115 0.589238 0.545172
Si Si4 0.700031 0.731465 0.626445
Si Si5 0.409083 0.703701 0.666985
Si Si6 0.476168 0.402391 0.062847
Si Si7 0.665897 0.095835 0.665191
Si Si8 0.368034 0.401314 0.109327
O O1 0.935358 0.383684 0.181400
O O2 0.995695 0.409518 0.316980
O O3 0.943304 0.265572 0.257887
O O4 0.665967 0.361610 0.065526
O O5 0.050175 0.500000 0.193160
O O6 0.166363 0.664040 0.262915
O O7 0.840732 0.617558 0.025349
O O8 0.770952 0.500000 0.487204
O O9 0.708859 0.657580 0.450578
O O10 0.973208 0.599575 0.566299
O O11 0.500000 0.700165 0.500000
O O12 0.775473 0.744967 0.617582
O O13 0.692750 0.823949 0.646836
O O14 0.513263 0.641311 0.771597
O O15 0.435382 0.500000 0.032440
O O16 0.685788 0.394465 0.194998
O O17 0.435176 0.375736 0.095526
O O18 0.690200 0.000000 0.660139
O O19 0.387207 0.500000 0.124929
#
# Coordination Sequence:
#
# PCOD9204771 Si02
#       8
#     8   8   8   8   8   8   8   8
#     4  10  21  34  53  74 107 137 177 216 255 302
#     4   9  20  36  57  80 104 135 175 220 264 305
#     4  11  22  36  51  71 107 146 175 206 252 313
#     4  11  21  34  52  79 111 136 170 217 263 318
#     4  11  21  32  52  79 104 137 172 216 262 308
#     4   9  17  31  52  76 103 134 168 209 256 310
#     4  10  21  33  52  79 107 139 173 209 259 318
#     4   9  17  31  52  80 105 130 169 215 265 313
#
# _framework density 20.153753999999999
#
# number of rings (size 3 to 8) (size 9 to 14) (size 15 to 20)
#    0.000    2.000    2.500    2.625    1.750    3.000 
#    0.000    1.875    0.000    0.000    0.000    0.000 
#    0.000    2.000    0.000    0.000    0.000    0.000 
#
# Total GULP energy -178415.494009 kJ/mol
# GULP energy per Si atom -5575.484188 kJ/mol
# Density = 2.010788 g / cm^3
# Si number density = 20.153754 Si / 1000 Ang^3
#
#
#
# Elastic Constant Matrix: (Units=GPa)
#
#
# Indices 1 2 3 4 5 6 
#
# 1 12.9187 4.3455 8.3869 -0.0007 -3.7868 -0.0007
# 2 4.3455 71.0823 41.8383 -0.0034 3.0571 0.0000
# 3 8.3869 41.8383 134.7821 0.0141 4.5342 -0.0025
# 4 -0.0007 -0.0034 0.0141 46.3750 -0.0019 0.4598
# 5 -3.7868 3.0571 4.5342 -0.0019 18.9837 -0.0016
# 6 -0.0007 0.0000 -0.0025 0.4598 -0.0016 14.2629
#
#
#
# Elastic Compliance Matrix: (Units=1/GPa)
#
#
# Indices 1 2 3 4 5 6 
#
# 1 0.087400 -0.003165 -0.005101 0.000003 0.019162 0.000005
# 2 -0.003165 0.017371 -0.005121 0.000003 -0.002206 -0.000001
# 3 -0.005101 -0.005121 0.009408 -0.000003 -0.002440 0.000001
# 4 0.000003 0.000003 -0.000003 0.021570 0.000003 -0.000695
# 5 0.019162 -0.002206 -0.002440 0.000003 0.057437 0.000007
# 6 0.000005 -0.000001 0.000001 -0.000695 0.000007 0.070134
#
#
# Mechanical properties :
#
#
# Convention : Reuss Voigt Hill
#
# Bulk Modulus (GPa) = 11.44085 36.43605 23.93845
# Shear Modulus (GPa) = 15.66270 26.87182 21.26726
#
# Velocity S-wave (km/s) = 2.79078 3.65545 3.25199
# Velocity P-wave (km/s) = 4.00921 5.99456 5.09944
#
# Compressibility (1/GPa) = 0.08740606
#
# Stress axis : x y z
#
# Youngs Moduli (GPa) = 11.44163 57.56822 106.28702
#
# Poissons Ratio (x) = 0.18220 0.54214
# Poissons Ratio (y) = 0.03621 0.54429
# Poissons Ratio (z) = 0.05836 0.29481
#
# Static dielectric constant tensor:
#      x y z
#    x 1.740400 0.000000 -0.010910 
#    y 0.000000 1.745500 0.000000 
#    z -0.010910 0.000000 1.754740 
# 
# From -- ./inp_files/381445.got.cif
#   From: 2010.05.17/outbox.cif.g08.bks.cpg/sg12_191_cif.got.tgz:381445.got - 2010.06.03 13:09:07.
