data_PCOD9204038
_publ_section_title
;
Structure prediction by ZEFSAII (Michael W. Deem and Ramdas Pophale) SiO2 
 PCOD9204038
Probable space group: C 2/M
;
_chemical_formula_sum "Si O2"
_cell_formula_units_Z 40
_cell_length_a 18.390164
_cell_length_b 16.656089
_cell_length_c 6.031456
_cell_angle_alpha 90.000000
_cell_angle_beta 112.106960
_cell_angle_gamma 90.000000
_cell_volume 1711.662821
_symmetry_space_group_name_H-M "C 2/M"
_symmetry_group_IT_number 12
_symmetry_cell_setting 'monoclinic'
loop_
_space_group_symop_operation_xyz
x,y,z
-x,y,-z
-x,-y,-z
x,-y,z
1/2+x,1/2+y,z
1/2-x,1/2+y,-z
1/2-x,1/2-y,-z
1/2+x,1/2-y,z
loop_
_atom_site_type_symbol
_atom_site_label
_atom_site_fract_x
_atom_site_fract_y
_atom_site_fract_z
Si Si1 0.760170 0.144202 0.833550
Si Si2 0.225093 0.500000 0.126019
Si Si3 0.000000 0.866110 0.500000
Si Si4 0.500000 0.132512 0.500000
Si Si5 0.062128 0.000000 0.882744
Si Si6 0.123900 0.758001 0.738341
Si Si7 0.799594 0.000000 0.615887
Si Si8 0.930365 0.500000 0.740522
O O1 0.837969 0.188555 0.019814
O O2 0.726865 0.080515 0.979938
O O3 0.698088 0.214020 0.721941
O O4 0.764598 0.087973 0.623837
O O5 0.307099 0.500000 0.360634
O O6 0.151769 0.500000 0.215487
O O7 0.040762 0.922606 0.720711
O O8 0.073276 0.811931 0.510042
O O9 0.559072 0.188516 0.712844
O O10 0.446398 0.076245 0.596840
O O11 0.141234 0.000000 0.109170
O O12 0.000000 0.000000 0.000000
O O13 0.000000 0.500000 0.000000
#
# Coordination Sequence:
#
# PCOD9204038 Si02
#       8
#     8   4   4   4   4   8   4   4
#     4  10  22  41  63  88 127 160 200 255 305 373
#     4  11  24  38  66  95 121 164 209 256 306 364
#     4  10  22  42  64  86 120 162 202 258 306 356
#     4  10  22  40  64  84 120 162 200 254 306 364
#     4  11  24  38  64  89 120 159 215 251 297 366
#     4  10  20  40  64  86 121 164 196 246 320 360
#     4  11  22  41  63  94 121 164 209 249 305 373
#     4  11  22  41  63  89 118 160 214 255 300 363
#
# _framework density 23.369088000000001
#
# number of rings (size 3 to 8) (size 9 to 14) (size 15 to 20)
#    0.000    1.600    2.000    2.400    2.800    3.200 
#    0.000   21.000    0.000    0.000    0.000    0.000 
#    0.000    0.000    0.000    0.000    0.000    0.000 
#
# Total GULP energy -111406.414186 kJ/mol
# GULP energy per Si atom -5570.320709 kJ/mol
# Density = 2.331590 g / cm^3
# Si number density = 23.369088 Si / 1000 Ang^3
#
#
#
# Elastic Constant Matrix: (Units=GPa)
#
#
# Indices 1 2 3 4 5 6 
#
# 1 80.5736 37.1045 16.6208 0.0000 22.4608 0.0000
# 2 37.1045 114.5255 24.0929 0.0000 19.7324 0.0000
# 3 16.6208 24.0929 69.4999 0.0000 28.3166 0.0000
# 4 0.0000 0.0000 0.0000 9.1134 0.0000 6.4771
# 5 22.4608 19.7324 28.3166 0.0000 42.8734 0.0000
# 6 0.0000 0.0000 0.0000 6.4771 0.0000 64.5289
#
#
#
# Elastic Compliance Matrix: (Units=1/GPa)
#
#
# Indices 1 2 3 4 5 6 
#
# 1 0.016131 -0.004130 0.000332 0.000000 -0.006770 0.000000
# 2 -0.004130 0.010763 -0.002198 0.000000 -0.001338 0.000000
# 3 0.000332 -0.002198 0.020153 0.000000 -0.012473 0.000000
# 4 0.000000 0.000000 0.000000 0.118158 0.000000 -0.011860
# 5 -0.006770 -0.001338 -0.012473 0.000000 0.035725 0.000000
# 6 0.000000 0.000000 0.000000 -0.011860 0.000000 0.016687
#
#
# Mechanical properties :
#
#
# Convention : Reuss Voigt Hill
#
# Bulk Modulus (GPa) = 28.52659 46.69284 37.60972
# Shear Modulus (GPa) = 20.72159 35.75517 28.23838
#
# Velocity S-wave (km/s) = 2.98100 3.91579 3.47993
# Velocity P-wave (km/s) = 4.90734 6.36149 5.68113
#
# Compressibility (1/GPa) = 0.03505501
#
# Stress axis : x y z
#
# Youngs Moduli (GPa) = 61.99091 92.91381 49.62060
#
# Poissons Ratio (x) = 0.38372 -0.01647
# Poissons Ratio (y) = 0.25601 0.10907
# Poissons Ratio (z) = -0.02058 0.20424
#
# Static dielectric constant tensor:
#      x y z
#    x 1.944830 0.000000 0.052640 
#    y 0.000000 1.916470 0.000000 
#    z 0.052640 0.000000 1.849830 
# 
# From -- ./inp_files/24901.got.cif
#   From: 2010.05.17/outbox.cif.g08.bks.cpg/sg12_13_cif.got.tgz:24901.got - 2010.06.03 13:09:07.
