data_PCOD9204604
_publ_section_title
;
Structure prediction by ZEFSAII (Michael W. Deem and Ramdas Pophale) SiO2 
 PCOD9204604
Probable space group: C 2/M
;
_chemical_formula_sum "Si O2"
_cell_formula_units_Z 50
_cell_length_a 5.346987
_cell_length_b 14.138177
_cell_length_c 31.100395
_cell_angle_alpha 90.000000
_cell_angle_beta 76.701478
_cell_angle_gamma 90.000000
_cell_volume 2288.040817
_symmetry_space_group_name_H-M "C 2/M"
_symmetry_group_IT_number 12
_symmetry_cell_setting 'monoclinic'
loop_
_space_group_symop_operation_xyz
x,y,z
-x,y,-z
-x,-y,-z
x,-y,z
1/2+x,1/2+y,z
1/2-x,1/2+y,-z
1/2-x,1/2-y,-z
1/2+x,1/2-y,z
loop_
_atom_site_type_symbol
_atom_site_label
_atom_site_fract_x
_atom_site_fract_y
_atom_site_fract_z
Si Si1 0.894199 0.339705 0.909364
Si Si2 0.152274 0.866409 0.055090
Si Si3 0.205498 0.314368 0.354982
Si Si4 0.483216 0.801610 0.193754
Si Si5 0.752749 0.000000 0.294968
Si Si6 0.377289 0.810599 0.545515
Si Si7 0.172249 0.500000 0.761285
Si Si8 0.500000 0.000000 0.000000
O O1 0.860094 0.247200 0.941167
O O2 0.631459 0.395626 0.921097
O O3 0.138980 0.394683 0.917012
O O4 0.945117 0.302706 0.859569
O O5 0.275672 0.916820 0.009768
O O6 0.460562 0.248301 0.348974
O O7 0.247865 0.404283 0.323206
O O8 0.146973 0.351776 0.405822
O O9 0.732793 0.764175 0.208920
O O10 0.407357 0.906319 0.210160
O O11 0.500375 0.000000 0.274986
O O12 0.023112 0.000000 0.258970
O O13 0.500000 0.865477 0.500000
O O14 0.594388 0.728038 0.544001
#
# Coordination Sequence:
#
# PCOD9204604 Si02
#       8
#     8   8   8   8   4   8   4   2
#     4  10  20  44  65  86 115 168 196 250 300 364
#     4  10  22  39  63  89 127 159 204 239 295 345
#     4  10  21  38  65  87 121 181 217 256 328 395
#     4  12  23  46  74 102 128 166 211 269 336 390
#     4  12  26  46  58  96 134 168 216 268 312 410
#     4   8  14  27  50  84 117 152 211 272 316 366
#     4  12  30  42  66 102 131 161 212 276 330 388
#     4  12  28  38  58 106 128 172 208 252 288 366
#
# _framework density 21.852758999999999
#
# number of rings (size 3 to 8) (size 9 to 14) (size 15 to 20)
#    0.000    1.600    3.200    1.920    0.000    9.600 
#    0.000    0.400    0.000    0.000    0.000   12.320 
#    0.000    0.000    0.000    0.000    0.000    0.000 
#
# Total GULP energy -139275.185360 kJ/mol
# GULP energy per Si atom -5571.007414 kJ/mol
# Density = 2.180302 g / cm^3
# Si number density = 21.852759 Si / 1000 Ang^3
#
#
#
# Elastic Constant Matrix: (Units=GPa)
#
#
# Indices 1 2 3 4 5 6 
#
# 1 143.8507 3.8060 -0.3667 0.0000 -11.6960 0.0000
# 2 3.8060 119.1194 32.9067 0.0000 -16.3177 0.0000
# 3 -0.3667 32.9067 41.1092 0.0000 -11.8403 0.0000
# 4 0.0000 0.0000 0.0000 0.3068 0.0000 -9.3880
# 5 -11.6960 -16.3177 -11.8403 0.0000 30.8109 0.0000
# 6 0.0000 0.0000 0.0000 -9.3880 0.0000 19.8852
#
#
#
# Elastic Compliance Matrix: (Units=1/GPa)
#
#
# Indices 1 2 3 4 5 6 
#
# 1 0.007207 -0.000091 0.001025 0.000000 0.003081 0.000000
# 2 -0.000091 0.010982 -0.008013 0.000000 0.002702 0.000000
# 3 0.001025 -0.008013 0.033327 0.000000 0.008953 0.000000
# 4 0.000000 0.000000 0.000000 -0.242399 0.000000 -0.114439
# 5 0.003081 0.002702 0.008953 0.000000 0.038497 0.000000
# 6 0.000000 0.000000 0.000000 -0.114439 0.000000 -0.003739
#
#
# Mechanical properties :
#
#
# Convention : Reuss Voigt Hill
#
# Bulk Modulus (GPa) = 26.76858 41.86349 34.31604
# Shear Modulus (GPa) = -38.60600 28.04946 -5.27827
#
# Velocity S-wave (km/s) = -4.20770 3.58658 -1.55583
# Velocity P-wave (km/s) = 3.36604 6.02910 3.53693
#
# Compressibility (1/GPa) = 0.03735723
#
# Stress axis : x y z
#
# Youngs Moduli (GPa) = 138.74980 91.06153 30.00539
#
# Poissons Ratio (x) = 0.00831 -0.03075
# Poissons Ratio (y) = 0.01267 0.24043
# Poissons Ratio (z) = -0.14220 0.72968
#
# Static dielectric constant tensor:
#      x y z
#    x 1.859240 0.000000 0.006330 
#    y 0.000000 1.770830 0.000000 
#    z 0.006330 0.000000 1.899040 
# 
# From -- ./inp_files/371478.got.cif
#   From: 2010.05.17/outbox.cif.g08.bks.cpg/sg12_186_cif.got.tgz:371478.got - 2010.06.03 13:09:07.
