data_PCOD9204817
_publ_section_title
;
Structure prediction by ZEFSAII (Michael W. Deem and Ramdas Pophale) SiO2 
 PCOD9204817
Probable space group: C 2/M
;
_chemical_formula_sum "Si O2"
_cell_formula_units_Z 56
_cell_length_a 17.012530
_cell_length_b 17.517903
_cell_length_c 11.543718
_cell_angle_alpha 90.000000
_cell_angle_beta 138.985100
_cell_angle_gamma 90.000000
_cell_volume 2257.717169
_symmetry_space_group_name_H-M "C 2/M"
_symmetry_group_IT_number 12
_symmetry_cell_setting 'monoclinic'
loop_
_space_group_symop_operation_xyz
x,y,z
-x,y,-z
-x,-y,-z
x,-y,z
1/2+x,1/2+y,z
1/2-x,1/2+y,-z
1/2-x,1/2-y,-z
1/2+x,1/2-y,z
loop_
_atom_site_type_symbol
_atom_site_label
_atom_site_fract_x
_atom_site_fract_y
_atom_site_fract_z
Si Si1 0.969577 0.583572 0.769904
Si Si2 0.725049 0.854811 0.083923
Si Si3 0.831798 0.582774 0.370800
Si Si4 0.749977 0.856720 0.364915
Si Si5 0.575615 0.234428 0.491339
Si Si6 0.090573 0.208495 0.890429
Si Si7 0.096149 0.086116 0.249254
O O1 0.947616 0.500000 0.797493
O O2 0.908854 0.582707 0.575901
O O3 0.889368 0.639629 0.758223
O O4 0.109762 0.597324 0.918599
O O5 0.768978 0.885843 0.255785
O O6 0.823287 0.843769 0.094037
O O7 0.672480 0.769064 0.048220
O O8 0.850646 0.500000 0.333787
O O9 0.881065 0.662848 0.380635
O O10 0.694264 0.590026 0.255893
O O11 0.804947 0.772278 0.424938
O O12 0.825359 0.901731 0.545895
O O13 0.500000 0.283618 0.500000
O O14 0.488585 0.237821 0.283860
O O15 0.001936 0.152415 0.859225
O O16 0.045666 0.000000 0.192741
#
# Coordination Sequence:
#
# PCOD9204817 Si02
#       7
#     8   8   8   8   8   8   8
#     4  10  21  36  55  82 115 147 181 221 278 343
#     4  11  21  36  52  81 117 151 180 223 275 335
#     4   9  19  36  58  82 107 140 185 233 278 325
#     4  10  21  33  57  83 111 139 185 233 274 326
#     4  11  20  36  59  81 107 142 190 237 272 321
#     4  10  22  36  56  79 115 151 189 224 275 333
#     4   9  20  38  59  83 111 146 189 231 277 335
#
# _framework density 24.803816999999999
#
# number of rings (size 3 to 8) (size 9 to 14) (size 15 to 20)
#    0.000    2.000    2.857    1.714    2.000    4.286 
#    0.000    0.714    0.000    0.857    0.000    2.000 
#    0.000    0.000    0.000    0.000    0.000    0.000 
#
# Total GULP energy -156383.184320 kJ/mol
# GULP energy per Si atom -5585.113726 kJ/mol
# Density = 2.474736 g / cm^3
# Si number density = 24.803817 Si / 1000 Ang^3
#
#
#
# Elastic Constant Matrix: (Units=GPa)
#
#
# Indices 1 2 3 4 5 6 
#
# 1 73.9722 19.9534 24.5268 0.0000 27.1397 0.0000
# 2 19.9534 69.6752 14.1271 0.0000 23.2684 0.0000
# 3 24.5268 14.1271 84.3566 0.0000 5.1843 0.0000
# 4 0.0000 0.0000 0.0000 10.5143 0.0000 0.8515
# 5 27.1397 23.2684 5.1843 0.0000 40.7519 0.0000
# 6 0.0000 0.0000 0.0000 0.8515 0.0000 -4.3736
#
#
#
# Elastic Compliance Matrix: (Units=1/GPa)
#
#
# Indices 1 2 3 4 5 6 
#
# 1 0.019785 -0.000593 -0.004903 0.000000 -0.012214 0.000000
# 2 -0.000593 0.018233 -0.002283 0.000000 -0.009725 0.000000
# 3 -0.004903 -0.002283 0.013487 0.000000 0.002853 0.000000
# 4 0.000000 0.000000 0.000000 0.093632 0.000000 0.018230
# 5 -0.012214 -0.009725 0.002853 0.000000 0.037863 0.000000
# 6 0.000000 0.000000 0.000000 0.018230 0.000000 -0.225094
#
#
# Mechanical properties :
#
#
# Convention : Reuss Voigt Hill
#
# Bulk Modulus (GPa) = 27.81865 38.35763 33.08814
# Shear Modulus (GPa) = -343.57194 20.67162 -161.45016
#
# Velocity S-wave (km/s) = -11.78204 2.89001 -8.07664
# Velocity P-wave (km/s) = 13.18517 5.16083 8.57947
#
# Compressibility (1/GPa) = 0.03594710
#
# Stress axis : x y z
#
# Youngs Moduli (GPa) = 50.54224 54.84610 74.14574
#
# Poissons Ratio (x) = 0.03253 0.36351
# Poissons Ratio (y) = 0.02997 0.16930
# Poissons Ratio (z) = 0.24779 0.12523
#
# Static dielectric constant tensor:
#      x y z
#    x 1.904350 0.000000 -0.025410 
#    y 0.000000 2.176040 0.000000 
#    z -0.025410 0.000000 2.007820 
# 
# From -- ./inp_files/226562.got.cif
#   From: 2010.05.17/outbox.cif.g08.bks.cpg/sg12_114_cif.got.tgz:226562.got - 2010.06.03 13:09:07.
