data_PCOD9204163
_publ_section_title
;
Structure prediction by ZEFSAII (Michael W. Deem and Ramdas Pophale) SiO2 
 PCOD9204163
Probable space group: C 2/M
;
_chemical_formula_sum "Si O2"
_cell_formula_units_Z 56
_cell_length_a 25.574628
_cell_length_b 7.592629
_cell_length_c 15.653522
_cell_angle_alpha 90.000000
_cell_angle_beta 47.456709
_cell_angle_gamma 90.000000
_cell_volume 2239.461207
_symmetry_space_group_name_H-M "C 2/M"
_symmetry_group_IT_number 12
_symmetry_cell_setting 'monoclinic'
loop_
_space_group_symop_operation_xyz
x,y,z
-x,y,-z
-x,-y,-z
x,-y,z
1/2+x,1/2+y,z
1/2-x,1/2+y,-z
1/2-x,1/2-y,-z
1/2+x,1/2-y,z
loop_
_atom_site_type_symbol
_atom_site_label
_atom_site_fract_x
_atom_site_fract_y
_atom_site_fract_z
Si Si1 0.907741 0.198781 0.966349
Si Si2 0.987213 0.294913 0.708611
Si Si3 0.133111 0.801194 0.625789
Si Si4 0.199194 0.705553 0.384488
Si Si5 0.105033 0.297584 0.345865
Si Si6 0.359061 0.716740 0.191896
Si Si7 0.248233 0.710247 0.902670
O O1 0.911769 0.276084 0.057881
O O2 0.822681 0.198817 0.051889
O O3 0.937214 0.000000 0.933578
O O4 0.936012 0.286270 0.848514
O O5 0.004415 0.500000 0.674668
O O6 0.950926 0.223870 0.661513
O O7 0.057973 0.202719 0.661389
O O8 0.186717 0.717100 0.499132
O O9 0.121838 0.726496 0.733028
O O10 0.158156 0.000000 0.610253
O O11 0.200834 0.500000 0.360226
O O12 0.131448 0.781538 0.407040
O O13 0.276585 0.777063 0.274088
O O14 0.082855 0.500000 0.384672
O O15 0.180098 0.288450 0.214328
O O16 0.360998 0.500000 0.186089
O O17 0.245668 0.500000 0.890578
O O18 0.250000 0.750000 0.000000
#
# Coordination Sequence:
#
# PCOD9204163 Si02
#       7
#     8   8   8   8   8   8   8
#     4  11  21  38  63  91 122 157 199 251 303 361
#     4  11  24  41  60  88 123 164 204 244 298 367
#     4  11  24  42  61  86 120 163 207 252 300 359
#     4  10  20  40  66  91 117 153 200 256 310 359
#     4  10  21  38  62  88 120 157 200 247 303 362
#     4   9  20  39  65  91 119 156 201 248 310 367
#     4  12  22  33  55  89 126 160 197 243 301 360
#
# _framework density 25.006015000000001
#
# number of rings (size 3 to 8) (size 9 to 14) (size 15 to 20)
#    0.000    1.429    2.857    3.000    0.000    2.286 
#    0.000    9.286    0.000    0.000    0.000    0.000 
#    0.000    0.000    0.000    0.000    0.000    0.000 
#
# Total GULP energy -156406.172623 kJ/mol
# GULP energy per Si atom -5585.934737 kJ/mol
# Density = 2.494910 g / cm^3
# Si number density = 25.006015 Si / 1000 Ang^3
#
#
#
# Elastic Constant Matrix: (Units=GPa)
#
#
# Indices 1 2 3 4 5 6 
#
# 1 113.3615 -1.9971 37.9632 -0.0002 29.6382 -0.0002
# 2 -1.9971 83.3234 0.3487 -0.0015 4.7727 0.0006
# 3 37.9632 0.3487 78.0006 -0.0003 32.5509 0.0003
# 4 -0.0002 -0.0015 -0.0003 21.2802 0.0003 1.6383
# 5 29.6382 4.7727 32.5509 0.0003 51.0866 -0.0001
# 6 -0.0002 0.0006 0.0003 1.6383 -0.0001 16.1665
#
#
#
# Elastic Compliance Matrix: (Units=1/GPa)
#
#
# Indices 1 2 3 4 5 6 
#
# 1 0.011157 0.000522 -0.003693 0.000000 -0.004169 0.000000
# 2 0.000522 0.012109 0.000396 0.000001 -0.001686 -0.000001
# 3 -0.003693 0.000396 0.018713 0.000000 -0.009818 0.000000
# 4 0.000000 0.000001 0.000000 0.047361 -0.000001 -0.004799
# 5 -0.004169 -0.001686 -0.009818 -0.000001 0.028406 0.000000
# 6 0.000000 -0.000001 0.000000 -0.004799 0.000000 0.062343
#
#
# Mechanical properties :
#
#
# Convention : Reuss Voigt Hill
#
# Bulk Modulus (GPa) = 27.45168 38.59058 33.02113
# Shear Modulus (GPa) = 25.28015 33.59804 29.43910
#
# Velocity S-wave (km/s) = 3.18301 3.66949 3.43487
# Velocity P-wave (km/s) = 4.95082 5.78097 5.38192
#
# Compressibility (1/GPa) = 0.03642765
#
# Stress axis : x y z
#
# Youngs Moduli (GPa) = 89.62894 82.58428 53.43816
#
# Poissons Ratio (x) = -0.04308 0.19734
# Poissons Ratio (y) = -0.04675 -0.02114
# Poissons Ratio (z) = 0.33099 -0.03266
#
# Static dielectric constant tensor:
#      x y z
#    x 2.088430 0.000000 0.110150 
#    y 0.000000 1.987390 0.000000 
#    z 0.110150 0.000000 2.055180 
# 
# From -- ./inp_files/238396.got.cif
#   From: 2010.05.17/outbox.cif.g08.bks.cpg/sg12_120_cif.got.tgz:238396.got - 2010.06.03 13:09:07.
