data_PCOD9204261
_publ_section_title
;
Structure prediction by ZEFSAII (Michael W. Deem and Ramdas Pophale) SiO2 
 PCOD9204261
Probable space group: C 2/M
;
_chemical_formula_sum "Si O2"
_cell_formula_units_Z 48
_cell_length_a 12.366311
_cell_length_b 16.011237
_cell_length_c 12.503225
_cell_angle_alpha 90.000000
_cell_angle_beta 71.352023
_cell_angle_gamma 90.000000
_cell_volume 2345.669234
_symmetry_space_group_name_H-M "C 2/M"
_symmetry_group_IT_number 12
_symmetry_cell_setting 'monoclinic'
loop_
_space_group_symop_operation_xyz
x,y,z
-x,y,-z
-x,-y,-z
x,-y,z
1/2+x,1/2+y,z
1/2-x,1/2+y,-z
1/2-x,1/2-y,-z
1/2+x,1/2-y,z
loop_
_atom_site_type_symbol
_atom_site_label
_atom_site_fract_x
_atom_site_fract_y
_atom_site_fract_z
Si Si1 0.118941 0.403033 0.720798
Si Si2 0.251973 0.167242 0.135536
Si Si3 0.727848 0.651954 0.764844
Si Si4 0.886038 0.595953 0.897290
Si Si5 0.635207 0.901553 0.479231
Si Si6 0.979942 0.098857 0.880837
O O1 0.091140 0.500000 0.708628
O O2 0.216333 0.394524 0.777747
O O3 0.152137 0.368638 0.594565
O O4 0.002856 0.368269 0.810374
O O5 0.269263 0.257597 0.181204
O O6 0.126025 0.150316 0.131294
O O7 0.337985 0.148767 0.010819
O O8 0.793206 0.595708 0.831965
O O9 0.797139 0.647224 0.633097
O O10 0.599353 0.621529 0.788329
O O11 0.904193 0.500000 0.927976
O O12 0.500000 0.897435 0.500000
O O13 0.668884 0.000000 0.461032
O O14 0.954606 0.000000 0.878472
O O15 0.000000 0.116577 0.000000
#
# Coordination Sequence:
#
# PCOD9204261 Si02
#       6
#     8   8   8   8   8   8
#     4  10  22  40  68  98 128 168 220 278 330 384
#     4  12  26  40  63  96 141 172 210 271 341 392
#     4  12  25  39  65  98 133 170 220 275 322 384
#     4  11  21  40  68  96 127 166 215 273 325 390
#     4  10  20  40  69  96 125 169 226 275 318 385
#     4  11  24  42  65  91 130 182 224 259 319 410
#
# _framework density 20.463244
#
# number of rings (size 3 to 8) (size 9 to 14) (size 15 to 20)
#    0.000    1.000    3.333    4.000    2.333    2.000 
#    0.000    0.833    0.000    3.000    0.000    0.000 
#    0.000    0.000    0.000    0.000    0.000    0.000 
#
# Total GULP energy -134229.442009 kJ/mol
# GULP energy per Si atom -5592.893417 kJ/mol
# Density = 2.041667 g / cm^3
# Si number density = 20.463244 Si / 1000 Ang^3
#
#
#
# Elastic Constant Matrix: (Units=GPa)
#
#
# Indices 1 2 3 4 5 6 
#
# 1 53.5316 15.0920 46.9989 0.0000 8.8927 0.0000
# 2 15.0920 54.3184 41.4655 0.0000 -9.9119 0.0000
# 3 46.9989 41.4655 188.7459 0.0000 -2.4015 0.0000
# 4 0.0000 0.0000 0.0000 29.1848 0.0000 -3.0902
# 5 8.8927 -9.9119 -2.4015 0.0000 31.1036 0.0000
# 6 0.0000 0.0000 0.0000 -3.0902 0.0000 13.9582
#
#
#
# Elastic Compliance Matrix: (Units=1/GPa)
#
#
# Indices 1 2 3 4 5 6 
#
# 1 0.026628 -0.004797 -0.005699 0.000000 -0.009582 0.000000
# 2 -0.004797 0.024463 -0.004067 0.000000 0.008853 0.000000
# 3 -0.005699 -0.004067 0.007622 0.000000 0.000922 0.000000
# 4 0.000000 0.000000 0.000000 0.035087 0.000000 0.007768
# 5 -0.009582 0.008853 0.000922 0.000000 0.037782 0.000000
# 6 0.000000 0.000000 0.000000 0.007768 0.000000 0.073362
#
#
# Mechanical properties :
#
#
# Convention : Reuss Voigt Hill
#
# Bulk Modulus (GPa) = 33.79719 55.96764 44.88242
# Shear Modulus (GPa) = 20.49751 27.71863 24.10807
#
# Velocity S-wave (km/s) = 3.16836 3.68442 3.43609
# Velocity P-wave (km/s) = 5.47143 6.74609 6.14191
#
# Compressibility (1/GPa) = 0.02958825
#
# Stress axis : x y z
#
# Youngs Moduli (GPa) = 37.55478 40.87811 131.19255
#
# Poissons Ratio (x) = 0.19607 0.74762
# Poissons Ratio (y) = 0.18013 0.53359
# Poissons Ratio (z) = 0.21401 0.16626
#
# Static dielectric constant tensor:
#      x y z
#    x 1.720120 0.000000 0.001520 
#    y 0.000000 1.775360 0.000000 
#    z 0.001520 0.000000 1.725280 
# 
# From -- ./inp_files/131671.got.cif
#   From: 2010.05.17/outbox.cif.g08.bks.cpg/sg12_66_cif.got.tgz:131671.got - 2010.06.03 13:09:07.
