data_PCOD9204643
_publ_section_title
;
Structure prediction by ZEFSAII (Michael W. Deem and Ramdas Pophale) SiO2 
 PCOD9204643
Probable space group: C 2/M
;
_chemical_formula_sum "Si O2"
_cell_formula_units_Z 48
_cell_length_a 14.506288
_cell_length_b 24.071598
_cell_length_c 10.726653
_cell_angle_alpha 90.000000
_cell_angle_beta 47.845899
_cell_angle_gamma 90.000000
_cell_volume 2776.798255
_symmetry_space_group_name_H-M "C 2/M"
_symmetry_group_IT_number 12
_symmetry_cell_setting 'monoclinic'
loop_
_space_group_symop_operation_xyz
x,y,z
-x,y,-z
-x,-y,-z
x,-y,z
1/2+x,1/2+y,z
1/2-x,1/2+y,-z
1/2-x,1/2-y,-z
1/2+x,1/2-y,z
loop_
_atom_site_type_symbol
_atom_site_label
_atom_site_fract_x
_atom_site_fract_y
_atom_site_fract_z
Si Si1 0.188662 0.436981 0.734659
Si Si2 0.107237 0.242979 0.670977
Si Si3 0.380594 0.181633 0.834688
Si Si4 0.403943 0.936619 0.902607
Si Si5 0.888367 0.847163 0.518998
Si Si6 0.780353 0.738149 0.176588
O O1 0.230800 0.500000 0.674292
O O2 0.282589 0.392629 0.593177
O O3 0.049557 0.431643 0.807087
O O4 0.172063 0.429313 0.898936
O O5 0.250000 0.250000 0.500000
O O6 0.433793 0.315226 0.353666
O O7 0.119082 0.246808 0.809112
O O8 0.017775 0.291103 0.699435
O O9 0.377077 0.115270 0.838644
O O10 0.288985 0.208688 0.817413
O O11 0.336872 0.203911 0.010215
O O12 0.382664 0.000000 0.877542
O O13 0.823504 0.800120 0.663550
O O14 0.000000 0.871116 0.500000
#
# Coordination Sequence:
#
# PCOD9204643 Si02
#       6
#     8   8   8   8   8   8
#     4   9  18  31  49  74  99 129 167 206 255 298
#     4  10  21  31  48  72 102 136 163 205 252 300
#     4  11  19  33  52  74 104 132 171 209 248 306
#     4   9  17  30  51  74  97 127 165 212 252 292
#     4  11  19  34  48  71 105 132 169 204 249 309
#     4  10  21  32  49  73 101 139 168 205 253 296
#
# _framework density 17.286095
#
# number of rings (size 3 to 8) (size 9 to 14) (size 15 to 20)
#    0.000    2.000    3.333    3.500    2.333    0.333 
#    0.000    0.000    0.000    1.000    0.000   10.500 
#    0.000    7.000    0.000    0.167    0.000    0.000 
#
# Total GULP energy -133760.817220 kJ/mol
# GULP energy per Si atom -5573.367384 kJ/mol
# Density = 1.724675 g / cm^3
# Si number density = 17.286095 Si / 1000 Ang^3
#
#
#
# Elastic Constant Matrix: (Units=GPa)
#
#
# Indices 1 2 3 4 5 6 
#
# 1 40.7279 14.9651 -6.0554 0.0000 0.3540 0.0000
# 2 14.9651 125.1342 5.9809 0.0000 -0.8668 0.0000
# 3 -6.0554 5.9809 29.2360 0.0000 -4.2047 0.0000
# 4 0.0000 0.0000 0.0000 17.3151 0.0000 -5.3871
# 5 0.3540 -0.8668 -4.2047 0.0000 13.7192 0.0000
# 6 0.0000 0.0000 0.0000 -5.3871 0.0000 24.3158
#
#
#
# Elastic Compliance Matrix: (Units=1/GPa)
#
#
# Indices 1 2 3 4 5 6 
#
# 1 0.026785 -0.003503 0.006416 0.000000 0.001054 0.000000
# 2 -0.003503 0.008528 -0.002489 0.000000 -0.000134 0.000000
# 3 0.006416 -0.002489 0.037656 0.000000 0.011218 0.000000
# 4 0.000000 0.000000 0.000000 0.062029 0.000000 0.013742
# 5 0.001054 -0.000134 0.011218 0.000000 0.076293 0.000000
# 6 0.000000 0.000000 0.000000 0.013742 0.000000 0.044170
#
#
# Mechanical properties :
#
#
# Convention : Reuss Voigt Hill
#
# Bulk Modulus (GPa) = 13.54701 24.98659 19.26680
# Shear Modulus (GPa) = 17.90708 23.08384 20.49546
#
# Velocity S-wave (km/s) = 3.22207 3.65828 3.44708
# Velocity P-wave (km/s) = 4.65792 5.68596 5.19742
#
# Compressibility (1/GPa) = 0.07381701
#
# Stress axis : x y z
#
# Youngs Moduli (GPa) = 37.33439 117.25577 26.55621
#
# Poissons Ratio (x) = 0.41070 -0.17038
# Poissons Ratio (y) = 0.13077 0.06611
# Poissons Ratio (z) = -0.23953 0.29190
#
# Static dielectric constant tensor:
#      x y z
#    x 1.609090 0.000000 0.001210 
#    y 0.000000 1.591470 0.000000 
#    z 0.001210 0.000000 1.623830 
# 
# From -- ./inp_files/148272.got.cif
#   From: 2010.05.17/outbox.cif.g08.bks.cpg/sg12_75_cif.got.tgz:148272.got - 2010.06.03 13:09:07.
