data_PCOD9204669
_publ_section_title
;
Structure prediction by ZEFSAII (Michael W. Deem and Ramdas Pophale) SiO2 
 PCOD9204669
Probable space group: C 2/M
;
_chemical_formula_sum "Si O2"
_cell_formula_units_Z 52
_cell_length_a 17.006829
_cell_length_b 22.899961
_cell_length_c 16.260484
_cell_angle_alpha 90.000000
_cell_angle_beta 26.350027
_cell_angle_gamma 90.000000
_cell_volume 2810.809905
_symmetry_space_group_name_H-M "C 2/M"
_symmetry_group_IT_number 12
_symmetry_cell_setting 'monoclinic'
loop_
_space_group_symop_operation_xyz
x,y,z
-x,y,-z
-x,-y,-z
x,-y,z
1/2+x,1/2+y,z
1/2-x,1/2+y,-z
1/2-x,1/2-y,-z
1/2+x,1/2-y,z
loop_
_atom_site_type_symbol
_atom_site_label
_atom_site_fract_x
_atom_site_fract_y
_atom_site_fract_z
Si Si1 0.636458 0.767421 0.303287
Si Si2 0.500000 0.790417 0.000000
Si Si3 0.700858 0.685603 0.007570
Si Si4 0.806126 0.566013 0.991644
Si Si5 0.620150 0.299461 0.585025
Si Si6 0.385371 0.128160 0.230116
Si Si7 0.313084 0.564554 0.719880
O O1 0.500000 0.790509 0.500000
O O2 0.513978 0.724220 0.361039
O O3 0.808616 0.740476 0.186867
O O4 0.731412 0.809590 0.148943
O O5 0.484162 0.821232 0.924570
O O6 0.498002 0.679839 0.227190
O O7 0.750000 0.750000 0.000000
O O8 0.784963 0.624740 0.959399
O O9 0.779709 0.500000 0.983681
O O10 0.004868 0.573584 0.840210
O O11 0.679552 0.573925 0.190017
O O12 0.750000 0.250000 0.500000
O O13 0.743774 0.347902 0.426695
O O14 0.299861 0.110914 0.223317
O O15 0.500000 0.565161 0.500000
O O16 0.233941 0.500000 0.783623
#
# Coordination Sequence:
#
# PCOD9204669 Si02
#       7
#     8   4   8   8   8   8   8
#     4  11  23  39  60  88 125 157 205 258 312 368
#     4  12  22  34  57  92 123 158 208 246 304 362
#     4  10  22  38  60  86 118 154 203 253 304 363
#     4  11  22  39  56  81 121 165 203 253 310 369
#     4  11  22  37  58  88 127 164 202 259 315 361
#     4  12  20  31  55  78 119 160 207 238 295 360
#     4  10  21  32  47  74 109 153 202 239 283 354
#
# _framework density 18.500005000000002
#
# number of rings (size 3 to 8) (size 9 to 14) (size 15 to 20)
#    0.000    1.077    3.077    6.000    2.154    1.231 
#    0.000    0.769    0.000    0.462    0.000    0.538 
#    0.000    0.000    0.000    0.000    0.000    0.000 
#
# Total GULP energy -144749.326084 kJ/mol
# GULP energy per Si atom -5567.281772 kJ/mol
# Density = 1.845790 g / cm^3
# Si number density = 18.500005 Si / 1000 Ang^3
#
#
#
# Elastic Constant Matrix: (Units=GPa)
#
#
# Indices 1 2 3 4 5 6 
#
# 1 42.2111 26.2034 13.1740 0.0079 -0.7774 -0.0075
# 2 26.2034 84.4868 24.5886 -0.0060 11.6279 -0.0058
# 3 13.1740 24.5886 150.6055 0.0008 19.8271 -0.0139
# 4 0.0079 -0.0060 0.0008 24.6016 -0.0099 0.7737
# 5 -0.7774 11.6279 19.8271 -0.0099 30.4781 0.0139
# 6 -0.0075 -0.0058 -0.0139 0.7737 0.0139 25.3574
#
#
#
# Elastic Compliance Matrix: (Units=1/GPa)
#
#
# Indices 1 2 3 4 5 6 
#
# 1 0.030362 -0.009664 -0.001821 -0.000010 0.005646 0.000003
# 2 -0.009664 0.015905 -0.001006 0.000005 -0.005660 0.000003
# 3 -0.001821 -0.001006 0.007567 -0.000002 -0.004585 0.000006
# 4 -0.000010 0.000005 -0.000002 0.040687 0.000013 -0.001241
# 5 0.005646 -0.005660 -0.004585 0.000013 0.038097 -0.000023
# 6 0.000003 0.000003 0.000006 -0.001241 -0.000023 0.039474
#
#
# Mechanical properties :
#
#
# Convention : Reuss Voigt Hill
#
# Bulk Modulus (GPa) = 34.66044 45.02616 39.84330
# Shear Modulus (GPa) = 24.19064 30.30992 27.25028
#
# Velocity S-wave (km/s) = 3.62000 4.05207 3.84212
# Velocity P-wave (km/s) = 6.02068 6.80321 6.42387
#
# Compressibility (1/GPa) = 0.02885133
#
# Stress axis : x y z
#
# Youngs Moduli (GPa) = 32.93615 62.87266 132.15050
#
# Poissons Ratio (x) = 0.60758 0.24070
# Poissons Ratio (y) = 0.31828 0.13299
# Poissons Ratio (z) = 0.05999 0.06327
#
# Static dielectric constant tensor:
#      x y z
#    x 1.702390 -0.000010 -0.022430 
#    y -0.000010 1.742600 0.000010 
#    z -0.022430 0.000010 1.689430 
# 
# From -- ./inp_files/227884.got.cif
#   From: 2010.05.17/outbox.cif.g08.bks.cpg/sg12_114_cif.got.tgz:227884.got - 2010.06.03 13:09:07.
