data_PCOD9204422
_publ_section_title
;
Structure prediction by ZEFSAII (Michael W. Deem and Ramdas Pophale) SiO2 
 PCOD9204422
Probable space group: C 2/M
;
_chemical_formula_sum "Si O2"
_cell_formula_units_Z 64
_cell_length_a 18.633754
_cell_length_b 31.576583
_cell_length_c 14.379926
_cell_angle_alpha 90.000000
_cell_angle_beta 157.136365
_cell_angle_gamma 90.000000
_cell_volume 3287.433592
_symmetry_space_group_name_H-M "C 2/M"
_symmetry_group_IT_number 12
_symmetry_cell_setting 'monoclinic'
loop_
_space_group_symop_operation_xyz
x,y,z
-x,y,-z
-x,-y,-z
x,-y,z
1/2+x,1/2+y,z
1/2-x,1/2+y,-z
1/2-x,1/2-y,-z
1/2+x,1/2-y,z
loop_
_atom_site_type_symbol
_atom_site_label
_atom_site_fract_x
_atom_site_fract_y
_atom_site_fract_z
Si Si1 0.622966 0.379467 0.737990
Si Si2 0.241005 0.414197 0.613164
Si Si3 0.181419 0.294400 0.998338
Si Si4 0.865393 0.949370 0.958514
Si Si5 0.966089 0.187322 0.671041
Si Si6 0.654106 0.950532 0.899414
Si Si7 0.219424 0.314313 0.556307
Si Si8 0.707482 0.239888 0.225064
O O1 0.500000 0.383406 0.500000
O O2 0.499320 0.360750 0.675687
O O3 0.771106 0.341422 0.903431
O O4 0.728418 0.421622 0.891196
O O5 0.430314 0.429294 0.789889
O O6 0.212156 0.363889 0.570311
O O7 0.058962 0.436697 0.356891
O O8 0.270965 0.428338 0.755840
O O9 0.168345 0.208251 0.904660
O O10 0.973133 0.296262 0.714359
O O11 0.229474 0.264243 0.141555
O O12 0.882817 0.000000 0.963687
O O13 0.741583 0.942903 0.901593
O O14 0.870791 0.191812 0.655993
O O15 0.845094 0.210110 0.447301
O O16 0.670186 0.000000 0.939583
O O17 0.267912 0.286670 0.704102
O O18 0.500000 0.225615 0.000000
#
# Coordination Sequence:
#
# PCOD9204422 Si02
#       8
#     8   8   8   8   8   8   8   8
#     4  10  20  41  68  91 122 169 222 258 321 387
#     4  11  21  39  63  92 130 171 209 257 325 389
#     4  10  22  46  64  87 124 171 216 260 331 384
#     4  10  22  39  63  93 130 172 211 255 324 400
#     4  10  21  43  63  87 121 169 213 265 316 388
#     4  11  22  39  65  98 132 167 213 268 321 389
#     4  12  25  40  63  96 126 164 219 276 320 382
#     4  12  24  41  64  93 125 164 216 271 326 380
#
# _framework density 19.468074000000001
#
# number of rings (size 3 to 8) (size 9 to 14) (size 15 to 20)
#    0.750    0.500    3.750    3.375    1.750    1.750 
#    2.250    2.500    0.000    0.000    0.000    3.500 
#    0.000    0.000    0.000    0.000    0.000    0.000 
#
# Total GULP energy -178775.742052 kJ/mol
# GULP energy per Si atom -5586.741939 kJ/mol
# Density = 1.942376 g / cm^3
# Si number density = 19.468074 Si / 1000 Ang^3
#
#
#
# Elastic Constant Matrix: (Units=GPa)
#
#
# Indices 1 2 3 4 5 6 
#
# 1 83.0140 46.0310 36.5135 0.0000 -3.7465 -0.0001
# 2 46.0310 106.9214 61.4480 0.0000 -10.3527 0.0000
# 3 36.5135 61.4480 97.1430 0.0001 4.8206 0.0000
# 4 0.0000 0.0000 0.0001 26.0156 0.0001 -5.4995
# 5 -3.7465 -10.3527 4.8206 0.0001 27.3930 0.0000
# 6 -0.0001 0.0000 0.0000 -5.4995 0.0000 24.3166
#
#
#
# Elastic Compliance Matrix: (Units=1/GPa)
#
#
# Indices 1 2 3 4 5 6 
#
# 1 0.016256 -0.005342 -0.002765 0.000000 0.000691 0.000000
# 2 -0.005342 0.018032 -0.009786 0.000000 0.007806 0.000000
# 3 -0.002765 -0.009786 0.017882 0.000000 -0.007223 0.000000
# 4 0.000000 0.000000 0.000000 0.040369 0.000000 0.009130
# 5 0.000691 0.007806 -0.007223 0.000000 0.040822 0.000000
# 6 0.000000 0.000000 0.000000 0.009130 0.000000 0.043189
#
#
# Mechanical properties :
#
#
# Convention : Reuss Voigt Hill
#
# Bulk Modulus (GPa) = 61.03629 63.89594 62.46611
# Shear Modulus (GPa) = 22.95717 25.08410 24.02064
#
# Velocity S-wave (km/s) = 3.43770 3.59343 3.51643
# Velocity P-wave (km/s) = 6.86856 7.07878 6.97446
#
# Compressibility (1/GPa) = 0.01638370
#
# Stress axis : x y z
#
# Youngs Moduli (GPa) = 61.51618 55.45590 55.92254
#
# Poissons Ratio (x) = 0.29626 0.15463
# Poissons Ratio (y) = 0.32864 0.54724
# Poissons Ratio (z) = 0.17010 0.54268
#
# Static dielectric constant tensor:
#      x y z
#    x 1.689750 0.000000 0.024350 
#    y 0.000000 1.694610 0.000000 
#    z 0.024350 0.000000 1.654910 
# 
# From -- ./inp_files/236008.got.cif
#   From: 2010.05.17/outbox.cif.g08.bks.cpg/sg12_119_cif.got.tgz:236008.got - 2010.06.03 13:09:07.
