data_PCOD9204421
_publ_section_title
;
Structure prediction by ZEFSAII (Michael W. Deem and Ramdas Pophale) SiO2 
 PCOD9204421
Probable space group: C 2/M
;
_chemical_formula_sum "Si O2"
_cell_formula_units_Z 56
_cell_length_a 19.649038
_cell_length_b 28.341123
_cell_length_c 9.305904
_cell_angle_alpha 90.000000
_cell_angle_beta 34.088617
_cell_angle_gamma 90.000000
_cell_volume 2904.509171
_symmetry_space_group_name_H-M "C 2/M"
_symmetry_group_IT_number 12
_symmetry_cell_setting 'monoclinic'
loop_
_space_group_symop_operation_xyz
x,y,z
-x,y,-z
-x,-y,-z
x,-y,z
1/2+x,1/2+y,z
1/2-x,1/2+y,-z
1/2-x,1/2-y,-z
1/2+x,1/2-y,z
loop_
_atom_site_type_symbol
_atom_site_label
_atom_site_fract_x
_atom_site_fract_y
_atom_site_fract_z
Si Si1 0.831927 0.346851 0.631307
Si Si2 0.587169 0.602192 0.483420
Si Si3 0.683444 0.841341 0.003309
Si Si4 0.137058 0.000000 0.333036
Si Si5 0.484963 0.759971 0.691251
Si Si6 0.048811 0.166861 0.073452
Si Si7 0.006212 0.589501 0.160307
Si Si8 0.913238 0.500000 0.792126
O O1 0.843220 0.356223 0.783947
O O2 0.914246 0.300490 0.457873
O O3 0.883131 0.389988 0.447206
O O4 0.693267 0.337024 0.836544
O O5 0.500000 0.598329 0.500000
O O6 0.641728 0.549838 0.409095
O O7 0.511057 0.621422 0.748247
O O8 0.683866 0.641943 0.269613
O O9 0.644385 0.786868 0.064054
O O10 0.600911 0.869304 0.034442
O O11 0.000000 0.000000 0.500000
O O12 0.266237 0.000000 0.018674
O O13 0.500000 0.745597 0.500000
O O14 0.491956 0.714383 0.775214
O O15 0.000000 0.169768 0.000000
O O16 0.052024 0.544835 0.170601
O O17 0.000000 0.581620 0.000000
O O18 0.000000 0.500000 0.500000
#
# Coordination Sequence:
#
# PCOD9204421 Si02
#       8
#     8   8   8   4   8   8   8   4
#     4  10  23  43  63  92 127 169 227 268 328 403
#     4  11  22  42  68  95 129 171 223 272 328 399
#     4  10  20  41  68  89 124 167 220 266 324 394
#     4  10  24  41  71 105 129 169 226 280 336 387
#     4   9  22  40  63  92 122 171 218 275 327 391
#     4  12  27  40  61  96 134 176 221 274 338 405
#     4  11  24  40  64  94 130 168 209 279 345 394
#     4  12  23  41  70  99 130 173 232 281 333 405
#
# _framework density 19.280366999999998
#
# number of rings (size 3 to 8) (size 9 to 14) (size 15 to 20)
#    0.000    1.429    2.857    2.786    4.000    4.000 
#    0.000    0.357    0.000    0.000    0.000    0.000 
#    0.000    0.000    0.000    0.000    0.000    0.000 
#
# Total GULP energy -156226.649609 kJ/mol
# GULP energy per Si atom -5579.523200 kJ/mol
# Density = 1.923648 g / cm^3
# Si number density = 19.280367 Si / 1000 Ang^3
#
#
#
# Elastic Constant Matrix: (Units=GPa)
#
#
# Indices 1 2 3 4 5 6 
#
# 1 97.9014 37.1940 48.1580 0.0000 14.1585 0.0000
# 2 37.1940 86.8986 46.4950 0.0000 8.4838 0.0000
# 3 48.1580 46.4950 105.4306 0.0000 -15.6188 0.0000
# 4 0.0000 0.0000 0.0000 18.1842 0.0000 -1.1072
# 5 14.1585 8.4838 -15.6188 0.0000 30.9464 0.0000
# 6 0.0000 0.0000 0.0000 -1.1072 0.0000 18.5012
#
#
#
# Elastic Compliance Matrix: (Units=1/GPa)
#
#
# Indices 1 2 3 4 5 6 
#
# 1 0.016746 -0.001303 -0.008815 0.000000 -0.011753 0.000000
# 2 -0.001303 0.017301 -0.008267 0.000000 -0.008319 0.000000
# 3 -0.008815 -0.008267 0.019552 0.000000 0.016168 0.000000
# 4 0.000000 0.000000 0.000000 0.055194 0.000000 0.003303
# 5 -0.011753 -0.008319 0.016168 0.000000 0.048132 0.000000
# 6 0.000000 0.000000 0.000000 0.003303 0.000000 0.054248
#
#
# Mechanical properties :
#
#
# Convention : Reuss Voigt Hill
#
# Bulk Modulus (GPa) = 59.42520 61.54717 60.48619
# Shear Modulus (GPa) = 19.71977 24.08526 21.90252
#
# Velocity S-wave (km/s) = 3.20158 3.53825 3.37412
# Velocity P-wave (km/s) = 6.67498 6.97738 6.82785
#
# Compressibility (1/GPa) = 0.01682788
#
# Stress axis : x y z
#
# Youngs Moduli (GPa) = 59.71738 57.80094 51.14483
#
# Poissons Ratio (x) = 0.07533 0.45086
# Poissons Ratio (y) = 0.07783 0.42280
# Poissons Ratio (z) = 0.52643 0.47783
#
# Static dielectric constant tensor:
#      x y z
#    x 1.651570 0.000000 -0.042590 
#    y 0.000000 1.694110 0.000000 
#    z -0.042590 0.000000 1.703630 
# 
# From -- ./inp_files/80055.got.cif
#   From: 2010.05.17/outbox.cif.g08.bks.cpg/sg12_41_cif.got.tgz:80055.got - 2010.06.03 13:09:07.
