data_PCOD9204564
_publ_section_title
;
Structure prediction by ZEFSAII (Michael W. Deem and Ramdas Pophale) SiO2 
 PCOD9204564
Probable space group: C 2/M
;
_chemical_formula_sum "Si O2"
_cell_formula_units_Z 36
_cell_length_a 19.404911
_cell_length_b 12.916324
_cell_length_c 9.393959
_cell_angle_alpha 90.000000
_cell_angle_beta 38.617837
_cell_angle_gamma 90.000000
_cell_volume 1469.499151
_symmetry_space_group_name_H-M "C 2/M"
_symmetry_group_IT_number 12
_symmetry_cell_setting 'monoclinic'
loop_
_space_group_symop_operation_xyz
x,y,z
-x,y,-z
-x,-y,-z
x,-y,z
1/2+x,1/2+y,z
1/2-x,1/2+y,-z
1/2-x,1/2-y,-z
1/2+x,1/2-y,z
loop_
_atom_site_type_symbol
_atom_site_label
_atom_site_fract_x
_atom_site_fract_y
_atom_site_fract_z
Si Si1 0.139208 0.000000 0.204664
Si Si2 0.399896 0.709728 0.560614
Si Si3 0.326055 0.681807 0.078936
Si Si4 0.844341 0.881960 0.375941
Si Si5 0.389789 0.884503 0.084824
O O1 0.131955 0.092658 0.337657
O O2 0.140107 0.091774 0.081152
O O3 0.500000 0.739347 0.500000
O O4 0.303061 0.792591 0.735708
O O5 0.412667 0.691800 0.370708
O O6 0.347288 0.649804 0.207586
O O7 0.377816 0.796662 0.985862
O O8 0.717940 0.875660 0.638611
O O9 0.882582 0.000000 0.324605
O O10 0.388174 0.000000 0.024092
O O11 0.500000 0.874256 0.000000
#
# Coordination Sequence:
#
# PCOD9204564 Si02
#       5
#     4   8   8   8   8
#     4  12  25  42  64 102 140 172 216 282 350 392
#     4  11  24  45  68  96 137 184 220 270 342 412
#     4  11  24  43  70  98 133 176 231 278 332 397
#     4  10  20  42  72  92 126 173 228 274 324 392
#     4   9  19  37  63  97 127 167 221 277 330 382
#
# _framework density 24.498142000000001
#
# number of rings (size 3 to 8) (size 9 to 14) (size 15 to 20)
#    0.000    1.556    2.222    3.667    1.556    3.556 
#    0.000    2.222    0.000    0.000    0.000    0.000 
#    0.000    0.000    0.000    0.000    0.000    0.000 
#
# Total GULP energy -100320.588793 kJ/mol
# GULP energy per Si atom -5573.366044 kJ/mol
# Density = 2.444238 g / cm^3
# Si number density = 24.498142 Si / 1000 Ang^3
#
#
#
# Elastic Constant Matrix: (Units=GPa)
#
#
# Indices 1 2 3 4 5 6 
#
# 1 157.8466 25.6101 49.2638 0.0000 11.6417 0.0000
# 2 25.6101 126.3606 31.9764 0.0000 14.3679 0.0000
# 3 49.2638 31.9764 70.6835 0.0000 28.2772 0.0000
# 4 0.0000 0.0000 0.0000 26.3552 0.0000 16.5268
# 5 11.6417 14.3679 28.2772 0.0000 48.3735 0.0000
# 6 0.0000 0.0000 0.0000 16.5268 0.0000 39.2724
#
#
#
# Elastic Compliance Matrix: (Units=1/GPa)
#
#
# Indices 1 2 3 4 5 6 
#
# 1 0.008221 -0.000270 -0.006328 0.000000 0.001801 0.000000
# 2 -0.000270 0.008951 -0.003686 0.000000 -0.000439 0.000000
# 3 -0.006328 -0.003686 0.025032 0.000000 -0.012015 0.000000
# 4 0.000000 0.000000 0.000000 0.051546 0.000000 -0.021692
# 5 0.001801 -0.000439 -0.012015 0.000000 0.027393 0.000000
# 6 0.000000 0.000000 0.000000 -0.021692 0.000000 0.034592
#
#
# Mechanical properties :
#
#
# Convention : Reuss Voigt Hill
#
# Bulk Modulus (GPa) = 46.21668 63.17681 54.69674
# Shear Modulus (GPa) = 27.24573 39.33625 33.29099
#
# Velocity S-wave (km/s) = 3.33852 4.01144 3.69035
# Velocity P-wave (km/s) = 5.81096 6.87750 6.36660
#
# Compressibility (1/GPa) = 0.02163721
#
# Stress axis : x y z
#
# Youngs Moduli (GPa) = 121.63564 111.71745 39.94830
#
# Poissons Ratio (x) = 0.03012 0.25281
# Poissons Ratio (y) = 0.03279 0.14724
# Poissons Ratio (z) = 0.76976 0.41177
#
# Static dielectric constant tensor:
#      x y z
#    x 1.970040 0.000000 -0.097110 
#    y 0.000000 1.901990 0.000000 
#    z -0.097110 0.000000 2.019790 
# 
# From -- ./inp_files/72787.got.cif
#   From: 2010.05.17/outbox.cif.g08.bks.cpg/sg12_37_cif.got.tgz:72787.got - 2010.06.03 13:09:07.
