data_PCOD9204618
_publ_section_title
;
Structure prediction by ZEFSAII (Michael W. Deem and Ramdas Pophale) SiO2 
 PCOD9204618
Probable space group: C 2/M
;
_chemical_formula_sum "Si O2"
_cell_formula_units_Z 48
_cell_length_a 5.673035
_cell_length_b 26.196490
_cell_length_c 14.239528
_cell_angle_alpha 90.000000
_cell_angle_beta 70.287644
_cell_angle_gamma 90.000000
_cell_volume 1992.174394
_symmetry_space_group_name_H-M "C 2/M"
_symmetry_group_IT_number 12
_symmetry_cell_setting 'monoclinic'
loop_
_space_group_symop_operation_xyz
x,y,z
-x,y,-z
-x,-y,-z
x,-y,z
1/2+x,1/2+y,z
1/2-x,1/2+y,-z
1/2-x,1/2-y,-z
1/2+x,1/2-y,z
loop_
_atom_site_type_symbol
_atom_site_label
_atom_site_fract_x
_atom_site_fract_y
_atom_site_fract_z
Si Si1 0.954706 0.306986 0.615852
Si Si2 0.102200 0.945958 0.091240
Si Si3 0.288715 0.939144 0.455670
Si Si4 0.589793 0.059111 0.222785
Si Si5 0.414937 0.147431 0.105216
Si Si6 0.604902 0.690672 0.311249
O O1 0.677064 0.331636 0.662089
O O2 0.935189 0.250391 0.662564
O O3 0.000000 0.300560 0.500000
O O4 0.205220 0.328746 0.632195
O O5 0.887512 0.942042 0.199016
O O6 0.251325 0.895079 0.076210
O O7 0.234296 0.000000 0.086531
O O8 0.000000 0.948097 0.000000
O O9 0.500000 0.917747 0.500000
O O10 0.412573 0.935170 0.335969
O O11 0.000000 0.920243 0.500000
O O12 0.270699 0.000000 0.479804
O O13 0.560426 0.107776 0.156660
O O14 0.548350 0.000000 0.194321
O O15 0.256676 0.182429 0.195573
O O16 0.500000 0.177597 0.000000
#
# Coordination Sequence:
#
# PCOD9204618 Si02
#       6
#     8   8   8   8   8   8
#     4  10  20  45  76 103 133 170 210 263 317 395
#     4  10  21  38  62  88 119 172 235 285 328 376
#     4   9  19  36  57  80 109 148 198 257 318 377
#     4  10  22  39  62  86 118 173 229 273 325 383
#     4  12  25  39  59  91 133 172 211 282 331 385
#     4  10  22  38  69 103 134 170 209 256 331 394
#
# _framework density 24.094275
#
# number of rings (size 3 to 8) (size 9 to 14) (size 15 to 20)
#    0.000    1.833    1.667    3.000    4.667    0.667 
#    0.000    6.667    0.000    0.000    0.000    0.000 
#    0.000    0.000    0.000    0.000    0.000    0.000 
#
# Total GULP energy -133734.019788 kJ/mol
# GULP energy per Si atom -5572.250824 kJ/mol
# Density = 2.403944 g / cm^3
# Si number density = 24.094275 Si / 1000 Ang^3
#
#
#
# Elastic Constant Matrix: (Units=GPa)
#
#
# Indices 1 2 3 4 5 6 
#
# 1 135.1048 -6.5186 36.6691 0.0000 -10.2111 0.0000
# 2 -6.5186 67.9792 7.8647 0.0000 -8.2420 0.0000
# 3 36.6691 7.8647 150.5472 0.0000 -28.2636 0.0000
# 4 0.0000 0.0000 0.0000 34.5060 0.0000 -6.9333
# 5 -10.2111 -8.2420 -28.2636 0.0000 37.6632 0.0000
# 6 0.0000 0.0000 0.0000 -6.9333 0.0000 20.8874
#
#
#
# Elastic Compliance Matrix: (Units=1/GPa)
#
#
# Indices 1 2 3 4 5 6 
#
# 1 0.008028 0.001108 -0.001815 0.000000 0.001057 0.000000
# 2 0.001108 0.015269 -0.000447 0.000000 0.003307 0.000000
# 3 -0.001815 -0.000447 0.008144 0.000000 0.005522 0.000000
# 4 0.000000 0.000000 0.000000 0.031051 0.000000 0.010307
# 5 0.001057 0.003307 0.005522 0.000000 0.031705 0.000000
# 6 0.000000 0.000000 0.000000 0.010307 0.000000 0.051297
#
#
# Mechanical properties :
#
#
# Convention : Reuss Voigt Hill
#
# Bulk Modulus (GPa) = 34.32411 47.74018 41.03215
# Shear Modulus (GPa) = 31.74333 39.65240 35.69786
#
# Velocity S-wave (km/s) = 3.63363 4.06115 3.85332
# Velocity P-wave (km/s) = 5.64633 6.46896 6.07159
#
# Compressibility (1/GPa) = 0.02913404
#
# Stress axis : x y z
#
# Youngs Moduli (GPa) = 124.57115 65.49137 122.78227
#
# Poissons Ratio (x) = -0.07256 0.22281
# Poissons Ratio (y) = -0.13801 0.05485
# Poissons Ratio (z) = 0.22606 0.02926
#
# Static dielectric constant tensor:
#      x y z
#    x 2.124660 0.000000 0.027010 
#    y 0.000000 1.965440 0.000000 
#    z 0.027010 0.000000 2.749810 
# 
# From -- ./inp_files/192327.got.cif
#   From: 2010.05.17/outbox.cif.g08.bks.cpg/sg12_97_cif.got.tgz:192327.got - 2010.06.03 13:09:07.
