data_PCOD9204512
_publ_section_title
;
Structure prediction by ZEFSAII (Michael W. Deem and Ramdas Pophale) SiO2 
 PCOD9204512
Probable space group: C 2/M
;
_chemical_formula_sum "Si O2"
_cell_formula_units_Z 44
_cell_length_a 8.071629
_cell_length_b 26.696558
_cell_length_c 11.209287
_cell_angle_alpha 90.000000
_cell_angle_beta 129.472458
_cell_angle_gamma 90.000000
_cell_volume 1864.543482
_symmetry_space_group_name_H-M "C 2/M"
_symmetry_group_IT_number 12
_symmetry_cell_setting 'monoclinic'
loop_
_space_group_symop_operation_xyz
x,y,z
-x,y,-z
-x,-y,-z
x,-y,z
1/2+x,1/2+y,z
1/2-x,1/2+y,-z
1/2-x,1/2-y,-z
1/2+x,1/2-y,z
loop_
_atom_site_type_symbol
_atom_site_label
_atom_site_fract_x
_atom_site_fract_y
_atom_site_fract_z
Si Si1 0.683644 0.921096 0.664570
Si Si2 0.500000 0.410363 0.000000
Si Si3 0.460487 0.733982 0.170867
Si Si4 0.745723 0.861989 0.110192
Si Si5 0.589437 0.808259 0.669648
Si Si6 0.946082 0.058526 0.337271
O O1 0.500000 0.946716 0.500000
O O2 0.592862 0.868267 0.669604
O O3 0.864392 0.914485 0.647394
O O4 0.823445 0.940444 0.840686
O O5 0.356920 0.379389 0.033828
O O6 0.382977 0.686101 0.212545
O O7 0.535489 0.781073 0.282847
O O8 0.668601 0.711988 0.201091
O O9 0.250000 0.750000 0.000000
O O10 0.748067 0.909205 0.201056
O O11 0.500000 0.845167 0.000000
O O12 0.500000 0.793064 0.500000
O O13 0.000000 0.061021 0.500000
O O14 0.932366 0.000000 0.297252
#
# Coordination Sequence:
#
# PCOD9204512 Si02
#       6
#     8   4   8   8   8   8
#     4  10  22  41  68  97 133 180 223 288 353 409
#     4  10  20  42  65  94 140 170 234 282 335 412
#     4  12  23  40  61  94 129 179 226 273 339 414
#     4  11  24  42  68 100 134 185 229 285 356 409
#     4  11  23  40  58  91 131 174 225 278 336 409
#     4  10  23  45  69  96 132 173 229 292 354 421
#
# _framework density 23.598269999999999
#
# number of rings (size 3 to 8) (size 9 to 14) (size 15 to 20)
#    0.000    1.273    3.636    3.273    2.545    1.455 
#    3.273    7.273    0.000    0.000    0.000    0.000 
#    0.000    0.000    0.000    0.000    0.000    0.000 
#
# Total GULP energy -122645.989174 kJ/mol
# GULP energy per Si atom -5574.817690 kJ/mol
# Density = 2.354456 g / cm^3
# Si number density = 23.598270 Si / 1000 Ang^3
#
#
#
# Elastic Constant Matrix: (Units=GPa)
#
#
# Indices 1 2 3 4 5 6 
#
# 1 50.0952 16.1555 4.0755 0.0000 -3.3720 0.0000
# 2 16.1555 128.0027 26.0555 0.0000 -18.2444 0.0000
# 3 4.0755 26.0555 153.0919 0.0000 -5.7301 0.0000
# 4 0.0000 0.0000 0.0000 -1.0743 0.0000 29.7463
# 5 -3.3720 -18.2444 -5.7301 0.0000 35.0495 0.0000
# 6 0.0000 0.0000 0.0000 29.7463 0.0000 85.6126
#
#
#
# Elastic Compliance Matrix: (Units=1/GPa)
#
#
# Indices 1 2 3 4 5 6 
#
# 1 0.020826 -0.002511 -0.000102 0.000000 0.000680 0.000000
# 2 -0.002511 0.008998 -0.001306 0.000000 0.004229 0.000000
# 3 -0.000102 -0.001306 0.006773 0.000000 0.000418 0.000000
# 4 0.000000 0.000000 0.000000 -0.087645 0.000000 0.030452
# 5 0.000680 0.004229 0.000418 0.000000 0.030866 0.000000
# 6 0.000000 0.000000 0.000000 0.030452 0.000000 0.001100
#
#
# Mechanical properties :
#
#
# Convention : Reuss Voigt Hill
#
# Bulk Modulus (GPa) = 34.77197 47.08474 40.92835
# Shear Modulus (GPa) = -3014.32743 42.91111 -1485.70816
#
# Velocity S-wave (km/s) = -35.77882 4.26890 -25.11872
# Velocity P-wave (km/s) = 41.13472 6.65537 28.70341
#
# Compressibility (1/GPa) = 0.02875880
#
# Stress axis : x y z
#
# Youngs Moduli (GPa) = 48.01739 111.13783 147.65208
#
# Poissons Ratio (x) = 0.27905 0.01500
# Poissons Ratio (y) = 0.12057 0.19287
# Poissons Ratio (z) = 0.00488 0.14518
#
# Static dielectric constant tensor:
#      x y z
#    x 1.964960 0.000000 0.022850 
#    y 0.000000 1.886220 0.000000 
#    z 0.022850 0.000000 2.057900 
# 
# From -- ./inp_files/124464.got.cif
#   From: 2010.05.17/outbox.cif.g08.bks.cpg/sg12_63_cif.got.tgz:124464.got - 2010.06.03 13:09:07.
