data_PCOD9204153
_publ_section_title
;
Structure prediction by ZEFSAII (Michael W. Deem and Ramdas Pophale) SiO2 
 PCOD9204153
Probable space group: C 2/M
;
_chemical_formula_sum "Si O2"
_cell_formula_units_Z 56
_cell_length_a 31.212224
_cell_length_b 9.004841
_cell_length_c 11.842256
_cell_angle_alpha 90.000000
_cell_angle_beta 119.185264
_cell_angle_gamma 90.000000
_cell_volume 2905.849336
_symmetry_space_group_name_H-M "C 2/M"
_symmetry_group_IT_number 12
_symmetry_cell_setting 'monoclinic'
loop_
_space_group_symop_operation_xyz
x,y,z
-x,y,-z
-x,-y,-z
x,-y,z
1/2+x,1/2+y,z
1/2-x,1/2+y,-z
1/2-x,1/2-y,-z
1/2+x,1/2-y,z
loop_
_atom_site_type_symbol
_atom_site_label
_atom_site_fract_x
_atom_site_fract_y
_atom_site_fract_z
Si Si1 0.752322 0.826641 0.183491
Si Si2 0.558430 0.675522 0.069032
Si Si3 0.487535 0.322476 0.614215
Si Si4 0.575793 0.823890 0.859024
Si Si5 0.673099 0.326665 0.928953
Si Si6 0.391502 0.677132 0.624674
Si Si7 0.213781 0.676824 0.544069
O O1 0.794960 0.816990 0.143829
O O2 0.768139 0.732969 0.311178
O O3 0.745401 0.000000 0.203424
O O4 0.703801 0.759655 0.063780
O O5 0.565249 0.500000 0.053200
O O6 0.583558 0.706605 0.221507
O O7 0.500000 0.702434 0.000000
O O8 0.579448 0.770150 0.993175
O O9 0.500000 0.289950 0.500000
O O10 0.494126 0.500000 0.640693
O O11 0.525196 0.236779 0.742608
O O12 0.432125 0.287383 0.581411
O O13 0.620387 0.747828 0.849623
O O14 0.578329 0.000000 0.854589
O O15 0.668039 0.500000 0.952114
O O16 0.381267 0.500000 0.605186
O O17 0.341429 0.765465 0.546147
O O18 0.215840 0.500000 0.538874
O O19 0.250000 0.750000 0.500000
#
# Coordination Sequence:
#
# PCOD9204153 Si02
#       7
#     8   8   8   8   8   8   8
#     4  10  22  43  68  94 124 159 209 264 318 378
#     4  10  20  40  66  89 120 161 208 255 305 371
#     4  10  22  42  67  94 127 169 215 258 312 381
#     4  12  25  38  60  94 132 165 206 259 310 371
#     4  10  22  41  67  94 125 165 207 256 316 379
#     4  10  22  42  67  94 125 165 214 266 319 376
#     4  12  27  45  66  92 129 170 214 264 319 381
#
# _framework density 19.271474000000001
#
# number of rings (size 3 to 8) (size 9 to 14) (size 15 to 20)
#    0.000    1.429    1.429    3.429    4.000    3.429 
#    0.000    0.000    0.000    0.000    0.000    0.000 
#    0.000    0.000    0.000    0.000    0.000    0.000 
#
# Total GULP energy -156586.168596 kJ/mol
# GULP energy per Si atom -5592.363164 kJ/mol
# Density = 1.922761 g / cm^3
# Si number density = 19.271474 Si / 1000 Ang^3
#
#
#
# Elastic Constant Matrix: (Units=GPa)
#
#
# Indices 1 2 3 4 5 6 
#
# 1 108.6665 73.8530 44.4686 0.0000 14.1428 0.0000
# 2 73.8530 116.0013 57.7739 0.0000 2.6196 0.0000
# 3 44.4686 57.7739 84.2377 0.0000 0.2761 0.0000
# 4 0.0000 0.0000 0.0000 24.9634 0.0000 4.5513
# 5 14.1428 2.6196 0.2761 0.0000 23.1181 0.0000
# 6 0.0000 0.0000 0.0000 4.5513 0.0000 29.7526
#
#
#
# Elastic Compliance Matrix: (Units=1/GPa)
#
#
# Indices 1 2 3 4 5 6 
#
# 1 0.018632 -0.010251 -0.002771 0.000000 -0.010203 0.000000
# 2 -0.010251 0.018777 -0.007480 0.000000 0.004233 0.000000
# 3 -0.002771 -0.007480 0.018457 0.000000 0.002323 0.000000
# 4 0.000000 0.000000 0.000000 0.041208 0.000000 -0.006304
# 5 -0.010203 0.004233 0.002323 0.000000 0.048991 0.000000
# 6 0.000000 0.000000 0.000000 -0.006304 0.000000 0.034575
#
#
# Mechanical properties :
#
#
# Convention : Reuss Voigt Hill
#
# Bulk Modulus (GPa) = 67.29661 73.45518 70.37590
# Shear Modulus (GPa) = 22.06545 24.42081 23.24313
#
# Velocity S-wave (km/s) = 3.38743 3.56364 3.47665
# Velocity P-wave (km/s) = 7.09194 7.42505 7.26041
#
# Compressibility (1/GPa) = 0.01485959
#
# Stress axis : x y z
#
# Youngs Moduli (GPa) = 53.67231 53.25615 54.18013
#
# Poissons Ratio (x) = 0.54594 0.15015
# Poissons Ratio (y) = 0.55021 0.40529
# Poissons Ratio (z) = 0.14874 0.39838
#
# Static dielectric constant tensor:
#      x y z
#    x 1.669960 0.000000 -0.012580 
#    y 0.000000 1.638390 0.000000 
#    z -0.012580 0.000000 1.644920 
# 
# From -- ./inp_files/187722.got.cif
#   From: 2010.05.17/outbox.cif.g08.bks.cpg/sg12_94_cif.got.tgz:187722.got - 2010.06.03 13:09:07.
