data_PCOD9204204
_publ_section_title
;
Structure prediction by ZEFSAII (Michael W. Deem and Ramdas Pophale) SiO2 
 PCOD9204204
Probable space group: C 2/M
;
_chemical_formula_sum "Si O2"
_cell_formula_units_Z 42
_cell_length_a 15.228713
_cell_length_b 9.498093
_cell_length_c 14.909732
_cell_angle_alpha 90.000000
_cell_angle_beta 57.397885
_cell_angle_gamma 90.000000
_cell_volume 1816.789345
_symmetry_space_group_name_H-M "C 2/M"
_symmetry_group_IT_number 12
_symmetry_cell_setting 'monoclinic'
loop_
_space_group_symop_operation_xyz
x,y,z
-x,y,-z
-x,-y,-z
x,-y,z
1/2+x,1/2+y,z
1/2-x,1/2+y,-z
1/2-x,1/2-y,-z
1/2+x,1/2-y,z
loop_
_atom_site_type_symbol
_atom_site_label
_atom_site_fract_x
_atom_site_fract_y
_atom_site_fract_z
Si Si1 0.217419 0.352315 0.403603
Si Si2 0.000000 0.000000 0.500000
Si Si3 0.431066 0.277885 0.385877
Si Si4 0.222480 0.657057 0.774600
Si Si5 0.825784 0.831170 0.026078
Si Si6 0.487213 0.158975 0.834515
O O1 0.210952 0.500000 0.356649
O O2 0.330870 0.344941 0.388798
O O3 0.127892 0.344112 0.526866
O O4 0.208724 0.218967 0.343289
O O5 0.979625 0.879548 0.432397
O O6 0.511052 0.222582 0.266621
O O7 0.255726 0.500000 0.785566
O O8 0.210100 0.770680 0.859016
O O9 0.107337 0.645082 0.796160
O O10 0.824761 0.000000 0.021716
O O11 0.750000 0.750000 0.000000
O O12 0.935441 0.765392 0.933472
O O13 0.441069 0.000000 0.863595
#
# Coordination Sequence:
#
# PCOD9204204 Si02
#       6
#     8   2   8   8   8   8
#     4  10  20  40  67  95 129 176 226 272 318 402
#     4  12  24  40  58 100 134 170 212 284 332 398
#     4  10  23  38  65  94 137 171 219 268 340 388
#     4  10  22  40  67  98 130 170 221 270 323 384
#     4  12  26  43  65  93 130 172 216 274 333 392
#     4  10  22  43  68  94 129 173 218 269 322 394
#
# _framework density 23.117705000000001
#
# number of rings (size 3 to 8) (size 9 to 14) (size 15 to 20)
#    0.000    1.524    0.952    3.429    2.667    7.619 
#    0.000    3.810    0.000    0.000    0.000    0.000 
#    0.000    0.000    0.000    0.000    0.000    0.000 
#
# Total GULP energy -117064.560629 kJ/mol
# GULP energy per Si atom -5574.502887 kJ/mol
# Density = 2.306509 g / cm^3
# Si number density = 23.117705 Si / 1000 Ang^3
#
#
#
# Elastic Constant Matrix: (Units=GPa)
#
#
# Indices 1 2 3 4 5 6 
#
# 1 44.6066 23.0337 13.2781 0.0000 10.8527 0.0000
# 2 23.0337 210.1922 53.5433 0.0000 14.6406 0.0000
# 3 13.2781 53.5433 105.7931 0.0000 14.2639 0.0000
# 4 0.0000 0.0000 0.0000 25.8893 0.0000 16.6923
# 5 10.8527 14.6406 14.2639 0.0000 35.8887 0.0000
# 6 0.0000 0.0000 0.0000 16.6923 0.0000 -10.4299
#
#
#
# Elastic Compliance Matrix: (Units=1/GPa)
#
#
# Indices 1 2 3 4 5 6 
#
# 1 0.025387 -0.002005 -0.001317 0.000000 -0.006335 0.000000
# 2 -0.002005 0.005669 -0.002523 0.000000 -0.000704 0.000000
# 3 -0.001317 -0.002523 0.011308 0.000000 -0.003067 0.000000
# 4 0.000000 0.000000 0.000000 0.019010 0.000000 0.030424
# 5 -0.006335 -0.000704 -0.003067 0.000000 0.031286 0.000000
# 6 0.000000 0.000000 0.000000 0.030424 0.000000 -0.047187
#
#
# Mechanical properties :
#
#
# Convention : Reuss Voigt Hill
#
# Bulk Modulus (GPa) = 32.60098 60.03359 46.31729
# Shear Modulus (GPa) = 74.19776 28.31875 51.25825
#
# Velocity S-wave (km/s) = 5.67145 3.50377 4.71390
# Velocity P-wave (km/s) = 7.55115 6.51103 7.05030
#
# Compressibility (1/GPa) = 0.03067392
#
# Stress axis : x y z
#
# Youngs Moduli (GPa) = 39.39000 176.40164 88.43334
#
# Poissons Ratio (x) = 0.35372 0.11649
# Poissons Ratio (y) = 0.07898 0.22308
# Poissons Ratio (z) = 0.05189 0.44498
#
# Static dielectric constant tensor:
#      x y z
#    x 1.983330 0.000000 -0.115960 
#    y 0.000000 1.834830 0.000000 
#    z -0.115960 0.000000 2.044360 
# 
# From -- ./inp_files/221424.got.cif
#   From: 2010.05.17/outbox.cif.g08.bks.cpg/sg12_111_cif.got.tgz:221424.got - 2010.06.03 13:09:07.
