data_PCOD9204132
_publ_section_title
;
Structure prediction by ZEFSAII (Michael W. Deem and Ramdas Pophale) SiO2 
 PCOD9204132
Probable space group: C 2/M
;
_chemical_formula_sum "Si O2"
_cell_formula_units_Z 64
_cell_length_a 12.182986
_cell_length_b 18.416641
_cell_length_c 28.349955
_cell_angle_alpha 90.000000
_cell_angle_beta 29.429294
_cell_angle_gamma 90.000000
_cell_volume 3125.408037
_symmetry_space_group_name_H-M "C 2/M"
_symmetry_group_IT_number 12
_symmetry_cell_setting 'monoclinic'
loop_
_space_group_symop_operation_xyz
x,y,z
-x,y,-z
-x,-y,-z
x,-y,z
1/2+x,1/2+y,z
1/2-x,1/2+y,-z
1/2-x,1/2-y,-z
1/2+x,1/2-y,z
loop_
_atom_site_type_symbol
_atom_site_label
_atom_site_fract_x
_atom_site_fract_y
_atom_site_fract_z
Si Si1 0.152875 0.675750 0.678170
Si Si2 0.723590 0.650984 0.966372
Si Si3 0.642616 0.191652 0.576409
Si Si4 0.700110 0.824198 0.959425
Si Si5 0.769989 0.585770 0.852217
Si Si6 0.246020 0.913004 0.607217
Si Si7 0.864883 0.820578 0.260517
Si Si8 0.957869 0.913909 0.415988
O O1 0.218501 0.703308 0.601755
O O2 0.072532 0.743959 0.738776
O O3 0.348591 0.633146 0.632058
O O4 0.948067 0.620220 0.750536
O O5 0.704544 0.736474 0.962608
O O6 0.837646 0.609879 0.880138
O O7 0.835817 0.643921 0.975145
O O8 0.474045 0.619285 0.063707
O O9 0.750000 0.250000 0.500000
O O10 0.375916 0.192925 0.672857
O O11 0.733575 0.113285 0.525913
O O12 0.940827 0.843984 0.847694
O O13 0.500000 0.844920 0.000000
O O14 0.760785 0.500000 0.852400
O O15 0.500000 0.888818 0.500000
O O16 0.167617 0.876149 0.684424
O O17 0.085354 0.896472 0.622885
O O18 0.251773 0.000000 0.610107
O O19 0.995205 0.000000 0.407211
#
# Coordination Sequence:
#
# PCOD9204132 Si02
#       8
#     8   8   8   8   8   8   8   8
#     4  12  25  39  62  98 136 162 223 272 329 391
#     4  10  20  40  65  94 128 171 218 268 335 396
#     4  12  25  41  61  92 132 176 218 274 326 397
#     4  11  22  40  65  97 137 166 218 283 335 392
#     4  11  22  43  68  96 131 175 224 270 332 404
#     4  10  22  43  67  92 128 176 226 270 322 395
#     4  12  24  39  68  98 129 178 220 273 330 400
#     4  11  24  42  63  90 129 176 216 269 330 380
#
# _framework density 20.477326000000001
#
# number of rings (size 3 to 8) (size 9 to 14) (size 15 to 20)
#    0.000    0.875    5.000    3.000    0.000    3.500 
#    0.000    2.500    0.000    2.625    0.000    0.000 
#    0.000    0.000    0.000    0.000    0.000    0.000 
#
# Total GULP energy -178916.357484 kJ/mol
# GULP energy per Si atom -5591.136171 kJ/mol
# Density = 2.043072 g / cm^3
# Si number density = 20.477326 Si / 1000 Ang^3
#
#
#
# Elastic Constant Matrix: (Units=GPa)
#
#
# Indices 1 2 3 4 5 6 
#
# 1 120.6446 17.8081 19.9397 0.0079 5.1324 -0.0121
# 2 17.8081 48.4709 14.6603 -0.0071 8.5006 -0.0023
# 3 19.9397 14.6603 72.3528 0.0660 -1.3080 0.0000
# 4 0.0079 -0.0071 0.0660 24.2408 0.0043 0.1435
# 5 5.1324 8.5006 -1.3080 0.0043 23.9987 0.0150
# 6 -0.0121 -0.0023 0.0000 0.1435 0.0150 22.8450
#
#
#
# Elastic Compliance Matrix: (Units=1/GPa)
#
#
# Indices 1 2 3 4 5 6 
#
# 1 0.009040 -0.002513 -0.002003 0.000002 -0.001152 0.000005
# 2 -0.002513 0.024342 -0.004390 0.000021 -0.008324 0.000006
# 3 -0.002003 -0.004390 0.015314 -0.000043 0.002818 -0.000003
# 4 0.000002 0.000021 -0.000043 0.041254 -0.000017 -0.000259
# 5 -0.001152 -0.008324 0.002818 -0.000017 0.045017 -0.000031
# 6 0.000005 0.000006 -0.000003 -0.000259 -0.000031 0.043775
#
#
# Mechanical properties :
#
#
# Convention : Reuss Voigt Hill
#
# Bulk Modulus (GPa) = 32.38046 38.47606 35.42826
# Shear Modulus (GPa) = 24.17224 26.82092 25.49658
#
# Velocity S-wave (km/s) = 3.43948 3.62302 3.53244
# Velocity P-wave (km/s) = 5.62321 6.02761 5.82892
#
# Compressibility (1/GPa) = 0.03088282
#
# Stress axis : x y z
#
# Youngs Moduli (GPa) = 110.62134 41.08138 65.30133
#
# Poissons Ratio (x) = 0.10325 0.13079
# Poissons Ratio (y) = 0.27803 0.28668
# Poissons Ratio (z) = 0.22156 0.18035
#
# Static dielectric constant tensor:
#      x y z
#    x 1.760370 0.000000 0.002830 
#    y 0.000000 1.706770 0.000000 
#    z 0.002830 0.000000 1.736620 
# 
# From -- ./inp_files/374455.got.cif
#   From: 2010.05.17/outbox.cif.g08.bks.cpg/sg12_188_cif.got.tgz:374455.got - 2010.06.03 13:09:07.
