data_PCOD9204424
_publ_section_title
;
Structure prediction by ZEFSAII (Michael W. Deem and Ramdas Pophale) SiO2 
 PCOD9204424
Probable space group: C 2/M
;
_chemical_formula_sum "Si O2"
_cell_formula_units_Z 58
_cell_length_a 17.921543
_cell_length_b 11.813450
_cell_length_c 20.084266
_cell_angle_alpha 90.000000
_cell_angle_beta 40.174008
_cell_angle_gamma 90.000000
_cell_volume 2743.106343
_symmetry_space_group_name_H-M "C 2/M"
_symmetry_group_IT_number 12
_symmetry_cell_setting 'monoclinic'
loop_
_space_group_symop_operation_xyz
x,y,z
-x,y,-z
-x,-y,-z
x,-y,z
1/2+x,1/2+y,z
1/2-x,1/2+y,-z
1/2-x,1/2-y,-z
1/2+x,1/2-y,z
loop_
_atom_site_type_symbol
_atom_site_label
_atom_site_fract_x
_atom_site_fract_y
_atom_site_fract_z
Si Si1 0.533955 0.257575 0.262621
Si Si2 0.656036 0.837240 0.305156
Si Si3 0.274826 0.868922 0.079181
Si Si4 0.109476 0.212775 0.887080
Si Si5 0.361385 0.378206 0.599012
Si Si6 0.184320 0.867640 0.525022
Si Si7 0.000755 0.632877 0.845504
Si Si8 0.000000 0.500000 0.500000
O O1 0.581415 0.176587 0.289109
O O2 0.646119 0.321891 0.157505
O O3 0.442492 0.344798 0.356984
O O4 0.479083 0.182770 0.241493
O O5 0.787483 0.872298 0.201719
O O6 0.674343 0.714817 0.324955
O O7 0.582004 0.904355 0.408742
O O8 0.333979 0.798159 0.097771
O O9 0.268705 0.000000 0.101983
O O10 0.363580 0.860375 0.956880
O O11 0.063910 0.286783 0.855902
O O12 0.000000 0.160334 0.000000
O O13 0.500000 0.376397 0.500000
O O14 0.323020 0.500000 0.650036
O O15 0.319128 0.363521 0.552595
O O16 0.250000 0.750000 0.500000
O O17 0.221094 0.000000 0.517811
O O18 0.033232 0.500000 0.828533
#
# Coordination Sequence:
#
# PCOD9204424 Si02
#       8
#     8   8   8   8   8   8   8   2
#     4  11  22  38  60  90 123 166 214 262 323 387
#     4  11  23  41  66  93 124 171 214 274 314 388
#     4   9  18  36  64  92 122 160 205 265 318 382
#     4   9  20  39  64  95 126 158 207 268 331 386
#     4  10  20  41  68  92 116 154 217 273 320 377
#     4  11  25  44  62  90 129 169 215 276 336 399
#     4  10  21  36  59  94 132 163 203 257 328 396
#     4  12  24  44  64  88 124 172 234 258 320 380
#
# _framework density 21.143913000000001
#
# number of rings (size 3 to 8) (size 9 to 14) (size 15 to 20)
#    0.000    1.793    2.069    1.241    2.897    4.966 
#    3.724    0.345    1.517    0.000    0.000    0.000 
#    0.000    0.000    0.000    0.000    0.000    0.000 
#
# Total GULP energy -161572.887664 kJ/mol
# GULP energy per Si atom -5571.478885 kJ/mol
# Density = 2.109579 g / cm^3
# Si number density = 21.143913 Si / 1000 Ang^3
#
#
#
# Elastic Constant Matrix: (Units=GPa)
#
#
# Indices 1 2 3 4 5 6 
#
# 1 55.8078 40.7522 35.6778 0.0000 3.1008 0.0000
# 2 40.7522 101.6156 38.5707 0.0000 1.1482 0.0000
# 3 35.6778 38.5707 118.0417 0.0000 -7.6020 0.0000
# 4 0.0000 0.0000 0.0000 109.0629 0.0000 15.1913
# 5 3.1008 1.1482 -7.6020 0.0000 32.0099 0.0000
# 6 0.0000 0.0000 0.0000 15.1913 0.0000 -11.9858
#
#
#
# Elastic Compliance Matrix: (Units=1/GPa)
#
#
# Indices 1 2 3 4 5 6 
#
# 1 0.028613 -0.009196 -0.005891 0.000000 -0.003841 0.000000
# 2 -0.009196 0.014243 -0.001879 0.000000 -0.000066 0.000000
# 3 -0.005891 -0.001879 0.011076 0.000000 0.003269 0.000000
# 4 0.000000 0.000000 0.000000 0.007793 0.000000 0.009877
# 5 -0.003841 -0.000066 0.003269 0.000000 0.032391 0.000000
# 6 0.000000 0.000000 0.000000 0.009877 0.000000 -0.070913
#
#
# Mechanical properties :
#
#
# Convention : Reuss Voigt Hill
#
# Bulk Modulus (GPa) = 49.99587 56.16296 53.07942
# Shear Modulus (GPa) = 78.36874 36.51501 57.44188
#
# Velocity S-wave (km/s) = 6.09466 4.16020 5.21786
# Velocity P-wave (km/s) = 8.55707 7.04955 7.83963
#
# Compressibility (1/GPa) = 0.02000165
#
# Stress axis : x y z
#
# Youngs Moduli (GPa) = 34.94923 70.21125 90.28129
#
# Poissons Ratio (x) = 0.64563 0.53183
# Poissons Ratio (y) = 0.32138 0.16962
# Poissons Ratio (z) = 0.20588 0.13191
#
# Static dielectric constant tensor:
#      x y z
#    x 1.752690 0.000000 -0.040740 
#    y 0.000000 1.776170 0.000000 
#    z -0.040740 0.000000 1.831920 
# 
# From -- ./inp_files/315950.got.cif
#   From: 2010.05.17/outbox.cif.g08.bks.cpg/sg12_158_cif.got.tgz:315950.got - 2010.06.03 13:09:07.
