data_PCOD9204069
_publ_section_title
;
Structure prediction by ZEFSAII (Michael W. Deem and Ramdas Pophale) SiO2 
 PCOD9204069
Probable space group: C 2/M
;
_chemical_formula_sum "Si O2"
_cell_formula_units_Z 56
_cell_length_a 21.211358
_cell_length_b 17.675998
_cell_length_c 19.326750
_cell_angle_alpha 90.000000
_cell_angle_beta 156.728023
_cell_angle_gamma 90.000000
_cell_volume 2862.952570
_symmetry_space_group_name_H-M "C 2/M"
_symmetry_group_IT_number 12
_symmetry_cell_setting 'monoclinic'
loop_
_space_group_symop_operation_xyz
x,y,z
-x,y,-z
-x,-y,-z
x,-y,z
1/2+x,1/2+y,z
1/2-x,1/2+y,-z
1/2-x,1/2-y,-z
1/2+x,1/2-y,z
loop_
_atom_site_type_symbol
_atom_site_label
_atom_site_fract_x
_atom_site_fract_y
_atom_site_fract_z
Si Si1 0.847090 0.769803 0.502945
Si Si2 0.320634 0.655946 0.290665
Si Si3 0.182943 0.587289 0.283943
Si Si4 0.480504 0.713909 0.789387
Si Si5 0.272586 0.589219 0.956092
Si Si6 0.098945 0.315559 0.662588
Si Si7 0.150709 0.365870 0.985135
O O1 0.802414 0.856655 0.444386
O O2 0.679429 0.725611 0.327981
O O3 0.923321 0.764580 0.655083
O O4 0.972156 0.734143 0.577596
O O5 0.500000 0.641420 0.500000
O O6 0.198612 0.617287 0.221141
O O7 0.293992 0.747159 0.261233
O O8 0.288510 0.624684 0.181294
O O9 0.228006 0.500000 0.332174
O O10 0.009977 0.598232 0.144746
O O11 0.612591 0.776327 0.941583
O O12 0.558288 0.632243 0.870811
O O13 0.284576 0.500000 0.958700
O O14 0.180160 0.627947 0.798421
O O15 0.191477 0.605634 0.949410
O O16 0.000000 0.352772 0.500000
#
# Coordination Sequence:
#
# PCOD9204069 Si02
#       7
#     8   8   8   8   8   8   8
#     4  10  20  40  64  93 122 174 207 257 307 377
#     4  11  22  39  63  91 126 172 211 248 303 373
#     4  11  24  39  59  97 135 165 206 255 315 373
#     4  10  21  38  66  92 123 164 220 257 305 375
#     4  12  25  41  66  98 126 162 211 272 322 358
#     4  11  21  42  65  93 122 161 221 256 309 383
#     4  11  22  41  66  89 129 173 210 250 305 388
#
# _framework density 19.560226
#
# number of rings (size 3 to 8) (size 9 to 14) (size 15 to 20)
#    0.000    1.143    5.714    2.143    0.000    2.857 
#    0.000    1.429    0.000    0.857    0.000    0.000 
#    0.000    0.000    0.000    0.000    0.000    0.000 
#
# Total GULP energy -156296.657195 kJ/mol
# GULP energy per Si atom -5582.023471 kJ/mol
# Density = 1.951571 g / cm^3
# Si number density = 19.560226 Si / 1000 Ang^3
#
#
#
# Elastic Constant Matrix: (Units=GPa)
#
#
# Indices 1 2 3 4 5 6 
#
# 1 65.6057 34.7477 28.8910 0.0098 -0.6512 0.0067
# 2 34.7477 119.0790 36.5505 0.0095 23.2601 0.0069
# 3 28.8910 36.5505 89.5756 0.0087 -6.9611 0.0080
# 4 0.0098 0.0095 0.0087 15.3581 0.0028 -3.2951
# 5 -0.6512 23.2601 -6.9611 0.0028 26.7880 0.0028
# 6 0.0067 0.0069 0.0080 -3.2951 0.0028 13.2985
#
#
#
# Elastic Compliance Matrix: (Units=1/GPa)
#
#
# Indices 1 2 3 4 5 6 
#
# 1 0.019861 -0.005428 -0.003865 -0.000010 0.004191 -0.000008
# 2 -0.005428 0.014269 -0.005149 0.000000 -0.013860 0.000001
# 3 -0.003865 -0.005149 0.015158 -0.000006 0.008316 -0.000008
# 4 -0.000010 0.000000 -0.000006 0.068768 -0.000011 0.017039
# 5 0.004191 -0.013860 0.008316 -0.000011 0.051628 -0.000013
# 6 -0.000008 0.000001 -0.000008 0.017039 -0.000013 0.079419
#
#
# Mechanical properties :
#
#
# Convention : Reuss Voigt Hill
#
# Bulk Modulus (GPa) = 49.01006 52.73764 50.87385
# Shear Modulus (GPa) = 17.55689 22.69367 20.12528
#
# Velocity S-wave (km/s) = 2.99922 3.40986 3.21111
# Velocity P-wave (km/s) = 6.09131 6.52097 6.30980
#
# Compressibility (1/GPa) = 0.02040397
#
# Stress axis : x y z
#
# Youngs Moduli (GPa) = 50.34939 70.07985 65.97314
#
# Poissons Ratio (x) = 0.38038 0.25501
# Poissons Ratio (y) = 0.27329 0.33969
# Poissons Ratio (z) = 0.19462 0.36084
#
# Static dielectric constant tensor:
#      x y z
#    x 1.743530 0.000000 0.000110 
#    y 0.000000 1.668440 0.000000 
#    z 0.000110 0.000000 1.716170 
# 
# From -- ./inp_files/326027.got.cif
#   From: 2010.05.17/outbox.cif.g08.bks.cpg/sg12_164_cif.got.tgz:326027.got - 2010.06.03 13:09:07.
