data_PCOD9204972
_publ_section_title
;
Structure prediction by ZEFSAII (Michael W. Deem and Ramdas Pophale) SiO2 
 PCOD9204972
Probable space group: C 2/M
;
_chemical_formula_sum "Si O2"
_cell_formula_units_Z 36
_cell_length_a 20.312197
_cell_length_b 17.166375
_cell_length_c 6.476298
_cell_angle_alpha 90.000000
_cell_angle_beta 121.634296
_cell_angle_gamma 90.000000
_cell_volume 1922.660772
_symmetry_space_group_name_H-M "C 2/M"
_symmetry_group_IT_number 12
_symmetry_cell_setting 'monoclinic'
loop_
_space_group_symop_operation_xyz
x,y,z
-x,y,-z
-x,-y,-z
x,-y,z
1/2+x,1/2+y,z
1/2-x,1/2+y,-z
1/2-x,1/2-y,-z
1/2+x,1/2-y,z
loop_
_atom_site_type_symbol
_atom_site_label
_atom_site_fract_x
_atom_site_fract_y
_atom_site_fract_z
Si Si1 0.562978 0.910896 0.919984
Si Si2 0.000000 0.716462 0.500000
Si Si3 0.243862 0.589260 0.315707
Si Si4 0.845837 0.213944 0.236446
Si Si5 0.765867 0.811293 0.712270
O O1 0.536835 0.842342 0.726022
O O2 0.561432 0.000000 0.830235
O O3 0.500000 0.910219 0.000000
O O4 0.651769 0.896296 0.135452
O O5 0.931366 0.772949 0.458793
O O6 0.258437 0.500000 0.289129
O O7 0.298476 0.644061 0.265923
O O8 0.262821 0.608423 0.586221
O O9 0.801840 0.292832 0.236179
O O10 0.839713 0.202969 0.979095
O O11 0.750000 0.750000 0.500000
#
# Coordination Sequence:
#
# PCOD9204972 Si02
#       5
#     8   4   8   8   8
#     4  10  21  35  54  83 113 140 173 218 274 329
#     4  12  21  34  55  80 114 146 176 220 267 320
#     4  10  21  38  58  80 109 144 183 224 269 322
#     4  10  21  34  54  81 108 143 184 223 266 318
#     4   9  17  34  54  76 104 138 182 223 264 314
#
# _framework density 18.724052
#
# number of rings (size 3 to 8) (size 9 to 14) (size 15 to 20)
#    0.000    2.000    0.000    5.667    0.000    2.667 
#    0.000    6.111    0.000    1.333    0.000    0.000 
#    0.000    0.000    0.000    0.000    0.000    0.000 
#
# Total GULP energy -100215.968122 kJ/mol
# GULP energy per Si atom -5567.553785 kJ/mol
# Density = 1.868144 g / cm^3
# Si number density = 18.724052 Si / 1000 Ang^3
#
#
#
# Elastic Constant Matrix: (Units=GPa)
#
#
# Indices 1 2 3 4 5 6 
#
# 1 80.1078 57.2485 28.9017 0.0000 15.2596 0.0000
# 2 57.2485 97.3180 42.6032 0.0000 7.5570 0.0000
# 3 28.9017 42.6032 95.6240 0.0000 -2.2095 0.0000
# 4 0.0000 0.0000 0.0000 30.1000 0.0000 3.0108
# 5 15.2596 7.5570 -2.2095 0.0000 24.6668 0.0000
# 6 0.0000 0.0000 0.0000 3.0108 0.0000 32.2352
#
#
#
# Elastic Compliance Matrix: (Units=1/GPa)
#
#
# Indices 1 2 3 4 5 6 
#
# 1 0.024362 -0.012556 -0.002033 0.000000 -0.011407 0.000000
# 2 -0.012556 0.019738 -0.004970 0.000000 0.001275 0.000000
# 3 -0.002033 -0.004970 0.013378 0.000000 0.003979 0.000000
# 4 0.000000 0.000000 0.000000 0.033536 0.000000 -0.003132
# 5 -0.011407 0.001275 0.003979 0.000000 0.047562 0.000000
# 6 0.000000 0.000000 0.000000 -0.003132 0.000000 0.031315
#
#
# Mechanical properties :
#
#
# Convention : Reuss Voigt Hill
#
# Bulk Modulus (GPa) = 54.46012 58.95075 56.70543
# Shear Modulus (GPa) = 23.24189 27.02016 25.13102
#
# Velocity S-wave (km/s) = 3.52701 3.80290 3.66755
# Velocity P-wave (km/s) = 6.76278 7.12987 6.94875
#
# Compressibility (1/GPa) = 0.01836206
#
# Stress axis : x y z
#
# Youngs Moduli (GPa) = 41.04698 50.66324 74.74901
#
# Poissons Ratio (x) = 0.63611 0.15197
# Poissons Ratio (y) = 0.51537 0.37147
# Poissons Ratio (z) = 0.08345 0.25178
#
# Static dielectric constant tensor:
#      x y z
#    x 1.664870 0.000000 -0.002840 
#    y 0.000000 1.695380 0.000000 
#    z -0.002840 0.000000 1.716690 
# 
# From -- ./inp_files/20007.got.cif
#   From: 2010.05.17/outbox.cif.g08.bks.cpg/sg12_11_cif.got.tgz:20007.got - 2010.06.03 13:09:07.
