data_PCOD9204522
_publ_section_title
;
Structure prediction by ZEFSAII (Michael W. Deem and Ramdas Pophale) SiO2 
 PCOD9204522
Probable space group: C 2/M
;
_chemical_formula_sum "Si O2"
_cell_formula_units_Z 42
_cell_length_a 13.421612
_cell_length_b 17.690577
_cell_length_c 9.955379
_cell_angle_alpha 90.000000
_cell_angle_beta 70.497443
_cell_angle_gamma 90.000000
_cell_volume 2228.148664
_symmetry_space_group_name_H-M "C 2/M"
_symmetry_group_IT_number 12
_symmetry_cell_setting 'monoclinic'
loop_
_space_group_symop_operation_xyz
x,y,z
-x,y,-z
-x,-y,-z
x,-y,z
1/2+x,1/2+y,z
1/2-x,1/2+y,-z
1/2-x,1/2-y,-z
1/2+x,1/2-y,z
loop_
_atom_site_type_symbol
_atom_site_label
_atom_site_fract_x
_atom_site_fract_y
_atom_site_fract_z
Si Si1 0.506073 0.280514 0.838859
Si Si2 0.439009 0.845618 0.662126
Si Si3 0.500000 0.500000 0.500000
Si Si4 0.180716 0.500000 0.899202
Si Si5 0.751766 0.234033 0.342131
Si Si6 0.143607 0.117829 0.259766
Si Si7 0.514776 0.000000 0.217685
O O1 0.461146 0.209152 0.777063
O O2 0.629022 0.282268 0.750067
O O3 0.439775 0.351608 0.813078
O O4 0.500000 0.271462 0.000000
O O5 0.500000 0.819883 0.500000
O O6 0.317931 0.836862 0.674066
O O7 0.475769 0.927116 0.692741
O O8 0.577444 0.566368 0.394706
O O9 0.260022 0.570670 0.848218
O O10 0.094387 0.500000 0.817517
O O11 0.110884 0.500000 0.066031
O O12 0.750000 0.250000 0.500000
O O13 0.698098 0.308291 0.300766
#
# Coordination Sequence:
#
# PCOD9204522 Si02
#       7
#     8   8   2   4   8   8   4
#     4  11  25  41  70  99 132 172 223 276 332 391
#     4  11  24  42  66  98 132 170 222 274 326 397
#     4  10  20  42  66  88 128 180 204 272 320 384
#     4  10  24  42  65  92 130 178 208 273 335 401
#     4  11  22  40  68  98 130 169 218 274 331 389
#     4  10  23  42  66  94 131 170 228 261 332 397
#     4  11  25  42  66  94 137 169 220 269 339 391
#
# _framework density 18.849729
#
# number of rings (size 3 to 8) (size 9 to 14) (size 15 to 20)
#    0.000    1.333    1.905    2.571   10.667    1.524 
#    0.000    3.810    0.000    0.000    0.000    0.000 
#    0.000    0.000    0.000    0.000    0.000    0.000 
#
# Total GULP energy -116965.043751 kJ/mol
# GULP energy per Si atom -5569.763988 kJ/mol
# Density = 1.880683 g / cm^3
# Si number density = 18.849729 Si / 1000 Ang^3
#
#
#
# Elastic Constant Matrix: (Units=GPa)
#
#
# Indices 1 2 3 4 5 6 
#
# 1 152.1773 36.5583 69.2339 0.0000 -2.7387 0.0000
# 2 36.5583 79.0751 15.2812 0.0000 10.7921 0.0000
# 3 69.2339 15.2812 120.7476 0.0000 1.3245 0.0000
# 4 0.0000 0.0000 0.0000 17.8585 0.0000 -5.4016
# 5 -2.7387 10.7921 1.3245 0.0000 37.0642 0.0000
# 6 0.0000 0.0000 0.0000 -5.4016 0.0000 19.2047
#
#
#
# Elastic Compliance Matrix: (Units=1/GPa)
#
#
# Indices 1 2 3 4 5 6 
#
# 1 0.009905 -0.003850 -0.005215 0.000000 0.002039 0.000000
# 2 -0.003850 0.014993 0.000361 0.000000 -0.004663 0.000000
# 3 -0.005215 0.000361 0.011236 0.000000 -0.000892 0.000000
# 4 0.000000 0.000000 0.000000 0.061202 0.000000 0.017214
# 5 0.002039 -0.004663 -0.000892 0.000000 0.028520 0.000000
# 6 0.000000 0.000000 0.000000 0.017214 0.000000 0.056912
#
#
# Mechanical properties :
#
#
# Convention : Reuss Voigt Hill
#
# Bulk Modulus (GPa) = 53.39875 66.01630 59.70753
# Shear Modulus (GPa) = 24.22271 30.22060 27.22165
#
# Velocity S-wave (km/s) = 3.58864 4.00839 3.80431
# Velocity P-wave (km/s) = 6.74991 7.51807 7.14432
#
# Compressibility (1/GPa) = 0.01872703
#
# Stress axis : x y z
#
# Youngs Moduli (GPa) = 100.95581 66.69888 89.00171
#
# Poissons Ratio (x) = 0.25680 0.46411
# Poissons Ratio (y) = 0.38869 -0.03216
# Poissons Ratio (z) = 0.52645 -0.02410
#
# Static dielectric constant tensor:
#      x y z
#    x 1.721310 0.000000 0.007880 
#    y 0.000000 1.680730 0.000000 
#    z 0.007880 0.000000 1.631070 
# 
# From -- ./inp_files/49249.got.cif
#   From: 2010.05.17/outbox.cif.g08.bks.cpg/sg12_25_cif.got.tgz:49249.got - 2010.06.03 13:09:07.
