data_PCOD9204034
_publ_section_title
;
Structure prediction by ZEFSAII (Michael W. Deem and Ramdas Pophale) SiO2 
 PCOD9204034
Probable space group: C 2/M
;
_chemical_formula_sum "Si O2"
_cell_formula_units_Z 56
_cell_length_a 19.705725
_cell_length_b 8.760699
_cell_length_c 16.535344
_cell_angle_alpha 90.000000
_cell_angle_beta 105.524199
_cell_angle_gamma 90.000000
_cell_volume 2750.451667
_symmetry_space_group_name_H-M "C 2/M"
_symmetry_group_IT_number 12
_symmetry_cell_setting 'monoclinic'
loop_
_space_group_symop_operation_xyz
x,y,z
-x,y,-z
-x,-y,-z
x,-y,z
1/2+x,1/2+y,z
1/2-x,1/2+y,-z
1/2-x,1/2-y,-z
1/2+x,1/2-y,z
loop_
_atom_site_type_symbol
_atom_site_label
_atom_site_fract_x
_atom_site_fract_y
_atom_site_fract_z
Si Si1 0.587335 0.181627 0.374255
Si Si2 0.383439 0.316706 0.445139
Si Si3 0.082416 0.683426 0.020001
Si Si4 0.054362 0.816970 0.707566
Si Si5 0.340614 0.683398 0.112831
Si Si6 0.731958 0.816077 0.334008
Si Si7 0.792824 0.818256 0.848716
O O1 0.585245 0.244056 0.464737
O O2 0.521771 0.245566 0.303293
O O3 0.661262 0.227922 0.358139
O O4 0.584269 0.000000 0.374669
O O5 0.390545 0.500000 0.453774
O O6 0.419483 0.267625 0.372866
O O7 0.301057 0.278368 0.407908
O O8 0.086477 0.500000 0.019654
O O9 0.118863 0.751890 0.951677
O O10 0.130941 0.746671 0.107793
O O11 0.000000 0.726775 0.000000
O O12 0.111042 0.778403 0.793840
O O13 0.048304 0.000000 0.704479
O O14 0.333806 0.500000 0.104553
O O15 0.264330 0.755583 0.105294
O O16 0.732510 0.736658 0.247311
O O17 0.732872 0.000000 0.321349
O O18 0.796198 0.000000 0.854509
#
# Coordination Sequence:
#
# PCOD9204034 Si02
#       7
#     8   8   8   8   8   8   8
#     4  11  24  37  58  91 128 164 206 265 320 367
#     4  10  20  40  64  85 118 166 216 257 310 377
#     4  11  26  46  69  98 133 168 204 254 314 372
#     4  10  22  40  63  89 122 168 210 254 311 372
#     4  11  23  44  70  95 129 168 213 260 310 375
#     4  10  22  42  63  88 125 169 211 258 318 373
#     4  12  25  42  68  98 128 166 213 260 311 375
#
# _framework density 20.360292999999999
#
# number of rings (size 3 to 8) (size 9 to 14) (size 15 to 20)
#    0.000    1.286    1.429    3.857    2.000    6.286 
#    0.000    0.000    0.000    0.000    0.000    0.000 
#    0.000    0.000    0.000    0.000    0.000    0.000 
#
# Total GULP energy -156645.201380 kJ/mol
# GULP energy per Si atom -5594.471478 kJ/mol
# Density = 2.031395 g / cm^3
# Si number density = 20.360293 Si / 1000 Ang^3
#
#
#
# Elastic Constant Matrix: (Units=GPa)
#
#
# Indices 1 2 3 4 5 6 
#
# 1 83.2205 17.7848 8.2885 0.0000 28.5407 0.0000
# 2 17.7848 31.5935 18.0050 0.0000 11.7199 0.0000
# 3 8.2885 18.0050 62.1754 0.0000 11.1048 0.0000
# 4 0.0000 0.0000 0.0000 32.4203 0.0000 0.6054
# 5 28.5407 11.7199 11.1048 0.0000 36.9834 0.0000
# 6 0.0000 0.0000 0.0000 0.6054 0.0000 30.1891
#
#
#
# Elastic Compliance Matrix: (Units=1/GPa)
#
#
# Indices 1 2 3 4 5 6 
#
# 1 0.017241 -0.006247 0.001620 0.000000 -0.011812 0.000000
# 2 -0.006247 0.043393 -0.010713 0.000000 -0.005714 0.000000
# 3 0.001620 -0.010713 0.019640 0.000000 -0.003753 0.000000
# 4 0.000000 0.000000 0.000000 0.030856 0.000000 -0.000619
# 5 -0.011812 -0.005714 -0.003753 0.000000 0.039092 0.000000
# 6 0.000000 0.000000 0.000000 -0.000619 0.000000 0.033137
#
#
# Mechanical properties :
#
#
# Convention : Reuss Voigt Hill
#
# Bulk Modulus (GPa) = 20.16320 29.46067 24.81193
# Shear Modulus (GPa) = 21.68535 28.77930 25.23232
#
# Velocity S-wave (km/s) = 3.26710 3.76373 3.52418
# Velocity P-wave (km/s) = 4.91494 5.77829 5.36401
#
# Compressibility (1/GPa) = 0.04959531
#
# Stress axis : x y z
#
# Youngs Moduli (GPa) = 58.00172 23.04501 50.91632
#
# Poissons Ratio (x) = 0.14396 -0.08250
# Poissons Ratio (y) = 0.36234 0.54546
# Poissons Ratio (z) = -0.09398 0.24688
#
# Static dielectric constant tensor:
#      x y z
#    x 1.723260 0.000000 0.000090 
#    y 0.000000 1.680790 0.000000 
#    z 0.000090 0.000000 1.705450 
# 
# From -- ./inp_files/275614.got.cif
#   From: 2010.05.17/outbox.cif.g08.bks.cpg/sg12_138_cif.got.tgz:275614.got - 2010.06.03 13:09:07.
