data_PCOD9204136
_publ_section_title
;
Structure prediction by ZEFSAII (Michael W. Deem and Ramdas Pophale) SiO2 
 PCOD9204136
Probable space group: C 2/M
;
_chemical_formula_sum "Si O2"
_cell_formula_units_Z 52
_cell_length_a 9.110550
_cell_length_b 19.429568
_cell_length_c 15.159642
_cell_angle_alpha 90.000000
_cell_angle_beta 54.477089
_cell_angle_gamma 90.000000
_cell_volume 2184.030980
_symmetry_space_group_name_H-M "C 2/M"
_symmetry_group_IT_number 12
_symmetry_cell_setting 'monoclinic'
loop_
_space_group_symop_operation_xyz
x,y,z
-x,y,-z
-x,-y,-z
x,-y,z
1/2+x,1/2+y,z
1/2-x,1/2+y,-z
1/2-x,1/2-y,-z
1/2+x,1/2-y,z
loop_
_atom_site_type_symbol
_atom_site_label
_atom_site_fract_x
_atom_site_fract_y
_atom_site_fract_z
Si Si1 0.485660 0.000000 0.250620
Si Si2 0.713184 0.139817 0.437837
Si Si3 0.176817 0.500000 0.374596
Si Si4 0.728479 0.254185 0.299983
Si Si5 0.823806 0.000000 0.996926
Si Si6 0.701872 0.862755 0.969231
Si Si7 0.315076 0.391309 0.597758
Si Si8 0.876366 0.276326 0.841940
O O1 0.343047 0.063730 0.302834
O O2 0.599327 0.000000 0.302691
O O3 0.635802 0.000000 0.121015
O O4 0.500000 0.142892 0.500000
O O5 0.776296 0.207873 0.367158
O O6 0.741104 0.136214 0.531255
O O7 0.778670 0.069976 0.366291
O O8 0.000000 0.500000 0.500000
O O9 0.635821 0.325263 0.359887
O O10 0.631186 0.209846 0.259251
O O11 0.921858 0.273400 0.194255
O O12 0.811494 0.933310 0.938138
O O13 0.000000 0.000000 0.000000
O O14 0.791916 0.799022 0.886526
O O15 0.500000 0.873913 0.000000
O O16 0.710322 0.834254 0.067300
O O17 0.500000 0.426605 0.500000
#
# Coordination Sequence:
#
# PCOD9204136 Si02
#       8
#     4   8   4   8   4   8   8   8
#     4  12  25  46  74 100 143 197 239 299 371 447
#     4  11  21  40  66  93 142 188 232 296 344 415
#     4  10  20  40  65  95 130 187 239 282 358 413
#     4  12  24  40  66 108 140 187 246 294 346 439
#     4  12  31  48  82 111 141 183 256 322 375 448
#     4  11  25  51  73 102 147 188 234 315 389 434
#     4  12  24  43  66 106 150 196 240 289 361 430
#     4  11  25  43  73 102 141 191 244 291 376 445
#
# _framework density 23.809187999999999
#
# number of rings (size 3 to 8) (size 9 to 14) (size 15 to 20)
#    0.000    0.615    4.615    4.154    4.308    0.000 
#    0.000    0.000    0.000    0.000    0.000    0.000 
#    0.000    0.000    0.000    0.000    0.000    0.000 
#
# Total GULP energy -145288.438569 kJ/mol
# GULP energy per Si atom -5588.016868 kJ/mol
# Density = 2.375500 g / cm^3
# Si number density = 23.809188 Si / 1000 Ang^3
#
#
#
# Elastic Constant Matrix: (Units=GPa)
#
#
# Indices 1 2 3 4 5 6 
#
# 1 90.2093 -2.6853 10.8053 0.0000 7.6674 0.0000
# 2 -2.6853 119.4812 1.8771 0.0000 0.2774 0.0000
# 3 10.8053 1.8771 43.3999 0.0000 -6.5599 0.0000
# 4 0.0000 0.0000 0.0000 48.8727 0.0000 10.7434
# 5 7.6674 0.2774 -6.5599 0.0000 36.7016 0.0000
# 6 0.0000 0.0000 0.0000 10.7434 0.0000 36.7907
#
#
#
# Elastic Compliance Matrix: (Units=1/GPa)
#
#
# Indices 1 2 3 4 5 6 
#
# 1 0.011764 0.000325 -0.003407 0.000000 -0.003069 0.000000
# 2 0.000325 0.008385 -0.000476 0.000000 -0.000216 0.000000
# 3 -0.003407 -0.000476 0.024685 0.000000 0.005127 0.000000
# 4 0.000000 0.000000 0.000000 0.021865 0.000000 -0.006385
# 5 -0.003069 -0.000216 0.005127 0.000000 0.028806 0.000000
# 6 0.000000 0.000000 0.000000 -0.006385 0.000000 0.029045
#
#
# Mechanical properties :
#
#
# Convention : Reuss Voigt Hill
#
# Bulk Modulus (GPa) = 26.51256 30.34273 28.42764
# Shear Modulus (GPa) = 34.66469 40.67922 37.67196
#
# Velocity S-wave (km/s) = 3.81981 4.13795 3.98206
# Velocity P-wave (km/s) = 5.53301 5.96674 5.75396
#
# Compressibility (1/GPa) = 0.03771798
#
# Stress axis : x y z
#
# Youngs Moduli (GPa) = 85.00565 119.26337 40.50986
#
# Poissons Ratio (x) = -0.03877 0.13801
# Poissons Ratio (y) = -0.02763 0.01929
# Poissons Ratio (z) = 0.28960 0.05680
#
# Static dielectric constant tensor:
#      x y z
#    x 1.861520 0.000000 -0.017930 
#    y 0.000000 1.992410 0.000000 
#    z -0.017930 0.000000 2.028020 
# 
# From -- ./inp_files/258448.got.cif
#   From: 2010.05.17/outbox.cif.g08.bks.cpg/sg12_130_cif.got.tgz:258448.got - 2010.06.03 13:09:07.
