data_PCOD9204025
_publ_section_title
;
Structure prediction by ZEFSAII (Michael W. Deem and Ramdas Pophale) SiO2 
 PCOD9204025
Probable space group: C 2/M
;
_chemical_formula_sum "Si O2"
_cell_formula_units_Z 34
_cell_length_a 13.491217
_cell_length_b 19.048794
_cell_length_c 11.073787
_cell_angle_alpha 90.000000
_cell_angle_beta 148.519806
_cell_angle_gamma 90.000000
_cell_volume 1486.123154
_symmetry_space_group_name_H-M "C 2/M"
_symmetry_group_IT_number 12
_symmetry_cell_setting 'monoclinic'
loop_
_space_group_symop_operation_xyz
x,y,z
-x,y,-z
-x,-y,-z
x,-y,z
1/2+x,1/2+y,z
1/2-x,1/2+y,-z
1/2-x,1/2-y,-z
1/2+x,1/2-y,z
loop_
_atom_site_type_symbol
_atom_site_label
_atom_site_fract_x
_atom_site_fract_y
_atom_site_fract_z
Si Si1 0.097947 0.142708 0.805334
Si Si2 0.500000 0.000000 0.000000
Si Si3 0.332300 0.500000 0.005924
Si Si4 0.605697 0.229648 0.985634
Si Si5 0.272632 0.000000 0.371812
Si Si6 0.655825 0.888621 0.361992
O O1 0.134916 0.195578 0.954806
O O2 0.875024 0.129853 0.562493
O O3 0.190968 0.067986 0.934324
O O4 0.203558 0.183296 0.807614
O O5 0.419877 0.938697 0.823058
O O6 0.550300 0.500000 0.183820
O O7 0.215641 0.500000 0.760329
O O8 0.466456 0.181860 0.759810
O O9 0.500000 0.239154 0.000000
O O10 0.353178 0.068514 0.522155
#
# Coordination Sequence:
#
# PCOD9204025 Si02
#       6
#     8   2   4   8   4   8
#     4  10  24  43  68 100 131 176 227 278 347 404
#     4  10  20  40  64 102 142 176 226 276 338 412
#     4   9  18  40  67  96 125 167 223 281 331 401
#     4  11  24  43  66  96 138 176 226 278 335 416
#     4   8  18  33  67  94 125 170 217 267 340 388
#     4  10  20  41  64  97 135 175 219 279 335 405
#
# _framework density 22.878319000000001
#
# number of rings (size 3 to 8) (size 9 to 14) (size 15 to 20)
#    0.000    2.118    1.176    1.412    6.588    2.824 
#    0.000    3.529    0.000    0.000    0.000    0.000 
#    0.000    0.000    0.000    0.000    0.000    0.000 
#
# Total GULP energy -94858.843328 kJ/mol
# GULP energy per Si atom -5579.931960 kJ/mol
# Density = 2.282625 g / cm^3
# Si number density = 22.878319 Si / 1000 Ang^3
#
#
#
# Elastic Constant Matrix: (Units=GPa)
#
#
# Indices 1 2 3 4 5 6 
#
# 1 88.5561 30.0897 15.5099 0.0000 13.9358 0.0000
# 2 30.0897 163.5287 34.1126 0.0000 1.1032 0.0000
# 3 15.5099 34.1126 88.8101 0.0000 9.6697 0.0000
# 4 0.0000 0.0000 0.0000 14.6508 0.0000 1.3295
# 5 13.9358 1.1032 9.6697 0.0000 31.1924 0.0000
# 6 0.0000 0.0000 0.0000 1.3295 0.0000 8.8875
#
#
#
# Elastic Compliance Matrix: (Units=1/GPa)
#
#
# Indices 1 2 3 4 5 6 
#
# 1 0.013047 -0.002188 -0.000840 0.000000 -0.005491 0.000000
# 2 -0.002188 0.007025 -0.002479 0.000000 0.001498 0.000000
# 3 -0.000840 -0.002479 0.012739 0.000000 -0.003486 0.000000
# 4 0.000000 0.000000 0.000000 0.069195 0.000000 -0.010351
# 5 -0.005491 0.001498 -0.003486 0.000000 0.035540 0.000000
# 6 0.000000 0.000000 0.000000 -0.010351 0.000000 0.114066
#
#
# Mechanical properties :
#
#
# Convention : Reuss Voigt Hill
#
# Bulk Modulus (GPa) = 45.88184 55.59102 50.73643
# Shear Modulus (GPa) = 18.52594 28.35834 23.44214
#
# Velocity S-wave (km/s) = 2.84871 3.52451 3.20448
# Velocity P-wave (km/s) = 5.56044 6.39642 5.99303
#
# Compressibility (1/GPa) = 0.02179512
#
# Stress axis : x y z
#
# Youngs Moduli (GPa) = 76.64522 142.35137 78.50207
#
# Poissons Ratio (x) = 0.31152 0.06595
# Poissons Ratio (y) = 0.16773 0.19462
# Poissons Ratio (z) = 0.06439 0.35292
#
# Static dielectric constant tensor:
#      x y z
#    x 1.889640 0.000000 0.064050 
#    y 0.000000 1.829420 0.000000 
#    z 0.064050 0.000000 1.881640 
# 
# From -- ./inp_files/147874.got.cif
#   From: 2010.05.17/outbox.cif.g08.bks.cpg/sg12_74_cif.got.tgz:147874.got - 2010.06.03 13:09:07.
