data_PCOD9204151
_publ_section_title
;
Structure prediction by ZEFSAII (Michael W. Deem and Ramdas Pophale) SiO2 
 PCOD9204151
Probable space group: C 2/M
;
_chemical_formula_sum "Si O2"
_cell_formula_units_Z 24
_cell_length_a 13.571436
_cell_length_b 12.795701
_cell_length_c 10.000227
_cell_angle_alpha 90.000000
_cell_angle_beta 37.276572
_cell_angle_gamma 90.000000
_cell_volume 1051.794385
_symmetry_space_group_name_H-M "C 2/M"
_symmetry_group_IT_number 12
_symmetry_cell_setting 'monoclinic'
loop_
_space_group_symop_operation_xyz
x,y,z
-x,y,-z
-x,-y,-z
x,-y,z
1/2+x,1/2+y,z
1/2-x,1/2+y,-z
1/2-x,1/2-y,-z
1/2+x,1/2-y,z
loop_
_atom_site_type_symbol
_atom_site_label
_atom_site_fract_x
_atom_site_fract_y
_atom_site_fract_z
Si Si1 0.169905 0.000000 0.902184
Si Si2 0.179689 0.382192 0.661054
Si Si3 0.164632 0.705044 0.389765
Si Si4 0.988387 0.000000 0.352412
O O1 0.268048 0.102900 0.756069
O O2 0.000000 0.000000 0.000000
O O3 0.141678 0.000000 0.092170
O O4 0.116498 0.500000 0.756653
O O5 0.120470 0.334321 0.587143
O O6 0.193968 0.293374 0.757500
O O7 0.373832 0.404091 0.431577
O O8 0.000000 0.743968 0.500000
O O9 0.000000 0.000000 0.500000
#
# Coordination Sequence:
#
# PCOD9204151 Si02
#       4
#     4   8   8   4
#     4  12  21  40  65 101 125 171 223 262 317 397
#     4   9  20  39  65  88 130 171 209 256 335 371
#     4  11  21  37  67 100 126 171 217 266 318 386
#     4  10  20  40  66  88 128 174 210 262 326 376
#
# _framework density 22.818148000000001
#
# number of rings (size 3 to 8) (size 9 to 14) (size 15 to 20)
#    1.000    0.667    5.000    1.500    0.000    0.000 
#    0.000    6.667    0.000    3.000    0.000    0.000 
#    0.000    0.000    0.000    0.000    0.000    0.000 
#
# Total GULP energy -66871.762431 kJ/mol
# GULP energy per Si atom -5572.646869 kJ/mol
# Density = 2.276621 g / cm^3
# Si number density = 22.818148 Si / 1000 Ang^3
#
#
#
# Elastic Constant Matrix: (Units=GPa)
#
#
# Indices 1 2 3 4 5 6 
#
# 1 148.7408 33.1531 22.2664 0.0000 4.3626 0.0000
# 2 33.1531 143.4506 2.5730 0.0000 10.9163 0.0000
# 3 22.2664 2.5730 39.0615 0.0000 12.3792 0.0000
# 4 0.0000 0.0000 0.0000 -11.7085 0.0000 -1.9410
# 5 4.3626 10.9163 12.3792 0.0000 26.7158 0.0000
# 6 0.0000 0.0000 0.0000 -1.9410 0.0000 26.2911
#
#
#
# Elastic Compliance Matrix: (Units=1/GPa)
#
#
# Indices 1 2 3 4 5 6 
#
# 1 0.007816 -0.001851 -0.004886 0.000000 0.001744 0.000000
# 2 -0.001851 0.007643 0.001695 0.000000 -0.003606 0.000000
# 3 -0.004886 0.001695 0.033102 0.000000 -0.015233 0.000000
# 4 0.000000 0.000000 0.000000 -0.084375 0.000000 -0.006229
# 5 0.001744 -0.003606 -0.015233 0.000000 0.045678 0.000000
# 6 0.000000 0.000000 0.000000 -0.006229 0.000000 0.037576
#
#
# Mechanical properties :
#
#
# Convention : Reuss Voigt Hill
#
# Bulk Modulus (GPa) = 25.99099 49.69310 37.84204
# Shear Modulus (GPa) = 71.07229 26.47702 48.77466
#
# Velocity S-wave (km/s) = 5.58703 3.41009 4.62837
# Velocity P-wave (km/s) = 7.28252 6.10983 6.72180
#
# Compressibility (1/GPa) = 0.03847488
#
# Stress axis : x y z
#
# Youngs Moduli (GPa) = 127.94112 130.83959 30.20974
#
# Poissons Ratio (x) = 0.24225 0.14761
# Poissons Ratio (y) = 0.23688 -0.05120
# Poissons Ratio (z) = 0.62516 -0.22174
#
# Static dielectric constant tensor:
#      x y z
#    x 1.870050 0.000000 0.048970 
#    y 0.000000 1.894350 0.000000 
#    z 0.048970 0.000000 1.902260 
# 
# From -- ./inp_files/142399.got.cif
#   From: 2010.05.17/outbox.cif.g08.bks.cpg/sg12_72_cif.got.tgz:142399.got - 2010.06.03 13:09:07.
