data_PCOD9204700
_publ_section_title
;
Structure prediction by ZEFSAII (Michael W. Deem and Ramdas Pophale) SiO2 
 PCOD9204700
Probable space group: C 2/M
;
_chemical_formula_sum "Si O2"
_cell_formula_units_Z 52
_cell_length_a 8.693697
_cell_length_b 24.917451
_cell_length_c 13.898443
_cell_angle_alpha 90.000000
_cell_angle_beta 78.569674
_cell_angle_gamma 90.000000
_cell_volume 2951.033111
_symmetry_space_group_name_H-M "C 2/M"
_symmetry_group_IT_number 12
_symmetry_cell_setting 'monoclinic'
loop_
_space_group_symop_operation_xyz
x,y,z
-x,y,-z
-x,-y,-z
x,-y,z
1/2+x,1/2+y,z
1/2-x,1/2+y,-z
1/2-x,1/2-y,-z
1/2+x,1/2-y,z
loop_
_atom_site_type_symbol
_atom_site_label
_atom_site_fract_x
_atom_site_fract_y
_atom_site_fract_z
Si Si1 0.245358 0.328200 0.757930
Si Si2 0.812339 0.000000 0.020223
Si Si3 0.361501 0.088240 0.084194
Si Si4 0.773564 0.702274 0.573146
Si Si5 0.816830 0.108065 0.551391
Si Si6 0.465898 0.000000 0.807883
Si Si7 0.494590 0.242540 0.704066
Si Si8 0.609502 0.000000 0.581185
O O1 0.236461 0.368187 0.847004
O O2 0.302143 0.358986 0.653819
O O3 0.354960 0.277285 0.764230
O O4 0.074790 0.303357 0.756480
O O5 0.714788 0.000000 0.133060
O O6 0.747091 0.050765 0.968422
O O7 0.000000 0.000000 0.000000
O O8 0.448245 0.050633 0.152410
O O9 0.500000 0.110898 0.000000
O O10 0.750000 0.750000 0.500000
O O11 0.759716 0.646344 0.520598
O O12 0.626087 0.713475 0.660808
O O13 0.927250 0.713867 0.616494
O O14 0.000000 0.100472 0.500000
O O15 0.720971 0.052688 0.569526
O O16 0.501232 0.000000 0.690548
O O17 0.500000 0.000000 0.500000
#
# Coordination Sequence:
#
# PCOD9204700 Si02
#       8
#     8   4   8   8   8   4   8   4
#     4  11  21  36  59  85 116 153 199 247 304 348
#     4   9  19  40  69  98 112 135 208 267 289 345
#     4   9  19  39  67  85 112 157 198 243 306 361
#     4  11  18  31  54  82 109 156 208 249 279 324
#     4  12  23  38  56  78 123 162 205 243 293 352
#     4   9  18  40  63  88 114 159 201 237 287 367
#     4  10  21  32  54  86 117 149 206 254 283 345
#     4  12  28  40  53  88 132 166 193 236 307 372
#
# _framework density 17.620947999999999
#
# number of rings (size 3 to 8) (size 9 to 14) (size 15 to 20)
#    0.000    1.538    6.154    1.615    2.154    0.000 
#    2.769    6.923    0.000    0.000    0.000    0.000 
#    0.000    0.000    0.000    0.000    0.000    0.000 
#
# Total GULP energy -145015.381367 kJ/mol
# GULP energy per Si atom -5577.514668 kJ/mol
# Density = 1.758084 g / cm^3
# Si number density = 17.620948 Si / 1000 Ang^3
#
#
#
# Elastic Constant Matrix: (Units=GPa)
#
#
# Indices 1 2 3 4 5 6 
#
# 1 112.6348 36.0294 39.8172 0.0000 -9.2012 0.0000
# 2 36.0294 93.7362 36.4503 0.0000 -10.0213 0.0000
# 3 39.8172 36.4503 93.4234 0.0000 -15.8309 0.0000
# 4 0.0000 0.0000 0.0000 25.0389 0.0000 -8.1623
# 5 -9.2012 -10.0213 -15.8309 0.0000 17.0617 0.0000
# 6 0.0000 0.0000 0.0000 -8.1623 0.0000 26.1363
#
#
#
# Elastic Compliance Matrix: (Units=1/GPa)
#
#
# Indices 1 2 3 4 5 6 
#
# 1 0.011083 -0.002801 -0.003437 0.000000 0.001142 0.000000
# 2 -0.002801 0.013449 -0.003525 0.000000 0.003118 0.000000
# 3 -0.003437 -0.003525 0.015282 0.000000 0.010256 0.000000
# 4 0.000000 0.000000 0.000000 0.044465 0.000000 0.013886
# 5 0.001142 0.003118 0.010256 0.000000 0.070574 0.000000
# 6 0.000000 0.000000 0.000000 0.013886 0.000000 0.042598
#
#
# Mechanical properties :
#
#
# Convention : Reuss Voigt Hill
#
# Bulk Modulus (GPa) = 49.29214 58.26534 53.77874
# Shear Modulus (GPa) = 22.34754 26.14722 24.24738
#
# Velocity S-wave (km/s) = 3.56510 3.85628 3.71354
# Velocity P-wave (km/s) = 6.70678 7.27775 6.99809
#
# Compressibility (1/GPa) = 0.02028721
#
# Stress axis : x y z
#
# Youngs Moduli (GPa) = 90.23163 74.35470 65.43659
#
# Poissons Ratio (x) = 0.20828 0.22490
# Poissons Ratio (y) = 0.25276 0.23067
# Poissons Ratio (z) = 0.31012 0.26211
#
# Static dielectric constant tensor:
#      x y z
#    x 1.627840 0.000000 -0.023930 
#    y 0.000000 1.589440 0.000000 
#    z -0.023930 0.000000 1.605680 
# 
# From -- ./inp_files/123745.got.cif
#   From: 2010.05.17/outbox.cif.g08.bks.cpg/sg12_62_cif.got.tgz:123745.got - 2010.06.03 13:09:07.
