data_PCOD9204233
_publ_section_title
;
Structure prediction by ZEFSAII (Michael W. Deem and Ramdas Pophale) SiO2 
 PCOD9204233
Probable space group: C 2/M
;
_chemical_formula_sum "Si O2"
_cell_formula_units_Z 48
_cell_length_a 10.929429
_cell_length_b 15.143958
_cell_length_c 23.838243
_cell_angle_alpha 90.000000
_cell_angle_beta 146.000933
_cell_angle_gamma 90.000000
_cell_volume 2206.288385
_symmetry_space_group_name_H-M "C 2/M"
_symmetry_group_IT_number 12
_symmetry_cell_setting 'monoclinic'
loop_
_space_group_symop_operation_xyz
x,y,z
-x,y,-z
-x,-y,-z
x,-y,z
1/2+x,1/2+y,z
1/2-x,1/2+y,-z
1/2-x,1/2-y,-z
1/2+x,1/2-y,z
loop_
_atom_site_type_symbol
_atom_site_label
_atom_site_fract_x
_atom_site_fract_y
_atom_site_fract_z
Si Si1 0.151082 0.147627 0.791170
Si Si2 0.242171 0.000000 0.913814
Si Si3 0.647102 0.605541 0.486108
Si Si4 0.792633 0.827556 0.880120
Si Si5 0.749775 0.217352 0.581779
Si Si6 0.969329 0.000000 0.919001
Si Si7 0.168779 0.399747 0.261491
O O1 0.156310 0.084574 0.846618
O O2 0.299689 0.233286 0.854464
O O3 0.236123 0.104233 0.765728
O O4 0.911433 0.188770 0.691750
O O5 0.174637 0.000000 0.953943
O O6 0.500000 0.000000 0.000000
O O7 0.685791 0.500000 0.510597
O O8 0.775640 0.680744 0.570850
O O9 0.709957 0.641620 0.449093
O O10 0.380481 0.618845 0.382176
O O11 0.553141 0.843520 0.816492
O O12 0.836280 0.910969 0.856704
O O13 0.000000 0.826972 0.000000
O O14 0.500000 0.211025 0.500000
O O15 0.000000 0.000000 0.000000
O O16 0.101827 0.500000 0.247952
#
# Coordination Sequence:
#
# PCOD9204233 Si02
#       7
#     8   4   8   8   8   4   8
#     4  11  25  42  66 101 134 183 233 286 349 418
#     4  12  28  48  73 103 141 184 237 287 346 425
#     4   9  20  39  64  97 127 179 233 279 343 414
#     4  11  24  41  65  95 136 178 223 287 348 410
#     4  10  21  41  64  93 137 178 226 288 346 406
#     4  10  26  48  68 101 138 179 227 286 350 410
#     4  10  20  40  68  94 135 180 232 284 341 408
#
# _framework density 21.755994999999999
#
# number of rings (size 3 to 8) (size 9 to 14) (size 15 to 20)
#    0.000    1.667    1.667    1.500    8.167    1.333 
#    1.500    0.000    0.000    0.000    0.000    0.000 
#    0.000    0.000    0.000    0.000    0.000    0.000 
#
# Total GULP energy -133679.293755 kJ/mol
# GULP energy per Si atom -5569.970573 kJ/mol
# Density = 2.170648 g / cm^3
# Si number density = 21.755995 Si / 1000 Ang^3
#
#
#
# Elastic Constant Matrix: (Units=GPa)
#
#
# Indices 1 2 3 4 5 6 
#
# 1 80.8927 27.8481 4.1725 -0.0002 5.1950 0.0001
# 2 27.8481 139.2922 58.9301 -0.0001 2.7675 0.0000
# 3 4.1725 58.9301 87.3581 -0.0021 8.4318 0.0004
# 4 -0.0002 -0.0001 -0.0021 -317.7029 -0.0010 89.5663
# 5 5.1950 2.7675 8.4318 -0.0010 24.8987 0.0003
# 6 0.0001 0.0000 0.0004 89.5663 0.0003 0.9769
#
#
#
# Elastic Compliance Matrix: (Units=1/GPa)
#
#
# Indices 1 2 3 4 5 6 
#
# 1 0.013675 -0.003532 0.002033 0.000000 -0.003149 0.000000
# 2 -0.003532 0.010994 -0.007444 0.000000 0.002036 0.000000
# 3 0.002033 -0.007444 0.016885 0.000000 -0.005315 0.000000
# 4 0.000000 0.000000 0.000000 -0.000117 0.000000 0.010749
# 5 -0.003149 0.002036 -0.005315 0.000000 0.042393 0.000000
# 6 0.000000 0.000000 0.000000 0.010749 0.000000 0.038128
#
#
# Mechanical properties :
#
#
# Convention : Reuss Voigt Hill
#
# Bulk Modulus (GPa) = 42.24991 54.38271 48.31631
# Shear Modulus (GPa) = 33.84471 -43.92597 -5.04063
#
# Velocity S-wave (km/s) = 3.94845 -4.49823 -1.52379
# Velocity P-wave (km/s) = 6.34422 1.38849 4.37728
#
# Compressibility (1/GPa) = 0.02366869
#
# Stress axis : x y z
#
# Youngs Moduli (GPa) = 73.12492 90.95692 59.22490
#
# Poissons Ratio (x) = 0.32123 -0.12041
# Poissons Ratio (y) = 0.25825 0.44089
# Poissons Ratio (z) = -0.14867 0.67711
#
# Static dielectric constant tensor:
#      x y z
#    x 1.775520 0.000010 0.006170 
#    y 0.000010 1.277480 0.000000 
#    z 0.006170 0.000000 1.817110 
# 
# From -- ./inp_files/358518.got.cif
#   From: 2010.05.17/outbox.cif.g08.bks.cpg/sg12_180_cif.got.tgz:358518.got - 2010.06.03 13:09:07.
