data_PCOD9204343
_publ_section_title
;
Structure prediction by ZEFSAII (Michael W. Deem and Ramdas Pophale) SiO2 
 PCOD9204343
Probable space group: C 2/M
;
_chemical_formula_sum "Si O2"
_cell_formula_units_Z 56
_cell_length_a 15.118197
_cell_length_b 14.750972
_cell_length_c 11.585813
_cell_angle_alpha 90.000000
_cell_angle_beta 84.687348
_cell_angle_gamma 90.000000
_cell_volume 2572.631162
_symmetry_space_group_name_H-M "C 2/M"
_symmetry_group_IT_number 12
_symmetry_cell_setting 'monoclinic'
loop_
_space_group_symop_operation_xyz
x,y,z
-x,y,-z
-x,-y,-z
x,-y,z
1/2+x,1/2+y,z
1/2-x,1/2+y,-z
1/2-x,1/2-y,-z
1/2+x,1/2-y,z
loop_
_atom_site_type_symbol
_atom_site_label
_atom_site_fract_x
_atom_site_fract_y
_atom_site_fract_z
Si Si1 0.779225 0.392527 0.217602
Si Si2 0.407710 0.286498 0.795373
Si Si3 0.834393 0.686475 0.455272
Si Si4 0.829162 0.904137 0.217885
Si Si5 0.651318 0.757752 0.955915
Si Si6 0.047145 0.145554 0.608492
Si Si7 0.373541 0.099157 0.687489
O O1 0.765544 0.500000 0.208711
O O2 0.687172 0.335632 0.215444
O O3 0.815070 0.364575 0.338765
O O4 0.845680 0.353240 0.111300
O O5 0.478240 0.349031 0.722177
O O6 0.417420 0.188928 0.732877
O O7 0.413109 0.264326 0.930143
O O8 0.750000 0.750000 0.500000
O O9 0.915403 0.756110 0.430738
O O10 0.856214 0.618025 0.555224
O O11 0.858521 0.818458 0.140659
O O12 0.868301 0.900832 0.342321
O O13 0.723207 0.900937 0.240471
O O14 0.855738 0.000000 0.160025
O O15 0.750000 0.750000 0.000000
O O16 0.000000 0.107286 0.500000
O O17 0.415201 0.000000 0.700551
#
# Coordination Sequence:
#
# PCOD9204343 Si02
#       7
#     8   8   8   8   8   8   8
#     4  11  22  39  66  93 122 162 217 269 309 370
#     4  11  23  40  62  95 130 167 203 260 322 372
#     4  12  19  41  63  88 122 164 217 256 317 377
#     4  11  23  41  67  97 126 166 215 262 313 376
#     4  10  20  41  64  91 124 166 215 257 307 370
#     4  12  23  40  67  90 134 171 200 259 324 384
#     4  11  21  38  66  93 121 164 216 264 310 371
#
# _framework density 21.767598
#
# number of rings (size 3 to 8) (size 9 to 14) (size 15 to 20)
#    0.000    0.857    8.571    0.429    0.000    4.286 
#    0.000    2.857    0.000    0.857    0.000    0.000 
#    0.000    0.000    0.000    0.000    0.000    0.000 
#
# Total GULP energy -156364.751187 kJ/mol
# GULP energy per Si atom -5584.455400 kJ/mol
# Density = 2.171805 g / cm^3
# Si number density = 21.767598 Si / 1000 Ang^3
#
#
#
# Elastic Constant Matrix: (Units=GPa)
#
#
# Indices 1 2 3 4 5 6 
#
# 1 28.9226 -8.1219 6.0285 0.0000 -3.8545 0.0000
# 2 -8.1219 127.1060 24.4754 0.0000 6.2485 0.0000
# 3 6.0285 24.4754 117.1345 0.0000 -0.6078 0.0000
# 4 0.0000 0.0000 0.0000 -1.7402 0.0000 -6.2316
# 5 -3.8545 6.2485 -0.6078 0.0000 36.0285 0.0000
# 6 0.0000 0.0000 0.0000 -6.2316 0.0000 -11.2175
#
#
#
# Elastic Compliance Matrix: (Units=1/GPa)
#
#
# Indices 1 2 3 4 5 6 
#
# 1 0.036259 0.002611 -0.002394 0.000000 0.003386 0.000000
# 2 0.002611 0.008462 -0.001909 0.000000 -0.001220 0.000000
# 3 -0.002394 -0.001909 0.009060 0.000000 0.000228 0.000000
# 4 0.000000 0.000000 0.000000 0.580828 0.000000 -0.322665
# 5 0.003386 -0.001220 0.000228 0.000000 0.028334 0.000000
# 6 0.000000 0.000000 0.000000 -0.322665 0.000000 0.090103
#
#
# Mechanical properties :
#
#
# Convention : Reuss Voigt Hill
#
# Bulk Modulus (GPa) = 19.84218 35.32525 27.58372
# Shear Modulus (GPa) = 6.46640 21.33289 13.89965
#
# Velocity S-wave (km/s) = 1.72543 3.13394 2.52969
# Velocity P-wave (km/s) = 3.62004 5.41840 4.60781
#
# Compressibility (1/GPa) = 0.05039769
#
# Stress axis : x y z
#
# Youngs Moduli (GPa) = 27.57968 118.17709 110.36971
#
# Poissons Ratio (x) = -0.30861 0.26425
# Poissons Ratio (y) = -0.07202 0.21068
# Poissons Ratio (z) = 0.06603 0.22558
#
# Static dielectric constant tensor:
#      x y z
#    x 1.855200 0.000000 -0.005400 
#    y 0.000000 1.844090 0.000000 
#    z -0.005400 0.000000 1.795920 
# 
# From -- ./inp_files/143763.got.cif
#   From: 2010.05.17/outbox.cif.g08.bks.cpg/sg12_72_cif.got.tgz:143763.got - 2010.06.03 13:09:07.
