data_PCOD9204696
_publ_section_title
;
Structure prediction by ZEFSAII (Michael W. Deem and Ramdas Pophale) SiO2 
 PCOD9204696
Probable space group: C 2/M
;
_chemical_formula_sum "Si O2"
_cell_formula_units_Z 36
_cell_length_a 16.939075
_cell_length_b 20.145193
_cell_length_c 5.236923
_cell_angle_alpha 90.000000
_cell_angle_beta 88.935278
_cell_angle_gamma 90.000000
_cell_volume 1786.743954
_symmetry_space_group_name_H-M "C 2/M"
_symmetry_group_IT_number 12
_symmetry_cell_setting 'monoclinic'
loop_
_space_group_symop_operation_xyz
x,y,z
-x,y,-z
-x,-y,-z
x,-y,z
1/2+x,1/2+y,z
1/2-x,1/2+y,-z
1/2-x,1/2-y,-z
1/2+x,1/2-y,z
loop_
_atom_site_type_symbol
_atom_site_label
_atom_site_fract_x
_atom_site_fract_y
_atom_site_fract_z
Si Si1 0.616336 0.925737 0.227598
Si Si2 0.525523 0.297822 0.253901
Si Si3 0.000000 0.675052 0.500000
Si Si4 0.210419 0.782839 0.251139
Si Si5 0.718937 0.074911 0.723711
O O1 0.556485 0.871797 0.336423
O O2 0.684968 0.924229 0.438069
O O3 0.581042 0.000000 0.235532
O O4 0.650145 0.914848 0.941840
O O5 0.500000 0.339408 0.500000
O O6 0.471746 0.230524 0.295069
O O7 0.615940 0.275344 0.252035
O O8 0.500000 0.331794 0.000000
O O9 0.250000 0.750000 0.500000
O O10 0.225699 0.861832 0.250109
O O11 0.250000 0.750000 0.000000
O O12 0.749976 0.000000 0.770030
#
# Coordination Sequence:
#
# PCOD9204696 Si02
#       5
#     8   8   4   8   8
#     4  10  21  34  53  80 111 152 191 226 276 352
#     4  10  23  36  53  82 118 149 187 244 294 341
#     4  10  21  32  54  72 119 150 188 220 292 334
#     4  12  23  38  63  90 114 154 204 245 289 347
#     4  10  22  39  57  82 115 148 192 242 290 339
#
# _framework density 20.148381000000001
#
# number of rings (size 3 to 8) (size 9 to 14) (size 15 to 20)
#    0.667    0.889    0.000    5.667    6.222    0.000 
#    0.000    3.333    0.000    1.333    0.000    0.000 
#    0.000    0.000    0.000    0.000    0.000    0.000 
#
# Total GULP energy -100284.405429 kJ/mol
# GULP energy per Si atom -5571.355857 kJ/mol
# Density = 2.010252 g / cm^3
# Si number density = 20.148381 Si / 1000 Ang^3
#
#
#
# Elastic Constant Matrix: (Units=GPa)
#
#
# Indices 1 2 3 4 5 6 
#
# 1 58.7940 3.5854 35.4518 0.0000 -6.0178 0.0000
# 2 3.5854 101.0664 -5.6855 0.0000 -8.2933 0.0000
# 3 35.4518 -5.6855 134.0305 0.0000 2.9725 0.0000
# 4 0.0000 0.0000 0.0000 21.1488 0.0000 -2.9099
# 5 -6.0178 -8.2933 2.9725 0.0000 24.8233 0.0000
# 6 0.0000 0.0000 0.0000 -2.9099 0.0000 25.2584
#
#
#
# Elastic Compliance Matrix: (Units=1/GPa)
#
#
# Indices 1 2 3 4 5 6 
#
# 1 0.021068 -0.000611 -0.005723 0.000000 0.005589 0.000000
# 2 -0.000611 0.010208 0.000524 0.000000 0.003200 0.000000
# 3 -0.005723 0.000524 0.009048 0.000000 -0.002296 0.000000
# 4 0.000000 0.000000 0.000000 0.048046 0.000000 0.005535
# 5 0.005589 0.003200 -0.002296 0.000000 0.042984 0.000000
# 6 0.000000 0.000000 0.000000 0.005535 0.000000 0.040228
#
#
# Mechanical properties :
#
#
# Convention : Reuss Voigt Hill
#
# Bulk Modulus (GPa) = 34.83719 40.06605 37.45162
# Shear Modulus (GPa) = 25.93770 31.61539 28.77655
#
# Velocity S-wave (km/s) = 3.59184 3.96552 3.78329
# Velocity P-wave (km/s) = 5.87619 6.39498 6.14107
#
# Compressibility (1/GPa) = 0.02870495
#
# Stress axis : x y z
#
# Youngs Moduli (GPa) = 47.46438 97.96076 110.52455
#
# Poissons Ratio (x) = 0.05983 0.63248
# Poissons Ratio (y) = 0.02899 -0.05787
# Poissons Ratio (z) = 0.27162 -0.05129
#
# Static dielectric constant tensor:
#      x y z
#    x 1.750140 0.000000 0.022930 
#    y 0.000000 1.717040 0.000000 
#    z 0.022930 0.000000 1.833610 
# 
# From -- ./inp_files/15578.got.cif
#   From: 2010.05.17/outbox.cif.g08.bks.cpg/sg12_8_cif.got.tgz:15578.got - 2010.06.03 13:09:07.
