data_PCOD9204588
_publ_section_title
;
Structure prediction by ZEFSAII (Michael W. Deem and Ramdas Pophale) SiO2 
 PCOD9204588
Probable space group: C 2/M
;
_chemical_formula_sum "Si O2"
_cell_formula_units_Z 48
_cell_length_a 17.748815
_cell_length_b 15.105859
_cell_length_c 9.852279
_cell_angle_alpha 90.000000
_cell_angle_beta 124.528196
_cell_angle_gamma 90.000000
_cell_volume 2176.197173
_symmetry_space_group_name_H-M "C 2/M"
_symmetry_group_IT_number 12
_symmetry_cell_setting 'monoclinic'
loop_
_space_group_symop_operation_xyz
x,y,z
-x,y,-z
-x,-y,-z
x,-y,z
1/2+x,1/2+y,z
1/2-x,1/2+y,-z
1/2-x,1/2-y,-z
1/2+x,1/2-y,z
loop_
_atom_site_type_symbol
_atom_site_label
_atom_site_fract_x
_atom_site_fract_y
_atom_site_fract_z
Si Si1 0.535207 0.099712 0.884915
Si Si2 0.065576 0.899389 0.272216
Si Si3 0.226875 0.172148 0.251196
Si Si4 0.359353 0.687339 0.406367
Si Si5 0.920986 0.373836 0.520431
Si Si6 0.113827 0.786229 0.883192
O O1 0.447429 0.096331 0.696111
O O2 0.595886 0.180981 0.888805
O O3 0.576741 0.000000 0.926508
O O4 0.500000 0.120033 0.000000
O O5 0.144909 0.863873 0.255992
O O6 0.107775 0.892243 0.467981
O O7 0.976986 0.838587 0.165221
O O8 0.042049 0.000000 0.217257
O O9 0.259636 0.270326 0.333844
O O10 0.317873 0.112420 0.363721
O O11 0.195130 0.182841 0.064575
O O12 0.424606 0.767188 0.523507
O O13 0.368175 0.685972 0.253794
O O14 0.000000 0.405199 0.500000
#
# Coordination Sequence:
#
# PCOD9204588 Si02
#       6
#     8   8   8   8   8   8
#     4  11  23  39  65  97 130 173 224 279 337 396
#     4  12  25  43  69 101 140 181 225 279 339 408
#     4  10  24  40  69  96 133 179 222 279 335 403
#     4  10  22  43  68  99 129 179 232 272 337 400
#     4  10  20  43  68  99 127 174 229 273 333 399
#     4  12  22  44  68  98 138 177 228 277 341 407
#
# _framework density 22.056825
#
# number of rings (size 3 to 8) (size 9 to 14) (size 15 to 20)
#    1.000    0.167    3.333    3.000    0.000    3.667 
#    0.000    3.333    0.000    4.000    0.000    0.000 
#    0.000    0.000    0.000    0.000    0.000    0.000 
#
# Total GULP energy -133937.227016 kJ/mol
# GULP energy per Si atom -5580.717792 kJ/mol
# Density = 2.200662 g / cm^3
# Si number density = 22.056825 Si / 1000 Ang^3
#
#
#
# Elastic Constant Matrix: (Units=GPa)
#
#
# Indices 1 2 3 4 5 6 
#
# 1 79.2269 31.7081 33.9527 0.0000 0.9759 0.0000
# 2 31.7081 91.5538 14.6146 0.0000 3.1584 0.0000
# 3 33.9527 14.6146 159.3071 0.0000 -6.4810 0.0000
# 4 0.0000 0.0000 0.0000 28.6910 0.0000 -1.6652
# 5 0.9759 3.1584 -6.4810 0.0000 30.7102 0.0000
# 6 0.0000 0.0000 0.0000 -1.6652 0.0000 -59.6346
#
#
#
# Elastic Compliance Matrix: (Units=1/GPa)
#
#
# Indices 1 2 3 4 5 6 
#
# 1 0.015903 -0.005015 -0.002954 0.000000 -0.000613 0.000000
# 2 -0.005015 0.012723 -0.000146 0.000000 -0.001180 0.000000
# 3 -0.002954 -0.000146 0.006985 0.000000 0.001583 0.000000
# 4 0.000000 0.000000 0.000000 0.034798 0.000000 -0.000972
# 5 -0.000613 -0.001180 0.001583 0.000000 0.033037 0.000000
# 6 0.000000 0.000000 0.000000 -0.000972 0.000000 -0.016742
#
#
# Mechanical properties :
#
#
# Convention : Reuss Voigt Hill
#
# Bulk Modulus (GPa) = 51.60032 54.51540 53.05786
# Shear Modulus (GPa) = 45.70595 16.60748 31.15671
#
# Velocity S-wave (km/s) = 4.55707 2.74695 3.76249
# Velocity P-wave (km/s) = 7.15082 5.90174 6.55610
#
# Compressibility (1/GPa) = 0.01937973
#
# Stress axis : x y z
#
# Youngs Moduli (GPa) = 62.88286 78.59510 143.17151
#
# Poissons Ratio (x) = 0.39414 0.42295
# Poissons Ratio (y) = 0.31535 0.02096
# Poissons Ratio (z) = 0.18577 0.01151
#
# Static dielectric constant tensor:
#      x y z
#    x 1.822320 0.000000 0.000010 
#    y 0.000000 1.807350 0.000000 
#    z 0.000010 0.000000 1.836380 
# 
# From -- ./inp_files/75441.got.cif
#   From: 2010.05.17/outbox.cif.g08.bks.cpg/sg12_38_cif.got.tgz:75441.got - 2010.06.03 13:09:07.
