data_PCOD9204152
_publ_section_title
;
Structure prediction by ZEFSAII (Michael W. Deem and Ramdas Pophale) SiO2 
 PCOD9204152
Probable space group: C 2/M
;
_chemical_formula_sum "Si O2"
_cell_formula_units_Z 52
_cell_length_a 26.589239
_cell_length_b 16.380349
_cell_length_c 9.772294
_cell_angle_alpha 90.000000
_cell_angle_beta 39.368241
_cell_angle_gamma 90.000000
_cell_volume 2699.738657
_symmetry_space_group_name_H-M "C 2/M"
_symmetry_group_IT_number 12
_symmetry_cell_setting 'monoclinic'
loop_
_space_group_symop_operation_xyz
x,y,z
-x,y,-z
-x,-y,-z
x,-y,z
1/2+x,1/2+y,z
1/2-x,1/2+y,-z
1/2-x,1/2-y,-z
1/2+x,1/2-y,z
loop_
_atom_site_type_symbol
_atom_site_label
_atom_site_fract_x
_atom_site_fract_y
_atom_site_fract_z
Si Si1 0.469131 0.089635 0.908922
Si Si2 0.000000 0.155573 0.500000
Si Si3 0.747469 0.220772 0.160098
Si Si4 0.377865 0.594246 0.974855
Si Si5 0.366594 0.678921 0.277262
Si Si6 0.430156 0.240910 0.403030
Si Si7 0.801459 0.658609 0.276623
O O1 0.507310 0.168809 0.756705
O O2 0.492254 0.000000 0.804676
O O3 0.500000 0.093518 0.000000
O O4 0.373810 0.097176 0.108644
O O5 0.943539 0.104799 0.718989
O O6 0.951162 0.212008 0.497644
O O7 0.657656 0.204484 0.394191
O O8 0.781233 0.295570 0.178569
O O9 0.750000 0.250000 0.000000
O O10 0.802026 0.143953 0.079901
O O11 0.361181 0.500000 0.033914
O O12 0.401679 0.637099 0.068465
O O13 0.421261 0.696108 0.293690
O O14 0.284388 0.631732 0.486585
O O15 0.336822 0.769580 0.298070
#
# Coordination Sequence:
#
# PCOD9204152 Si02
#       7
#     8   4   8   8   8   8   8
#     4  11  23  36  58  95 133 160 192 254 319 358
#     4  12  25  40  67  88 126 164 202 258 307 382
#     4  10  20  40  66  89 116 163 213 248 297 368
#     4  11  24  41  63  93 124 156 202 265 320 358
#     4   9  19  38  64  87 112 160 216 253 290 363
#     4  11  22  40  66  92 121 164 215 247 297 379
#     4   9  18  36  60  87 119 156 210 250 285 362
#
# _framework density 19.261123000000001
#
# number of rings (size 3 to 8) (size 9 to 14) (size 15 to 20)
#    0.000    1.692    3.077    3.000    0.000    1.231 
#    0.000    3.462    0.000    0.000    0.000    0.000 
#    0.000    0.000    0.000    0.000    0.000    0.000 
#
# Total GULP energy -145088.164367 kJ/mol
# GULP energy per Si atom -5580.314014 kJ/mol
# Density = 1.921728 g / cm^3
# Si number density = 19.261123 Si / 1000 Ang^3
#
#
#
# Elastic Constant Matrix: (Units=GPa)
#
#
# Indices 1 2 3 4 5 6 
#
# 1 105.4857 24.7123 48.9929 0.0000 9.6724 0.0000
# 2 24.7123 73.4117 41.0025 0.0000 -3.3806 0.0000
# 3 48.9929 41.0025 106.3880 0.0000 3.4864 0.0000
# 4 0.0000 0.0000 0.0000 18.7243 0.0000 -2.0639
# 5 9.6724 -3.3806 3.4864 0.0000 40.2277 0.0000
# 6 0.0000 0.0000 0.0000 -2.0639 0.0000 4.5691
#
#
#
# Elastic Compliance Matrix: (Units=1/GPa)
#
#
# Indices 1 2 3 4 5 6 
#
# 1 0.012423 -0.001476 -0.005064 0.000000 -0.002672 0.000000
# 2 -0.001476 0.017703 -0.006221 0.000000 0.002382 0.000000
# 3 -0.005064 -0.006221 0.014147 0.000000 -0.000531 0.000000
# 4 0.000000 0.000000 0.000000 0.056205 0.000000 0.025388
# 5 -0.002672 0.002382 -0.000531 0.000000 0.025747 0.000000
# 6 0.000000 0.000000 0.000000 0.025388 0.000000 0.230332
#
#
# Mechanical properties :
#
#
# Convention : Reuss Voigt Hill
#
# Bulk Modulus (GPa) = 53.33523 57.18899 55.26211
# Shear Modulus (GPa) = 12.87563 24.07604 18.47584
#
# Velocity S-wave (km/s) = 2.58830 3.53934 3.10050
# Velocity P-wave (km/s) = 6.05666 6.81604 6.44754
#
# Compressibility (1/GPa) = 0.01874933
#
# Stress axis : x y z
#
# Youngs Moduli (GPa) = 80.49585 56.48725 70.68747
#
# Poissons Ratio (x) = 0.08340 0.35799
# Poissons Ratio (y) = 0.11884 0.43975
# Poissons Ratio (z) = 0.40766 0.35141
#
# Static dielectric constant tensor:
#      x y z
#    x 1.697700 0.000000 -0.026710 
#    y 0.000000 1.642850 0.000000 
#    z -0.026710 0.000000 1.729300 
# 
# From -- ./inp_files/105758.got.cif
#   From: 2010.05.17/outbox.cif.g08.bks.cpg/sg12_53_cif.got.tgz:105758.got - 2010.06.03 13:09:07.
