data_PCOD9204054
_publ_section_title
;
Structure prediction by ZEFSAII (Michael W. Deem and Ramdas Pophale) SiO2 
 PCOD9204054
Probable space group: C 2/M
;
_chemical_formula_sum "Si O2"
_cell_formula_units_Z 56
_cell_length_a 11.153211
_cell_length_b 17.960085
_cell_length_c 16.973169
_cell_angle_alpha 90.000000
_cell_angle_beta 46.774864
_cell_angle_gamma 90.000000
_cell_volume 2477.428239
_symmetry_space_group_name_H-M "C 2/M"
_symmetry_group_IT_number 12
_symmetry_cell_setting 'monoclinic'
loop_
_space_group_symop_operation_xyz
x,y,z
-x,y,-z
-x,-y,-z
x,-y,z
1/2+x,1/2+y,z
1/2-x,1/2+y,-z
1/2-x,1/2-y,-z
1/2+x,1/2-y,z
loop_
_atom_site_type_symbol
_atom_site_label
_atom_site_fract_x
_atom_site_fract_y
_atom_site_fract_z
Si Si1 0.797827 0.677030 0.025403
Si Si2 0.197830 0.266158 0.408460
Si Si3 0.712275 0.291494 0.231772
Si Si4 0.493691 0.413472 0.912359
Si Si5 0.451098 0.162943 0.339420
Si Si6 0.588538 0.087452 0.808606
Si Si7 0.197332 0.585921 0.340778
O O1 0.816173 0.707065 0.105508
O O2 0.637028 0.625862 0.085296
O O3 0.750000 0.750000 0.000000
O O4 0.946578 0.629492 0.922147
O O5 0.266894 0.245335 0.289545
O O6 0.273666 0.201147 0.428192
O O7 0.239007 0.354096 0.389993
O O8 0.000000 0.257551 0.500000
O O9 0.558170 0.239156 0.280237
O O10 0.733276 0.378257 0.246871
O O11 0.445256 0.500000 0.940981
O O12 0.668607 0.409454 0.790023
O O13 0.500000 0.384075 0.000000
O O14 0.448886 0.110203 0.264588
O O15 0.531549 0.116935 0.374063
O O16 0.581245 0.000000 0.824064
O O17 0.185715 0.500000 0.370827
#
# Coordination Sequence:
#
# PCOD9204054 Si02
#       7
#     8   8   8   8   8   8   8
#     4  12  23  35  59  88 129 170 206 246 293 366
#     4  10  23  42  66  91 120 156 206 260 315 371
#     4  10  23  39  59  90 122 161 208 249 303 359
#     4  10  22  37  56  87 128 167 205 247 298 359
#     4  10  20  40  64  88 121 163 205 247 305 374
#     4  11  23  39  61  91 129 168 205 251 303 358
#     4  10  21  37  62  91 123 158 206 259 307 360
#
# _framework density 22.604085000000001
#
# number of rings (size 3 to 8) (size 9 to 14) (size 15 to 20)
#    0.000    1.571    1.429    3.000    6.000    5.429 
#    0.000    0.714    0.000   14.143    0.000    0.000 
#    0.000    0.000    0.000    0.000    0.000    0.000 
#
# Total GULP energy -156047.260017 kJ/mol
# GULP energy per Si atom -5573.116429 kJ/mol
# Density = 2.255264 g / cm^3
# Si number density = 22.604085 Si / 1000 Ang^3
#
#
#
# Elastic Constant Matrix: (Units=GPa)
#
#
# Indices 1 2 3 4 5 6 
#
# 1 37.0891 35.7667 1.1650 0.0001 -7.0912 -0.0001
# 2 35.7667 179.4688 29.0098 0.0000 -10.3051 -0.0001
# 3 1.1650 29.0098 62.9938 0.0000 14.1781 -0.0002
# 4 0.0001 0.0000 0.0000 24.7057 -0.0001 5.6771
# 5 -7.0912 -10.3051 14.1781 -0.0001 32.6843 0.0002
# 6 -0.0001 -0.0001 -0.0002 5.6771 0.0002 26.9838
#
#
#
# Elastic Compliance Matrix: (Units=1/GPa)
#
#
# Indices 1 2 3 4 5 6 
#
# 1 0.034387 -0.006819 0.001451 0.000000 0.004681 0.000000
# 2 -0.006819 0.007742 -0.004051 0.000000 0.002719 0.000000
# 3 0.001451 -0.004051 0.019870 0.000000 -0.009582 0.000000
# 4 0.000000 0.000000 0.000000 0.042533 0.000000 -0.008948
# 5 0.004681 0.002719 -0.009582 0.000000 0.036625 0.000000
# 6 0.000000 0.000000 0.000000 -0.008948 0.000000 0.038942
#
#
# Mechanical properties :
#
#
# Convention : Reuss Voigt Hill
#
# Bulk Modulus (GPa) = 23.16939 45.71499 34.44219
# Shear Modulus (GPa) = 23.43848 31.11544 27.27696
#
# Velocity S-wave (km/s) = 3.22361 3.71420 3.47757
# Velocity P-wave (km/s) = 4.91201 6.21786 5.60311
#
# Compressibility (1/GPa) = 0.04316039
#
# Stress axis : x y z
#
# Youngs Moduli (GPa) = 29.08059 129.16764 50.32716
#
# Poissons Ratio (x) = 0.88076 -0.07300
# Poissons Ratio (y) = 0.19829 0.20388
# Poissons Ratio (z) = -0.04218 0.52327
#
# Static dielectric constant tensor:
#      x y z
#    x 1.996280 0.000000 0.002050 
#    y 0.000000 2.032400 0.000000 
#    z 0.002050 0.000000 1.892250 
# 
# From -- ./inp_files/264189.got.cif
#   From: 2010.05.17/outbox.cif.g08.bks.cpg/sg12_133_cif.got.tgz:264189.got - 2010.06.03 13:09:07.
