data_PCOD9204748
_publ_section_title
;
Structure prediction by ZEFSAII (Michael W. Deem and Ramdas Pophale) SiO2 
 PCOD9204748
Probable space group: C 2/M
;
_chemical_formula_sum "Si O2"
_cell_formula_units_Z 58
_cell_length_a 12.853625
_cell_length_b 12.569199
_cell_length_c 18.397939
_cell_angle_alpha 90.000000
_cell_angle_beta 64.518980
_cell_angle_gamma 90.000000
_cell_volume 2683.238285
_symmetry_space_group_name_H-M "C 2/M"
_symmetry_group_IT_number 12
_symmetry_cell_setting 'monoclinic'
loop_
_space_group_symop_operation_xyz
x,y,z
-x,y,-z
-x,-y,-z
x,-y,z
1/2+x,1/2+y,z
1/2-x,1/2+y,-z
1/2-x,1/2-y,-z
1/2+x,1/2-y,z
loop_
_atom_site_type_symbol
_atom_site_label
_atom_site_fract_x
_atom_site_fract_y
_atom_site_fract_z
Si Si1 0.607726 0.621947 0.521896
Si Si2 0.500000 0.500000 0.000000
Si Si3 0.313118 0.875936 0.935134
Si Si4 0.870555 0.380350 0.070455
Si Si5 0.291433 0.880439 0.697763
Si Si6 0.189112 0.722831 0.620468
Si Si7 0.979262 0.371941 0.764414
Si Si8 0.620701 0.657540 0.872599
O O1 0.500000 0.640856 0.500000
O O2 0.598040 0.500000 0.551430
O O3 0.729128 0.637682 0.443328
O O4 0.617325 0.707776 0.583591
O O5 0.508865 0.594682 0.933091
O O6 0.417517 0.828632 0.855969
O O7 0.206780 0.879798 0.912126
O O8 0.344710 0.000000 0.938700
O O9 0.295940 0.840889 0.023240
O O10 0.839807 0.500000 0.104505
O O11 0.870423 0.284846 0.127019
O O12 0.000000 0.383413 0.000000
O O13 0.274874 0.801880 0.636644
O O14 0.390568 0.849424 0.725076
O O15 0.174616 0.879654 0.781055
O O16 0.314849 0.000000 0.665498
O O17 0.101215 0.673000 0.704357
O O18 0.985779 0.500000 0.769340
#
# Coordination Sequence:
#
# PCOD9204748 Si02
#       8
#     8   2   8   8   8   8   8   8
#     4  10  22  40  59  86 121 153 185 223 282 347
#     4  12  20  32  58  84  98 148 196 238 266 356
#     4   9  18  35  54  75 106 146 185 237 293 337
#     4  10  21  33  50  75 105 145 189 236 285 334
#     4  10  21  38  57  84 118 148 185 243 298 336
#     4  11  21  35  63  89 111 151 193 231 277 341
#     4   9  19  35  57  83 113 149 193 236 285 344
#     4  11  20  36  55  78 109 144 193 236 290 343
#
# _framework density 21.615670999999999
#
# number of rings (size 3 to 8) (size 9 to 14) (size 15 to 20)
#    0.000    1.931    2.069    2.897    1.931    0.000 
#    0.000    0.690    0.000    9.931    0.000    0.000 
#    0.000    0.000    0.000    0.000    0.000    0.000 
#
# Total GULP energy -161556.515798 kJ/mol
# GULP energy per Si atom -5570.914338 kJ/mol
# Density = 2.156647 g / cm^3
# Si number density = 21.615671 Si / 1000 Ang^3
#
#
#
# Elastic Constant Matrix: (Units=GPa)
#
#
# Indices 1 2 3 4 5 6 
#
# 1 61.1779 12.3494 -1.4680 0.0000 11.5716 0.0000
# 2 12.3494 91.7552 8.7154 0.0000 9.6293 0.0000
# 3 -1.4680 8.7154 48.7115 0.0000 -7.1275 0.0000
# 4 0.0000 0.0000 0.0000 13.6580 0.0000 -2.1754
# 5 11.5716 9.6293 -7.1275 0.0000 28.7787 0.0000
# 6 0.0000 0.0000 0.0000 -2.1754 0.0000 15.6808
#
#
#
# Elastic Compliance Matrix: (Units=1/GPa)
#
#
# Indices 1 2 3 4 5 6 
#
# 1 0.017950 -0.001702 -0.000132 0.000000 -0.006681 0.000000
# 2 -0.001702 0.011802 -0.002740 0.000000 -0.003943 0.000000
# 3 -0.000132 -0.002740 0.021953 0.000000 0.006407 0.000000
# 4 0.000000 0.000000 0.000000 0.074872 0.000000 0.010387
# 5 -0.006681 -0.003943 0.006407 0.000000 0.040340 0.000000
# 6 0.000000 0.000000 0.000000 0.010387 0.000000 0.065213
#
#
# Mechanical properties :
#
#
# Convention : Reuss Voigt Hill
#
# Bulk Modulus (GPa) = 23.49835 26.75980 25.12908
# Shear Modulus (GPa) = 19.57232 23.76003 21.66617
#
# Velocity S-wave (km/s) = 3.01237 3.31902 3.16940
# Velocity P-wave (km/s) = 4.79518 5.20524 5.00441
#
# Compressibility (1/GPa) = 0.04255617
#
# Stress axis : x y z
#
# Youngs Moduli (GPa) = 55.71087 84.73356 45.55253
#
# Poissons Ratio (x) = 0.14424 0.00601
# Poissons Ratio (y) = 0.09483 0.12480
# Poissons Ratio (z) = 0.00735 0.23215
#
# Static dielectric constant tensor:
#      x y z
#    x 1.863930 0.000000 -0.007270 
#    y 0.000000 1.875490 0.000000 
#    z -0.007270 0.000000 1.798920 
# 
# From -- ./inp_files/309833.got.cif
#   From: 2010.05.17/outbox.cif.g08.bks.cpg/sg12_155_cif.got.tgz:309833.got - 2010.06.03 13:09:07.
