data_PCOD9204230
_publ_section_title
;
Structure prediction by ZEFSAII (Michael W. Deem and Ramdas Pophale) SiO2 
 PCOD9204230
Probable space group: C 2/M
;
_chemical_formula_sum "Si O2"
_cell_formula_units_Z 64
_cell_length_a 18.131416
_cell_length_b 13.826476
_cell_length_c 23.243155
_cell_angle_alpha 90.000000
_cell_angle_beta 148.346559
_cell_angle_gamma 90.000000
_cell_volume 3057.846385
_symmetry_space_group_name_H-M "C 2/M"
_symmetry_group_IT_number 12
_symmetry_cell_setting 'monoclinic'
loop_
_space_group_symop_operation_xyz
x,y,z
-x,y,-z
-x,-y,-z
x,-y,z
1/2+x,1/2+y,z
1/2-x,1/2+y,-z
1/2-x,1/2-y,-z
1/2+x,1/2-y,z
loop_
_atom_site_type_symbol
_atom_site_label
_atom_site_fract_x
_atom_site_fract_y
_atom_site_fract_z
Si Si1 0.340444 0.292791 0.373630
Si Si2 0.899130 0.116810 0.173239
Si Si3 0.158579 0.890195 0.083589
Si Si4 0.631549 0.266242 0.730215
Si Si5 0.295096 0.610514 0.668956
Si Si6 0.891533 0.385094 0.699227
Si Si7 0.607441 0.112617 0.432923
Si Si8 0.797244 0.615890 0.056407
O O1 0.500000 0.305142 0.500000
O O2 0.329542 0.325785 0.300562
O O3 0.290906 0.181267 0.347101
O O4 0.228909 0.344843 0.340310
O O5 0.902469 0.169502 0.236769
O O6 0.041561 0.134180 0.231598
O O7 0.891221 0.000000 0.176232
O O8 0.768070 0.151469 0.046918
O O9 0.245500 0.807714 0.172365
O O10 0.185405 0.872608 0.033716
O O11 0.212379 0.000000 0.130351
O O12 0.000000 0.886972 0.000000
O O13 0.504522 0.195371 0.627732
O O14 0.282223 0.500000 0.680082
O O15 0.228520 0.618301 0.560740
O O16 0.895455 0.500000 0.707815
O O17 0.854572 0.365756 0.608086
O O18 0.049187 0.349352 0.820375
O O19 0.556087 0.000000 0.400158
O O20 0.811622 0.500000 0.058352
#
# Coordination Sequence:
#
# PCOD9204230 Si02
#       8
#     8   8   8   8   8   8   8   8
#     4  12  27  41  58  92 133 168 208 261 323 380
#     4  10  24  43  66  93 124 169 218 266 308 372
#     4  10  22  39  62  96 134 165 202 263 329 384
#     4  12  24  39  61  91 130 167 209 260 318 382
#     4  10  23  42  65  92 126 169 212 258 321 381
#     4  10  22  42  69  93 120 167 218 264 312 372
#     4  10  20  40  68  93 118 160 216 264 313 375
#     4   9  19  41  67  92 122 165 216 258 309 371
#
# _framework density 20.929763000000001
#
# number of rings (size 3 to 8) (size 9 to 14) (size 15 to 20)
#    0.000    1.625    2.500    1.125    3.500    4.500 
#    0.000    0.000    0.000    2.625    0.000    0.000 
#    0.000    0.000    0.000    0.000    0.000    0.000 
#
# Total GULP energy -178827.564654 kJ/mol
# GULP energy per Si atom -5588.361395 kJ/mol
# Density = 2.088213 g / cm^3
# Si number density = 20.929763 Si / 1000 Ang^3
#
#
#
# Elastic Constant Matrix: (Units=GPa)
#
#
# Indices 1 2 3 4 5 6 
#
# 1 103.3320 11.8921 26.9114 0.0001 3.2601 0.0000
# 2 11.8921 42.1686 12.4264 0.0001 4.1640 0.0002
# 3 26.9114 12.4264 60.3070 0.0013 1.9232 -0.0003
# 4 0.0001 0.0001 0.0013 17.2562 0.0001 7.8354
# 5 3.2601 4.1640 1.9232 0.0001 31.2272 -0.0001
# 6 0.0000 0.0002 -0.0003 7.8354 -0.0001 20.7872
#
#
#
# Elastic Compliance Matrix: (Units=1/GPa)
#
#
# Indices 1 2 3 4 5 6 
#
# 1 0.011086 -0.001715 -0.004573 0.000000 -0.000647 0.000000
# 2 -0.001715 0.025806 -0.004457 0.000000 -0.002988 0.000000
# 3 -0.004573 -0.004457 0.019545 -0.000002 -0.000132 0.000001
# 4 0.000000 0.000000 -0.000002 0.069916 0.000000 -0.026354
# 5 -0.000647 -0.002988 -0.000132 0.000000 0.032497 0.000000
# 6 0.000000 0.000000 0.000001 -0.026354 0.000000 0.058040
#
#
# Mechanical properties :
#
#
# Convention : Reuss Voigt Hill
#
# Bulk Modulus (GPa) = 28.61410 34.25192 31.43301
# Shear Modulus (GPa) = 19.99750 24.15928 22.07839
#
# Velocity S-wave (km/s) = 3.09440 3.40119 3.25142
# Velocity P-wave (km/s) = 5.14473 5.64135 5.39875
#
# Compressibility (1/GPa) = 0.03494780
#
# Stress axis : x y z
#
# Youngs Moduli (GPa) = 90.20101 38.75010 51.16365
#
# Poissons Ratio (x) = 0.06646 0.23398
# Poissons Ratio (y) = 0.15469 0.22803
# Poissons Ratio (z) = 0.41250 0.17270
#
# Static dielectric constant tensor:
#      x y z
#    x 1.739830 0.000000 0.003740 
#    y 0.000000 1.800880 0.000000 
#    z 0.003740 0.000000 1.768190 
# 
# From -- ./inp_files/344095.got.cif
#   From: 2010.05.17/outbox.cif.g08.bks.cpg/sg12_173_cif.got.tgz:344095.got - 2010.06.03 13:09:07.
