data_PCOD9204837
_publ_section_title
;
Structure prediction by ZEFSAII (Michael W. Deem and Ramdas Pophale) SiO2 
 PCOD9204837
Probable space group: C 2/M
;
_chemical_formula_sum "Si O2"
_cell_formula_units_Z 64
_cell_length_a 22.110221
_cell_length_b 14.549341
_cell_length_c 22.370310
_cell_angle_alpha 90.000000
_cell_angle_beta 26.183707
_cell_angle_gamma 90.000000
_cell_volume 3175.366079
_symmetry_space_group_name_H-M "C 2/M"
_symmetry_group_IT_number 12
_symmetry_cell_setting 'monoclinic'
loop_
_space_group_symop_operation_xyz
x,y,z
-x,y,-z
-x,-y,-z
x,-y,z
1/2+x,1/2+y,z
1/2-x,1/2+y,-z
1/2-x,1/2-y,-z
1/2+x,1/2-y,z
loop_
_atom_site_type_symbol
_atom_site_label
_atom_site_fract_x
_atom_site_fract_y
_atom_site_fract_z
Si Si1 0.558343 0.346427 0.104771
Si Si2 0.864806 0.347364 0.805235
Si Si3 0.684245 0.900648 0.733646
Si Si4 0.069583 0.628730 0.123543
Si Si5 0.001632 0.898781 0.585817
Si Si6 0.383732 0.296499 0.152663
Si Si7 0.091652 0.693782 0.362968
Si Si8 0.622351 0.629873 0.178047
O O1 0.567860 0.237984 0.111878
O O2 0.436897 0.350653 0.164287
O O3 0.553447 0.390351 0.175036
O O4 0.704300 0.374565 0.946613
O O5 0.931092 0.391594 0.805174
O O6 0.933619 0.352168 0.679284
O O7 0.867656 0.239339 0.819725
O O8 0.565897 0.905075 0.788659
O O9 0.836269 0.888658 0.571106
O O10 0.645929 0.810221 0.804608
O O11 0.681529 0.000000 0.768116
O O12 0.218576 0.598807 0.966304
O O13 0.929334 0.805424 0.626089
O O14 0.964058 0.902456 0.688981
O O15 0.959002 0.000000 0.599483
O O16 0.244734 0.329906 0.246455
O O17 0.500000 0.299972 0.000000
O O18 0.000000 0.665351 0.500000
#
# Coordination Sequence:
#
# PCOD9204837 Si02
#       8
#     8   8   8   8   8   8   8   8
#     4   8  14  28  47  65  86 111 142 186 234 268
#     4   8  14  28  47  64  87 113 139 186 236 267
#     4  10  21  34  44  62  92 123 157 193 223 255
#     4   8  15  29  48  66  82 108 149 191 230 266
#     4  10  21  34  45  60  91 128 156 188 226 259
#     4  11  20  32  47  65  91 124 156 184 219 265
#     4  11  20  32  44  66  93 124 159 182 215 266
#     4   8  15  29  48  66  82 109 149 187 230 273
#
# _framework density 20.155156999999999
#
# number of rings (size 3 to 8) (size 9 to 14) (size 15 to 20)
#    0.000    2.750    2.500    1.500    1.750    1.500 
#    2.250    2.500    0.000    0.000    0.000    0.000 
#    0.000    2.000    0.000    0.125    0.000    0.000 
#
# Total GULP energy -178201.188561 kJ/mol
# GULP energy per Si atom -5568.787143 kJ/mol
# Density = 2.010928 g / cm^3
# Si number density = 20.155157 Si / 1000 Ang^3
#
#
#
# Elastic Constant Matrix: (Units=GPa)
#
#
# Indices 1 2 3 4 5 6 
#
# 1 108.9766 -8.4360 54.2991 -0.0006 9.9042 0.0002
# 2 -8.4360 20.1010 -4.3293 -0.0017 -1.7019 0.0005
# 3 54.2991 -4.3293 105.6409 -0.0015 13.3615 0.0006
# 4 -0.0006 -0.0017 -0.0015 10.6793 0.0010 0.4756
# 5 9.9042 -1.7019 13.3615 0.0010 43.1015 -0.0003
# 6 0.0002 0.0005 0.0006 0.4756 -0.0003 -7.0516
#
#
#
# Elastic Compliance Matrix: (Units=1/GPa)
#
#
# Indices 1 2 3 4 5 6 
#
# 1 0.012665 0.003901 -0.006246 0.000000 -0.000820 0.000000
# 2 0.003901 0.051474 -0.000041 0.000008 0.001149 0.000005
# 3 -0.006246 -0.000041 0.013003 0.000002 -0.002597 0.000001
# 4 0.000000 0.000008 0.000002 0.093359 -0.000003 0.006297
# 5 -0.000820 0.001149 -0.002597 -0.000003 0.024240 -0.000001
# 6 0.000000 0.000005 0.000001 0.006297 -0.000001 -0.141388
#
#
# Mechanical properties :
#
#
# Convention : Reuss Voigt Hill
#
# Bulk Modulus (GPa) = 13.81790 35.30955 24.56372
# Shear Modulus (GPa) = 60.79012 22.22483 41.50747
#
# Velocity S-wave (km/s) = 5.49787 3.32428 4.54298
# Velocity P-wave (km/s) = 6.86824 5.68254 6.30333
#
# Compressibility (1/GPa) = 0.07236991
#
# Stress axis : x y z
#
# Youngs Moduli (GPa) = 78.95770 19.42721 76.90291
#
# Poissons Ratio (x) = -0.07578 0.48035
# Poissons Ratio (y) = -0.30798 0.00313
# Poissons Ratio (z) = 0.49319 0.00079
#
# Static dielectric constant tensor:
#      x y z
#    x 1.741050 0.000000 0.016850 
#    y 0.000000 1.791120 0.000000 
#    z 0.016850 0.000000 1.707470 
# 
# From -- ./inp_files/89145.got.cif
#   From: 2010.05.17/outbox.cif.g08.bks.cpg/sg12_45_cif.got.tgz:89145.got - 2010.06.03 13:09:07.
