data_PCOD9204740
_publ_section_title
;
Structure prediction by ZEFSAII (Michael W. Deem and Ramdas Pophale) SiO2 
 PCOD9204740
Probable space group: C 2/M
;
_chemical_formula_sum "Si O2"
_cell_formula_units_Z 48
_cell_length_a 35.037021
_cell_length_b 7.380071
_cell_length_c 27.717818
_cell_angle_alpha 90.000000
_cell_angle_beta 161.668296
_cell_angle_gamma 90.000000
_cell_volume 2254.197320
_symmetry_space_group_name_H-M "C 2/M"
_symmetry_group_IT_number 12
_symmetry_cell_setting 'monoclinic'
loop_
_space_group_symop_operation_xyz
x,y,z
-x,y,-z
-x,-y,-z
x,-y,z
1/2+x,1/2+y,z
1/2-x,1/2+y,-z
1/2-x,1/2-y,-z
1/2+x,1/2-y,z
loop_
_atom_site_type_symbol
_atom_site_label
_atom_site_fract_x
_atom_site_fract_y
_atom_site_fract_z
Si Si1 0.946728 0.720921 0.360676
Si Si2 0.812780 0.720598 0.296137
Si Si3 0.113710 0.716540 0.819082
Si Si4 0.542665 0.278164 0.998169
Si Si5 0.591892 0.781038 0.354394
Si Si6 0.637839 0.713106 0.300753
O O1 0.945292 0.500000 0.358449
O O2 0.855196 0.776624 0.293521
O O3 0.911236 0.784659 0.264979
O O4 0.081253 0.775209 0.539545
O O5 0.812184 0.500000 0.295516
O O6 0.679168 0.781115 0.150076
O O7 0.097693 0.500000 0.797780
O O8 0.015200 0.784439 0.739540
O O9 0.250000 0.750000 0.000000
O O10 0.543990 0.500000 0.998755
O O11 0.448124 0.214471 0.844203
O O12 0.500000 0.224015 0.000000
O O13 0.578107 0.732346 0.281762
O O14 0.725012 0.713875 0.530682
O O15 0.593826 0.000000 0.358477
O O16 0.651491 0.500000 0.307168
#
# Coordination Sequence:
#
# PCOD9204740 Si02
#       6
#     8   8   8   8   8   8
#     4   8  15  27  43  63  91 123 153 190 236 284
#     4   8  14  25  41  64  91 119 151 189 237 285
#     4  10  21  33  49  72  99 129 162 201 241 285
#     4   9  17  25  41  70  98 120 149 194 242 285
#     4   9  19  34  49  69  98 132 164 196 239 285
#     4   9  18  32  51  73  98 129 161 197 241 287
#
# _framework density 21.293610999999999
#
# number of rings (size 3 to 8) (size 9 to 14) (size 15 to 20)
#    0.000    3.167    0.000    1.000    4.667    0.667 
#    0.000    0.000    0.000    0.500    0.000    3.500 
#    0.000    0.000    0.000    0.000    0.000    0.000 
#
# Total GULP energy -133986.807073 kJ/mol
# GULP energy per Si atom -5582.783628 kJ/mol
# Density = 2.124515 g / cm^3
# Si number density = 21.293611 Si / 1000 Ang^3
#
#
#
# Elastic Constant Matrix: (Units=GPa)
#
#
# Indices 1 2 3 4 5 6 
#
# 1 198.4130 -7.7152 159.3043 0.0000 -9.8498 0.0000
# 2 -7.7152 71.3761 -1.3957 0.0000 -0.4355 0.0000
# 3 159.3043 -1.3957 180.6228 0.0000 -9.8758 0.0000
# 4 0.0000 0.0000 0.0000 2.7446 0.0000 -0.8092
# 5 -9.8498 -0.4355 -9.8758 0.0000 37.3692 0.0000
# 6 0.0000 0.0000 0.0000 -0.8092 0.0000 4.4986
#
#
#
# Elastic Compliance Matrix: (Units=1/GPa)
#
#
# Indices 1 2 3 4 5 6 
#
# 1 0.017457 0.001590 -0.015354 0.000000 0.000562 0.000000
# 2 0.001590 0.014159 -0.001280 0.000000 0.000246 0.000000
# 3 -0.015354 -0.001280 0.019122 -0.000001 0.000992 0.000000
# 4 0.000000 0.000000 -0.000001 0.384761 0.000000 0.069210
# 5 0.000562 0.000246 0.000992 0.000000 0.027173 0.000000
# 6 0.000000 0.000000 0.000000 0.069210 0.000000 0.234739
#
#
# Mechanical properties :
#
#
# Convention : Reuss Voigt Hill
#
# Bulk Modulus (GPa) = 48.42204 83.42209 65.92206
# Shear Modulus (GPa) = 6.80845 28.93705 17.87275
#
# Velocity S-wave (km/s) = 1.79007 3.69040 2.90029
# Velocity P-wave (km/s) = 5.20212 7.57765 6.49934
#
# Compressibility (1/GPa) = 0.02065175
#
# Stress axis : x y z
#
# Youngs Moduli (GPa) = 57.28361 70.62820 52.29534
#
# Poissons Ratio (x) = -0.11231 0.80292
# Poissons Ratio (y) = -0.09109 0.06692
# Poissons Ratio (z) = 0.87951 0.09038
#
# Static dielectric constant tensor:
#      x y z
#    x 1.724020 0.000000 0.001770 
#    y 0.000000 1.849750 0.000000 
#    z 0.001770 0.000000 1.733550 
# 
# From -- ./inp_files/164117.got.cif
#   From: 2010.05.17/outbox.cif.g08.bks.cpg/sg12_83_cif.got.tgz:164117.got - 2010.06.03 13:09:07.
