data_PCOD9204184
_publ_section_title
;
Structure prediction by ZEFSAII (Michael W. Deem and Ramdas Pophale) SiO2 
 PCOD9204184
Probable space group: C 2/M
;
_chemical_formula_sum "Si O2"
_cell_formula_units_Z 56
_cell_length_a 28.713653
_cell_length_b 8.603268
_cell_length_c 12.048827
_cell_angle_alpha 90.000000
_cell_angle_beta 109.768934
_cell_angle_gamma 90.000000
_cell_volume 2801.018419
_symmetry_space_group_name_H-M "C 2/M"
_symmetry_group_IT_number 12
_symmetry_cell_setting 'monoclinic'
loop_
_space_group_symop_operation_xyz
x,y,z
-x,y,-z
-x,-y,-z
x,-y,z
1/2+x,1/2+y,z
1/2-x,1/2+y,-z
1/2-x,1/2-y,-z
1/2+x,1/2-y,z
loop_
_atom_site_type_symbol
_atom_site_label
_atom_site_fract_x
_atom_site_fract_y
_atom_site_fract_z
Si Si1 0.147823 0.316394 0.565804
Si Si2 0.391565 0.318220 0.256581
Si Si3 0.495717 0.187867 0.366085
Si Si4 0.806463 0.685293 0.035099
Si Si5 0.748495 0.813480 0.374573
Si Si6 0.408717 0.814567 0.700356
Si Si7 0.155361 0.185134 0.166065
O O1 0.140754 0.500000 0.581003
O O2 0.112992 0.217230 0.616409
O O3 0.202625 0.261157 0.638068
O O4 0.134139 0.288636 0.426648
O O5 0.390071 0.500000 0.231399
O O6 0.444799 0.246949 0.270980
O O7 0.344084 0.238323 0.161911
O O8 0.500000 0.237545 0.500000
O O9 0.541686 0.235681 0.324802
O O10 0.495596 0.000000 0.368487
O O11 0.802574 0.500000 0.030018
O O12 0.750000 0.750000 0.000000
O O13 0.834257 0.744660 0.946532
O O14 0.750000 0.750000 0.500000
O O15 0.700831 0.751787 0.273949
O O16 0.750145 0.000000 0.373878
O O17 0.393104 0.735312 0.802855
O O18 0.411590 0.000000 0.721629
O O19 0.157344 0.000000 0.160967
#
# Coordination Sequence:
#
# PCOD9204184 Si02
#       7
#     8   8   8   8   8   8   8
#     4  11  21  37  60  89 126 168 212 261 319 383
#     4  12  25  41  64  97 133 169 217 269 326 386
#     4  10  20  40  66  95 131 174 220 268 325 387
#     4  12  26  48  73  96 128 170 221 270 323 388
#     4  12  23  36  55  86 124 164 208 257 316 383
#     4  10  21  38  63  92 128 169 214 263 320 384
#     4  12  25  42  64  92 130 170 213 268 329 387
#
# _framework density 19.992728
#
# number of rings (size 3 to 8) (size 9 to 14) (size 15 to 20)
#    0.000    0.714    2.857    6.429    0.000    1.429 
#    0.000    0.714    0.000    4.286    0.000    0.000 
#    0.000    0.000    0.000    0.000    0.000    0.000 
#
# Total GULP energy -156438.871635 kJ/mol
# GULP energy per Si atom -5587.102558 kJ/mol
# Density = 1.994722 g / cm^3
# Si number density = 19.992728 Si / 1000 Ang^3
#
#
#
# Elastic Constant Matrix: (Units=GPa)
#
#
# Indices 1 2 3 4 5 6 
#
# 1 157.6558 54.4260 38.9187 0.0000 -6.1013 0.0000
# 2 54.4260 112.5703 32.0609 0.0000 -1.7590 0.0000
# 3 38.9187 32.0609 75.2176 0.0000 -11.0850 0.0000
# 4 0.0000 0.0000 0.0000 26.4037 0.0000 -3.0874
# 5 -6.1013 -1.7590 -11.0850 0.0000 33.9129 0.0000
# 6 0.0000 0.0000 0.0000 -3.0874 0.0000 34.8549
#
#
#
# Elastic Compliance Matrix: (Units=1/GPa)
#
#
# Indices 1 2 3 4 5 6 
#
# 1 0.008132 -0.003122 -0.002821 0.000000 0.000379 0.000000
# 2 -0.003122 0.011338 -0.003376 0.000000 -0.001077 0.000000
# 3 -0.002821 -0.003376 0.016907 0.000000 0.004844 0.000000
# 4 0.000000 0.000000 0.000000 0.038270 0.000000 0.003390
# 5 0.000379 -0.001077 0.004844 0.000000 0.031083 0.000000
# 6 0.000000 0.000000 0.000000 0.003390 0.000000 0.028991
#
#
# Mechanical properties :
#
#
# Convention : Reuss Voigt Hill
#
# Bulk Modulus (GPa) = 56.37407 66.25055 61.31231
# Shear Modulus (GPa) = 31.39318 33.70352 32.54835
#
# Velocity S-wave (km/s) = 3.96691 4.11029 4.03924
# Velocity P-wave (km/s) = 7.01715 7.46560 7.24485
#
# Compressibility (1/GPa) = 0.01773865
#
# Stress axis : x y z
#
# Youngs Moduli (GPa) = 122.97363 88.20265 59.14705
#
# Poissons Ratio (x) = 0.27540 0.16684
# Poissons Ratio (y) = 0.38396 0.19967
# Poissons Ratio (z) = 0.34689 0.29775
#
# Static dielectric constant tensor:
#      x y z
#    x 1.732980 0.000000 -0.041740 
#    y 0.000000 1.666120 0.000000 
#    z -0.041740 0.000000 1.691850 
# 
# From -- ./inp_files/181035.got.cif
#   From: 2010.05.17/outbox.cif.g08.bks.cpg/sg12_91_cif.got.tgz:181035.got - 2010.06.03 13:09:07.
