data_PCOD9204285
_publ_section_title
;
Structure prediction by ZEFSAII (Michael W. Deem and Ramdas Pophale) SiO2 
 PCOD9204285
Probable space group: C 2/M
;
_chemical_formula_sum "Si O2"
_cell_formula_units_Z 58
_cell_length_a 14.615220
_cell_length_b 15.842308
_cell_length_c 15.237191
_cell_angle_alpha 90.000000
_cell_angle_beta 55.834859
_cell_angle_gamma 90.000000
_cell_volume 2919.147182
_symmetry_space_group_name_H-M "C 2/M"
_symmetry_group_IT_number 12
_symmetry_cell_setting 'monoclinic'
loop_
_space_group_symop_operation_xyz
x,y,z
-x,y,-z
-x,-y,-z
x,-y,z
1/2+x,1/2+y,z
1/2-x,1/2+y,-z
1/2-x,1/2-y,-z
1/2+x,1/2-y,z
loop_
_atom_site_type_symbol
_atom_site_label
_atom_site_fract_x
_atom_site_fract_y
_atom_site_fract_z
Si Si1 0.657273 0.356840 0.823827
Si Si2 0.892292 0.100173 0.332491
Si Si3 0.871198 0.101271 0.541625
Si Si4 0.228840 0.339996 0.057092
Si Si5 0.987106 0.595721 0.908800
Si Si6 0.858813 0.902858 0.834457
Si Si7 0.500000 0.500000 0.000000
Si Si8 0.704114 0.831482 0.769808
O O1 0.685002 0.383580 0.709345
O O2 0.746487 0.353339 0.854234
O O3 0.565808 0.424043 0.907214
O O4 0.638776 0.256446 0.818389
O O5 0.858327 0.129021 0.447303
O O6 0.016893 0.131474 0.242018
O O7 0.903418 0.000000 0.335087
O O8 0.793645 0.157802 0.645054
O O9 0.000000 0.110091 0.500000
O O10 0.845896 0.000000 0.564798
O O11 0.103765 0.360440 0.100714
O O12 0.250000 0.250000 0.000000
O O13 0.314443 0.399344 0.957463
O O14 0.947592 0.500000 0.941514
O O15 0.108590 0.600750 0.804417
O O16 0.000000 0.632101 0.000000
O O17 0.772034 0.853395 0.821178
O O18 0.857563 0.000000 0.805025
#
# Coordination Sequence:
#
# PCOD9204285 Si02
#       8
#     8   8   8   8   8   8   2   8
#     4  12  27  42  64  95 134 175 225 277 334 398
#     4  10  22  40  67  99 132 170 219 279 335 397
#     4  10  20  40  72 104 134 169 219 280 345 404
#     4  12  25  40  60  91 129 176 221 271 328 404
#     4  11  23  39  59  90 130 173 214 264 335 408
#     4  11  21  37  65  97 133 171 214 276 342 400
#     4  12  28  48  68  96 132 192 232 276 332 422
#     4  12  24  40  65 100 135 170 217 283 342 399
#
# _framework density 19.868815999999999
#
# number of rings (size 3 to 8) (size 9 to 14) (size 15 to 20)
#    0.000    0.828    4.828    2.483    8.690    0.552 
#    0.000    0.000    0.000    0.000    0.000    3.379 
#    0.000    0.000    0.000    0.000    0.000    0.000 
#
# Total GULP energy -161452.177998 kJ/mol
# GULP energy per Si atom -5567.316483 kJ/mol
# Density = 1.982359 g / cm^3
# Si number density = 19.868816 Si / 1000 Ang^3
#
#
#
# Elastic Constant Matrix: (Units=GPa)
#
#
# Indices 1 2 3 4 5 6 
#
# 1 108.7232 15.8780 55.1414 0.0000 19.7343 0.0000
# 2 15.8780 85.6819 23.2225 0.0000 -0.6050 0.0000
# 3 55.1414 23.2225 105.4576 0.0000 21.0959 0.0000
# 4 0.0000 0.0000 0.0000 20.3497 0.0000 5.3520
# 5 19.7343 -0.6050 21.0959 0.0000 38.7338 0.0000
# 6 0.0000 0.0000 0.0000 5.3520 0.0000 15.6405
#
#
#
# Elastic Compliance Matrix: (Units=1/GPa)
#
#
# Indices 1 2 3 4 5 6 
#
# 1 0.012924 -0.000820 -0.005900 0.000000 -0.003384 0.000000
# 2 -0.000820 0.012588 -0.002768 0.000000 0.002122 0.000000
# 3 -0.005900 -0.002768 0.014123 0.000000 -0.004729 0.000000
# 4 0.000000 0.000000 0.000000 0.054001 0.000000 -0.018478
# 5 -0.003384 0.002122 -0.004729 0.000000 0.030150 0.000000
# 6 0.000000 0.000000 0.000000 -0.018478 0.000000 0.070260
#
#
# Mechanical properties :
#
#
# Convention : Reuss Voigt Hill
#
# Bulk Modulus (GPa) = 48.40347 54.26073 51.33210
# Shear Modulus (GPa) = 22.73683 28.65288 25.69485
#
# Velocity S-wave (km/s) = 3.38649 3.80162 3.60005
# Velocity P-wave (km/s) = 6.30123 6.82924 6.57054
#
# Compressibility (1/GPa) = 0.02065968
#
# Stress axis : x y z
#
# Youngs Moduli (GPa) = 77.37523 79.43995 70.80608
#
# Poissons Ratio (x) = 0.06512 0.41777
# Poissons Ratio (y) = 0.06343 0.19598
# Poissons Ratio (z) = 0.45653 0.21987
#
# Static dielectric constant tensor:
#      x y z
#    x 1.708650 0.000000 0.022160 
#    y 0.000000 1.723910 0.000000 
#    z 0.022160 0.000000 1.739880 
# 
# From -- ./inp_files/215195.got.cif
#   From: 2010.05.17/outbox.cif.g08.bks.cpg/sg12_108_cif.got.tgz:215195.got - 2010.06.03 13:09:07.
