data_PCOD9204897
_publ_section_title
;
Structure prediction by ZEFSAII (Michael W. Deem and Ramdas Pophale) SiO2 
 PCOD9204897
Probable space group: C 2/M
;
_chemical_formula_sum "Si O2"
_cell_formula_units_Z 56
_cell_length_a 18.926877
_cell_length_b 17.360496
_cell_length_c 9.366687
_cell_angle_alpha 90.000000
_cell_angle_beta 64.048291
_cell_angle_gamma 90.000000
_cell_volume 2767.359764
_symmetry_space_group_name_H-M "C 2/M"
_symmetry_group_IT_number 12
_symmetry_cell_setting 'monoclinic'
loop_
_space_group_symop_operation_xyz
x,y,z
-x,y,-z
-x,-y,-z
x,-y,z
1/2+x,1/2+y,z
1/2-x,1/2+y,-z
1/2-x,1/2-y,-z
1/2+x,1/2-y,z
loop_
_atom_site_type_symbol
_atom_site_label
_atom_site_fract_x
_atom_site_fract_y
_atom_site_fract_z
Si Si1 0.422046 0.125753 0.635662
Si Si2 0.767197 0.829061 0.896993
Si Si3 0.911702 0.800414 0.556845
Si Si4 0.819097 0.410519 0.275746
Si Si5 0.796299 0.829200 0.425483
Si Si6 0.256738 0.585048 0.192142
Si Si7 0.492885 0.908394 0.172290
O O1 0.500000 0.086859 0.500000
O O2 0.414075 0.208136 0.568719
O O3 0.337692 0.087059 0.701533
O O4 0.447374 0.135034 0.778306
O O5 0.846943 0.824124 0.732809
O O6 0.701198 0.855618 0.840256
O O7 0.750000 0.750000 0.000000
O O8 0.771910 0.893093 0.015338
O O9 0.879017 0.822290 0.430682
O O10 0.000000 0.829679 0.500000
O O11 0.822780 0.500000 0.226044
O O12 0.751448 0.395987 0.450391
O O13 0.901201 0.393097 0.281737
O O14 0.750000 0.750000 0.500000
O O15 0.793969 0.850876 0.262719
O O16 0.286281 0.500000 0.200215
O O17 0.508504 0.000000 0.175611
O O18 0.500000 0.889664 0.000000
#
# Coordination Sequence:
#
# PCOD9204897 Si02
#       7
#     8   8   8   8   8   8   8
#     4  11  21  36  56  90 130 166 200 237 296 374
#     4  11  21  41  63  90 125 162 206 257 300 357
#     4  10  23  42  64  87 120 163 208 247 309 368
#     4  10  21  37  59  83 120 171 207 239 296 367
#     4  11  21  40  60  87 124 157 204 256 298 362
#     4  12  23  37  64  96 124 161 205 261 316 358
#     4  10  21  34  50  82 128 164 192 232 289 365
#
# _framework density 20.235893999999998
#
# number of rings (size 3 to 8) (size 9 to 14) (size 15 to 20)
#    0.000    1.286    2.857    3.857    2.000    3.429 
#    0.000    0.714    0.000   16.286    0.000    0.000 
#    0.000    0.000    0.000    0.000    0.000    0.000 
#
# Total GULP energy -156404.372194 kJ/mol
# GULP energy per Si atom -5585.870436 kJ/mol
# Density = 2.018984 g / cm^3
# Si number density = 20.235894 Si / 1000 Ang^3
#
#
#
# Elastic Constant Matrix: (Units=GPa)
#
#
# Indices 1 2 3 4 5 6 
#
# 1 123.4760 20.2493 18.4599 0.0000 11.4016 0.0000
# 2 20.2493 64.7952 6.7087 0.0000 3.9296 0.0000
# 3 18.4599 6.7087 70.7918 0.0000 10.5325 0.0000
# 4 0.0000 0.0000 0.0000 16.2765 0.0000 0.1104
# 5 11.4016 3.9296 10.5325 0.0000 38.9654 0.0000
# 6 0.0000 0.0000 0.0000 0.1104 0.0000 13.8870
#
#
#
# Elastic Compliance Matrix: (Units=1/GPa)
#
#
# Indices 1 2 3 4 5 6 
#
# 1 0.008953 -0.002496 -0.001819 0.000000 -0.001876 0.000000
# 2 -0.002496 0.016338 -0.000793 0.000000 -0.000703 0.000000
# 3 -0.001819 -0.000793 0.015195 0.000000 -0.003495 0.000000
# 4 0.000000 0.000000 0.000000 0.061442 0.000000 -0.000488
# 5 -0.001876 -0.000703 -0.003495 0.000000 0.027229 0.000000
# 6 0.000000 0.000000 0.000000 -0.000488 0.000000 0.072014
#
#
# Mechanical properties :
#
#
# Convention : Reuss Voigt Hill
#
# Bulk Modulus (GPa) = 33.03473 38.87765 35.95619
# Shear Modulus (GPa) = 22.57575 28.06876 25.32226
#
# Velocity S-wave (km/s) = 3.34373 3.72839 3.54129
# Velocity P-wave (km/s) = 5.59174 6.14723 5.87606
#
# Compressibility (1/GPa) = 0.03027117
#
# Stress axis : x y z
#
# Youngs Moduli (GPa) = 111.69123 61.20714 65.80937
#
# Poissons Ratio (x) = 0.15277 0.11971
# Poissons Ratio (y) = 0.27877 0.05218
# Poissons Ratio (z) = 0.20316 0.04853
#
# Static dielectric constant tensor:
#      x y z
#    x 1.736620 0.000000 -0.007070 
#    y 0.000000 1.729900 0.000000 
#    z -0.007070 0.000000 1.775120 
# 
# From -- ./inp_files/75881.got.cif
#   From: 2010.05.17/outbox.cif.g08.bks.cpg/sg12_38_cif.got.tgz:75881.got - 2010.06.03 13:09:07.
