data_PCOD9204925
_publ_section_title
;
Structure prediction by ZEFSAII (Michael W. Deem and Ramdas Pophale) SiO2 
 PCOD9204925
Probable space group: C 2/M
;
_chemical_formula_sum "Si O2"
_cell_formula_units_Z 48
_cell_length_a 22.292473
_cell_length_b 22.973319
_cell_length_c 9.379388
_cell_angle_alpha 90.000000
_cell_angle_beta 159.048937
_cell_angle_gamma 90.000000
_cell_volume 1717.584449
_symmetry_space_group_name_H-M "C 2/M"
_symmetry_group_IT_number 12
_symmetry_cell_setting 'monoclinic'
loop_
_space_group_symop_operation_xyz
x,y,z
-x,y,-z
-x,-y,-z
x,-y,z
1/2+x,1/2+y,z
1/2-x,1/2+y,-z
1/2-x,1/2-y,-z
1/2+x,1/2-y,z
loop_
_atom_site_type_symbol
_atom_site_label
_atom_site_fract_x
_atom_site_fract_y
_atom_site_fract_z
Si Si1 0.795628 0.437207 0.034114
Si Si2 0.701704 0.811860 0.958859
Si Si3 0.089150 0.436902 0.016931
Si Si4 0.114352 0.311177 0.070314
Si Si5 0.602468 0.315046 0.082759
Si Si6 0.114843 0.938274 0.112493
O O1 0.735480 0.500000 0.956022
O O2 0.736560 0.374814 0.962330
O O3 0.000000 0.437505 0.500000
O O4 0.781641 0.437729 0.830772
O O5 0.500000 0.813947 0.500000
O O6 0.750000 0.750000 0.000000
O O7 0.737377 0.815333 0.207031
O O8 0.000573 0.500000 0.809232
O O9 0.012544 0.371902 0.836827
O O10 0.198614 0.437035 0.403573
O O11 0.207357 0.308798 0.429911
O O12 0.048496 0.246185 0.897607
O O13 0.591359 0.377075 0.981208
O O14 0.500000 0.321190 0.000000
O O15 0.091455 0.000000 0.984788
O O16 0.000000 0.939187 0.000000
#
# Coordination Sequence:
#
# PCOD9204925 Si02
#       6
#     8   8   8   8   8   8
#     4   8  14  27  47  70  92 119 164 209 238 275
#     4  10  21  34  52  76 102 134 166 205 251 295
#     4   8  13  23  40  61  85 111 146 195 235 268
#     4   9  18  30  45  69  93 121 159 193 239 290
#     4   9  17  28  46  67  92 123 152 194 238 282
#     4   8  13  22  37  60  86 112 147 185 225 276
#
# _framework density 27.946224000000001
#
# number of rings (size 3 to 8) (size 9 to 14) (size 15 to 20)
#    0.000    3.333    0.000    0.000    2.333    0.000 
#    0.000    0.000    0.000    2.000    0.000    0.000 
#    0.000    0.000    0.000    0.000    0.000    0.000 
#
# Total GULP energy -133763.197636 kJ/mol
# GULP energy per Si atom -5573.466568 kJ/mol
# Density = 2.788262 g / cm^3
# Si number density = 27.946224 Si / 1000 Ang^3
#
#
#
# Elastic Constant Matrix: (Units=GPa)
#
#
# Indices 1 2 3 4 5 6 
#
# 1 66.0083 49.1974 3.3597 0.0000 -4.1367 0.0000
# 2 49.1974 464.0523 9.8532 0.0000 4.7879 0.0000
# 3 3.3597 9.8532 88.3575 0.0000 -17.5770 0.0000
# 4 0.0000 0.0000 0.0000 5.6943 0.0000 8.6086
# 5 -4.1367 4.7879 -17.5770 0.0000 24.8919 0.0000
# 6 0.0000 0.0000 0.0000 8.6086 0.0000 33.2731
#
#
#
# Elastic Compliance Matrix: (Units=1/GPa)
#
#
# Indices 1 2 3 4 5 6 
#
# 1 0.016691 -0.001808 0.000219 0.000000 0.003276 0.000000
# 2 -0.001808 0.002366 -0.000402 0.000000 -0.001039 0.000000
# 3 0.000219 -0.000402 0.013236 0.000000 0.009460 0.000000
# 4 0.000000 0.000000 0.000000 0.288437 0.000000 -0.074626
# 5 0.003276 -0.001039 0.009460 0.000000 0.047598 0.000000
# 6 0.000000 0.000000 0.000000 -0.074626 0.000000 0.049362
#
#
# Mechanical properties :
#
#
# Convention : Reuss Voigt Hill
#
# Bulk Modulus (GPa) = 35.32212 82.58209 58.95211
# Shear Modulus (GPa) = 11.59799 49.83904 30.71852
#
# Velocity S-wave (km/s) = 2.03939 4.22760 3.31902
# Velocity P-wave (km/s) = 4.26758 7.31059 5.98569
#
# Compressibility (1/GPa) = 0.02831087
#
# Stress axis : x y z
#
# Youngs Moduli (GPa) = 59.91131 422.67850 75.55133
#
# Poissons Ratio (x) = 0.76421 -0.01652
# Poissons Ratio (y) = 0.10832 0.03036
# Poissons Ratio (z) = -0.01310 0.16984
#
# Static dielectric constant tensor:
#      x y z
#    x 2.157680 0.000000 0.032910 
#    y 0.000000 2.244360 0.000000 
#    z 0.032910 0.000000 2.327860 
# 
# From -- ./inp_files/190286.got.cif
#   From: 2010.05.17/outbox.cif.g08.bks.cpg/sg12_96_cif.got.tgz:190286.got - 2010.06.03 13:09:07.
