data_PCOD9204174
_publ_section_title
;
Structure prediction by ZEFSAII (Michael W. Deem and Ramdas Pophale) SiO2 
 PCOD9204174
Probable space group: C 2/M
;
_chemical_formula_sum "Si O2"
_cell_formula_units_Z 42
_cell_length_a 12.503116
_cell_length_b 18.486625
_cell_length_c 12.090650
_cell_angle_alpha 90.000000
_cell_angle_beta 132.782006
_cell_angle_gamma 90.000000
_cell_volume 2051.105497
_symmetry_space_group_name_H-M "C 2/M"
_symmetry_group_IT_number 12
_symmetry_cell_setting 'monoclinic'
loop_
_space_group_symop_operation_xyz
x,y,z
-x,y,-z
-x,-y,-z
x,-y,z
1/2+x,1/2+y,z
1/2-x,1/2+y,-z
1/2-x,1/2-y,-z
1/2+x,1/2-y,z
loop_
_atom_site_type_symbol
_atom_site_label
_atom_site_fract_x
_atom_site_fract_y
_atom_site_fract_z
Si Si1 0.210464 0.711679 0.358816
Si Si2 0.616990 0.000000 0.984679
Si Si3 0.598585 0.500000 0.177528
Si Si4 0.553612 0.888193 0.747225
Si Si5 0.337360 0.655161 0.834090
Si Si6 0.000000 0.873795 0.500000
Si Si7 0.500000 0.000000 0.500000
Si Si8 0.062951 0.000000 0.709795
O O1 0.250000 0.750000 0.500000
O O2 0.162866 0.775900 0.244365
O O3 0.353485 0.672561 0.410011
O O4 0.082477 0.656831 0.301953
O O5 0.604478 0.934570 0.889114
O O6 0.500000 0.000000 0.000000
O O7 0.765726 0.000000 0.156451
O O8 0.685217 0.575248 0.237672
O O9 0.498634 0.500000 0.211933
O O10 0.500000 0.500000 0.000000
O O11 0.695848 0.841115 0.813294
O O12 0.507721 0.936707 0.607394
O O13 0.500000 0.652104 0.000000
O O14 0.010962 0.928425 0.610765
#
# Coordination Sequence:
#
# PCOD9204174 Si02
#       8
#     8   4   4   8   8   4   2   4
#     4  12  25  42  64  94 134 175 217 269 330 395
#     4  11  22  40  68  99 131 167 218 281 334 388
#     4  10  20  40  66  93 121 161 217 268 320 385
#     4  11  24  42  68  98 131 174 219 273 333 391
#     4  11  24  42  66  96 129 170 221 273 331 397
#     4  11  26  43  64  96 130 176 220 259 330 397
#     4  10  22  44  70 100 134 172 224 276 326 388
#     4  11  23  42  67  94 131 172 217 273 322 393
#
# _framework density 20.476761
#
# number of rings (size 3 to 8) (size 9 to 14) (size 15 to 20)
#    0.000    0.952    0.000    8.000    0.000    6.857 
#    0.000    0.000    0.000    0.000    0.000    0.000 
#    0.000    0.000    0.000    0.000    0.000    0.000 
#
# Total GULP energy -116997.242102 kJ/mol
# GULP energy per Si atom -5571.297243 kJ/mol
# Density = 2.043016 g / cm^3
# Si number density = 20.476761 Si / 1000 Ang^3
#
#
#
# Elastic Constant Matrix: (Units=GPa)
#
#
# Indices 1 2 3 4 5 6 
#
# 1 146.7150 52.1338 33.6222 0.0000 11.0279 0.0000
# 2 52.1338 137.4740 46.9836 0.0000 9.6544 0.0000
# 3 33.6222 46.9836 82.7002 0.0000 -1.2841 0.0000
# 4 0.0000 0.0000 0.0000 28.2264 0.0000 -2.6794
# 5 11.0279 9.6544 -1.2841 0.0000 46.7302 0.0000
# 6 0.0000 0.0000 0.0000 -2.6794 0.0000 26.4194
#
#
#
# Elastic Compliance Matrix: (Units=1/GPa)
#
#
# Indices 1 2 3 4 5 6 
#
# 1 0.008221 -0.002309 -0.002054 0.000000 -0.001520 0.000000
# 2 -0.002309 0.009867 -0.004692 0.000000 -0.001623 0.000000
# 3 -0.002054 -0.004692 0.015622 0.000000 0.001883 0.000000
# 4 0.000000 0.000000 0.000000 0.035772 0.000000 0.003628
# 5 -0.001520 -0.001623 0.001883 0.000000 0.022145 0.000000
# 6 0.000000 0.000000 0.000000 0.003628 0.000000 0.038219
#
#
# Mechanical properties :
#
#
# Convention : Reuss Voigt Hill
#
# Bulk Modulus (GPa) = 64.10372 70.26315 67.18344
# Shear Modulus (GPa) = 32.64604 35.88516 34.26560
#
# Velocity S-wave (km/s) = 3.99720 4.19081 4.09515
# Velocity P-wave (km/s) = 7.25789 7.60298 7.43244
#
# Compressibility (1/GPa) = 0.01559972
#
# Stress axis : x y z
#
# Youngs Moduli (GPa) = 121.63371 101.34454 64.01201
#
# Poissons Ratio (x) = 0.23400 0.13150
# Poissons Ratio (y) = 0.28085 0.30036
# Poissons Ratio (z) = 0.24987 0.47554
#
# Static dielectric constant tensor:
#      x y z
#    x 1.748240 0.000000 0.064560 
#    y 0.000000 1.810300 0.000000 
#    z 0.064560 0.000000 1.768190 
# 
# From -- ./inp_files/133539.got.cif
#   From: 2010.05.17/outbox.cif.g08.bks.cpg/sg12_67_cif.got.tgz:133539.got - 2010.06.03 13:09:07.
