data_PCOD9204373
_publ_section_title
;
Structure prediction by ZEFSAII (Michael W. Deem and Ramdas Pophale) SiO2 
 PCOD9204373
Probable space group: C 2/M
;
_chemical_formula_sum "Si O2"
_cell_formula_units_Z 56
_cell_length_a 19.241365
_cell_length_b 8.957991
_cell_length_c 18.088749
_cell_angle_alpha 90.000000
_cell_angle_beta 116.572202
_cell_angle_gamma 90.000000
_cell_volume 2788.514586
_symmetry_space_group_name_H-M "C 2/M"
_symmetry_group_IT_number 12
_symmetry_cell_setting 'monoclinic'
loop_
_space_group_symop_operation_xyz
x,y,z
-x,y,-z
-x,-y,-z
x,-y,z
1/2+x,1/2+y,z
1/2-x,1/2+y,-z
1/2-x,1/2-y,-z
1/2+x,1/2-y,z
loop_
_atom_site_type_symbol
_atom_site_label
_atom_site_fract_x
_atom_site_fract_y
_atom_site_fract_z
Si Si1 0.565037 0.323852 0.868133
Si Si2 0.624385 0.823999 0.753507
Si Si3 0.479980 0.177564 0.575866
Si Si4 0.178507 0.177307 0.508913
Si Si5 0.241064 0.677486 0.681233
Si Si6 0.895305 0.679665 0.798762
Si Si7 0.907036 0.330644 0.970392
O O1 0.552911 0.500000 0.862915
O O2 0.615538 0.272033 0.822625
O O3 0.480842 0.242633 0.822274
O O4 0.603614 0.271933 0.963670
O O5 0.551714 0.792738 0.664278
O O6 0.701182 0.797967 0.741727
O O7 0.620818 0.000000 0.771021
O O8 0.500000 0.213671 0.500000
O O9 0.403512 0.267459 0.561515
O O10 0.463440 0.000000 0.570854
O O11 0.250000 0.250000 0.500000
O O12 0.187547 0.241546 0.595770
O O13 0.183760 0.000000 0.510240
O O14 0.242149 0.500000 0.667368
O O15 0.326936 0.746286 0.719356
O O16 0.896199 0.500000 0.791680
O O17 0.876114 0.716780 0.875714
O O18 0.881517 0.500000 0.974657
O O19 0.000000 0.335629 0.000000
#
# Coordination Sequence:
#
# PCOD9204373 Si02
#       7
#     8   8   8   8   8   8   8
#     4  11  22  35  58  90 121 152 197 247 285 341
#     4  10  22  40  62  84 117 158 194 239 295 352
#     4  10  20  41  66  87 114 153 198 240 292 350
#     4  12  26  42  62  88 121 156 195 244 292 345
#     4  11  23  42  63  87 118 154 196 241 294 351
#     4  10  21  38  61  88 119 156 193 239 297 351
#     4   8  16  34  58  83 115 153 194 237 291 351
#
# _framework density 20.082377000000001
#
# number of rings (size 3 to 8) (size 9 to 14) (size 15 to 20)
#    0.000    1.714    1.429    4.286    2.000    5.143 
#    0.000    0.714    0.000    0.000    0.000    0.000 
#    0.000    0.000    0.000    0.000    0.000    0.000 
#
# Total GULP energy -156459.951136 kJ/mol
# GULP energy per Si atom -5587.855398 kJ/mol
# Density = 2.003667 g / cm^3
# Si number density = 20.082377 Si / 1000 Ang^3
#
#
#
# Elastic Constant Matrix: (Units=GPa)
#
#
# Indices 1 2 3 4 5 6 
#
# 1 54.6338 35.4108 -5.7931 0.0000 -5.4816 0.0000
# 2 35.4108 64.2192 10.9884 0.0000 -14.1045 0.0000
# 3 -5.7931 10.9884 22.9179 0.0000 -5.5691 0.0000
# 4 0.0000 0.0000 0.0000 24.6096 0.0000 -0.3651
# 5 -5.4816 -14.1045 -5.5691 0.0000 33.3991 0.0000
# 6 0.0000 0.0000 0.0000 -0.3651 0.0000 25.9908
#
#
#
# Elastic Compliance Matrix: (Units=1/GPa)
#
#
# Indices 1 2 3 4 5 6 
#
# 1 0.035184 -0.022911 0.019730 0.000000 -0.000611 0.000000
# 2 -0.022911 0.033144 -0.020006 0.000000 0.006901 0.000000
# 3 0.019730 -0.020006 0.059352 0.000000 0.004686 0.000000
# 4 0.000000 0.000000 0.000000 0.040643 0.000000 0.000571
# 5 -0.000611 0.006901 0.004686 0.000000 0.033536 0.000000
# 6 0.000000 0.000000 0.000000 0.000571 0.000000 0.038483
#
#
# Mechanical properties :
#
#
# Convention : Reuss Voigt Hill
#
# Bulk Modulus (GPa) = 12.29899 24.77589 18.53744
# Shear Modulus (GPa) = 15.93281 23.54422 19.73851
#
# Velocity S-wave (km/s) = 2.81974 3.42772 3.13849
# Velocity P-wave (km/s) = 4.09131 5.29430 4.73120
#
# Compressibility (1/GPa) = 0.08130747
#
# Stress axis : x y z
#
# Youngs Moduli (GPa) = 28.42183 30.17170 16.84853
#
# Poissons Ratio (x) = 0.69126 -0.33243
# Poissons Ratio (y) = 0.65117 0.33707
# Poissons Ratio (z) = -0.56077 0.60361
#
# Static dielectric constant tensor:
#      x y z
#    x 1.701390 0.000000 -0.032210 
#    y 0.000000 1.665330 0.000000 
#    z -0.032210 0.000000 1.764560 
# 
# From -- ./inp_files/281654.got.cif
#   From: 2010.05.17/outbox.cif.g08.bks.cpg/sg12_141_cif.got.tgz:281654.got - 2010.06.03 13:09:07.
