data_PCOD9204870
_publ_section_title
;
Structure prediction by ZEFSAII (Michael W. Deem and Ramdas Pophale) SiO2 
 PCOD9204870
Probable space group: C 2/M
;
_chemical_formula_sum "Si O2"
_cell_formula_units_Z 48
_cell_length_a 14.586901
_cell_length_b 7.659900
_cell_length_c 20.188367
_cell_angle_alpha 90.000000
_cell_angle_beta 89.762940
_cell_angle_gamma 90.000000
_cell_volume 2255.711788
_symmetry_space_group_name_H-M "C 2/M"
_symmetry_group_IT_number 12
_symmetry_cell_setting 'monoclinic'
loop_
_space_group_symop_operation_xyz
x,y,z
-x,y,-z
-x,-y,-z
x,-y,z
1/2+x,1/2+y,z
1/2-x,1/2+y,-z
1/2-x,1/2-y,-z
1/2+x,1/2-y,z
loop_
_atom_site_type_symbol
_atom_site_label
_atom_site_fract_x
_atom_site_fract_y
_atom_site_fract_z
Si Si1 0.691364 0.288216 0.346032
Si Si2 0.098711 0.794459 0.627449
Si Si3 0.642770 0.709175 0.486972
Si Si4 0.965881 0.209467 0.741939
Si Si5 0.499466 0.790393 0.893577
Si Si6 0.143688 0.290689 0.997979
O O1 0.697885 0.500000 0.347641
O O2 0.794352 0.220531 0.352714
O O3 0.632098 0.232971 0.411167
O O4 0.635020 0.232515 0.281670
O O5 0.090706 0.721674 0.552265
O O6 0.037696 0.721307 0.687065
O O7 0.076037 0.000000 0.622005
O O8 0.629593 0.500000 0.486857
O O9 0.750000 0.750000 0.500000
O O10 0.991615 0.248170 0.816836
O O11 0.965958 0.000000 0.736565
O O12 0.590027 0.727600 0.932456
O O13 0.499704 0.000000 0.897271
O O14 0.413257 0.726902 0.937827
O O15 0.136114 0.500000 0.998122
O O16 0.250000 0.250000 0.000000
#
# Coordination Sequence:
#
# PCOD9204870 Si02
#       6
#     8   8   8   8   8   8
#     4   9  18  32  49  70  97 130 169 211 253 296
#     4   9  18  32  49  70  97 130 169 211 253 296
#     4   8  14  27  47  67  90 124 166 211 253 291
#     4  10  21  34  49  74 105 134 166 204 246 294
#     4   9  20  38  55  75 106 136 162 197 242 294
#     4   9  19  37  60  82 102 129 165 201 240 288
#
# _framework density 21.279315
#
# number of rings (size 3 to 8) (size 9 to 14) (size 15 to 20)
#    0.000    3.000    0.000    1.000    0.000    4.667 
#    0.000   11.667    0.000    0.000    0.000   12.833 
#    0.000    0.000    0.000    0.000    0.000    0.000 
#
# Total GULP energy -133809.602028 kJ/mol
# GULP energy per Si atom -5575.400085 kJ/mol
# Density = 2.123088 g / cm^3
# Si number density = 21.279315 Si / 1000 Ang^3
#
#
#
# Elastic Constant Matrix: (Units=GPa)
#
#
# Indices 1 2 3 4 5 6 
#
# 1 96.1670 -1.4492 53.8524 0.0000 9.3713 0.0000
# 2 -1.4492 38.8098 2.9935 0.0000 -0.2125 0.0000
# 3 53.8524 2.9935 152.0311 0.0000 18.7319 0.0000
# 4 0.0000 0.0000 0.0000 19.3778 0.0000 0.2225
# 5 9.3713 -0.2125 18.7319 0.0000 20.2908 0.0000
# 6 0.0000 0.0000 0.0000 0.2225 0.0000 16.2022
#
#
#
# Elastic Compliance Matrix: (Units=1/GPa)
#
#
# Indices 1 2 3 4 5 6 
#
# 1 0.013068 0.000817 -0.004403 0.000000 -0.001962 0.000000
# 2 0.000817 0.025869 -0.000886 0.000000 0.000712 0.000000
# 3 -0.004403 -0.000886 0.008920 0.000000 -0.006210 0.000000
# 4 0.000000 0.000000 0.000000 0.051614 0.000000 -0.000709
# 5 -0.001962 0.000712 -0.006210 0.000000 0.055930 0.000000
# 6 0.000000 0.000000 0.000000 -0.000709 0.000000 0.061730
#
#
# Mechanical properties :
#
#
# Convention : Reuss Voigt Hill
#
# Bulk Modulus (GPa) = 25.69933 44.20016 34.94975
# Shear Modulus (GPa) = 20.91638 26.61490 23.76564
#
# Velocity S-wave (km/s) = 3.13860 3.54042 3.34554
# Velocity P-wave (km/s) = 5.02372 6.12611 5.60210
#
# Compressibility (1/GPa) = 0.03891152
#
# Stress axis : x y z
#
# Youngs Moduli (GPa) = 76.52381 38.65565 112.10824
#
# Poissons Ratio (x) = -0.03158 0.49364
# Poissons Ratio (y) = -0.06251 0.09938
# Poissons Ratio (z) = 0.33695 0.03427
#
# Static dielectric constant tensor:
#      x y z
#    x 1.776350 0.000000 0.003180 
#    y 0.000000 1.824940 0.000000 
#    z 0.003180 0.000000 1.783270 
# 
# From -- ./inp_files/267686.got.cif
#   From: 2010.05.17/outbox.cif.g08.bks.cpg/sg12_134_cif.got.tgz:267686.got - 2010.06.03 13:09:07.
