data_PCOD9204814
_publ_section_title
;
Structure prediction by ZEFSAII (Michael W. Deem and Ramdas Pophale) SiO2 
 PCOD9204814
Probable space group: C 2/M
;
_chemical_formula_sum "Si O2"
_cell_formula_units_Z 64
_cell_length_a 11.644579
_cell_length_b 28.461095
_cell_length_c 13.665821
_cell_angle_alpha 90.000000
_cell_angle_beta 37.914456
_cell_angle_gamma 90.000000
_cell_volume 2783.055676
_symmetry_space_group_name_H-M "C 2/M"
_symmetry_group_IT_number 12
_symmetry_cell_setting 'monoclinic'
loop_
_space_group_symop_operation_xyz
x,y,z
-x,y,-z
-x,-y,-z
x,-y,z
1/2+x,1/2+y,z
1/2-x,1/2+y,-z
1/2-x,1/2-y,-z
1/2+x,1/2-y,z
loop_
_atom_site_type_symbol
_atom_site_label
_atom_site_fract_x
_atom_site_fract_y
_atom_site_fract_z
Si Si1 0.281215 0.285265 0.749690
Si Si2 0.781100 0.387961 0.496963
Si Si3 0.895664 0.109542 0.662879
Si Si4 0.092099 0.687130 0.301128
Si Si5 0.684975 0.552538 0.972764
Si Si6 0.031013 0.412060 0.836912
Si Si7 0.607392 0.192818 0.065513
Si Si8 0.708228 0.596674 0.753505
O O1 0.346059 0.336307 0.669964
O O2 0.401717 0.238710 0.657820
O O3 0.080658 0.278068 0.832391
O O4 0.252841 0.292898 0.885289
O O5 0.557386 0.386314 0.633838
O O6 0.868974 0.408240 0.337880
O O7 0.803173 0.414286 0.585504
O O8 0.889365 0.338099 0.434758
O O9 0.699462 0.081863 0.801076
O O10 0.000000 0.087436 0.500000
O O11 0.158548 0.693367 0.144234
O O12 0.227898 0.649556 0.262127
O O13 0.607774 0.500000 0.025823
O O14 0.760138 0.565860 0.813830
O O15 0.853293 0.555940 0.936212
O O16 0.514653 0.588361 0.105449
O O17 0.945094 0.361247 0.918467
#
# Coordination Sequence:
#
# PCOD9204814 Si02
#       8
#     8   8   8   8   8   8   8   8
#     4  10  21  33  56  90 121 171 225 259 302 350
#     4  10  21  38  62  91 126 177 212 250 307 386
#     4   9  20  37  61  86 123 172 214 257 302 361
#     4  11  22  37  58  87 132 174 214 261 301 368
#     4  11  24  43  69  97 124 153 202 269 325 392
#     4   9  19  42  66  89 122 164 211 256 323 377
#     4   9  19  37  54  83 125 168 215 264 308 368
#     4  11  23  39  62  92 130 165 202 250 332 382
#
# _framework density 22.996307000000002
#
# number of rings (size 3 to 8) (size 9 to 14) (size 15 to 20)
#    0.000    2.000    2.500    2.250    1.750    4.500 
#    0.000    1.875    0.000    5.625    0.000    0.000 
#    0.000    0.000    0.000    0.000    0.000    0.000 
#
# Total GULP energy -178404.213765 kJ/mol
# GULP energy per Si atom -5575.131680 kJ/mol
# Density = 2.294397 g / cm^3
# Si number density = 22.996307 Si / 1000 Ang^3
#
#
#
# Elastic Constant Matrix: (Units=GPa)
#
#
# Indices 1 2 3 4 5 6 
#
# 1 93.1825 59.5860 66.0733 0.0000 -25.3456 0.0000
# 2 59.5860 8.2316 3.1243 0.0000 3.2814 0.0000
# 3 66.0733 3.1243 73.8468 0.0000 18.4932 0.0000
# 4 0.0000 0.0000 0.0000 12.1049 0.0000 -13.8637
# 5 -25.3456 3.2814 18.4932 0.0000 52.8028 0.0000
# 6 0.0000 0.0000 0.0000 -13.8637 0.0000 16.5499
#
#
#
# Elastic Compliance Matrix: (Units=1/GPa)
#
#
# Indices 1 2 3 4 5 6 
#
# 1 -0.002280 0.016868 0.002042 0.000000 -0.002858 0.000000
# 2 0.016868 0.000677 -0.018786 0.000000 0.014634 0.000000
# 3 0.002042 -0.018786 0.013122 0.000000 -0.002448 0.000000
# 4 0.000000 0.000000 0.000000 2.034870 0.000000 1.704589
# 5 -0.002858 0.014634 -0.002448 0.000000 0.017515 0.000000
# 6 0.000000 0.000000 0.000000 1.704589 0.000000 1.488339
#
#
# Mechanical properties :
#
#
# Convention : Reuss Voigt Hill
#
# Bulk Modulus (GPa) = 84.97681 48.09201 66.53441
# Shear Modulus (GPa) = 1.40611 19.39000 10.39806
#
# Velocity S-wave (km/s) = 0.78280 2.90690 2.12872
# Velocity P-wave (km/s) = 6.15221 5.67672 5.91924
#
# Compressibility (1/GPa) = 0.01176792
#
# Stress axis : x y z
#
# Youngs Moduli (GPa) = -438.60824 1477.04834 76.20546
#
# Poissons Ratio (x) = -24.91491 -0.15561
# Poissons Ratio (y) = 7.39846 1.43158
# Poissons Ratio (z) = 0.89562 27.74753
#
# Static dielectric constant tensor:
#      x y z
#    x 1.941510 0.000000 -0.033010 
#    y 0.000000 1.822970 0.000000 
#    z -0.033010 0.000000 1.906800 
# 
# From -- ./inp_files/209857.got.cif
#   From: 2010.05.17/outbox.cif.g08.bks.cpg/sg12_105_cif.got.tgz:209857.got - 2010.06.03 13:09:07.
