data_PCOD9204606
_publ_section_title
;
Structure prediction by ZEFSAII (Michael W. Deem and Ramdas Pophale) SiO2 
 PCOD9204606
Probable space group: C 2/M
;
_chemical_formula_sum "Si O2"
_cell_formula_units_Z 40
_cell_length_a 26.548080
_cell_length_b 15.439335
_cell_length_c 7.945119
_cell_angle_alpha 90.000000
_cell_angle_beta 36.869156
_cell_angle_gamma 90.000000
_cell_volume 1953.915911
_symmetry_space_group_name_H-M "C 2/M"
_symmetry_group_IT_number 12
_symmetry_cell_setting 'monoclinic'
loop_
_space_group_symop_operation_xyz
x,y,z
-x,y,-z
-x,-y,-z
x,-y,z
1/2+x,1/2+y,z
1/2-x,1/2+y,-z
1/2-x,1/2-y,-z
1/2+x,1/2-y,z
loop_
_atom_site_type_symbol
_atom_site_label
_atom_site_fract_x
_atom_site_fract_y
_atom_site_fract_z
Si Si1 0.237661 0.500000 0.513225
Si Si2 0.903066 0.332133 0.744864
Si Si3 0.707422 0.000000 0.981127
Si Si4 0.339816 0.500000 0.910521
Si Si5 0.063440 0.833527 0.482867
Si Si6 0.000000 0.215704 0.000000
Si Si7 0.836090 0.306553 0.288645
O O1 0.254906 0.500000 0.670701
O O2 0.188377 0.408209 0.613348
O O3 0.315378 0.500000 0.173241
O O4 0.885995 0.256842 0.655096
O O5 0.000000 0.358921 0.500000
O O6 0.848470 0.415551 0.861992
O O7 0.875559 0.298514 0.999164
O O8 0.757988 0.000000 0.016701
O O9 0.388351 0.416145 0.713457
O O10 0.019866 0.840495 0.780029
O O11 0.000000 0.815763 0.500000
O O12 0.913827 0.270542 0.194549
O O13 0.750000 0.250000 0.500000
#
# Coordination Sequence:
#
# PCOD9204606 Si02
#       7
#     4   8   4   4   8   4   8
#     4  10  26  43  67 102 149 177 223 305 344 401
#     4  10  20  44  66  94 142 176 224 289 343 398
#     4  10  25  39  65 106 135 181 223 279 353 415
#     4  12  27  42  68 101 135 184 236 271 350 424
#     4  11  25  45  67  99 136 181 231 288 338 412
#     4  12  26  44  76 100 134 196 232 282 368 402
#     4  11  24  45  72 104 143 183 235 291 346 419
#
# _framework density 20.471710999999999
#
# number of rings (size 3 to 8) (size 9 to 14) (size 15 to 20)
#    0.000    1.200    4.000    1.800    8.400    1.600 
#    0.000    0.000    0.000    0.000    0.000    0.000 
#    0.000    0.000    0.000    0.000    0.000    0.000 
#
# Total GULP energy -111397.474864 kJ/mol
# GULP energy per Si atom -5569.873743 kJ/mol
# Density = 2.042512 g / cm^3
# Si number density = 20.471711 Si / 1000 Ang^3
#
#
#
# Elastic Constant Matrix: (Units=GPa)
#
#
# Indices 1 2 3 4 5 6 
#
# 1 49.4283 30.7270 34.1030 0.0000 -0.8777 0.0000
# 2 30.7270 102.8139 56.1509 0.0000 9.7988 0.0000
# 3 34.1030 56.1509 138.2538 0.0000 31.3087 0.0000
# 4 0.0000 0.0000 0.0000 39.3643 0.0000 -0.3591
# 5 -0.8777 9.7988 31.3087 0.0000 40.8451 0.0000
# 6 0.0000 0.0000 0.0000 -0.3591 0.0000 16.2305
#
#
#
# Elastic Compliance Matrix: (Units=1/GPa)
#
#
# Indices 1 2 3 4 5 6 
#
# 1 0.028120 -0.005688 -0.006137 0.000000 0.006673 0.000000
# 2 -0.005688 0.013689 -0.004096 0.000000 -0.000266 0.000000
# 3 -0.006137 -0.004096 0.012364 0.000000 -0.008627 0.000000
# 4 0.000000 0.000000 0.000000 0.025409 0.000000 0.000562
# 5 0.006673 -0.000266 -0.008627 0.000000 0.031303 0.000000
# 6 0.000000 0.000000 0.000000 0.000562 0.000000 0.061625
#
#
# Mechanical properties :
#
#
# Convention : Reuss Voigt Hill
#
# Bulk Modulus (GPa) = 44.78331 59.16196 51.97263
# Shear Modulus (GPa) = 23.60757 30.58901 27.09829
#
# Velocity S-wave (km/s) = 3.39953 3.86969 3.64221
# Velocity P-wave (km/s) = 6.11002 6.99487 6.56736
#
# Compressibility (1/GPa) = 0.02232975
#
# Stress axis : x y z
#
# Youngs Moduli (GPa) = 35.56132 73.05267 80.87852
#
# Poissons Ratio (x) = 0.41554 0.49639
# Poissons Ratio (y) = 0.20228 0.33129
# Poissons Ratio (z) = 0.21826 0.29924
#
# Static dielectric constant tensor:
#      x y z
#    x 2.036070 0.000000 -0.236130 
#    y 0.000000 0.742170 0.000000 
#    z -0.236130 0.000000 1.918410 
# 
# From -- ./inp_files/111891.got.cif
#   From: 2010.05.17/outbox.cif.g08.bks.cpg/sg12_56_cif.got.tgz:111891.got - 2010.06.03 13:09:07.
