data_PCOD9204960
_publ_section_title
;
Structure prediction by ZEFSAII (Michael W. Deem and Ramdas Pophale) SiO2 
 PCOD9204960
Probable space group: C 2/M
;
_chemical_formula_sum "Si O2"
_cell_formula_units_Z 60
_cell_length_a 15.693437
_cell_length_b 13.762991
_cell_length_c 21.080363
_cell_angle_alpha 90.000000
_cell_angle_beta 34.479251
_cell_angle_gamma 90.000000
_cell_volume 2577.555832
_symmetry_space_group_name_H-M "C 2/M"
_symmetry_group_IT_number 12
_symmetry_cell_setting 'monoclinic'
loop_
_space_group_symop_operation_xyz
x,y,z
-x,y,-z
-x,-y,-z
x,-y,z
1/2+x,1/2+y,z
1/2-x,1/2+y,-z
1/2-x,1/2-y,-z
1/2+x,1/2-y,z
loop_
_atom_site_type_symbol
_atom_site_label
_atom_site_fract_x
_atom_site_fract_y
_atom_site_fract_z
Si Si1 0.876963 0.746904 0.206441
Si Si2 0.441152 0.884686 0.724216
Si Si3 0.778493 0.115569 0.881983
Si Si4 0.953318 0.248135 0.597218
Si Si5 0.500000 0.763178 0.000000
Si Si6 0.220288 0.885114 0.481713
Si Si7 0.886829 0.115341 0.318773
Si Si8 0.354508 0.116026 0.908670
O O1 0.711735 0.699162 0.303489
O O2 0.939018 0.788180 0.101161
O O3 0.860269 0.827895 0.270763
O O4 0.999869 0.669116 0.153142
O O5 0.428668 0.827837 0.666834
O O6 0.611276 0.866119 0.645497
O O7 0.331858 0.855183 0.849323
O O8 0.427011 0.000000 0.721656
O O9 0.946120 0.140685 0.757559
O O10 0.757777 0.000000 0.886581
O O11 0.641354 0.169567 0.933384
O O12 0.773738 0.136718 0.960893
O O13 0.000000 0.290020 0.500000
O O14 0.086968 0.174552 0.532299
O O15 0.222585 0.861950 0.555761
O O16 0.190246 0.000000 0.494225
O O17 0.883652 0.000000 0.309072
O O18 0.378091 0.000000 0.893618
#
# Coordination Sequence:
#
# PCOD9204960 Si02
#       8
#     8   8   8   8   4   8   8   8
#     4  11  23  36  54  81 113 146 179 219 269 323
#     4  10  21  38  59  80 106 143 185 224 264 316
#     4   9  18  34  57  82 108 140 179 225 273 319
#     4  12  24  36  55  83 113 144 176 220 275 324
#     4  10  21  34  53  84 114 140 174 222 280 324
#     4  10  21  38  60  82 105 139 182 227 273 321
#     4  10  21  38  58  78 105 146 189 223 260 314
#     4   9  19  36  58  81 105 138 180 224 268 317
#
# _framework density 23.277867000000001
#
# number of rings (size 3 to 8) (size 9 to 14) (size 15 to 20)
#    0.000    1.867    0.000    3.800    0.000    5.333 
#    0.000    0.333    0.000    0.000    0.000    0.000 
#    0.000    0.000    0.000    0.000    0.000    0.000 
#
# Total GULP energy -167893.699294 kJ/mol
# GULP energy per Si atom -5596.456643 kJ/mol
# Density = 2.322489 g / cm^3
# Si number density = 23.277867 Si / 1000 Ang^3
#
#
#
# Elastic Constant Matrix: (Units=GPa)
#
#
# Indices 1 2 3 4 5 6 
#
# 1 78.3252 20.5084 26.1274 0.0000 19.9825 0.0000
# 2 20.5084 54.8138 8.6374 -0.0001 0.1577 0.0000
# 3 26.1274 8.6374 108.6335 -0.0001 19.8877 0.0000
# 4 0.0000 -0.0001 -0.0001 27.8534 0.0000 6.3598
# 5 19.9825 0.1577 19.8877 0.0000 44.7251 0.0000
# 6 0.0000 0.0000 0.0000 6.3598 0.0000 9.6433
#
#
#
# Elastic Compliance Matrix: (Units=1/GPa)
#
#
# Indices 1 2 3 4 5 6 
#
# 1 0.016730 -0.005865 -0.002387 0.000000 -0.006393 0.000000
# 2 -0.005865 0.020548 -0.000751 0.000000 0.002882 0.000000
# 3 -0.002387 -0.000751 0.010498 0.000000 -0.003599 0.000000
# 4 0.000000 0.000000 0.000000 0.042267 0.000000 -0.027875
# 5 -0.006393 0.002882 -0.003599 0.000000 0.026805 0.000000
# 6 0.000000 0.000000 0.000000 -0.027875 0.000000 0.122082
#
#
# Mechanical properties :
#
#
# Convention : Reuss Voigt Hill
#
# Bulk Modulus (GPa) = 33.59051 39.14655 36.36853
# Shear Modulus (GPa) = 18.73645 28.87765 23.80705
#
# Velocity S-wave (km/s) = 2.84016 3.52598 3.20149
# Velocity P-wave (km/s) = 5.02164 5.78190 5.41513
#
# Compressibility (1/GPa) = 0.02977031
#
# Stress axis : x y z
#
# Youngs Moduli (GPa) = 59.77235 48.66666 95.25685
#
# Poissons Ratio (x) = 0.28543 0.22739
# Poissons Ratio (y) = 0.35056 0.07151
# Poissons Ratio (z) = 0.14268 0.03654
#
# Static dielectric constant tensor:
#      x y z
#    x 1.904810 0.000000 0.027870 
#    y 0.000000 1.854360 0.000000 
#    z 0.027870 0.000000 1.877110 
# 
# From -- ./inp_files/311004.got.cif
#   From: 2010.05.17/outbox.cif.g08.bks.cpg/sg12_156_cif.got.tgz:311004.got - 2010.06.03 13:09:07.
