data_PCOD9204922
_publ_section_title
;
Structure prediction by ZEFSAII (Michael W. Deem and Ramdas Pophale) SiO2 
 PCOD9204922
Probable space group: C 2/M
;
_chemical_formula_sum "Si O2"
_cell_formula_units_Z 56
_cell_length_a 25.538031
_cell_length_b 25.419644
_cell_length_c 5.153100
_cell_angle_alpha 90.000000
_cell_angle_beta 116.004746
_cell_angle_gamma 90.000000
_cell_volume 3006.547597
_symmetry_space_group_name_H-M "C 2/M"
_symmetry_group_IT_number 12
_symmetry_cell_setting 'monoclinic'
loop_
_space_group_symop_operation_xyz
x,y,z
-x,y,-z
-x,-y,-z
x,-y,z
1/2+x,1/2+y,z
1/2-x,1/2+y,-z
1/2-x,1/2-y,-z
1/2+x,1/2-y,z
loop_
_atom_site_type_symbol
_atom_site_label
_atom_site_fract_x
_atom_site_fract_y
_atom_site_fract_z
Si Si1 0.464446 0.215006 0.672999
Si Si2 0.292026 0.557178 0.699197
Si Si3 0.662462 0.778194 0.406476
Si Si4 0.286830 0.056929 0.975297
Si Si5 0.535350 0.342710 0.332932
Si Si6 0.836285 0.843639 0.526343
Si Si7 0.788232 0.329324 0.004983
O O1 0.500000 0.195695 0.500000
O O2 0.397357 0.202261 0.588406
O O3 0.465548 0.278810 0.660521
O O4 0.500000 0.198068 0.000000
O O5 0.321569 0.500000 0.720751
O O6 0.265467 0.556663 0.927941
O O7 0.326370 0.610368 0.713701
O O8 0.239550 0.558910 0.372426
O O9 0.657311 0.715642 0.352581
O O10 0.709027 0.795296 0.726878
O O11 0.679670 0.802520 0.168746
O O12 0.316547 0.112601 0.098607
O O13 0.317155 0.000000 0.071463
O O14 0.500000 0.363151 0.500000
O O15 0.603162 0.357145 0.481461
O O16 0.500000 0.358353 0.000000
O O17 0.778780 0.839276 0.223481
#
# Coordination Sequence:
#
# PCOD9204922 Si02
#       7
#     8   8   8   8   8   8   8
#     4   9  17  32  49  65  92 133 171 201 232 273
#     4   9  18  32  50  70  90 126 177 209 236 290
#     4  11  22  32  48  77 109 132 161 200 246 308
#     4   9  18  33  50  68  96 133 168 200 233 282
#     4   9  19  32  48  68  89 124 176 213 236 284
#     4  10  21  34  52  71 103 140 162 200 262 301
#     4  11  21  33  48  77 109 131 158 197 252 311
#
# _framework density 18.626014999999999
#
# number of rings (size 3 to 8) (size 9 to 14) (size 15 to 20)
#    0.000    2.286    0.000    3.429    0.000    9.143 
#    0.000    0.000    0.000    0.857    0.000    0.000 
#    0.000   11.429    0.000    0.000    0.000    0.000 
#
# Total GULP energy -155989.033703 kJ/mol
# GULP energy per Si atom -5571.036918 kJ/mol
# Density = 1.858362 g / cm^3
# Si number density = 18.626015 Si / 1000 Ang^3
#
#
#
# Elastic Constant Matrix: (Units=GPa)
#
#
# Indices 1 2 3 4 5 6 
#
# 1 71.8030 29.9958 29.2884 0.0000 -5.0437 0.0000
# 2 29.9958 113.3055 2.9343 0.0000 -11.0600 0.0000
# 3 29.2884 2.9343 38.9729 0.0000 -10.2351 0.0000
# 4 0.0000 0.0000 0.0000 7.3351 0.0000 -12.0265
# 5 -5.0437 -11.0600 -10.2351 0.0000 31.2616 0.0000
# 6 0.0000 0.0000 0.0000 -12.0265 0.0000 12.1419
#
#
#
# Elastic Compliance Matrix: (Units=1/GPa)
#
#
# Indices 1 2 3 4 5 6 
#
# 1 0.023813 -0.006258 -0.018596 0.000000 -0.004460 0.000000
# 2 -0.006258 0.010787 0.005063 0.000000 0.004464 0.000000
# 3 -0.018596 0.005063 0.042598 0.000000 0.012738 0.000000
# 4 0.000000 0.000000 0.000000 -0.218477 0.000000 -0.216401
# 5 -0.004460 0.004464 0.012738 0.000000 0.037018 0.000000
# 6 0.000000 0.000000 0.000000 -0.216401 0.000000 -0.131985
#
#
# Mechanical properties :
#
#
# Convention : Reuss Voigt Hill
#
# Bulk Modulus (GPa) = 26.58404 38.72427 32.65416
# Shear Modulus (GPa) = -27.15555 20.93858 -3.10849
#
# Velocity S-wave (km/s) = -3.82244 3.35648 -1.29326
# Velocity P-wave (km/s) = 2.27549 5.98806 3.91657
#
# Compressibility (1/GPa) = 0.03761655
#
# Stress axis : x y z
#
# Youngs Moduli (GPa) = 41.99331 92.70359 23.47530
#
# Poissons Ratio (x) = 0.58014 0.43655
# Poissons Ratio (y) = 0.26279 -0.11886
# Poissons Ratio (z) = 0.78091 -0.46938
#
# Static dielectric constant tensor:
#      x y z
#    x 1.655650 0.000000 0.024580 
#    y 0.000000 1.697940 0.000000 
#    z 0.024580 0.000000 1.665780 
# 
# From -- ./inp_files/26124.got.cif
#   From: 2010.05.17/outbox.cif.g08.bks.cpg/sg12_14_cif.got.tgz:26124.got - 2010.06.03 13:09:07.
