data_PCOD9204794
_publ_section_title
;
Structure prediction by ZEFSAII (Michael W. Deem and Ramdas Pophale) SiO2 
 PCOD9204794
Probable space group: C 2/M
;
_chemical_formula_sum "Si O2"
_cell_formula_units_Z 56
_cell_length_a 23.799486
_cell_length_b 17.957379
_cell_length_c 21.679062
_cell_angle_alpha 90.000000
_cell_angle_beta 19.660760
_cell_angle_gamma 90.000000
_cell_volume 3117.253054
_symmetry_space_group_name_H-M "C 2/M"
_symmetry_group_IT_number 12
_symmetry_cell_setting 'monoclinic'
loop_
_space_group_symop_operation_xyz
x,y,z
-x,y,-z
-x,-y,-z
x,-y,z
1/2+x,1/2+y,z
1/2-x,1/2+y,-z
1/2-x,1/2-y,-z
1/2+x,1/2-y,z
loop_
_atom_site_type_symbol
_atom_site_label
_atom_site_fract_x
_atom_site_fract_y
_atom_site_fract_z
Si Si1 0.424868 0.910710 0.387853
Si Si2 0.322858 0.796421 0.202449
Si Si3 0.593489 0.587258 0.660626
Si Si4 0.313079 0.586163 0.578416
Si Si5 0.755966 0.337450 0.008003
Si Si6 0.151065 0.171707 0.253696
Si Si7 0.457132 0.180152 0.475184
O O1 0.242445 0.885983 0.551095
O O2 0.441429 0.883098 0.440845
O O3 0.433751 0.000000 0.373083
O O4 0.577810 0.874495 0.191654
O O5 0.328895 0.861105 0.247164
O O6 0.244863 0.832865 0.221420
O O7 0.208058 0.730395 0.346336
O O8 0.500000 0.766005 0.000000
O O9 0.562312 0.500000 0.705747
O O10 0.668780 0.592905 0.513800
O O11 0.415041 0.628038 0.843665
O O12 0.292739 0.500000 0.615586
O O13 0.486121 0.620334 0.425638
O O14 0.746226 0.347596 0.092333
O O15 0.750000 0.250000 0.000000
O O16 0.091409 0.258169 0.313315
O O17 0.500000 0.154156 0.500000
#
# Coordination Sequence:
#
# PCOD9204794 Si02
#       7
#     8   8   8   8   8   8   8
#     4  11  23  39  62  88 115 154 195 238 293 348
#     4  10  21  33  54  81 112 144 187 239 283 331
#     4   9  21  39  56  83 124 153 186 241 286 337
#     4   9  18  35  53  73 109 154 187 223 281 340
#     4  11  21  36  61  90 116 149 192 233 290 352
#     4   9  19  36  53  79 112 147 183 232 283 340
#     4   9  19  40  58  78 113 146 188 235 286 341
#
# _framework density 17.964535000000001
#
# number of rings (size 3 to 8) (size 9 to 14) (size 15 to 20)
#    0.000    2.286    1.429    1.714    2.000    4.000 
#    0.000    0.000    0.000    0.429    0.000    0.000 
#    0.000    0.000    0.000    0.000    0.000    0.000 
#
# Total GULP energy -156114.107378 kJ/mol
# GULP energy per Si atom -5575.503835 kJ/mol
# Density = 1.792365 g / cm^3
# Si number density = 17.964535 Si / 1000 Ang^3
#
#
#
# Elastic Constant Matrix: (Units=GPa)
#
#
# Indices 1 2 3 4 5 6 
#
# 1 64.9681 21.1530 31.0586 0.0005 1.6348 0.0004
# 2 21.1530 60.4840 27.0454 -0.0183 -1.4747 0.0091
# 3 31.0586 27.0454 81.3196 -0.0129 7.8025 0.0049
# 4 0.0005 -0.0183 -0.0129 19.0395 -0.0013 7.0338
# 5 1.6348 -1.4747 7.8025 -0.0013 20.9252 0.0008
# 6 0.0004 0.0091 0.0049 7.0338 0.0008 23.4132
#
#
#
# Elastic Compliance Matrix: (Units=1/GPa)
#
#
# Indices 1 2 3 4 5 6 
#
# 1 0.019678 -0.004098 -0.006199 -0.000011 0.000485 0.000006
# 2 -0.004098 0.020590 -0.005655 0.000021 0.003880 -0.000013
# 3 -0.006199 -0.005655 0.017151 0.000007 -0.006309 -0.000003
# 4 -0.000011 0.000021 0.000007 0.059079 0.000004 -0.017749
# 5 0.000485 0.003880 -0.006309 0.000004 0.050377 -0.000003
# 6 0.000006 -0.000013 -0.000003 -0.017749 -0.000003 0.048043
#
#
# Mechanical properties :
#
#
# Convention : Reuss Voigt Hill
#
# Bulk Modulus (GPa) = 39.19391 40.58728 39.89060
# Shear Modulus (GPa) = 19.58271 21.17656 20.37964
#
# Velocity S-wave (km/s) = 3.30521 3.43709 3.37179
# Velocity P-wave (km/s) = 6.03578 6.19625 6.11654
#
# Compressibility (1/GPa) = 0.02551417
#
# Stress axis : x y z
#
# Youngs Moduli (GPa) = 50.81852 48.56807 58.30597
#
# Poissons Ratio (x) = 0.19904 0.36145
# Poissons Ratio (y) = 0.20826 0.32971
# Poissons Ratio (z) = 0.31504 0.27464
#
# Static dielectric constant tensor:
#      x y z
#    x 1.623040 0.000000 -0.007030 
#    y 0.000000 1.593140 0.000000 
#    z -0.007030 0.000000 1.622180 
# 
# From -- ./inp_files/325993.got.cif
#   From: 2010.05.17/outbox.cif.g08.bks.cpg/sg12_163_cif.got.tgz:325993.got - 2010.06.03 13:09:07.
