data_PCOD9204727
_publ_section_title
;
Structure prediction by ZEFSAII (Michael W. Deem and Ramdas Pophale) SiO2 
 PCOD9204727
Probable space group: C 2/M
;
_chemical_formula_sum "Si O2"
_cell_formula_units_Z 48
_cell_length_a 13.569092
_cell_length_b 31.879163
_cell_length_c 18.453140
_cell_angle_alpha 90.000000
_cell_angle_beta 160.020770
_cell_angle_gamma 90.000000
_cell_volume 2727.387643
_symmetry_space_group_name_H-M "C 2/M"
_symmetry_group_IT_number 12
_symmetry_cell_setting 'monoclinic'
loop_
_space_group_symop_operation_xyz
x,y,z
-x,y,-z
-x,-y,-z
x,-y,z
1/2+x,1/2+y,z
1/2-x,1/2+y,-z
1/2-x,1/2-y,-z
1/2+x,1/2-y,z
loop_
_atom_site_type_symbol
_atom_site_label
_atom_site_fract_x
_atom_site_fract_y
_atom_site_fract_z
Si Si1 0.742814 0.307631 0.495559
Si Si2 0.485275 0.786828 0.158529
Si Si3 0.778685 0.046643 0.140005
Si Si4 0.977918 0.379970 0.853184
Si Si5 0.796882 0.747545 0.241706
Si Si6 0.409196 0.607413 0.553942
O O1 0.443623 0.282374 0.291044
O O2 0.689224 0.356655 0.458813
O O3 0.880594 0.295898 0.669641
O O4 0.965594 0.289085 0.591652
O O5 0.394278 0.833361 0.068437
O O6 0.717712 0.769576 0.261868
O O7 0.250000 0.750000 0.000000
O O8 0.035493 0.063839 0.367812
O O9 0.828559 0.000000 0.144685
O O10 0.500000 0.043987 0.000000
O O11 0.697845 0.083872 0.028912
O O12 0.816483 0.393229 0.667601
O O13 0.717587 0.378383 0.732446
O O14 0.500000 0.732591 0.000000
#
# Coordination Sequence:
#
# PCOD9204727 Si02
#       6
#     8   8   8   8   8   8
#     4  10  21  33  47  68  99 133 175 211 247 298
#     4  11  20  33  48  70 104 138 175 213 248 295
#     4   9  18  30  47  70  95 125 163 207 255 310
#     4   9  18  29  46  67  96 132 166 201 248 305
#     4  11  21  31  48  71  94 136 175 211 246 289
#     4   9  17  30  46  65  94 129 161 202 248 303
#
# _framework density 17.599257999999999
#
# number of rings (size 3 to 8) (size 9 to 14) (size 15 to 20)
#    0.000    2.167    3.333    0.500    2.333    0.667 
#    0.000    3.333    0.000    0.000    0.000    0.000 
#    0.000    3.333    0.000    0.167    0.000    0.000 
#
# Total GULP energy -133818.434158 kJ/mol
# GULP energy per Si atom -5575.768090 kJ/mol
# Density = 1.755920 g / cm^3
# Si number density = 17.599258 Si / 1000 Ang^3
#
#
#
# Elastic Constant Matrix: (Units=GPa)
#
#
# Indices 1 2 3 4 5 6 
#
# 1 37.4693 38.7708 14.8896 -0.0064 1.9175 0.0001
# 2 38.7708 147.4154 44.1949 0.0001 -6.8914 -0.0003
# 3 14.8896 44.1949 61.1805 -0.0267 0.4392 -0.0098
# 4 -0.0064 0.0001 -0.0267 18.8177 -0.0138 -4.7738
# 5 1.9175 -6.8914 0.4392 -0.0138 19.1724 -0.0062
# 6 0.0001 -0.0003 -0.0098 -4.7738 -0.0062 18.9369
#
#
#
# Elastic Compliance Matrix: (Units=1/GPa)
#
#
# Indices 1 2 3 4 5 6 
#
# 1 0.037917 -0.009648 -0.002207 0.000004 -0.007210 -0.000003
# 2 -0.009648 0.011322 -0.005868 -0.000009 0.005169 -0.000003
# 3 -0.002207 -0.005868 0.021138 0.000032 -0.002373 0.000018
# 4 0.000004 -0.000009 0.000032 0.056772 0.000041 0.014312
# 5 -0.007210 0.005169 -0.002373 0.000041 0.054792 0.000027
# 6 -0.000003 -0.000003 0.000018 0.014312 0.000027 0.056415
#
#
# Mechanical properties :
#
#
# Convention : Reuss Voigt Hill
#
# Bulk Modulus (GPa) = 28.62685 49.08620 38.85652
# Shear Modulus (GPa) = 17.51654 21.26605 19.39130
#
# Velocity S-wave (km/s) = 3.15826 3.47990 3.32298
# Velocity P-wave (km/s) = 5.44066 6.64063 6.07036
#
# Compressibility (1/GPa) = 0.03493224
#
# Stress axis : x y z
#
# Youngs Moduli (GPa) = 26.37310 88.32614 47.30862
#
# Poissons Ratio (x) = 0.85215 0.10441
# Poissons Ratio (y) = 0.25444 0.27759
# Poissons Ratio (z) = 0.05820 0.51826
#
# Static dielectric constant tensor:
#      x y z
#    x 1.622390 0.000000 -0.039060 
#    y 0.000000 1.606760 0.000000 
#    z -0.039060 0.000000 1.651930 
# 
# From -- ./inp_files/312795.got.cif
#   From: 2010.05.17/outbox.cif.g08.bks.cpg/sg12_157_cif.got.tgz:312795.got - 2010.06.03 13:09:07.
