data_PCOD9204313
_publ_section_title
;
Structure prediction by ZEFSAII (Michael W. Deem and Ramdas Pophale) SiO2 
 PCOD9204313
Probable space group: C 2/M
;
_chemical_formula_sum "Si O2"
_cell_formula_units_Z 48
_cell_length_a 16.338504
_cell_length_b 27.615225
_cell_length_c 6.617763
_cell_angle_alpha 90.000000
_cell_angle_beta 53.433084
_cell_angle_gamma 90.000000
_cell_volume 2398.142743
_symmetry_space_group_name_H-M "C 2/M"
_symmetry_group_IT_number 12
_symmetry_cell_setting 'monoclinic'
loop_
_space_group_symop_operation_xyz
x,y,z
-x,y,-z
-x,-y,-z
x,-y,z
1/2+x,1/2+y,z
1/2-x,1/2+y,-z
1/2-x,1/2-y,-z
1/2+x,1/2-y,z
loop_
_atom_site_type_symbol
_atom_site_label
_atom_site_fract_x
_atom_site_fract_y
_atom_site_fract_z
Si Si1 0.417854 0.120431 0.972766
Si Si2 0.380888 0.597317 0.669571
Si Si3 0.802153 0.555694 0.821966
Si Si4 0.736954 0.383804 0.538323
Si Si5 0.311458 0.313271 0.045371
Si Si6 0.587898 0.781935 0.219125
O O1 0.379820 0.086574 0.846608
O O2 0.456557 0.171312 0.829349
O O3 0.500000 0.096824 0.000000
O O4 0.322438 0.133143 0.255426
O O5 0.500000 0.587804 0.500000
O O6 0.346765 0.594341 0.487149
O O7 0.307228 0.562132 0.905684
O O8 0.355004 0.650028 0.809550
O O9 0.831732 0.500000 0.767301
O O10 0.787683 0.579530 0.623758
O O11 0.690065 0.341621 0.742558
O O12 0.193570 0.300613 0.166168
O O13 0.375966 0.264334 0.960159
O O14 0.500000 0.765708 0.500000
#
# Coordination Sequence:
#
# PCOD9204313 Si02
#       6
#     8   8   8   8   8   8
#     4  11  23  40  64  91 125 168 207 260 312 365
#     4  10  21  41  64  91 127 164 203 258 310 370
#     4  10  23  42  63  91 121 159 209 263 317 376
#     4  10  20  41  62  86 125 167 200 260 307 370
#     4  10  21  39  60  90 128 166 208 251 303 368
#     4  11  21  39  61  90 127 165 210 256 300 368
#
# _framework density 20.015488999999999
#
# number of rings (size 3 to 8) (size 9 to 14) (size 15 to 20)
#    0.000    1.667    5.000    1.500    0.000    6.667 
#    6.000    1.667    0.000    0.000    0.000    0.000 
#    0.000    0.000    0.000    0.000    0.000    0.000 
#
# Total GULP energy -133964.731833 kJ/mol
# GULP energy per Si atom -5581.863826 kJ/mol
# Density = 1.996993 g / cm^3
# Si number density = 20.015489 Si / 1000 Ang^3
#
#
#
# Elastic Constant Matrix: (Units=GPa)
#
#
# Indices 1 2 3 4 5 6 
#
# 1 66.2429 -21.6595 7.4249 0.0000 4.5040 0.0000
# 2 -21.6595 77.0245 6.0776 0.0000 7.2061 0.0000
# 3 7.4249 6.0776 46.9991 0.0000 18.2427 0.0000
# 4 0.0000 0.0000 0.0000 4.7634 0.0000 -6.1558
# 5 4.5040 7.2061 18.2427 0.0000 29.6450 0.0000
# 6 0.0000 0.0000 0.0000 -6.1558 0.0000 3.9416
#
#
#
# Elastic Compliance Matrix: (Units=1/GPa)
#
#
# Indices 1 2 3 4 5 6 
#
# 1 0.017260 0.005272 -0.002487 0.000000 -0.002373 0.000000
# 2 0.005272 0.014909 -0.001371 0.000000 -0.003582 0.000000
# 3 -0.002487 -0.001371 0.028341 0.000000 -0.016729 0.000000
# 4 0.000000 0.000000 0.000000 -0.206167 0.000000 -0.321982
# 5 -0.002373 -0.003582 -0.016729 0.000000 0.045258 0.000000
# 6 0.000000 0.000000 0.000000 -0.321982 0.000000 -0.249151
#
#
# Mechanical properties :
#
#
# Convention : Reuss Voigt Hill
#
# Bulk Modulus (GPa) = 15.78858 19.32806 17.55832
# Shear Modulus (GPa) = -15.09358 20.89823 2.90232
#
# Velocity S-wave (km/s) = -2.74906 3.23476 1.20548
# Velocity P-wave (km/s) = 1.47347 4.86098 3.27551
#
# Compressibility (1/GPa) = 0.06333691
#
# Stress axis : x y z
#
# Youngs Moduli (GPa) = 57.93799 67.07566 35.28518
#
# Poissons Ratio (x) = -0.35361 0.08776
# Poissons Ratio (y) = -0.30544 0.04836
# Poissons Ratio (z) = 0.14411 0.09193
#
# Static dielectric constant tensor:
#      x y z
#    x 1.744530 0.000000 -0.010660 
#    y 0.000000 1.704440 0.000000 
#    z -0.010660 0.000000 1.709290 
# 
# From -- ./inp_files/13043.got.cif
#   From: 2010.05.17/outbox.cif.g08.bks.cpg/sg12_7_cif.got.tgz:13043.got - 2010.06.03 13:09:07.
