data_PCOD9204863
_publ_section_title
;
Structure prediction by ZEFSAII (Michael W. Deem and Ramdas Pophale) SiO2 
 PCOD9204863
Probable space group: C 2/M
;
_chemical_formula_sum "Si O2"
_cell_formula_units_Z 64
_cell_length_a 30.054882
_cell_length_b 19.088087
_cell_length_c 5.425611
_cell_angle_alpha 90.000000
_cell_angle_beta 81.899492
_cell_angle_gamma 90.000000
_cell_volume 3081.563423
_symmetry_space_group_name_H-M "C 2/M"
_symmetry_group_IT_number 12
_symmetry_cell_setting 'monoclinic'
loop_
_space_group_symop_operation_xyz
x,y,z
-x,y,-z
-x,-y,-z
x,-y,z
1/2+x,1/2+y,z
1/2-x,1/2+y,-z
1/2-x,1/2-y,-z
1/2+x,1/2-y,z
loop_
_atom_site_type_symbol
_atom_site_label
_atom_site_fract_x
_atom_site_fract_y
_atom_site_fract_z
Si Si1 0.850294 0.084096 0.620032
Si Si2 0.542910 0.922556 0.639831
Si Si3 0.315155 0.853176 0.463247
Si Si4 0.632377 0.666386 0.883705
Si Si5 0.628347 0.924353 0.212822
Si Si6 0.597681 0.811047 0.850511
Si Si7 0.251151 0.418482 0.851156
Si Si8 0.734406 0.698394 0.796843
O O1 0.871314 0.117358 0.355778
O O2 0.795973 0.095841 0.651620
O O3 0.857566 0.000000 0.629344
O O4 0.866115 0.122990 0.860219
O O5 0.500000 0.912121 0.500000
O O6 0.586130 0.928121 0.430032
O O7 0.554145 0.855672 0.801200
O O8 0.538679 0.000000 0.767248
O O9 0.327692 0.910637 0.658380
O O10 0.363234 0.816947 0.386832
O O11 0.293331 0.889550 0.243400
O O12 0.275564 0.801031 0.573254
O O13 0.595934 0.729335 0.917721
O O14 0.681020 0.704758 0.812075
O O15 0.630981 0.000000 0.079152
O O16 0.618474 0.858326 0.050353
O O17 0.247753 0.500000 0.887967
O O18 0.261538 0.379733 0.095072
O O19 0.750000 0.750000 0.000000
#
# Coordination Sequence:
#
# PCOD9204863 Si02
#       8
#     8   8   8   8   8   8   8   8
#     4  10  22  40  60  82 111 154 206 256 308 363
#     4   9  20  40  65  89 117 156 198 240 291 357
#     4  11  21  34  50  73 106 149 204 248 295 352
#     4  11  23  38  60  83 118 157 203 260 310 363
#     4  10  21  36  54  80 117 155 198 246 296 354
#     4  11  24  35  55  83 118 152 193 242 307 359
#     4  10  21  34  49  71  99 142 198 255 298 337
#     4  11  23  35  50  72 105 152 203 251 305 357
#
# _framework density 20.768678000000001
#
# number of rings (size 3 to 8) (size 9 to 14) (size 15 to 20)
#    0.000    1.625    1.250    3.375    7.000    5.500 
#    0.000    1.875    0.000    0.000    0.000    0.000 
#    0.000    3.000    0.000    0.000    0.000    0.000 
#
# Total GULP energy -178586.289448 kJ/mol
# GULP energy per Si atom -5580.821545 kJ/mol
# Density = 2.072141 g / cm^3
# Si number density = 20.768678 Si / 1000 Ang^3
#
#
#
# Elastic Constant Matrix: (Units=GPa)
#
#
# Indices 1 2 3 4 5 6 
#
# 1 73.7633 38.7814 13.6687 0.0000 21.9681 0.0000
# 2 38.7814 107.8531 36.0422 0.0000 17.6682 0.0000
# 3 13.6687 36.0422 71.4812 0.0000 12.5073 0.0000
# 4 0.0000 0.0000 0.0000 28.2730 0.0000 4.2771
# 5 21.9681 17.6682 12.5073 0.0000 27.5548 0.0000
# 6 0.0000 0.0000 0.0000 4.2771 0.0000 6.9594
#
#
#
# Elastic Compliance Matrix: (Units=1/GPa)
#
#
# Indices 1 2 3 4 5 6 
#
# 1 0.020112 -0.005497 0.001211 0.000000 -0.013059 0.000000
# 2 -0.005497 0.013324 -0.005365 0.000000 -0.001726 0.000000
# 3 0.001211 -0.005365 0.017413 0.000000 -0.005429 0.000000
# 4 0.000000 0.000000 0.000000 0.038995 0.000000 -0.023965
# 5 -0.013059 -0.001726 -0.005429 0.000000 0.050273 0.000000
# 6 0.000000 0.000000 0.000000 -0.023965 0.000000 0.158420
#
#
# Mechanical properties :
#
#
# Convention : Reuss Voigt Hill
#
# Bulk Modulus (GPa) = 31.69916 47.78692 39.74304
# Shear Modulus (GPa) = 15.22738 23.53111 19.37925
#
# Velocity S-wave (km/s) = 2.71069 3.36967 3.05798
# Velocity P-wave (km/s) = 5.00931 6.18051 5.62547
#
# Compressibility (1/GPa) = 0.03154658
#
# Stress axis : x y z
#
# Youngs Moduli (GPa) = 49.72193 75.05192 57.42724
#
# Poissons Ratio (x) = 0.41257 -0.06954
# Poissons Ratio (y) = 0.27333 0.30811
# Poissons Ratio (z) = -0.06021 0.40267
#
# Static dielectric constant tensor:
#      x y z
#    x 1.736920 0.000000 -0.049860 
#    y 0.000000 1.798070 0.000000 
#    z -0.049860 0.000000 1.957360 
# 
# From -- ./inp_files/32050.got.cif
#   From: 2010.05.17/outbox.cif.g08.bks.cpg/sg12_17_cif.got.tgz:32050.got - 2010.06.03 13:09:07.
