data_PCOD9204225
_publ_section_title
;
Structure prediction by ZEFSAII (Michael W. Deem and Ramdas Pophale) SiO2 
 PCOD9204225
Probable space group: C 2/M
;
_chemical_formula_sum "Si O2"
_cell_formula_units_Z 46
_cell_length_a 8.415963
_cell_length_b 28.836039
_cell_length_c 14.059855
_cell_angle_alpha 90.000000
_cell_angle_beta 143.361611
_cell_angle_gamma 90.000000
_cell_volume 2036.206832
_symmetry_space_group_name_H-M "C 2/M"
_symmetry_group_IT_number 12
_symmetry_cell_setting 'monoclinic'
loop_
_space_group_symop_operation_xyz
x,y,z
-x,y,-z
-x,-y,-z
x,-y,z
1/2+x,1/2+y,z
1/2-x,1/2+y,-z
1/2-x,1/2-y,-z
1/2+x,1/2-y,z
loop_
_atom_site_type_symbol
_atom_site_label
_atom_site_fract_x
_atom_site_fract_y
_atom_site_fract_z
Si Si1 0.907999 0.947031 0.344365
Si Si2 0.000000 0.166760 0.000000
Si Si3 0.848060 0.618863 0.522771
Si Si4 0.038184 0.791125 0.383939
Si Si5 0.623990 0.910899 0.848254
Si Si6 0.539496 0.734266 0.174647
Si Si7 0.500000 0.500000 0.000000
O O1 0.637672 0.917942 0.214545
O O2 0.000000 0.947461 0.500000
O O3 0.143405 0.922527 0.400521
O O4 0.866961 0.000000 0.295018
O O5 0.195464 0.132759 0.037033
O O6 0.149720 0.200032 0.145905
O O7 0.669691 0.660865 0.477365
O O8 0.000000 0.633237 0.500000
O O9 0.037156 0.600693 0.697680
O O10 0.250000 0.750000 0.500000
O O11 0.001370 0.793285 0.252962
O O12 0.755579 0.775101 0.290631
O O13 0.784450 0.958734 0.924362
O O14 0.250000 0.750000 0.000000
#
# Coordination Sequence:
#
# PCOD9204225 Si02
#       7
#     8   4   8   8   8   8   2
#     4   9  19  37  62  90 123 158 214 268 320 385
#     4  11  22  39  66  92 130 178 221 262 333 404
#     4  11  24  39  63  97 130 166 219 278 338 386
#     4  12  25  43  67  94 133 174 227 281 331 406
#     4  10  21  39  67  95 125 168 223 269 322 407
#     4  12  25  43  64  95 137 176 223 275 343 401
#     4  10  20  40  68  90 130 168 212 270 336 394
#
# _framework density 22.591024000000001
#
# number of rings (size 3 to 8) (size 9 to 14) (size 15 to 20)
#    0.000    1.217    2.609    3.652    3.652    3.130 
#    0.000    0.000    0.000    1.043    0.000    0.000 
#    0.000    0.000    0.000    0.000    0.000    0.000 
#
# Total GULP energy -128387.330444 kJ/mol
# GULP energy per Si atom -5582.057845 kJ/mol
# Density = 2.253961 g / cm^3
# Si number density = 22.591024 Si / 1000 Ang^3
#
#
#
# Elastic Constant Matrix: (Units=GPa)
#
#
# Indices 1 2 3 4 5 6 
#
# 1 63.1440 11.9438 12.3711 0.0000 14.8250 0.0000
# 2 11.9438 99.7585 8.5128 0.0000 11.2486 0.0000
# 3 12.3711 8.5128 46.2545 0.0000 19.4454 0.0000
# 4 0.0000 0.0000 0.0000 21.3879 0.0000 13.2384
# 5 14.8250 11.2486 19.4454 0.0000 42.7992 0.0000
# 6 0.0000 0.0000 0.0000 13.2384 0.0000 26.1289
#
#
#
# Elastic Compliance Matrix: (Units=1/GPa)
#
#
# Indices 1 2 3 4 5 6 
#
# 1 0.017677 -0.001380 -0.002537 0.000000 -0.004608 0.000000
# 2 -0.001380 0.010471 -0.000744 0.000000 -0.001936 0.000000
# 3 -0.002537 -0.000744 0.027174 0.000000 -0.011272 0.000000
# 4 0.000000 0.000000 0.000000 0.068117 0.000000 -0.034512
# 5 -0.004608 -0.001936 -0.011272 0.000000 0.030591 0.000000
# 6 0.000000 0.000000 0.000000 -0.034512 0.000000 0.055758
#
#
# Mechanical properties :
#
#
# Convention : Reuss Voigt Hill
#
# Bulk Modulus (GPa) = 21.73950 30.53472 26.13711
# Shear Modulus (GPa) = 21.32717 29.81848 25.57283
#
# Velocity S-wave (km/s) = 3.07588 3.63702 3.36816
# Velocity P-wave (km/s) = 4.71791 5.58416 5.16921
#
# Compressibility (1/GPa) = 0.04599923
#
# Stress axis : x y z
#
# Youngs Moduli (GPa) = 56.57172 95.49952 36.80043
#
# Poissons Ratio (x) = 0.13182 0.09335
# Poissons Ratio (y) = 0.07809 0.02738
# Poissons Ratio (z) = 0.14350 0.07107
#
# Static dielectric constant tensor:
#      x y z
#    x 1.843290 0.000000 0.025940 
#    y 0.000000 1.805440 0.000000 
#    z 0.025940 0.000000 1.865300 
# 
# From -- ./inp_files/200246.got.cif
#   From: 2010.05.17/outbox.cif.g08.bks.cpg/sg12_101_cif.got.tgz:200246.got - 2010.06.03 13:09:07.
