data_PCOD9204778
_publ_section_title
;
Structure prediction by ZEFSAII (Michael W. Deem and Ramdas Pophale) SiO2 
 PCOD9204778
Probable space group: C 2/M
;
_chemical_formula_sum "Si O2"
_cell_formula_units_Z 56
_cell_length_a 24.354284
_cell_length_b 23.109926
_cell_length_c 9.543857
_cell_angle_alpha 90.000000
_cell_angle_beta 150.553949
_cell_angle_gamma 90.000000
_cell_volume 2640.663718
_symmetry_space_group_name_H-M "C 2/M"
_symmetry_group_IT_number 12
_symmetry_cell_setting 'monoclinic'
loop_
_space_group_symop_operation_xyz
x,y,z
-x,y,-z
-x,-y,-z
x,-y,z
1/2+x,1/2+y,z
1/2-x,1/2+y,-z
1/2-x,1/2-y,-z
1/2+x,1/2-y,z
loop_
_atom_site_type_symbol
_atom_site_label
_atom_site_fract_x
_atom_site_fract_y
_atom_site_fract_z
Si Si1 0.393152 0.827862 0.861157
Si Si2 0.049789 0.796234 0.970112
Si Si3 0.106216 0.342315 0.820165
Si Si4 0.834694 0.766457 0.322227
Si Si5 0.870738 0.564032 0.662205
Si Si6 0.302924 0.933238 0.189916
Si Si7 0.169152 0.831552 0.960325
O O1 0.320096 0.878833 0.626637
O O2 0.500000 0.825186 0.000000
O O3 0.368957 0.759118 0.820442
O O4 0.422831 0.849774 0.082272
O O5 0.107570 0.829494 0.970942
O O6 0.934705 0.772509 0.649641
O O7 0.000000 0.825320 0.000000
O O8 0.209751 0.299077 0.762222
O O9 0.133609 0.399936 0.793499
O O10 0.220953 0.304503 0.088789
O O11 0.878593 0.792984 0.272953
O O12 0.000000 0.683360 0.500000
O O13 0.822281 0.500000 0.589542
O O14 0.860299 0.570278 0.471214
O O15 0.000000 0.561545 0.000000
O O16 0.287626 0.000000 0.122021
O O17 0.189612 0.896513 0.956914
#
# Coordination Sequence:
#
# PCOD9204778 Si02
#       7
#     8   8   8   8   8   8   8
#     4  10  21  33  52  82 121 162 194 242 293 359
#     4  11  24  38  57  90 129 160 203 251 297 363
#     4  11  22  37  61  90 124 157 201 252 298 365
#     4  10  23  37  61  89 119 165 201 244 310 361
#     4   9  18  33  50  74 112 157 197 237 288 348
#     4  10  23  40  61  88 115 156 210 253 303 361
#     4  10  22  38  62  85 120 160 196 254 306 362
#
# _framework density 21.206789000000001
#
# number of rings (size 3 to 8) (size 9 to 14) (size 15 to 20)
#    0.000    1.857    1.429    2.143   12.000    2.571 
#    0.000    0.000    0.000    7.286    0.000    0.000 
#    0.000    0.000    0.000    0.000    0.000    0.000 
#
# Total GULP energy -155905.123032 kJ/mol
# GULP energy per Si atom -5568.040108 kJ/mol
# Density = 2.115852 g / cm^3
# Si number density = 21.206789 Si / 1000 Ang^3
#
#
#
# Elastic Constant Matrix: (Units=GPa)
#
#
# Indices 1 2 3 4 5 6 
#
# 1 148.7440 37.4584 26.9935 0.0000 -28.6987 0.0000
# 2 37.4584 124.3085 16.8528 0.0000 1.6685 0.0000
# 3 26.9935 16.8528 76.6516 0.0000 -4.9293 0.0000
# 4 0.0000 0.0000 0.0000 18.4944 0.0000 -5.0342
# 5 -28.6987 1.6685 -4.9293 0.0000 34.0129 0.0000
# 6 0.0000 0.0000 0.0000 -5.0342 0.0000 27.0814
#
#
#
# Elastic Compliance Matrix: (Units=1/GPa)
#
#
# Indices 1 2 3 4 5 6 
#
# 1 0.009241 -0.002589 -0.002196 0.000000 0.007606 0.000000
# 2 -0.002589 0.009032 -0.001255 0.000000 -0.002809 0.000000
# 3 -0.002196 -0.001255 0.014112 0.000000 0.000254 0.000000
# 4 0.000000 0.000000 0.000000 0.056952 0.000000 0.010587
# 5 0.007606 -0.002809 0.000254 0.000000 0.035993 0.000000
# 6 0.000000 0.000000 0.000000 0.010587 0.000000 0.038894
#
#
# Mechanical properties :
#
#
# Convention : Reuss Voigt Hill
#
# Bulk Modulus (GPa) = 49.24779 56.92370 53.08575
# Shear Modulus (GPa) = 27.31171 33.81104 30.56138
#
# Velocity S-wave (km/s) = 3.59259 3.99726 3.80032
# Velocity P-wave (km/s) = 6.36255 6.94296 6.65908
#
# Compressibility (1/GPa) = 0.02030548
#
# Stress axis : x y z
#
# Youngs Moduli (GPa) = 108.21397 110.71149 70.86386
#
# Poissons Ratio (x) = 0.28663 0.15561
# Poissons Ratio (y) = 0.28017 0.08892
# Poissons Ratio (z) = 0.23763 0.13892
#
# Static dielectric constant tensor:
#      x y z
#    x 1.837100 0.000000 -0.012610 
#    y 0.000000 1.863650 0.000000 
#    z -0.012610 0.000000 1.796170 
# 
# From -- ./inp_files/99694.got.cif
#   From: 2010.05.17/outbox.cif.g08.bks.cpg/sg12_50_cif.got.tgz:99694.got - 2010.06.03 13:09:07.
