data_PCOD9204552
_publ_section_title
;
Structure prediction by ZEFSAII (Michael W. Deem and Ramdas Pophale) SiO2 
 PCOD9204552
Probable space group: C 2/M
;
_chemical_formula_sum "Si O2"
_cell_formula_units_Z 32
_cell_length_a 14.155593
_cell_length_b 18.664968
_cell_length_c 11.272464
_cell_angle_alpha 90.000000
_cell_angle_beta 28.659676
_cell_angle_gamma 90.000000
_cell_volume 1428.429568
_symmetry_space_group_name_H-M "C 2/M"
_symmetry_group_IT_number 12
_symmetry_cell_setting 'monoclinic'
loop_
_space_group_symop_operation_xyz
x,y,z
-x,y,-z
-x,-y,-z
x,-y,z
1/2+x,1/2+y,z
1/2-x,1/2+y,-z
1/2-x,1/2-y,-z
1/2+x,1/2-y,z
loop_
_atom_site_type_symbol
_atom_site_label
_atom_site_fract_x
_atom_site_fract_y
_atom_site_fract_z
Si Si1 0.694110 0.877639 0.602497
Si Si2 0.000000 0.272544 0.000000
Si Si3 0.265350 0.000000 0.780516
Si Si4 0.411470 0.000000 0.964018
Si Si5 0.218315 0.656348 0.311101
Si Si6 0.983856 0.000000 0.706020
O O1 0.632379 0.823233 0.772771
O O2 0.506138 0.930979 0.796356
O O3 0.723399 0.836032 0.447580
O O4 0.875554 0.930246 0.436760
O O5 0.149236 0.216574 0.896803
O O6 0.500000 0.000000 0.500000
O O7 0.206801 0.924417 0.789769
O O8 0.170304 0.000000 0.014613
O O9 0.500000 0.000000 0.000000
O O10 0.175568 0.000000 0.224800
O O11 0.000000 0.661403 0.500000
#
# Coordination Sequence:
#
# PCOD9204552 Si02
#       6
#     8   4   4   4   8   4
#     4  11  25  44  65 104 139 178 235 278 334 414
#     4  12  26  44  62  98 144 184 236 274 330 418
#     4  10  20  42  69 104 125 168 226 284 339 397
#     4  11  22  44  70 101 135 174 225 283 333 408
#     4  11  24  42  70  97 134 180 227 290 343 393
#     4  11  24  42  76 100 135 183 218 287 350 389
#
# _framework density 22.402225000000001
#
# number of rings (size 3 to 8) (size 9 to 14) (size 15 to 20)
#    0.000    1.000    1.250    6.750    0.000    6.500 
#    0.000    0.000    0.000    0.000    0.000    0.000 
#    0.000    0.000    0.000    0.000    0.000    0.000 
#
# Total GULP energy -89413.894783 kJ/mol
# GULP energy per Si atom -5588.368424 kJ/mol
# Density = 2.235124 g / cm^3
# Si number density = 22.402225 Si / 1000 Ang^3
#
#
#
# Elastic Constant Matrix: (Units=GPa)
#
#
# Indices 1 2 3 4 5 6 
#
# 1 98.7787 20.5486 61.6427 -0.0783 -24.0826 -0.0262
# 2 20.5486 133.3299 64.3315 -0.3309 -9.2979 -0.0581
# 3 61.6427 64.3315 153.7648 -0.2512 -29.6808 -0.0288
# 4 -0.0783 -0.3309 -0.2512 233.2695 0.0878 122.1027
# 5 -24.0826 -9.2979 -29.6808 0.0878 58.1276 0.0186
# 6 -0.0262 -0.0581 -0.0288 122.1027 0.0186 85.6882
#
#
#
# Elastic Compliance Matrix: (Units=1/GPa)
#
#
# Indices 1 2 3 4 5 6 
#
# 1 0.014076 0.000598 -0.005268 -0.000010 0.003237 0.000016
# 2 0.000598 0.009439 -0.004271 0.000025 -0.000423 -0.000031
# 3 -0.005268 -0.004271 0.010926 0.000014 0.002713 -0.000022
# 4 -0.000010 0.000025 0.000014 0.016870 -0.000010 -0.024039
# 5 0.003237 -0.000423 0.002713 -0.000010 0.019863 0.000012
# 6 0.000016 -0.000031 -0.000022 -0.024039 0.000012 0.045925
#
#
# Mechanical properties :
#
#
# Convention : Reuss Voigt Hill
#
# Bulk Modulus (GPa) = 60.38670 75.43543 67.91107
# Shear Modulus (GPa) = 35.58719 91.37377 63.48048
#
# Velocity S-wave (km/s) = 3.98999 6.39346 5.32900
# Velocity P-wave (km/s) = 6.94557 9.39405 8.26102
#
# Compressibility (1/GPa) = 0.01655994
#
# Stress axis : x y z
#
# Youngs Moduli (GPa) = 71.04168 105.94268 91.52547
#
# Poissons Ratio (x) = -0.06339 0.48220
# Poissons Ratio (y) = -0.04251 0.39086
# Poissons Ratio (z) = 0.37428 0.45243
#
# Static dielectric constant tensor:
#      x y z
#    x 1.937200 0.000000 0.018820 
#    y 0.000000 1.802460 0.000020 
#    z 0.018820 0.000020 1.890830 
# 
# From -- ./inp_files/146000.got.cif
#   From: 2010.05.17/outbox.cif.g08.bks.cpg/sg12_73_cif.got.tgz:146000.got - 2010.06.03 13:09:07.
