data_PCOD9204617
_publ_section_title
;
Structure prediction by ZEFSAII (Michael W. Deem and Ramdas Pophale) SiO2 
 PCOD9204617
Probable space group: C 2/M
;
_chemical_formula_sum "Si O2"
_cell_formula_units_Z 52
_cell_length_a 22.640946
_cell_length_b 24.440746
_cell_length_c 5.292863
_cell_angle_alpha 90.000000
_cell_angle_beta 55.635219
_cell_angle_gamma 90.000000
_cell_volume 2417.664531
_symmetry_space_group_name_H-M "C 2/M"
_symmetry_group_IT_number 12
_symmetry_cell_setting 'monoclinic'
loop_
_space_group_symop_operation_xyz
x,y,z
-x,y,-z
-x,-y,-z
x,-y,z
1/2+x,1/2+y,z
1/2-x,1/2+y,-z
1/2-x,1/2-y,-z
1/2+x,1/2-y,z
loop_
_atom_site_type_symbol
_atom_site_label
_atom_site_fract_x
_atom_site_fract_y
_atom_site_fract_z
Si Si1 0.050520 0.500000 0.635802
Si Si2 0.691512 0.626545 0.158579
Si Si3 0.193516 0.229104 0.836112
Si Si4 0.082050 0.169747 0.823601
Si Si5 0.659814 0.154836 0.042161
Si Si6 0.423459 0.561831 0.827624
Si Si7 0.417595 0.882030 0.287968
O O1 0.094485 0.444606 0.581291
O O2 0.000000 0.500000 0.500000
O O3 0.000000 0.500000 0.000000
O O4 0.633631 0.661462 0.459802
O O5 0.645351 0.574597 0.182406
O O6 0.711520 0.668182 0.884807
O O7 0.767454 0.618560 0.107972
O O8 0.250000 0.250000 0.500000
O O9 0.116820 0.217830 0.899594
O O10 0.185402 0.282443 0.024078
O O11 0.081533 0.109980 0.956969
O O12 0.000000 0.183769 0.000000
O O13 0.603159 0.148119 0.403981
O O14 0.627282 0.139303 0.846339
O O15 0.500000 0.568151 0.500000
O O16 0.420937 0.500000 0.933503
O O17 0.500000 0.877653 0.000000
#
# Coordination Sequence:
#
# PCOD9204617 Si02
#       7
#     4   8   8   8   8   8   8
#     4  10  20  44  76  94 130 184 222 270 348 426
#     4  11  24  43  66  96 135 180 232 278 348 423
#     4  11  24  43  67  92 134 184 225 275 352 426
#     4  11  23  41  67  98 132 177 237 287 336 411
#     4  12  25  43  70 102 140 180 227 291 354 413
#     4  10  22  42  67  97 137 184 232 287 345 406
#     4  11  25  46  69 102 135 177 231 284 345 418
#
# _framework density 21.50836
#
# number of rings (size 3 to 8) (size 9 to 14) (size 15 to 20)
#    0.000    1.077    3.077    3.692    4.308    1.538 
#    5.538    0.000    0.000    0.000    0.000    0.000 
#    0.000    0.000    0.000    0.000    0.000    0.000 
#
# Total GULP energy -144881.223983 kJ/mol
# GULP energy per Si atom -5572.354769 kJ/mol
# Density = 2.145941 g / cm^3
# Si number density = 21.508360 Si / 1000 Ang^3
#
#
#
# Elastic Constant Matrix: (Units=GPa)
#
#
# Indices 1 2 3 4 5 6 
#
# 1 108.3967 4.8709 -0.3369 0.0000 -12.4502 0.0000
# 2 4.8709 83.9538 15.2031 0.0000 -7.3203 0.0000
# 3 -0.3369 15.2031 84.6551 0.0000 0.0539 0.0000
# 4 0.0000 0.0000 0.0000 68.2855 0.0000 7.9262
# 5 -12.4502 -7.3203 0.0539 0.0000 33.3798 0.0000
# 6 0.0000 0.0000 0.0000 7.9262 0.0000 27.1316
#
#
#
# Elastic Compliance Matrix: (Units=1/GPa)
#
#
# Indices 1 2 3 4 5 6 
#
# 1 0.009644 -0.000266 0.000084 0.000000 0.003539 0.000000
# 2 -0.000266 0.012568 -0.002260 0.000000 0.002661 0.000000
# 3 0.000084 -0.002260 0.012219 0.000000 -0.000484 0.000000
# 4 0.000000 0.000000 0.000000 0.015158 0.000000 -0.004428
# 5 0.003539 0.002661 -0.000484 0.000000 0.031862 0.000000
# 6 0.000000 0.000000 0.000000 -0.004428 0.000000 0.038151
#
#
# Mechanical properties :
#
#
# Convention : Reuss Voigt Hill
#
# Bulk Modulus (GPa) = 33.84443 35.16442 34.50443
# Shear Modulus (GPa) = 37.22006 42.91060 40.06533
#
# Velocity S-wave (km/s) = 4.16443 4.47146 4.32068
# Velocity P-wave (km/s) = 6.23642 6.56074 6.40064
#
# Compressibility (1/GPa) = 0.02954696
#
# Stress axis : x y z
#
# Youngs Moduli (GPa) = 103.69107 79.56733 81.83899
#
# Poissons Ratio (x) = 0.02118 -0.00687
# Poissons Ratio (y) = 0.02760 0.18494
# Poissons Ratio (z) = -0.00870 0.17981
#
# Static dielectric constant tensor:
#      x y z
#    x 2.073340 0.000000 -0.156430 
#    y 0.000000 2.057980 0.000000 
#    z -0.156430 0.000000 2.028280 
# 
# From -- ./inp_files/26170.got.cif
#   From: 2010.05.17/outbox.cif.g08.bks.cpg/sg12_14_cif.got.tgz:26170.got - 2010.06.03 13:09:07.
