data_PCOD9204185
_publ_section_title
;
Structure prediction by ZEFSAII (Michael W. Deem and Ramdas Pophale) SiO2 
 PCOD9204185
Probable space group: C 2/M
;
_chemical_formula_sum "Si O2"
_cell_formula_units_Z 42
_cell_length_a 20.483982
_cell_length_b 7.492625
_cell_length_c 12.404883
_cell_angle_alpha 90.000000
_cell_angle_beta 95.983718
_cell_angle_gamma 90.000000
_cell_volume 1893.513291
_symmetry_space_group_name_H-M "C 2/M"
_symmetry_group_IT_number 12
_symmetry_cell_setting 'monoclinic'
loop_
_space_group_symop_operation_xyz
x,y,z
-x,y,-z
-x,-y,-z
x,-y,z
1/2+x,1/2+y,z
1/2-x,1/2+y,-z
1/2-x,1/2-y,-z
1/2+x,1/2-y,z
loop_
_atom_site_type_symbol
_atom_site_label
_atom_site_fract_x
_atom_site_fract_y
_atom_site_fract_z
Si Si1 0.820207 0.287761 0.065837
Si Si2 0.364685 0.282114 0.707580
Si Si3 0.713478 0.783837 0.701860
Si Si4 0.000000 0.500000 0.500000
Si Si5 0.902283 0.794100 0.474260
Si Si6 0.062855 0.795038 0.069563
O O1 0.830747 0.500000 0.067479
O O2 0.816279 0.226043 0.188593
O O3 0.877252 0.205037 0.004071
O O4 0.750000 0.250000 0.000000
O O5 0.363763 0.500000 0.710587
O O6 0.289057 0.224471 0.706383
O O7 0.392323 0.230797 0.596076
O O8 0.408920 0.217039 0.814430
O O9 0.667219 0.719938 0.598067
O O10 0.714087 0.000000 0.700172
O O11 0.954520 0.657733 0.435777
O O12 0.922809 0.000000 0.475384
O O13 0.044497 0.000000 0.092795
O O14 0.000000 0.711888 0.000000
#
# Coordination Sequence:
#
# PCOD9204185 Si02
#       6
#     8   8   8   2   8   8
#     4  11  22  38  63  94 131 172 219 274 328 392
#     4   9  19  39  65  95 131 167 216 278 333 396
#     4  10  20  40  66  95 134 169 217 284 336 385
#     4  12  26  48  64  94 146 172 216 274 330 392
#     4  11  24  43  69  98 130 179 224 267 332 403
#     4  10  21  40  64  92 129 172 217 270 333 395
#
# _framework density 22.180990000000001
#
# number of rings (size 3 to 8) (size 9 to 14) (size 15 to 20)
#    0.000    1.714    2.857    1.429    0.000    3.429 
#    3.429    1.905    0.000    0.000    0.000    0.000 
#    0.000    0.000    0.000    0.000    0.000    0.000 
#
# Total GULP energy -117149.834860 kJ/mol
# GULP energy per Si atom -5578.563565 kJ/mol
# Density = 2.213050 g / cm^3
# Si number density = 22.180990 Si / 1000 Ang^3
#
#
#
# Elastic Constant Matrix: (Units=GPa)
#
#
# Indices 1 2 3 4 5 6 
#
# 1 88.6583 -3.0566 69.1730 0.0000 36.1717 0.0000
# 2 -3.0566 96.9288 13.6496 0.0000 6.5708 0.0000
# 3 69.1730 13.6496 150.6390 0.0000 18.1293 0.0000
# 4 0.0000 0.0000 0.0000 -93.9302 0.0000 -77.0364
# 5 36.1717 6.5708 18.1293 0.0000 42.9724 0.0000
# 6 0.0000 0.0000 0.0000 -77.0364 0.0000 -52.1704
#
#
#
# Elastic Compliance Matrix: (Units=1/GPa)
#
#
# Indices 1 2 3 4 5 6 
#
# 1 0.027631 0.003687 -0.010698 0.000000 -0.019309 0.000000
# 2 0.003687 0.011008 -0.002227 0.000000 -0.003847 0.000000
# 3 -0.010698 -0.002227 0.011197 0.000000 0.004622 0.000000
# 4 0.000000 0.000000 0.000000 0.050444 0.000000 -0.074487
# 5 -0.019309 -0.003847 0.004622 0.000000 0.038162 0.000000
# 6 0.000000 0.000000 0.000000 -0.074487 0.000000 0.090822
#
#
# Mechanical properties :
#
#
# Convention : Reuss Voigt Hill
#
# Bulk Modulus (GPa) = 31.89054 55.08422 43.48738
# Shear Modulus (GPa) = 19.36536 -3.52830 7.91853
#
# Velocity S-wave (km/s) = 2.95797 -1.26259 1.89148
# Velocity P-wave (km/s) = 5.10634 4.77099 4.94151
#
# Compressibility (1/GPa) = 0.03135726
#
# Stress axis : x y z
#
# Youngs Moduli (GPa) = 36.19098 90.84668 89.31259
#
# Poissons Ratio (x) = -0.33494 0.95551
# Poissons Ratio (y) = -0.13343 0.19894
# Poissons Ratio (z) = 0.38719 0.20235
#
# Static dielectric constant tensor:
#      x y z
#    x 1.809890 0.000000 0.000340 
#    y 0.000000 1.825340 0.000000 
#    z 0.000340 0.000000 1.801550 
# 
# From -- ./inp_files/162977.got.cif
#   From: 2010.05.17/outbox.cif.g08.bks.cpg/sg12_82_cif.got.tgz:162977.got - 2010.06.03 13:09:07.
