data_PCOD9204028
_publ_section_title
;
Structure prediction by ZEFSAII (Michael W. Deem and Ramdas Pophale) SiO2 
 PCOD9204028
Probable space group: C 2/M
;
_chemical_formula_sum "Si O2"
_cell_formula_units_Z 48
_cell_length_a 18.320003
_cell_length_b 16.654069
_cell_length_c 17.170889
_cell_angle_alpha 90.000000
_cell_angle_beta 21.686486
_cell_angle_gamma 90.000000
_cell_volume 1935.911770
_symmetry_space_group_name_H-M "C 2/M"
_symmetry_group_IT_number 12
_symmetry_cell_setting 'monoclinic'
loop_
_space_group_symop_operation_xyz
x,y,z
-x,y,-z
-x,-y,-z
x,-y,z
1/2+x,1/2+y,z
1/2-x,1/2+y,-z
1/2-x,1/2-y,-z
1/2+x,1/2-y,z
loop_
_atom_site_type_symbol
_atom_site_label
_atom_site_fract_x
_atom_site_fract_y
_atom_site_fract_z
Si Si1 0.043273 0.588501 0.218883
Si Si2 0.311009 0.226881 0.541350
Si Si3 0.144159 0.812878 0.047089
Si Si4 0.230265 0.415380 0.795674
Si Si5 0.771206 0.760609 0.200516
Si Si6 0.299550 0.410998 0.549365
O O1 0.005104 0.500000 0.288822
O O2 0.928062 0.656828 0.381553
O O3 0.934514 0.591840 0.242893
O O4 0.276549 0.605894 0.991438
O O5 0.333621 0.221736 0.612983
O O6 0.364294 0.319328 0.465263
O O7 0.081191 0.210612 0.747071
O O8 0.235692 0.815136 0.868636
O O9 0.250000 0.750000 0.000000
O O10 0.270251 0.500000 0.797157
O O11 0.274797 0.328817 0.785733
O O12 0.329351 0.415340 0.612071
O O13 0.000000 0.415440 0.000000
O O14 0.000000 0.759280 0.000000
O O15 0.361944 0.500000 0.456140
#
# Coordination Sequence:
#
# PCOD9204028 Si02
#       6
#     8   8   8   8   8   8
#     4  11  24  39  61  91 121 158 210 256 299 353
#     4  10  20  40  64  83 123 167 196 243 308 356
#     4  11  22  37  61  89 119 153 201 252 300 355
#     4   8  13  23  46  77 112 149 186 229 289 360
#     4   8  17  33  54  84 114 156 201 238 294 364
#     4   9  17  31  54  88 119 149 193 241 290 363
#
# _framework density 24.794516999999999
#
# number of rings (size 3 to 8) (size 9 to 14) (size 15 to 20)
#    0.000    2.500    1.667    1.500    0.000    1.333 
#    0.000    1.667    0.000    5.000    0.000    4.667 
#    0.000    0.000    0.000    0.000    0.000    0.000 
#
# Total GULP energy -133839.310448 kJ/mol
# GULP energy per Si atom -5576.637935 kJ/mol
# Density = 2.473808 g / cm^3
# Si number density = 24.794517 Si / 1000 Ang^3
#
#
#
# Elastic Constant Matrix: (Units=GPa)
#
#
# Indices 1 2 3 4 5 6 
#
# 1 159.6428 21.4682 35.3488 0.0026 -24.2150 -0.0032
# 2 21.4682 154.8363 36.4390 0.0073 -9.8214 -0.0027
# 3 35.3488 36.4390 80.3202 0.0388 -18.2578 -0.0268
# 4 0.0026 0.0073 0.0388 35.7243 -0.0155 -1.0179
# 5 -24.2150 -9.8214 -18.2578 -0.0155 54.6858 0.0089
# 6 -0.0032 -0.0027 -0.0268 -1.0179 0.0089 13.0876
#
#
#
# Elastic Compliance Matrix: (Units=1/GPa)
#
#
# Indices 1 2 3 4 5 6 
#
# 1 0.007208 -0.000257 -0.002533 0.000003 0.002300 -0.000005
# 2 -0.000257 0.007242 -0.003141 0.000002 0.000138 -0.000005
# 3 -0.002533 -0.003141 0.015806 -0.000014 0.003592 0.000028
# 4 0.000003 0.000002 -0.000014 0.028054 0.000005 0.002182
# 5 0.002300 0.000138 0.003592 0.000005 0.020529 -0.000006
# 6 -0.000005 -0.000005 0.000028 0.002182 -0.000006 0.076578
#
#
# Mechanical properties :
#
#
# Convention : Reuss Voigt Hill
#
# Bulk Modulus (GPa) = 54.36439 64.59015 59.47727
# Shear Modulus (GPa) = 28.83325 40.80243 34.81784
#
# Velocity S-wave (km/s) = 3.41381 4.06103 3.75141
# Velocity P-wave (km/s) = 6.12474 6.93513 6.54249
#
# Compressibility (1/GPa) = 0.01839439
#
# Stress axis : x y z
#
# Youngs Moduli (GPa) = 138.72921 138.08249 63.26660
#
# Poissons Ratio (x) = 0.03556 0.16024
# Poissons Ratio (y) = 0.03572 0.19871
# Poissons Ratio (z) = 0.35136 0.43369
#
# Static dielectric constant tensor:
#      x y z
#    x 1.966360 -0.000030 -0.032330 
#    y -0.000030 1.982860 0.000030 
#    z -0.032330 0.000030 2.155430 
# 
# From -- ./inp_files/278028.got.cif
#   From: 2010.05.17/outbox.cif.g08.bks.cpg/sg12_140_cif.got.tgz:278028.got - 2010.06.03 13:09:07.
