data_PCOD9204124
_publ_section_title
;
Structure prediction by ZEFSAII (Michael W. Deem and Ramdas Pophale) SiO2 
 PCOD9204124
Probable space group: C 2/M
;
_chemical_formula_sum "Si O2"
_cell_formula_units_Z 38
_cell_length_a 22.754142
_cell_length_b 11.913989
_cell_length_c 13.451968
_cell_angle_alpha 90.000000
_cell_angle_beta 31.498797
_cell_angle_gamma 90.000000
_cell_volume 1905.345355
_symmetry_space_group_name_H-M "C 2/M"
_symmetry_group_IT_number 12
_symmetry_cell_setting 'monoclinic'
loop_
_space_group_symop_operation_xyz
x,y,z
-x,y,-z
-x,-y,-z
x,-y,z
1/2+x,1/2+y,z
1/2-x,1/2+y,-z
1/2-x,1/2-y,-z
1/2+x,1/2-y,z
loop_
_atom_site_type_symbol
_atom_site_label
_atom_site_fract_x
_atom_site_fract_y
_atom_site_fract_z
Si Si1 0.330391 0.797938 0.739760
Si Si2 0.391580 0.628831 0.820251
Si Si3 0.085232 0.870856 0.704329
Si Si4 0.000000 0.289682 0.000000
Si Si5 0.000000 0.500000 0.500000
Si Si6 0.763510 0.372598 0.287756
O O1 0.391262 0.715737 0.730700
O O2 0.409861 0.900736 0.597276
O O3 0.285845 0.720568 0.714780
O O4 0.221905 0.848337 0.953629
O O5 0.392285 0.500000 0.784128
O O6 0.495693 0.645247 0.744233
O O7 0.205849 0.856115 0.478415
O O8 0.075594 0.000000 0.752459
O O9 0.054638 0.788238 0.836585
O O10 0.102622 0.359617 0.897659
O O11 0.734473 0.500000 0.297258
#
# Coordination Sequence:
#
# PCOD9204124 Si02
#       6
#     8   8   8   4   2   8
#     4  11  22  39  64  95 134 164 210 269 333 384
#     4  10  20  40  65  92 126 173 211 262 325 398
#     4  10  22  40  64  92 127 172 221 266 328 389
#     4  12  22  42  66  94 130 173 227 274 318 374
#     4  12  24  40  62 102 136 160 208 276 320 390
#     4  11  24  43  66  96 132 175 220 272 325 387
#
# _framework density 19.94389
#
# number of rings (size 3 to 8) (size 9 to 14) (size 15 to 20)
#    0.000    1.263    3.158    3.158    0.000    0.000 
#    1.895    4.211    6.947    0.000    0.000    0.000 
#    0.000    0.000    0.000    0.000    0.000    0.000 
#
# Total GULP energy -105923.003963 kJ/mol
# GULP energy per Si atom -5574.894945 kJ/mol
# Density = 1.989850 g / cm^3
# Si number density = 19.943890 Si / 1000 Ang^3
#
#
#
# Elastic Constant Matrix: (Units=GPa)
#
#
# Indices 1 2 3 4 5 6 
#
# 1 48.4632 56.9413 18.7409 0.0000 -3.7672 0.0000
# 2 56.9413 149.0663 37.1211 0.0000 -3.9281 0.0000
# 3 18.7409 37.1211 68.1927 0.0000 -12.2176 0.0000
# 4 0.0000 0.0000 0.0000 16.9049 0.0000 5.2585
# 5 -3.7672 -3.9281 -12.2176 0.0000 23.1177 0.0000
# 6 0.0000 0.0000 0.0000 5.2585 0.0000 12.3626
#
#
#
# Elastic Compliance Matrix: (Units=1/GPa)
#
#
# Indices 1 2 3 4 5 6 
#
# 1 0.038072 -0.013863 -0.002460 0.000000 0.002548 0.000000
# 2 -0.013863 0.012830 -0.003522 0.000000 -0.001940 0.000000
# 3 -0.002460 -0.003522 0.018865 0.000000 0.008971 0.000000
# 4 0.000000 0.000000 0.000000 0.068175 0.000000 -0.028998
# 5 0.002548 -0.001940 0.008971 0.000000 0.048083 0.000000
# 6 0.000000 0.000000 0.000000 -0.028998 0.000000 0.093224
#
#
# Mechanical properties :
#
#
# Convention : Reuss Voigt Hill
#
# Bulk Modulus (GPa) = 33.24831 54.59209 43.92020
# Shear Modulus (GPa) = 15.19925 20.67164 17.93544
#
# Velocity S-wave (km/s) = 2.76361 3.22295 3.00208
# Velocity P-wave (km/s) = 5.18561 6.42512 5.83835
#
# Compressibility (1/GPa) = 0.03007671
#
# Stress axis : x y z
#
# Youngs Moduli (GPa) = 26.26602 77.94323 53.00922
#
# Poissons Ratio (x) = 1.08055 0.13040
# Poissons Ratio (y) = 0.36413 0.18668
# Poissons Ratio (z) = 0.06461 0.27449
#
# Static dielectric constant tensor:
#      x y z
#    x 1.672840 0.000000 -0.012890 
#    y 0.000000 1.662980 0.000000 
#    z -0.012890 0.000000 1.723120 
# 
# From -- ./inp_files/211861.got.cif
#   From: 2010.05.17/outbox.cif.g08.bks.cpg/sg12_106_cif.got.tgz:211861.got - 2010.06.03 13:09:07.
