data_PCOD9204076
_publ_section_title
;
Structure prediction by ZEFSAII (Michael W. Deem and Ramdas Pophale) SiO2 
 PCOD9204076
Probable space group: C 2/M
;
_chemical_formula_sum "Si O2"
_cell_formula_units_Z 56
_cell_length_a 21.559888
_cell_length_b 9.753229
_cell_length_c 32.891254
_cell_angle_alpha 90.000000
_cell_angle_beta 153.907529
_cell_angle_gamma 90.000000
_cell_volume 3041.945808
_symmetry_space_group_name_H-M "C 2/M"
_symmetry_group_IT_number 12
_symmetry_cell_setting 'monoclinic'
loop_
_space_group_symop_operation_xyz
x,y,z
-x,y,-z
-x,-y,-z
x,-y,z
1/2+x,1/2+y,z
1/2-x,1/2+y,-z
1/2-x,1/2-y,-z
1/2+x,1/2-y,z
loop_
_atom_site_type_symbol
_atom_site_label
_atom_site_fract_x
_atom_site_fract_y
_atom_site_fract_z
Si Si1 0.530899 0.838997 0.066571
Si Si2 0.586512 0.657881 0.786587
Si Si3 0.235539 0.841281 0.391271
Si Si4 0.293946 0.839438 0.212733
Si Si5 0.472396 0.158973 0.394656
Si Si6 0.652998 0.655089 0.612052
Si Si7 0.737583 0.839132 0.033169
O O1 0.660002 0.739153 0.152424
O O2 0.566996 0.000000 0.093269
O O3 0.500000 0.820638 0.000000
O O4 0.397334 0.809443 0.017048
O O5 0.629319 0.500000 0.802139
O O6 0.419757 0.671658 0.682029
O O7 0.667643 0.763150 0.806079
O O8 0.628704 0.680388 0.858241
O O9 0.364233 0.813369 0.498135
O O10 0.251392 0.739672 0.362749
O O11 0.252132 0.000000 0.387485
O O12 0.426326 0.825890 0.321155
O O13 0.264096 0.000000 0.189425
O O14 0.376396 0.259134 0.364860
O O15 0.445215 0.000000 0.390299
O O16 0.500000 0.649006 0.500000
O O17 0.701658 0.500000 0.647972
O O18 0.729739 0.000000 0.017695
O O19 0.750000 0.750000 0.000000
#
# Coordination Sequence:
#
# PCOD9204076 Si02
#       7
#     8   8   8   8   8   8   8
#     4  10  20  40  65  84 112 153 194 234 287 349
#     4  10  21  39  59  80 109 150 194 231 283 349
#     4   9  18  34  57  78 107 153 191 226 280 342
#     4  11  23  36  56  86 116 146 189 240 284 335
#     4   9  19  35  52  78 114 149 187 230 279 338
#     4   9  17  30  50  76 105 140 185 235 282 328
#     4  10  22  40  62  88 117 148 185 239 293 345
#
# _framework density 18.409268999999998
#
# number of rings (size 3 to 8) (size 9 to 14) (size 15 to 20)
#    0.000    2.286    1.429    0.857    0.000    6.571 
#    0.000    4.286    0.000    0.000    0.000    0.000 
#    0.000    0.000    0.000    0.000    0.000    0.000 
#
# Total GULP energy -156141.565810 kJ/mol
# GULP energy per Si atom -5576.484493 kJ/mol
# Density = 1.836737 g / cm^3
# Si number density = 18.409269 Si / 1000 Ang^3
#
#
#
# Elastic Constant Matrix: (Units=GPa)
#
#
# Indices 1 2 3 4 5 6 
#
# 1 85.0226 59.0375 36.4632 -0.0003 -5.4141 0.0002
# 2 59.0375 93.2490 54.6103 -0.0001 -4.0024 0.0002
# 3 36.4632 54.6103 78.8116 -0.0008 1.4926 0.0003
# 4 -0.0003 -0.0001 -0.0008 25.8946 0.0001 -1.8273
# 5 -5.4141 -4.0024 1.4926 0.0001 23.9194 0.0001
# 6 0.0002 0.0002 0.0003 -1.8273 0.0001 25.8391
#
#
#
# Elastic Compliance Matrix: (Units=1/GPa)
#
#
# Indices 1 2 3 4 5 6 
#
# 1 0.021197 -0.012670 -0.001080 0.000000 0.002745 0.000000
# 2 -0.012670 0.025974 -0.012178 0.000000 0.002238 0.000000
# 3 -0.001080 -0.012178 0.021695 0.000001 -0.003636 0.000000
# 4 0.000000 0.000000 0.000001 0.038812 0.000000 0.002745
# 5 0.002745 0.002238 -0.003636 0.000000 0.043030 0.000000
# 6 0.000000 0.000000 0.000000 0.002745 0.000000 0.038895
#
#
# Mechanical properties :
#
#
# Convention : Reuss Voigt Hill
#
# Bulk Modulus (GPa) = 58.78791 61.92282 60.35537
# Shear Modulus (GPa) = 20.23229 22.26209 21.24719
#
# Velocity S-wave (km/s) = 3.31875 3.48125 3.40097
# Velocity P-wave (km/s) = 6.83291 7.06177 6.94828
#
# Compressibility (1/GPa) = 0.01701030
#
# Stress axis : x y z
#
# Youngs Moduli (GPa) = 47.17570 38.50034 46.09268
#
# Poissons Ratio (x) = 0.48781 0.04977
# Poissons Ratio (y) = 0.59773 0.56132
# Poissons Ratio (z) = 0.05094 0.46886
#
# Static dielectric constant tensor:
#      x y z
#    x 1.612580 0.000000 0.008860 
#    y 0.000000 1.624330 0.000000 
#    z 0.008860 0.000000 1.654530 
# 
# From -- ./inp_files/281736.got.cif
#   From: 2010.05.17/outbox.cif.g08.bks.cpg/sg12_141_cif.got.tgz:281736.got - 2010.06.03 13:09:07.
