data_PCOD9204101
_publ_section_title
;
Structure prediction by ZEFSAII (Michael W. Deem and Ramdas Pophale) SiO2 
 PCOD9204101
Probable space group: C 2/M
;
_chemical_formula_sum "Si O2"
_cell_formula_units_Z 64
_cell_length_a 15.729713
_cell_length_b 31.374024
_cell_length_c 20.496246
_cell_angle_alpha 90.000000
_cell_angle_beta 161.558617
_cell_angle_gamma 90.000000
_cell_volume 3199.717461
_symmetry_space_group_name_H-M "C 2/M"
_symmetry_group_IT_number 12
_symmetry_cell_setting 'monoclinic'
loop_
_space_group_symop_operation_xyz
x,y,z
-x,y,-z
-x,-y,-z
x,-y,z
1/2+x,1/2+y,z
1/2-x,1/2+y,-z
1/2-x,1/2-y,-z
1/2+x,1/2-y,z
loop_
_atom_site_type_symbol
_atom_site_label
_atom_site_fract_x
_atom_site_fract_y
_atom_site_fract_z
Si Si1 0.115411 0.241089 0.012064
Si Si2 0.808105 0.108377 0.420347
Si Si3 0.799833 0.550297 0.027700
Si Si4 0.185692 0.830807 0.264994
Si Si5 0.771607 0.912210 0.160898
Si Si6 0.872440 0.901899 0.969011
Si Si7 0.098438 0.826939 0.807820
Si Si8 0.941040 0.666601 0.665822
O O1 0.233533 0.283842 0.067922
O O2 0.352049 0.205503 0.185717
O O3 0.000000 0.249426 0.000000
O O4 0.880536 0.217816 0.801271
O O5 0.588284 0.073856 0.238918
O O6 0.657933 0.151169 0.335221
O O7 0.000000 0.117700 0.500000
O O8 0.986596 0.090816 0.610915
O O9 0.825839 0.500000 0.054011
O O10 0.653004 0.570091 0.984324
O O11 0.673736 0.560796 0.864851
O O12 0.500000 0.836974 0.500000
O O13 0.007798 0.840763 0.198992
O O14 0.075025 0.862814 0.130363
O O15 0.737436 0.864274 0.107900
O O16 0.500000 0.926086 0.000000
O O17 0.591457 0.876880 0.751515
O O18 0.000000 0.925406 0.000000
O O19 0.822395 0.821260 0.566272
#
# Coordination Sequence:
#
# PCOD9204101 Si02
#       8
#     8   8   8   8   8   8   8   8
#     4  11  22  37  54  83 121 161 208 255 307 357
#     4  10  21  40  64  93 123 166 210 250 312 378
#     4  11  24  42  65  95 127 158 204 262 312 376
#     4  11  21  36  60  86 118 160 211 250 304 365
#     4  11  22  40  65  90 125 168 208 247 310 375
#     4  10  20  40  65  89 119 162 205 252 313 375
#     4  11  21  37  58  86 120 160 200 262 303 362
#     4   9  20  36  61  86 115 159 209 256 301 359
#
# _framework density 20.001766
#
# number of rings (size 3 to 8) (size 9 to 14) (size 15 to 20)
#    0.000    1.500    2.500    4.125    0.000    1.250 
#    0.000    0.625    0.000    0.375    0.000    0.000 
#    0.000    0.000    0.000    0.000    0.000    0.000 
#
# Total GULP energy -178683.019876 kJ/mol
# GULP energy per Si atom -5583.844371 kJ/mol
# Density = 1.995624 g / cm^3
# Si number density = 20.001766 Si / 1000 Ang^3
#
#
#
# Elastic Constant Matrix: (Units=GPa)
#
#
# Indices 1 2 3 4 5 6 
#
# 1 141.0946 17.3167 16.2516 0.0035 24.7782 -0.0004
# 2 17.3167 46.5547 0.1377 0.0243 1.7657 0.0001
# 3 16.2516 0.1377 62.2751 -0.0054 6.6020 0.0084
# 4 0.0035 0.0243 -0.0054 12.1337 -0.0040 -1.6379
# 5 24.7782 1.7657 6.6020 -0.0040 28.0728 -0.0026
# 6 -0.0004 0.0001 0.0084 -1.6379 -0.0026 12.1541
#
#
#
# Elastic Compliance Matrix: (Units=1/GPa)
#
#
# Indices 1 2 3 4 5 6 
#
# 1 0.008924 -0.003037 -0.001546 0.000000 -0.007322 0.000000
# 2 -0.003037 0.022566 0.000625 -0.000044 0.001115 -0.000007
# 3 -0.001546 0.000625 0.016737 0.000004 -0.002611 -0.000012
# 4 0.000000 -0.000044 0.000004 0.083942 0.000015 0.011312
# 5 -0.007322 0.001115 -0.002611 0.000015 0.042628 0.000013
# 6 0.000000 -0.000007 -0.000012 0.011312 0.000013 0.083801
#
#
# Mechanical properties :
#
#
# Convention : Reuss Voigt Hill
#
# Bulk Modulus (GPa) = 24.80813 35.25961 30.03387
# Shear Modulus (GPa) = 17.86020 24.88668 21.37344
#
# Velocity S-wave (km/s) = 2.99144 3.53118 3.27246
# Velocity P-wave (km/s) = 4.93574 5.85595 5.41543
#
# Compressibility (1/GPa) = 0.04030936
#
# Stress axis : x y z
#
# Youngs Moduli (GPa) = 112.05550 44.31498 59.74925
#
# Poissons Ratio (x) = 0.13459 0.09237
# Poissons Ratio (y) = 0.34033 -0.03732
# Poissons Ratio (z) = 0.17323 -0.02768
#
# Static dielectric constant tensor:
#      x y z
#    x 1.793640 0.000000 -0.016380 
#    y 0.000000 1.663930 -0.000010 
#    z -0.016380 -0.000010 1.706120 
# 
# From -- ./inp_files/312946.got.cif
#   From: 2010.05.17/outbox.cif.g08.bks.cpg/sg12_157_cif.got.tgz:312946.got - 2010.06.03 13:09:07.
