data_PCOD9204407
_publ_section_title
;
Structure prediction by ZEFSAII (Michael W. Deem and Ramdas Pophale) SiO2 
 PCOD9204407
Probable space group: C 2/M
;
_chemical_formula_sum "Si O2"
_cell_formula_units_Z 64
_cell_length_a 27.319810
_cell_length_b 13.075643
_cell_length_c 17.511104
_cell_angle_alpha 90.000000
_cell_angle_beta 29.044728
_cell_angle_gamma 90.000000
_cell_volume 3036.942392
_symmetry_space_group_name_H-M "C 2/M"
_symmetry_group_IT_number 12
_symmetry_cell_setting 'monoclinic'
loop_
_space_group_symop_operation_xyz
x,y,z
-x,y,-z
-x,-y,-z
x,-y,z
1/2+x,1/2+y,z
1/2-x,1/2+y,-z
1/2-x,1/2-y,-z
1/2+x,1/2-y,z
loop_
_atom_site_type_symbol
_atom_site_label
_atom_site_fract_x
_atom_site_fract_y
_atom_site_fract_z
Si Si1 0.719997 0.617177 0.133697
Si Si2 0.964352 0.881156 0.729506
Si Si3 0.741889 0.613923 0.724636
Si Si4 0.400385 0.200750 0.083986
Si Si5 0.651730 0.831920 0.565773
Si Si6 0.592348 0.257131 0.429278
Si Si7 0.751847 0.616478 0.408831
Si Si8 0.933368 0.308822 0.864789
O O1 0.728718 0.500000 0.145616
O O2 0.642271 0.622637 0.169913
O O3 0.668949 0.678592 0.272337
O O4 0.831233 0.657177 0.963419
O O5 0.949404 0.811056 0.824175
O O6 0.043599 0.827236 0.562748
O O7 0.989205 0.000000 0.708508
O O8 0.726280 0.500000 0.774180
O O9 0.645953 0.686439 0.864077
O O10 0.768458 0.616060 0.598621
O O11 0.839355 0.667094 0.630074
O O12 0.313790 0.138405 0.246948
O O13 0.500000 0.200443 0.000000
O O14 0.421639 0.164270 0.969621
O O15 0.673236 0.709544 0.528451
O O16 0.672116 0.866517 0.623958
O O17 0.538561 0.857571 0.695271
O O18 0.500000 0.224682 0.500000
O O19 0.714213 0.500000 0.461239
#
# Coordination Sequence:
#
# PCOD9204407 Si02
#       8
#     8   8   8   8   8   8   8   8
#     4  10  22  40  65  95 125 161 203 258 324 374
#     4  10  22  41  66  93 124 164 207 255 316 379
#     4  11  23  42  63  87 123 169 212 254 311 376
#     4  11  24  43  62  90 129 165 211 258 307 371
#     4  10  22  41  61  90 122 158 206 259 308 366
#     4  10  20  41  67  93 125 158 206 266 313 375
#     4  10  22  42  66  89 119 162 210 259 310 363
#     4  12  22  40  61  90 130 162 203 259 311 372
#
# _framework density 21.073827999999999
#
# number of rings (size 3 to 8) (size 9 to 14) (size 15 to 20)
#    0.000    1.500    3.750    1.125    0.000    4.750 
#    0.000    0.000    0.000    0.000    0.000    0.000 
#    0.000    0.000    0.000    0.000    0.000    0.000 
#
# Total GULP energy -178736.063751 kJ/mol
# GULP energy per Si atom -5585.501992 kJ/mol
# Density = 2.102586 g / cm^3
# Si number density = 21.073828 Si / 1000 Ang^3
#
#
#
# Elastic Constant Matrix: (Units=GPa)
#
#
# Indices 1 2 3 4 5 6 
#
# 1 59.0876 7.2189 6.4443 0.0000 -6.1223 0.0000
# 2 7.2189 76.5850 -14.0692 0.0000 -6.5450 0.0000
# 3 6.4443 -14.0692 57.3093 0.0000 -12.7133 0.0000
# 4 0.0000 0.0000 0.0000 6.3461 0.0000 -1.7602
# 5 -6.1223 -6.5450 -12.7133 0.0000 45.1404 0.0000
# 6 0.0000 0.0000 0.0000 -1.7602 0.0000 9.3749
#
#
#
# Elastic Compliance Matrix: (Units=1/GPa)
#
#
# Indices 1 2 3 4 5 6 
#
# 1 0.017544 -0.001912 -0.002107 0.000000 0.001509 0.000000
# 2 -0.001912 0.014308 0.004405 0.000000 0.003056 0.000000
# 3 -0.002107 0.004405 0.020102 0.000000 0.006014 0.000000
# 4 0.000000 0.000000 0.000000 0.166235 0.000000 0.031212
# 5 0.001509 0.003056 0.006014 0.000000 0.024495 0.000000
# 6 0.000000 0.000000 0.000000 0.031212 0.000000 0.112528
#
#
# Mechanical properties :
#
#
# Convention : Reuss Voigt Hill
#
# Bulk Modulus (GPa) = 18.96592 21.35219 20.15906
# Shear Modulus (GPa) = 13.44034 25.06480 19.25257
#
# Velocity S-wave (km/s) = 2.52816 3.45248 3.02582
# Velocity P-wave (km/s) = 4.18825 5.10362 4.66842
#
# Compressibility (1/GPa) = 0.05272615
#
# Stress axis : x y z
#
# Youngs Moduli (GPa) = 57.00026 69.89053 49.74659
#
# Poissons Ratio (x) = 0.13362 0.10484
# Poissons Ratio (y) = 0.10898 -0.21916
# Poissons Ratio (z) = 0.12012 -0.30790
#
# Static dielectric constant tensor:
#      x y z
#    x 1.783540 0.000000 -0.010650 
#    y 0.000000 1.756940 0.000000 
#    z -0.010650 0.000000 1.746770 
# 
# From -- ./inp_files/296480.got.cif
#   From: 2010.05.17/outbox.cif.g08.bks.cpg/sg12_149_cif.got.tgz:296480.got - 2010.06.03 13:09:07.
