data_PCOD9204704
_publ_section_title
;
Structure prediction by ZEFSAII (Michael W. Deem and Ramdas Pophale) SiO2 
 PCOD9204704
Probable space group: C 2/M
;
_chemical_formula_sum "Si O2"
_cell_formula_units_Z 36
_cell_length_a 16.000311
_cell_length_b 26.904265
_cell_length_c 5.368721
_cell_angle_alpha 90.000000
_cell_angle_beta 53.272363
_cell_angle_gamma 90.000000
_cell_volume 1852.324313
_symmetry_space_group_name_H-M "C 2/M"
_symmetry_group_IT_number 12
_symmetry_cell_setting 'monoclinic'
loop_
_space_group_symop_operation_xyz
x,y,z
-x,y,-z
-x,-y,-z
x,-y,z
1/2+x,1/2+y,z
1/2-x,1/2+y,-z
1/2-x,1/2-y,-z
1/2+x,1/2-y,z
loop_
_atom_site_type_symbol
_atom_site_label
_atom_site_fract_x
_atom_site_fract_y
_atom_site_fract_z
Si Si1 0.619351 0.756768 0.751280
Si Si2 0.116529 0.443950 0.675455
Si Si3 0.000000 0.382590 0.500000
Si Si4 0.619954 0.306258 0.252908
Si Si5 0.187776 0.353526 0.853893
O O1 0.630137 0.734595 0.455736
O O2 0.500000 0.770483 0.000000
O O3 0.635146 0.718754 0.955951
O O4 0.684685 0.806785 0.672377
O O5 0.156831 0.500000 0.584560
O O6 0.086903 0.417921 0.470394
O O7 0.184861 0.405790 0.714026
O O8 0.000000 0.446290 0.000000
O O9 0.075099 0.350766 0.191405
O O10 0.500000 0.325122 0.500000
O O11 0.712248 0.345178 0.148935
#
# Coordination Sequence:
#
# PCOD9204704 Si02
#       5
#     8   8   4   8   8
#     4  10  21  36  56  82 115 149 189 229 277 324
#     4   9  19  35  53  79 111 143 181 229 285 340
#     4  10  21  32  56  84 112 142 180 228 291 338
#     4  10  23  38  57  81 115 154 190 230 269 324
#     4  11  22  34  57  81 113 146 189 229 279 334
#
# _framework density 19.435040999999998
#
# number of rings (size 3 to 8) (size 9 to 14) (size 15 to 20)
#    0.000    2.000    0.000    3.667   10.889    0.889 
#    0.000    0.000    0.000    0.667    0.000    1.556 
#    0.000    0.000    0.000    0.000    0.000    0.000 
#
# Total GULP energy -100363.203853 kJ/mol
# GULP energy per Si atom -5575.733547 kJ/mol
# Density = 1.939081 g / cm^3
# Si number density = 19.435041 Si / 1000 Ang^3
#
#
#
# Elastic Constant Matrix: (Units=GPa)
#
#
# Indices 1 2 3 4 5 6 
#
# 1 134.4074 70.1949 20.0949 0.0000 -0.8770 0.0000
# 2 70.1949 77.1965 11.1290 0.0000 6.5479 0.0000
# 3 20.0949 11.1290 67.4422 0.0000 5.1937 0.0000
# 4 0.0000 0.0000 0.0000 4.7122 0.0000 1.3692
# 5 -0.8770 6.5479 5.1937 0.0000 36.5874 0.0000
# 6 0.0000 0.0000 0.0000 1.3692 0.0000 32.9371
#
#
#
# Elastic Compliance Matrix: (Units=1/GPa)
#
#
# Indices 1 2 3 4 5 6 
#
# 1 0.014814 -0.013380 -0.002444 0.000000 0.003097 0.000000
# 2 -0.013380 0.025515 0.000154 0.000000 -0.004909 0.000000
# 3 -0.002444 0.000154 0.015709 0.000000 -0.002316 0.000000
# 4 0.000000 0.000000 0.000000 0.214810 0.000000 -0.008930
# 5 0.003097 -0.004909 -0.002316 0.000000 0.028613 0.000000
# 6 0.000000 0.000000 0.000000 -0.008930 0.000000 0.030732
#
#
# Mechanical properties :
#
#
# Convention : Reuss Voigt Hill
#
# Bulk Modulus (GPa) = 40.49115 53.54263 47.01689
# Shear Modulus (GPa) = 13.52209 26.68915 20.10562
#
# Velocity S-wave (km/s) = 2.64058 3.70976 3.21986
# Velocity P-wave (km/s) = 5.49329 6.77931 6.16990
#
# Compressibility (1/GPa) = 0.02469675
#
# Stress axis : x y z
#
# Youngs Moduli (GPa) = 67.50508 39.19278 63.65896
#
# Poissons Ratio (x) = 0.52442 0.15561
# Poissons Ratio (y) = 0.90325 -0.00983
# Poissons Ratio (z) = 0.16501 -0.00605
#
# Static dielectric constant tensor:
#      x y z
#    x 1.740920 0.000000 0.055830 
#    y 0.000000 1.683200 0.000000 
#    z 0.055830 0.000000 1.788820 
# 
# From -- ./inp_files/11131.got.cif
#   From: 2010.05.17/outbox.cif.g08.bks.cpg/sg12_6_cif.got.tgz:11131.got - 2010.06.03 13:09:07.
