data_PCOD9204736
_publ_section_title
;
Structure prediction by ZEFSAII (Michael W. Deem and Ramdas Pophale) SiO2 
 PCOD9204736
Probable space group: C 2/M
;
_chemical_formula_sum "Si O2"
_cell_formula_units_Z 64
_cell_length_a 15.050545
_cell_length_b 9.035547
_cell_length_c 29.343731
_cell_angle_alpha 90.000000
_cell_angle_beta 120.921553
_cell_angle_gamma 90.000000
_cell_volume 3423.295054
_symmetry_space_group_name_H-M "C 2/M"
_symmetry_group_IT_number 12
_symmetry_cell_setting 'monoclinic'
loop_
_space_group_symop_operation_xyz
x,y,z
-x,y,-z
-x,-y,-z
x,-y,z
1/2+x,1/2+y,z
1/2-x,1/2+y,-z
1/2-x,1/2-y,-z
1/2+x,1/2-y,z
loop_
_atom_site_type_symbol
_atom_site_label
_atom_site_fract_x
_atom_site_fract_y
_atom_site_fract_z
Si Si1 0.448436 0.321997 0.697425
Si Si2 0.721113 0.833339 0.116018
Si Si3 0.512629 0.165406 0.117677
Si Si4 0.874504 0.176233 0.776619
Si Si5 0.671454 0.176850 0.417763
Si Si6 0.333839 0.823504 0.222694
Si Si7 0.346939 0.820519 0.001213
Si Si8 0.390549 0.177645 0.494933
O O1 0.449689 0.500000 0.694268
O O2 0.387321 0.279197 0.727648
O O3 0.393631 0.251585 0.639407
O O4 0.564089 0.260083 0.734101
O O5 0.624992 0.846608 0.124691
O O6 0.801784 0.730454 0.163509
O O7 0.764025 0.000000 0.119629
O O8 0.669614 0.777055 0.055665
O O9 0.533153 0.257218 0.168382
O O10 0.441760 0.227832 0.058316
O O11 0.474681 0.000000 0.119218
O O12 0.763105 0.213274 0.769413
O O13 0.883674 0.000000 0.781549
O O14 0.617353 0.207034 0.452710
O O15 0.788243 0.241863 0.448698
O O16 0.675305 0.000000 0.413166
O O17 0.348868 0.000000 0.227142
O O18 0.350535 0.000000 0.001710
O O19 0.250000 0.750000 0.000000
O O20 0.500000 0.220525 0.500000
O O21 0.379304 0.000000 0.485562
#
# Coordination Sequence:
#
# PCOD9204736 Si02
#       8
#     8   8   8   8   8   8   8   8
#     4  11  23  39  59  82 115 156 191 228 280 335
#     4   9  18  35  55  73  99 135 173 217 274 339
#     4   9  18  34  55  75  97 131 175 222 272 328
#     4   9  21  39  57  78 107 145 185 228 281 338
#     4  10  21  37  58  89 122 152 194 239 276 319
#     4  10  21  38  58  81 108 140 186 237 281 330
#     4  10  21  33  48  74 103 132 168 214 270 334
#     4   9  19  38  63  88 120 161 195 228 277 331
#
# _framework density 18.695437999999999
#
# number of rings (size 3 to 8) (size 9 to 14) (size 15 to 20)
#    0.000    2.375    0.000    1.500    1.750    5.750 
#    0.000    5.000    0.000    3.750    0.000    0.000 
#    0.000    0.000    0.000    0.000    0.000    0.000 
#
# Total GULP energy -178349.427421 kJ/mol
# GULP energy per Si atom -5573.419607 kJ/mol
# Density = 1.865289 g / cm^3
# Si number density = 18.695438 Si / 1000 Ang^3
#
#
#
# Elastic Constant Matrix: (Units=GPa)
#
#
# Indices 1 2 3 4 5 6 
#
# 1 107.9080 49.1283 77.7427 0.0000 3.5687 0.0000
# 2 49.1283 43.2987 75.1178 0.0000 2.4531 0.0000
# 3 77.7427 75.1178 203.3428 0.0000 6.8285 0.0000
# 4 0.0000 0.0000 0.0000 25.6764 0.0000 -2.7329
# 5 3.5687 2.4531 6.8285 0.0000 22.3840 0.0000
# 6 0.0000 0.0000 0.0000 -2.7329 0.0000 23.6765
#
#
#
# Elastic Compliance Matrix: (Units=1/GPa)
#
#
# Indices 1 2 3 4 5 6 
#
# 1 0.019475 -0.025566 0.002030 0.000000 -0.000922 0.000000
# 2 -0.025566 0.097876 -0.026430 0.000000 0.001412 0.000000
# 3 0.002030 -0.026430 0.013962 0.000000 -0.001686 0.000000
# 4 0.000000 0.000000 0.000000 0.039431 0.000000 0.004551
# 5 -0.000922 0.001412 -0.001686 0.000000 0.045181 0.000000
# 6 0.000000 0.000000 0.000000 0.004551 0.000000 0.042761
#
#
# Mechanical properties :
#
#
# Convention : Reuss Voigt Hill
#
# Bulk Modulus (GPa) = 31.86685 84.28078 58.07381
# Shear Modulus (GPa) = 13.54725 24.51808 19.03267
#
# Velocity S-wave (km/s) = 2.69481 3.62532 3.19413
# Velocity P-wave (km/s) = 5.17349 7.91851 6.68834
#
# Compressibility (1/GPa) = 0.03138057
#
# Stress axis : x y z
#
# Youngs Moduli (GPa) = 51.34768 10.21704 71.62343
#
# Poissons Ratio (x) = 0.26121 -0.14537
# Poissons Ratio (y) = 1.31276 1.89298
# Poissons Ratio (z) = -0.10422 0.27003
#
# Static dielectric constant tensor:
#      x y z
#    x 1.652650 0.000000 -0.017460 
#    y 0.000000 1.567500 0.000000 
#    z -0.017460 0.000000 1.669230 
# 
# From -- ./inp_files/375115.got.cif
#   From: 2010.05.17/outbox.cif.g08.bks.cpg/sg12_188_cif.got.tgz:375115.got - 2010.06.03 13:09:07.
