data_PCOD9204451
_publ_section_title
;
Structure prediction by ZEFSAII (Michael W. Deem and Ramdas Pophale) SiO2 
 PCOD9204451
Probable space group: C 2/M
;
_chemical_formula_sum "Si O2"
_cell_formula_units_Z 56
_cell_length_a 11.788837
_cell_length_b 28.065785
_cell_length_c 13.830537
_cell_angle_alpha 90.000000
_cell_angle_beta 30.832848
_cell_angle_gamma 90.000000
_cell_volume 2345.367594
_symmetry_space_group_name_H-M "C 2/M"
_symmetry_group_IT_number 12
_symmetry_cell_setting 'monoclinic'
loop_
_space_group_symop_operation_xyz
x,y,z
-x,y,-z
-x,-y,-z
x,-y,z
1/2+x,1/2+y,z
1/2-x,1/2+y,-z
1/2-x,1/2-y,-z
1/2+x,1/2-y,z
loop_
_atom_site_type_symbol
_atom_site_label
_atom_site_fract_x
_atom_site_fract_y
_atom_site_fract_z
Si Si1 0.598434 0.553757 0.034024
Si Si2 0.725656 0.304178 0.393701
Si Si3 0.776570 0.943577 0.609121
Si Si4 0.653150 0.054902 0.478561
Si Si5 0.370461 0.310949 0.803156
Si Si6 0.583423 0.884373 0.079648
Si Si7 0.467882 0.273125 0.927803
O O1 0.695332 0.500000 0.966472
O O2 0.395030 0.554666 0.255986
O O3 0.500000 0.561043 0.000000
O O4 0.764346 0.593787 0.947836
O O5 0.500000 0.312594 0.500000
O O6 0.613407 0.304838 0.581252
O O7 0.841343 0.256576 0.267384
O O8 0.909812 0.343875 0.241381
O O9 0.703642 0.926765 0.552340
O O10 0.576308 0.928461 0.825650
O O11 0.000000 0.925824 0.500000
O O12 0.800661 0.000000 0.581573
O O13 0.500000 0.075306 0.500000
O O14 0.572672 0.000000 0.548397
O O15 0.377717 0.307240 0.912803
O O16 0.236427 0.359696 0.885400
O O17 0.211184 0.265610 0.899947
O O18 0.500000 0.303230 0.000000
#
# Coordination Sequence:
#
# PCOD9204451 Si02
#       7
#     8   8   8   8   8   8   8
#     4  10  21  40  65  90 124 174 229 283 338 400
#     4  11  22  41  66  96 132 177 218 262 329 401
#     4  10  21  40  63  93 133 179 231 284 336 398
#     4   9  18  35  62  90 116 161 223 278 333 397
#     4  10  23  40  63  97 130 167 216 269 326 396
#     4  11  24  38  62  94 134 173 218 275 335 395
#     4  10  20  41  70  94 126 167 216 269 320 395
#
# _framework density 23.876854000000002
#
# number of rings (size 3 to 8) (size 9 to 14) (size 15 to 20)
#    0.000    1.857    1.429    2.143    2.000    2.857 
#    2.571    0.000    0.000    3.429    0.000    0.000 
#    0.000    0.000    0.000    0.000    0.000    0.000 
#
# Total GULP energy -155982.616178 kJ/mol
# GULP energy per Si atom -5570.807721 kJ/mol
# Density = 2.382251 g / cm^3
# Si number density = 23.876854 Si / 1000 Ang^3
#
#
#
# Elastic Constant Matrix: (Units=GPa)
#
#
# Indices 1 2 3 4 5 6 
#
# 1 119.8070 29.7290 11.3504 0.0000 -5.4720 0.0000
# 2 29.7290 50.2065 25.7855 0.0000 -12.0337 0.0000
# 3 11.3504 25.7855 129.9013 0.0000 -12.6774 0.0000
# 4 0.0000 0.0000 0.0000 8.7748 0.0000 10.8516
# 5 -5.4720 -12.0337 -12.6774 0.0000 32.8108 0.0000
# 6 0.0000 0.0000 0.0000 10.8516 0.0000 31.0351
#
#
#
# Elastic Compliance Matrix: (Units=1/GPa)
#
#
# Indices 1 2 3 4 5 6 
#
# 1 0.009804 -0.006075 0.000303 0.000000 -0.000476 0.000000
# 2 -0.006075 0.027450 -0.004192 0.000000 0.007435 0.000000
# 3 0.000303 -0.004192 0.008686 0.000000 0.001869 0.000000
# 4 0.000000 0.000000 0.000000 0.200786 0.000000 -0.070206
# 5 -0.000476 0.007435 0.001869 0.000000 0.033847 0.000000
# 6 0.000000 0.000000 0.000000 -0.070206 0.000000 0.056769
#
#
# Mechanical properties :
#
#
# Convention : Reuss Voigt Hill
#
# Bulk Modulus (GPa) = 38.44510 48.18273 43.31391
# Shear Modulus (GPa) = 13.66337 30.06079 21.86208
#
# Velocity S-wave (km/s) = 2.39476 3.55208 3.02920
# Velocity P-wave (km/s) = 4.87677 6.08658 5.51495
#
# Compressibility (1/GPa) = 0.02601112
#
# Stress axis : x y z
#
# Youngs Moduli (GPa) = 102.00217 36.43000 115.12359
#
# Poissons Ratio (x) = 0.22130 -0.03485
# Poissons Ratio (y) = 0.61963 0.48265
# Poissons Ratio (z) = -0.03088 0.15273
#
# Static dielectric constant tensor:
#      x y z
#    x 2.181380 0.000000 0.078540 
#    y 0.000000 1.931120 0.000000 
#    z 0.078540 0.000000 1.999380 
# 
# From -- ./inp_files/209991.got.cif
#   From: 2010.05.17/outbox.cif.g08.bks.cpg/sg12_105_cif.got.tgz:209991.got - 2010.06.03 13:09:07.
