data_PCOD9204971
_publ_section_title
;
Structure prediction by ZEFSAII (Michael W. Deem and Ramdas Pophale) SiO2 
 PCOD9204971
Probable space group: C 2/M
;
_chemical_formula_sum "Si O2"
_cell_formula_units_Z 48
_cell_length_a 35.482032
_cell_length_b 7.757168
_cell_length_c 7.720460
_cell_angle_alpha 90.000000
_cell_angle_beta 90.212623
_cell_angle_gamma 90.000000
_cell_volume 2124.965421
_symmetry_space_group_name_H-M "C 2/M"
_symmetry_group_IT_number 12
_symmetry_cell_setting 'monoclinic'
loop_
_space_group_symop_operation_xyz
x,y,z
-x,y,-z
-x,-y,-z
x,-y,z
1/2+x,1/2+y,z
1/2-x,1/2+y,-z
1/2-x,1/2-y,-z
1/2+x,1/2-y,z
loop_
_atom_site_type_symbol
_atom_site_label
_atom_site_fract_x
_atom_site_fract_y
_atom_site_fract_z
Si Si1 0.291105 0.792878 0.931155
Si Si2 0.927061 0.805789 0.337918
Si Si3 0.834105 0.710972 0.610860
Si Si4 0.413662 0.192478 0.705846
Si Si5 0.350679 0.791668 0.217883
Si Si6 0.506587 0.802410 0.203068
O O1 0.322577 0.729774 0.068360
O O2 0.294316 0.000000 0.928317
O O3 0.250000 0.750000 0.000000
O O4 0.300053 0.734163 0.734761
O O5 0.919367 0.682829 0.498930
O O6 0.894265 0.765812 0.199151
O O7 0.969972 0.785395 0.281485
O O8 0.921098 0.000000 0.399133
O O9 0.835266 0.500000 0.605588
O O10 0.872009 0.768179 0.714003
O O11 0.836595 0.766177 0.410271
O O12 0.452272 0.278652 0.767735
O O13 0.412407 0.000000 0.785298
O O14 0.350493 0.000000 0.216372
O O15 0.507921 0.000000 0.271486
O O16 0.500000 0.809579 0.000000
#
# Coordination Sequence:
#
# PCOD9204971 Si02
#       6
#     8   8   8   8   8   8
#     4  10  21  36  58  84 112 142 176 222 278 334
#     4  11  22  35  53  78 111 147 180 225 283 329
#     4   8  16  33  56  81 106 139 182 227 268 316
#     4   9  18  35  57  78 103 140 189 232 267 317
#     4   9  19  37  60  80 105 145 190 229 269 323
#     4  10  21  34  54  81 107 143 190 232 268 318
#
# _framework density 22.5886
#
# number of rings (size 3 to 8) (size 9 to 14) (size 15 to 20)
#    0.000    2.500    0.000    3.000    2.333    4.333 
#    0.000    3.333    0.000    0.000    0.000    0.000 
#    0.000    0.000    0.000    0.000    0.000    0.000 
#
# Total GULP energy -133867.276376 kJ/mol
# GULP energy per Si atom -5577.803182 kJ/mol
# Density = 2.253719 g / cm^3
# Si number density = 22.588600 Si / 1000 Ang^3
#
#
#
# Elastic Constant Matrix: (Units=GPa)
#
#
# Indices 1 2 3 4 5 6 
#
# 1 43.5170 -2.7218 8.3518 0.0000 -12.9832 0.0000
# 2 -2.7218 54.9260 3.4386 0.0000 -1.0995 0.0000
# 3 8.3518 3.4386 46.8970 0.0000 -6.2637 0.0000
# 4 0.0000 0.0000 0.0000 -7.3190 0.0000 2.5098
# 5 -12.9832 -1.0995 -6.2637 0.0000 42.6267 0.0000
# 6 0.0000 0.0000 0.0000 2.5098 0.0000 11.6582
#
#
#
# Elastic Compliance Matrix: (Units=1/GPa)
#
#
# Indices 1 2 3 4 5 6 
#
# 1 0.026019 0.001674 -0.003766 0.000000 0.007415 0.000000
# 2 0.001674 0.018401 -0.001546 0.000000 0.000757 0.000000
# 3 -0.003766 -0.001546 0.022388 0.000000 0.002103 0.000000
# 4 0.000000 0.000000 0.000000 -0.127237 0.000000 0.027392
# 5 0.007415 0.000757 0.002103 0.000000 0.026046 0.000000
# 6 0.000000 0.000000 0.000000 0.027392 0.000000 0.079879
#
#
# Mechanical properties :
#
#
# Convention : Reuss Voigt Hill
#
# Bulk Modulus (GPa) = 16.79789 18.16413 17.48101
# Shear Modulus (GPa) = 68.85343 18.47795 43.66569
#
# Velocity S-wave (km/s) = 5.52699 2.86321 4.40146
# Velocity P-wave (km/s) = 6.94138 4.35768 5.79535
#
# Compressibility (1/GPa) = 0.05953127
#
# Stress axis : x y z
#
# Youngs Moduli (GPa) = 38.43325 54.34428 44.66627
#
# Poissons Ratio (x) = -0.09095 0.16822
# Poissons Ratio (y) = -0.06432 0.06906
# Poissons Ratio (z) = 0.14474 0.08402
#
# Static dielectric constant tensor:
#      x y z
#    x 1.890400 0.000000 0.006150 
#    y 0.000000 1.883370 0.000000 
#    z 0.006150 0.000000 1.829000 
# 
# From -- ./inp_files/108605.got.cif
#   From: 2010.05.17/outbox.cif.g08.bks.cpg/sg12_55_cif.got.tgz:108605.got - 2010.06.03 13:09:07.
