data_PCOD9204751
_publ_section_title
;
Structure prediction by ZEFSAII (Michael W. Deem and Ramdas Pophale) SiO2 
 PCOD9204751
Probable space group: C 2/M
;
_chemical_formula_sum "Si O2"
_cell_formula_units_Z 56
_cell_length_a 9.551479
_cell_length_b 24.254606
_cell_length_c 14.810511
_cell_angle_alpha 90.000000
_cell_angle_beta 108.898110
_cell_angle_gamma 90.000000
_cell_volume 3246.161470
_symmetry_space_group_name_H-M "C 2/M"
_symmetry_group_IT_number 12
_symmetry_cell_setting 'monoclinic'
loop_
_space_group_symop_operation_xyz
x,y,z
-x,y,-z
-x,-y,-z
x,-y,z
1/2+x,1/2+y,z
1/2-x,1/2+y,-z
1/2-x,1/2-y,-z
1/2+x,1/2-y,z
loop_
_atom_site_type_symbol
_atom_site_label
_atom_site_fract_x
_atom_site_fract_y
_atom_site_fract_z
Si Si1 0.338981 0.656977 0.685347
Si Si2 0.659418 0.193097 0.486769
Si Si3 0.060823 0.434269 0.113065
Si Si4 0.349337 0.858718 0.177975
Si Si5 0.338477 0.642355 0.201451
Si Si6 0.346811 0.303898 0.009618
Si Si7 0.622588 0.211338 0.277710
O O1 0.254509 0.653817 0.571911
O O2 0.234303 0.635724 0.744257
O O3 0.501699 0.630359 0.721728
O O4 0.364096 0.722976 0.708203
O O5 0.750000 0.250000 0.500000
O O6 0.635976 0.180004 0.376928
O O7 0.000000 0.298340 0.500000
O O8 0.067811 0.500000 0.118539
O O9 0.220497 0.406854 0.164989
O O10 0.948319 0.409324 0.163562
O O11 0.000000 0.418268 0.000000
O O12 0.230207 0.844939 0.076801
O O13 0.464086 0.807344 0.206932
O O14 0.252354 0.688669 0.241497
O O15 0.368877 0.666462 0.109035
O O16 0.500000 0.285470 0.000000
O O17 0.250000 0.250000 0.000000
#
# Coordination Sequence:
#
# PCOD9204751 Si02
#       7
#     8   8   8   8   8   8   8
#     4  11  20  34  53  79 120 148 185 228 266 326
#     4  10  21  33  50  77 115 161 195 224 262 315
#     4  10  22  42  61  77 105 143 191 246 291 338
#     4  11  21  35  53  79 107 149 187 223 274 334
#     4  11  23  35  53  83 108 151 188 226 279 334
#     4  12  24  33  49  79 121 154 180 213 262 332
#     4  10  21  34  51  79 119 157 189 218 265 327
#
# _framework density 17.251144
#
# number of rings (size 3 to 8) (size 9 to 14) (size 15 to 20)
#    0.000    1.286    4.286    2.571   10.000    0.000 
#    0.000    0.714    0.000    2.571    0.000   16.000 
#    0.000    0.000    0.000    0.000    0.000    0.000 
#
# Total GULP energy -156299.860180 kJ/mol
# GULP energy per Si atom -5582.137864 kJ/mol
# Density = 1.721188 g / cm^3
# Si number density = 17.251144 Si / 1000 Ang^3
#
#
#
# Elastic Constant Matrix: (Units=GPa)
#
#
# Indices 1 2 3 4 5 6 
#
# 1 140.1011 24.0921 42.3548 0.0000 7.6000 0.0000
# 2 24.0921 49.8665 10.7580 0.0000 2.9434 0.0000
# 3 42.3548 10.7580 105.0800 0.0000 -0.1507 0.0000
# 4 0.0000 0.0000 0.0000 16.4070 0.0000 0.0475
# 5 7.6000 2.9434 -0.1507 0.0000 31.9409 0.0000
# 6 0.0000 0.0000 0.0000 0.0475 0.0000 10.5436
#
#
#
# Elastic Compliance Matrix: (Units=1/GPa)
#
#
# Indices 1 2 3 4 5 6 
#
# 1 0.008794 -0.003454 -0.003194 0.000000 -0.001789 0.000000
# 2 -0.003454 0.021979 -0.000860 0.000000 -0.001208 0.000000
# 3 -0.003194 -0.000860 0.010893 0.000000 0.000891 0.000000
# 4 0.000000 0.000000 0.000000 0.060951 0.000000 -0.000274
# 5 -0.001789 -0.001208 0.000891 0.000000 0.031849 0.000000
# 6 0.000000 0.000000 0.000000 -0.000274 0.000000 0.094845
#
#
# Mechanical properties :
#
#
# Convention : Reuss Voigt Hill
#
# Bulk Modulus (GPa) = 37.52132 49.93972 43.73052
# Shear Modulus (GPa) = 19.74643 26.30114 23.02379
#
# Velocity S-wave (km/s) = 3.38693 3.90885 3.65721
# Velocity P-wave (km/s) = 6.09035 7.02735 6.57556
#
# Compressibility (1/GPa) = 0.02665151
#
# Stress axis : x y z
#
# Youngs Moduli (GPa) = 113.71076 45.49774 91.80107
#
# Poissons Ratio (x) = 0.15716 0.29318
# Poissons Ratio (y) = 0.39278 0.07892
# Poissons Ratio (z) = 0.36315 0.03911
#
# Static dielectric constant tensor:
#      x y z
#    x 1.589500 0.000000 0.019870 
#    y 0.000000 1.548500 0.000000 
#    z 0.019870 0.000000 1.644670 
# 
# From -- ./inp_files/198348.got.cif
#   From: 2010.05.17/outbox.cif.g08.bks.cpg/sg12_100_cif.got.tgz:198348.got - 2010.06.03 13:09:07.
