data_PCOD9204822
_publ_section_title
;
Structure prediction by ZEFSAII (Michael W. Deem and Ramdas Pophale) SiO2 
 PCOD9204822
Probable space group: C 2/M
;
_chemical_formula_sum "Si O2"
_cell_formula_units_Z 44
_cell_length_a 9.584612
_cell_length_b 17.442448
_cell_length_c 16.832000
_cell_angle_alpha 90.000000
_cell_angle_beta 134.363965
_cell_angle_gamma 90.000000
_cell_volume 2011.734360
_symmetry_space_group_name_H-M "C 2/M"
_symmetry_group_IT_number 12
_symmetry_cell_setting 'monoclinic'
loop_
_space_group_symop_operation_xyz
x,y,z
-x,y,-z
-x,-y,-z
x,-y,z
1/2+x,1/2+y,z
1/2-x,1/2+y,-z
1/2-x,1/2-y,-z
1/2+x,1/2-y,z
loop_
_atom_site_type_symbol
_atom_site_label
_atom_site_fract_x
_atom_site_fract_y
_atom_site_fract_z
Si Si1 0.794230 0.671319 0.965609
Si Si2 0.048119 0.500000 0.755493
Si Si3 0.842943 0.000000 0.505120
Si Si4 0.594189 0.279883 0.249708
Si Si5 0.680051 0.133766 0.524763
Si Si6 0.105909 0.500000 0.956083
Si Si7 0.911597 0.337529 0.270137
O O1 0.601551 0.670401 0.833607
O O2 0.750000 0.750000 0.000000
O O3 0.795490 0.585752 0.005693
O O4 0.000000 0.679896 0.000000
O O5 0.860204 0.500000 0.623935
O O6 0.994203 0.500000 0.826792
O O7 0.157650 0.423018 0.774375
O O8 0.840096 0.074538 0.558564
O O9 0.000000 0.000000 0.500000
O O10 0.724314 0.307677 0.375891
O O11 0.728015 0.289036 0.226165
O O12 0.520686 0.194695 0.237106
O O13 0.500000 0.094146 0.500000
O O14 0.571489 0.166644 0.404307
O O15 0.000000 0.500000 0.000000
#
# Coordination Sequence:
#
# PCOD9204822 Si02
#       7
#     8   4   4   8   8   4   8
#     4  11  24  42  62  90 123 162 210 259 311 367
#     4  10  22  44  63  85 127 165 203 255 312 374
#     4  10  21  33  57  92 124 163 205 253 313 374
#     4  11  22  38  63  92 125 163 206 260 313 364
#     4   9  20  37  58  88 126 164 205 249 308 380
#     4  10  24  43  64  89 120 162 211 262 310 364
#     4  10  22  40  65  94 123 164 204 252 312 376
#
# _framework density 21.871676000000001
#
# number of rings (size 3 to 8) (size 9 to 14) (size 15 to 20)
#    0.000    1.818    0.000    3.000    0.000   10.909 
#    0.000    2.273    0.000    1.091    0.000    0.000 
#    0.000    0.000    0.000    0.000    0.000    0.000 
#
# Total GULP energy -122555.513276 kJ/mol
# GULP energy per Si atom -5570.705149 kJ/mol
# Density = 2.182190 g / cm^3
# Si number density = 21.871676 Si / 1000 Ang^3
#
#
#
# Elastic Constant Matrix: (Units=GPa)
#
#
# Indices 1 2 3 4 5 6 
#
# 1 113.2989 55.7063 -8.7840 0.0000 7.2863 0.0000
# 2 55.7063 146.3240 15.5484 0.0000 -0.8034 0.0000
# 3 -8.7840 15.5484 64.4086 0.0000 -6.6161 0.0000
# 4 0.0000 0.0000 0.0000 17.1814 0.0000 -10.6719
# 5 7.2863 -0.8034 -6.6161 0.0000 28.5433 0.0000
# 6 0.0000 0.0000 0.0000 -10.6719 0.0000 24.4635
#
#
#
# Elastic Compliance Matrix: (Units=1/GPa)
#
#
# Indices 1 2 3 4 5 6 
#
# 1 0.011451 -0.004631 0.002424 0.000000 -0.002492 0.000000
# 2 -0.004631 0.008888 -0.002694 0.000000 0.000808 0.000000
# 3 0.002424 -0.002694 0.016836 0.000000 0.003208 0.000000
# 4 0.000000 0.000000 0.000000 0.079835 0.000000 0.034827
# 5 -0.002492 0.000808 0.003208 0.000000 0.036437 0.000000
# 6 0.000000 0.000000 0.000000 0.034827 0.000000 0.056070
#
#
# Mechanical properties :
#
#
# Convention : Reuss Voigt Hill
#
# Bulk Modulus (GPa) = 36.53253 49.88589 43.20921
# Shear Modulus (GPa) = 21.88720 31.47502 26.68111
#
# Velocity S-wave (km/s) = 3.16683 3.79763 3.49649
# Velocity P-wave (km/s) = 5.48736 6.48747 6.00826
#
# Compressibility (1/GPa) = 0.02737286
#
# Stress axis : x y z
#
# Youngs Moduli (GPa) = 87.32725 112.51372 59.39544
#
# Poissons Ratio (x) = 0.52102 -0.14395
# Poissons Ratio (y) = 0.40439 0.16002
# Poissons Ratio (z) = -0.21165 0.30312
#
# Static dielectric constant tensor:
#      x y z
#    x 1.846280 0.000000 -0.022760 
#    y 0.000000 1.852030 0.000000 
#    z -0.022760 0.000000 1.831450 
# 
# From -- ./inp_files/257325.got.cif
#   From: 2010.05.17/outbox.cif.g08.bks.cpg/sg12_129_cif.got.tgz:257325.got - 2010.06.03 13:09:07.
