data_PCOD9204562
_publ_section_title
;
Structure prediction by ZEFSAII (Michael W. Deem and Ramdas Pophale) SiO2 
 PCOD9204562
Probable space group: C 2/M
;
_chemical_formula_sum "Si O2"
_cell_formula_units_Z 56
_cell_length_a 29.692591
_cell_length_b 8.951743
_cell_length_c 20.086438
_cell_angle_alpha 90.000000
_cell_angle_beta 148.278418
_cell_angle_gamma 90.000000
_cell_volume 2807.195650
_symmetry_space_group_name_H-M "C 2/M"
_symmetry_group_IT_number 12
_symmetry_cell_setting 'monoclinic'
loop_
_space_group_symop_operation_xyz
x,y,z
-x,y,-z
-x,-y,-z
x,-y,z
1/2+x,1/2+y,z
1/2-x,1/2+y,-z
1/2-x,1/2-y,-z
1/2+x,1/2-y,z
loop_
_atom_site_type_symbol
_atom_site_label
_atom_site_fract_x
_atom_site_fract_y
_atom_site_fract_z
Si Si1 0.653823 0.827121 0.570634
Si Si2 0.064388 0.178459 0.237183
Si Si3 0.422839 0.332910 0.956508
Si Si4 0.162444 0.178111 0.862863
Si Si5 0.688153 0.825631 0.285768
Si Si6 0.403034 0.820476 0.356836
Si Si7 0.499651 0.173641 0.283726
O O1 0.715065 0.725091 0.603651
O O2 0.653712 0.791510 0.648612
O O3 0.557018 0.816571 0.422284
O O4 0.680531 0.000000 0.595182
O O5 0.139031 0.237027 0.282390
O O6 0.058649 0.264564 0.298835
O O7 0.072375 0.000000 0.254860
O O8 0.972796 0.209135 0.085911
O O9 0.385335 0.500000 0.915638
O O10 0.357406 0.219778 0.841189
O O11 0.500000 0.342865 0.000000
O O12 0.135127 0.240439 0.755777
O O13 0.084933 0.229097 0.813461
O O14 0.169844 0.000000 0.870422
O O15 0.250000 0.250000 0.000000
O O16 0.679983 0.000000 0.288371
O O17 0.500000 0.776453 0.500000
O O18 0.404271 0.000000 0.346382
O O19 0.478046 0.000000 0.245613
#
# Coordination Sequence:
#
# PCOD9204562 Si02
#       7
#     8   8   8   8   8   8   8
#     4  10  22  40  64  89 121 164 206 253 314 383
#     4  10  21  38  60  86 121 166 207 251 313 377
#     4   8  16  33  55  77 108 151 197 244 302 368
#     4  12  26  44  68  99 134 170 213 268 324 384
#     4  11  22  35  56  88 123 159 207 261 306 361
#     4  10  20  42  71  96 125 166 211 260 325 390
#     4  11  23  42  65  91 122 162 210 259 319 382
#
# _framework density 19.948734999999999
#
# number of rings (size 3 to 8) (size 9 to 14) (size 15 to 20)
#    0.000    1.714    1.429    4.286    0.000    6.857 
#    0.000    1.429    0.000    0.000    0.000    0.000 
#    0.000    0.000    0.000    0.000    0.000    0.000 
#
# Total GULP energy -156362.146903 kJ/mol
# GULP energy per Si atom -5584.362389 kJ/mol
# Density = 1.990333 g / cm^3
# Si number density = 19.948735 Si / 1000 Ang^3
#
#
#
# Elastic Constant Matrix: (Units=GPa)
#
#
# Indices 1 2 3 4 5 6 
#
# 1 84.5670 45.3123 30.3428 0.0000 -7.1545 0.0000
# 2 45.3123 106.6033 48.3363 0.0000 -1.4639 0.0000
# 3 30.3428 48.3363 91.9068 0.0000 1.2391 0.0000
# 4 0.0000 0.0000 0.0000 19.8367 0.0000 5.6719
# 5 -7.1545 -1.4639 1.2391 0.0000 31.4164 0.0000
# 6 0.0000 0.0000 0.0000 5.6719 0.0000 24.0825
#
#
#
# Elastic Compliance Matrix: (Units=1/GPa)
#
#
# Indices 1 2 3 4 5 6 
#
# 1 0.016010 -0.005698 -0.002336 0.000000 0.003473 0.000000
# 2 -0.005698 0.014368 -0.005670 0.000000 -0.000405 0.000000
# 3 -0.002336 -0.005670 0.014652 0.000000 -0.001374 0.000000
# 4 0.000000 0.000000 0.000000 0.054051 0.000000 -0.012730
# 5 0.003473 -0.000405 -0.001374 0.000000 0.032657 0.000000
# 6 0.000000 0.000000 0.000000 -0.012730 0.000000 0.044522
#
#
# Mechanical properties :
#
#
# Convention : Reuss Voigt Hill
#
# Bulk Modulus (GPa) = 56.74523 59.00665 57.87594
# Shear Modulus (GPa) = 23.86160 25.67285 24.76722
#
# Velocity S-wave (km/s) = 3.46229 3.59129 3.52738
# Velocity P-wave (km/s) = 6.67012 6.84396 6.75760
#
# Compressibility (1/GPa) = 0.01762263
#
# Stress axis : x y z
#
# Youngs Moduli (GPa) = 62.46079 69.59935 68.24994
#
# Poissons Ratio (x) = 0.39661 0.15940
# Poissons Ratio (y) = 0.35593 0.38696
# Poissons Ratio (z) = 0.14588 0.39461
#
# Static dielectric constant tensor:
#      x y z
#    x 1.704860 0.000000 -0.015730 
#    y 0.000000 1.666290 0.000000 
#    z -0.015730 0.000000 1.744520 
# 
# From -- ./inp_files/329717.got.cif
#   From: 2010.05.17/outbox.cif.g08.bks.cpg/sg12_165_cif.got.tgz:329717.got - 2010.06.03 13:09:07.
