data_PCOD9204398
_publ_section_title
;
Structure prediction by ZEFSAII (Michael W. Deem and Ramdas Pophale) SiO2 
 PCOD9204398
Probable space group: C 2/M
;
_chemical_formula_sum "Si O2"
_cell_formula_units_Z 42
_cell_length_a 24.478882
_cell_length_b 8.923159
_cell_length_c 15.455452
_cell_angle_alpha 90.000000
_cell_angle_beta 41.905405
_cell_angle_gamma 90.000000
_cell_volume 2254.785140
_symmetry_space_group_name_H-M "C 2/M"
_symmetry_group_IT_number 12
_symmetry_cell_setting 'monoclinic'
loop_
_space_group_symop_operation_xyz
x,y,z
-x,y,-z
-x,-y,-z
x,-y,z
1/2+x,1/2+y,z
1/2-x,1/2+y,-z
1/2-x,1/2-y,-z
1/2+x,1/2-y,z
loop_
_atom_site_type_symbol
_atom_site_label
_atom_site_fract_x
_atom_site_fract_y
_atom_site_fract_z
Si Si1 0.816784 0.819647 0.985958
Si Si2 0.715387 0.823580 0.788634
Si Si3 0.500000 0.000000 0.500000
Si Si4 0.623145 0.166049 0.462236
Si Si5 0.923577 0.173383 0.154926
Si Si6 0.005988 0.179585 0.738658
O O1 0.910021 0.778080 0.849769
O O2 0.810828 0.000000 0.991776
O O3 0.750000 0.750000 0.000000
O O4 0.801589 0.762001 0.101256
O O5 0.801967 0.770992 0.648735
O O6 0.646800 0.776926 0.800149
O O7 0.714031 0.000000 0.806383
O O8 0.431324 0.871975 0.557182
O O9 0.560955 0.234720 0.604799
O O10 0.652358 0.000000 0.458238
O O11 0.956975 0.211838 0.210249
O O12 0.894734 0.000000 0.189964
O O13 0.000000 0.180960 0.000000
O O14 0.010727 0.000000 0.719653
#
# Coordination Sequence:
#
# PCOD9204398 Si02
#       6
#     8   8   2   8   8   8
#     4  11  24  41  63  93 129 167 212 264 323 384
#     4  12  25  41  63  96 129 168 215 265 319 382
#     4   8  24  44  66  92 120 176 214 254 330 376
#     4  10  23  42  65  90 124 165 211 261 317 375
#     4  10  20  41  67  91 127 172 211 261 324 383
#     4  10  22  41  65  94 125 164 211 263 323 381
#
# _framework density 18.627051999999999
#
# number of rings (size 3 to 8) (size 9 to 14) (size 15 to 20)
#    0.571    0.952    1.905    2.857    2.667    3.429 
#    0.000    0.952    0.000    0.000    0.000    0.000 
#    0.000    0.000    0.000    0.000    0.000    0.000 
#
# Total GULP energy -116942.225579 kJ/mol
# GULP energy per Si atom -5568.677409 kJ/mol
# Density = 1.858466 g / cm^3
# Si number density = 18.627052 Si / 1000 Ang^3
#
#
#
# Elastic Constant Matrix: (Units=GPa)
#
#
# Indices 1 2 3 4 5 6 
#
# 1 88.0110 36.1485 17.9251 -0.0049 -24.4486 -0.0096
# 2 36.1485 65.7205 30.6842 -0.0076 -15.1057 -0.0165
# 3 17.9251 30.6842 89.0515 -0.0023 -22.1117 -0.0085
# 4 -0.0049 -0.0076 -0.0023 -33.3309 0.0025 -65.4988
# 5 -24.4486 -15.1057 -22.1117 0.0025 16.4901 0.0046
# 6 -0.0096 -0.0165 -0.0085 -65.4988 0.0046 -34.8009
#
#
#
# Elastic Compliance Matrix: (Units=1/GPa)
#
#
# Indices 1 2 3 4 5 6 
#
# 1 0.023420 -0.007656 0.007202 0.000000 0.037367 0.000000
# 2 -0.007656 0.022482 -0.005862 -0.000004 0.001384 0.000000
# 3 0.007202 -0.005862 0.019665 0.000000 0.031677 0.000001
# 4 0.000000 -0.000004 0.000000 0.011118 0.000000 -0.020925
# 5 0.037367 0.001384 0.031677 0.000000 0.159788 0.000002
# 6 0.000000 0.000000 0.000001 -0.020925 0.000002 0.010648
#
#
# Mechanical properties :
#
#
# Convention : Reuss Voigt Hill
#
# Bulk Modulus (GPa) = 18.89075 45.81098 32.35086
# Shear Modulus (GPa) = 18.02470 0.20666 9.11568
#
# Velocity S-wave (km/s) = 3.11410 0.33345 2.21459
# Velocity P-wave (km/s) = 4.80560 4.97950 4.89332
#
# Compressibility (1/GPa) = 0.05293597
#
# Stress axis : x y z
#
# Youngs Moduli (GPa) = 42.69851 44.48065 50.85153
#
# Poissons Ratio (x) = 0.34053 -0.36624
# Poissons Ratio (y) = 0.32688 0.29809
# Poissons Ratio (z) = -0.30752 0.26074
#
# Static dielectric constant tensor:
#      x y z
#    x 1.648470 0.000000 0.002310 
#    y 0.000000 1.639170 0.000000 
#    z 0.002310 0.000000 1.630490 
# 
# From -- ./inp_files/243488.got.cif
#   From: 2010.05.17/outbox.cif.g08.bks.cpg/sg12_122_cif.got.tgz:243488.got - 2010.06.03 13:09:07.
