data_PCOD9204111
_publ_section_title
;
Structure prediction by ZEFSAII (Michael W. Deem and Ramdas Pophale) SiO2 
 PCOD9204111
Probable space group: C 2/M
;
_chemical_formula_sum "Si O2"
_cell_formula_units_Z 32
_cell_length_a 24.792792
_cell_length_b 12.063631
_cell_length_c 8.547817
_cell_angle_alpha 90.000000
_cell_angle_beta 148.967483
_cell_angle_gamma 90.000000
_cell_volume 1317.977428
_symmetry_space_group_name_H-M "C 2/M"
_symmetry_group_IT_number 12
_symmetry_cell_setting 'monoclinic'
loop_
_space_group_symop_operation_xyz
x,y,z
-x,y,-z
-x,-y,-z
x,-y,z
1/2+x,1/2+y,z
1/2-x,1/2+y,-z
1/2-x,1/2-y,-z
1/2+x,1/2-y,z
loop_
_atom_site_type_symbol
_atom_site_label
_atom_site_fract_x
_atom_site_fract_y
_atom_site_fract_z
Si Si1 0.295992 0.305910 0.264589
Si Si2 0.340924 0.500000 0.731425
Si Si3 0.436151 0.500000 0.616960
Si Si4 0.070564 0.371202 0.819319
Si Si5 0.645764 0.128030 0.334795
O O1 0.383840 0.390050 0.424657
O O2 0.344005 0.216357 0.502892
O O3 0.250000 0.250000 0.000000
O O4 0.192738 0.365474 0.076608
O O5 0.392219 0.500000 0.687922
O O6 0.265273 0.604324 0.572774
O O7 0.440354 0.500000 0.090202
O O8 0.039195 0.500000 0.754950
O O9 0.000000 0.324707 0.500000
O O10 0.074900 0.331920 0.012104
O O11 0.615975 0.000000 0.307099
#
# Coordination Sequence:
#
# PCOD9204111 Si02
#       5
#     8   4   4   8   8
#     4  12  24  39  64  92 137 166 214 272 318 382
#     4   9  20  41  71  89 128 164 224 261 320 397
#     4  11  22  41  63 105 120 170 212 282 324 364
#     4  10  20  40  65  90 122 165 217 261 322 392
#     4   9  20  42  68  93 121 178 215 262 321 393
#
# _framework density 24.279624999999999
#
# number of rings (size 3 to 8) (size 9 to 14) (size 15 to 20)
#    0.750    1.000    3.750    0.750    1.750    2.000 
#    4.500    1.250    0.000    4.500    0.000    0.000 
#    0.000    0.000    0.000    0.000    0.000    0.000 
#
# Total GULP energy -89334.639622 kJ/mol
# GULP energy per Si atom -5583.414976 kJ/mol
# Density = 2.422436 g / cm^3
# Si number density = 24.279625 Si / 1000 Ang^3
#
#
#
# Elastic Constant Matrix: (Units=GPa)
#
#
# Indices 1 2 3 4 5 6 
#
# 1 45.1915 25.4806 55.6078 0.0000 2.7195 0.0000
# 2 25.4806 89.1765 80.4120 0.0000 -18.7942 0.0000
# 3 55.6078 80.4120 247.0946 0.0000 -12.6697 0.0000
# 4 0.0000 0.0000 0.0000 35.2855 0.0000 -19.9012
# 5 2.7195 -18.7942 -12.6697 0.0000 62.1547 0.0000
# 6 0.0000 0.0000 0.0000 -19.9012 0.0000 22.6821
#
#
#
# Elastic Compliance Matrix: (Units=1/GPa)
#
#
# Indices 1 2 3 4 5 6 
#
# 1 0.032366 -0.004739 -0.005950 0.000000 -0.004062 0.000000
# 2 -0.004739 0.017498 -0.004392 0.000000 0.004603 0.000000
# 3 -0.005950 -0.004392 0.006832 0.000000 0.000325 0.000000
# 4 0.000000 0.000000 0.000000 0.056103 0.000000 0.049224
# 5 -0.004062 0.004603 0.000325 0.000000 0.017725 0.000000
# 6 0.000000 0.000000 0.000000 0.049224 0.000000 0.087277
#
#
# Mechanical properties :
#
#
# Convention : Reuss Voigt Hill
#
# Bulk Modulus (GPa) = 37.68682 78.27372 57.98027
# Shear Modulus (GPa) = 19.46991 38.68862 29.07926
#
# Velocity S-wave (km/s) = 2.83486 3.99615 3.46451
# Velocity P-wave (km/s) = 5.12552 7.32125 6.31948
#
# Compressibility (1/GPa) = 0.02653447
#
# Stress axis : x y z
#
# Youngs Moduli (GPa) = 30.89688 57.14879 146.37068
#
# Poissons Ratio (x) = 0.27082 0.87089
# Poissons Ratio (y) = 0.14642 0.64285
# Poissons Ratio (z) = 0.18383 0.25099
#
# Static dielectric constant tensor:
#      x y z
#    x 2.065710 0.000000 -0.000180 
#    y 0.000000 1.962760 0.000000 
#    z -0.000180 0.000000 1.932060 
# 
# From -- ./inp_files/110610.got.cif
#   From: 2010.05.17/outbox.cif.g08.bks.cpg/sg12_56_cif.got.tgz:110610.got - 2010.06.03 13:09:07.
