data_PCOD9204886
_publ_section_title
;
Structure prediction by ZEFSAII (Michael W. Deem and Ramdas Pophale) SiO2 
 PCOD9204886
Probable space group: C 2/M
;
_chemical_formula_sum "Si O2"
_cell_formula_units_Z 40
_cell_length_a 14.172436
_cell_length_b 11.969307
_cell_length_c 11.677732
_cell_angle_alpha 90.000000
_cell_angle_beta 57.266307
_cell_angle_gamma 90.000000
_cell_volume 1666.355415
_symmetry_space_group_name_H-M "C 2/M"
_symmetry_group_IT_number 12
_symmetry_cell_setting 'monoclinic'
loop_
_space_group_symop_operation_xyz
x,y,z
-x,y,-z
-x,-y,-z
x,-y,z
1/2+x,1/2+y,z
1/2-x,1/2+y,-z
1/2-x,1/2-y,-z
1/2+x,1/2-y,z
loop_
_atom_site_type_symbol
_atom_site_label
_atom_site_fract_x
_atom_site_fract_y
_atom_site_fract_z
Si Si1 0.276576 0.374366 0.930578
Si Si2 0.973550 0.876204 0.138212
Si Si3 0.582141 0.000000 0.615297
Si Si4 0.330201 0.247331 0.690749
Si Si5 0.910349 0.741361 0.386766
Si Si6 0.829926 0.500000 0.704761
O O1 0.225696 0.500000 0.988675
O O2 0.404900 0.386934 0.884283
O O3 0.271236 0.345969 0.798849
O O4 0.250000 0.250000 0.000000
O O5 0.900828 0.821963 0.285675
O O6 0.928735 0.000000 0.141473
O O7 0.000000 0.816868 0.000000
O O8 0.614905 0.117948 0.643336
O O9 0.447784 0.000000 0.694503
O O10 0.631660 0.000000 0.453639
O O11 0.340451 0.263312 0.547809
O O12 0.459900 0.243017 0.652418
O O13 0.280946 0.124166 0.755970
#
# Coordination Sequence:
#
# PCOD9204886 Si02
#       6
#     8   8   4   8   8   4
#     4  10  21  34  50  73 101 133 166 202 244 294
#     4   9  18  33  51  71  97 130 166 200 242 297
#     4   7  10  18  33  60  94 116 145 179 231 291
#     4   8  14  24  43  69  95 121 156 201 246 285
#     4   8  13  24  43  69  95 120 152 203 247 282
#     4   7  10  18  36  60  88 122 145 181 235 281
#
# _framework density 24.004483
#
# number of rings (size 3 to 8) (size 9 to 14) (size 15 to 20)
#    0.000    3.600    0.000    2.400    1.400    0.800 
#    1.800    4.500    0.000    1.200    0.000    0.000 
#    0.000    0.000    0.000    0.000    0.000    0.000 
#
# Total GULP energy -111422.153210 kJ/mol
# GULP energy per Si atom -5571.107661 kJ/mol
# Density = 2.394985 g / cm^3
# Si number density = 24.004483 Si / 1000 Ang^3
#
#
#
# Elastic Constant Matrix: (Units=GPa)
#
#
# Indices 1 2 3 4 5 6 
#
# 1 59.1266 24.7952 9.4156 0.0000 2.3303 0.0000
# 2 24.7952 156.2620 77.9083 0.0000 5.4670 0.0000
# 3 9.4156 77.9083 125.7437 0.0000 29.1778 0.0000
# 4 0.0000 0.0000 0.0000 33.2527 0.0000 0.2677
# 5 2.3303 5.4670 29.1778 0.0000 29.7925 0.0000
# 6 0.0000 0.0000 0.0000 0.2677 0.0000 7.3532
#
#
#
# Elastic Compliance Matrix: (Units=1/GPa)
#
#
# Indices 1 2 3 4 5 6 
#
# 1 0.018237 -0.003435 0.001226 0.000000 -0.001997 0.000000
# 2 -0.003435 0.010540 -0.007618 0.000000 0.005795 0.000000
# 3 0.001226 -0.007618 0.015890 0.000000 -0.014260 0.000000
# 4 0.000000 0.000000 0.000000 0.030082 0.000000 -0.001095
# 5 -0.001997 0.005795 -0.014260 0.000000 0.046624 0.000000
# 6 0.000000 0.000000 0.000000 -0.001095 0.000000 0.136035
#
#
# Mechanical properties :
#
#
# Convention : Reuss Voigt Hill
#
# Bulk Modulus (GPa) = 39.97973 62.81895 51.39934
# Shear Modulus (GPa) = 17.51941 29.34723 23.43332
#
# Velocity S-wave (km/s) = 2.70448 3.50032 3.12782
# Velocity P-wave (km/s) = 5.14233 6.52402 5.87394
#
# Compressibility (1/GPa) = 0.02501268
#
# Stress axis : x y z
#
# Youngs Moduli (GPa) = 54.83387 94.87733 62.93435
#
# Poissons Ratio (x) = 0.32593 -0.07718
# Poissons Ratio (y) = 0.18837 0.47942
# Poissons Ratio (z) = -0.06724 0.72276
#
# Static dielectric constant tensor:
#      x y z
#    x 1.976180 0.000000 -0.059510 
#    y 0.000000 1.989770 0.000000 
#    z -0.059510 0.000000 1.946530 
# 
# From -- ./inp_files/153345.got.cif
#   From: 2010.05.17/outbox.cif.g08.bks.cpg/sg12_77_cif.got.tgz:153345.got - 2010.06.03 13:09:07.
