data_PCOD9204590
_publ_section_title
;
Structure prediction by ZEFSAII (Michael W. Deem and Ramdas Pophale) SiO2 
 PCOD9204590
Probable space group: C 2/M
;
_chemical_formula_sum "Si O2"
_cell_formula_units_Z 48
_cell_length_a 21.416301
_cell_length_b 14.460388
_cell_length_c 14.250203
_cell_angle_alpha 90.000000
_cell_angle_beta 28.737362
_cell_angle_gamma 90.000000
_cell_volume 2121.806323
_symmetry_space_group_name_H-M "C 2/M"
_symmetry_group_IT_number 12
_symmetry_cell_setting 'monoclinic'
loop_
_space_group_symop_operation_xyz
x,y,z
-x,y,-z
-x,-y,-z
x,-y,z
1/2+x,1/2+y,z
1/2-x,1/2+y,-z
1/2-x,1/2-y,-z
1/2+x,1/2-y,z
loop_
_atom_site_type_symbol
_atom_site_label
_atom_site_fract_x
_atom_site_fract_y
_atom_site_fract_z
Si Si1 0.392919 0.000000 0.557041
Si Si2 0.146881 0.000000 0.016140
Si Si3 0.267136 0.801033 0.245621
Si Si4 0.628330 0.292831 0.067204
Si Si5 0.343018 0.000000 0.201772
Si Si6 0.340187 0.500000 0.370933
Si Si7 0.136388 0.799167 0.707554
Si Si8 0.018559 0.302239 0.587184
O O1 0.500000 0.000000 0.500000
O O2 0.424563 0.903732 0.462934
O O3 0.249436 0.000000 0.793561
O O4 0.167464 0.899275 0.036227
O O5 0.992026 0.000000 0.201239
O O6 0.361126 0.750243 0.195666
O O7 0.123383 0.777589 0.469878
O O8 0.299475 0.908017 0.205767
O O9 0.277265 0.755297 0.131094
O O10 0.494826 0.293539 0.180185
O O11 0.602003 0.228397 0.191055
O O12 0.263113 0.000000 0.406528
O O13 0.500000 0.000000 0.000000
O O14 0.326842 0.406404 0.330648
O O15 0.250000 0.750000 0.500000
O O16 0.000000 0.303064 0.500000
#
# Coordination Sequence:
#
# PCOD9204590 Si02
#       8
#     4   4   8   8   4   4   8   8
#     4  10  22  46  71 100 136 179 238 301 349 401
#     4  10  20  43  70  99 137 182 226 292 351 413
#     4  12  24  42  65  97 138 178 234 281 355 415
#     4  11  23  41  69  99 134 180 229 283 347 424
#     4  12  24  39  64 101 150 187 220 291 362 418
#     4  10  22  36  63  99 138 179 237 275 339 426
#     4  11  20  38  62  93 132 176 218 283 341 412
#     4  11  25  46  71  98 136 181 237 299 349 411
#
# _framework density 22.622233000000001
#
# number of rings (size 3 to 8) (size 9 to 14) (size 15 to 20)
#    0.000    1.000    5.000    2.500    0.000    2.667 
#    0.000    5.000    0.000    0.000    0.000    0.000 
#    0.000    0.000    0.000    0.000    0.000    0.000 
#
# Total GULP energy -134114.144968 kJ/mol
# GULP energy per Si atom -5588.089374 kJ/mol
# Density = 2.257074 g / cm^3
# Si number density = 22.622233 Si / 1000 Ang^3
#
#
#
# Elastic Constant Matrix: (Units=GPa)
#
#
# Indices 1 2 3 4 5 6 
#
# 1 78.7245 28.4032 16.2766 0.0000 13.3060 0.0000
# 2 28.4032 196.3700 37.4111 -0.0001 2.4323 0.0000
# 3 16.2766 37.4111 138.2010 -0.0001 7.5951 0.0000
# 4 0.0000 -0.0001 -0.0001 -220.2216 0.0001 -13.3445
# 5 13.3060 2.4323 7.5951 0.0001 38.3691 0.0000
# 6 0.0000 0.0000 0.0000 -13.3445 0.0000 22.3713
#
#
#
# Elastic Compliance Matrix: (Units=1/GPa)
#
#
# Indices 1 2 3 4 5 6 
#
# 1 0.014350 -0.001839 -0.000935 0.000000 -0.004675 0.000000
# 2 -0.001839 0.005605 -0.001331 0.000000 0.000546 0.000000
# 3 -0.000935 -0.001331 0.007768 0.000000 -0.001129 0.000000
# 4 0.000000 0.000000 0.000000 -0.004382 0.000000 -0.002614
# 5 -0.004675 0.000546 -0.001129 0.000000 0.027873 0.000000
# 6 0.000000 0.000000 0.000000 -0.002614 0.000000 0.043141
#
#
# Mechanical properties :
#
#
# Convention : Reuss Voigt Hill
#
# Bulk Modulus (GPa) = 51.24946 64.16416 57.70681
# Shear Modulus (GPa) = 45.84255 -9.81595 18.01330
#
# Velocity S-wave (km/s) = 4.50648 -2.08530 2.82488
# Velocity P-wave (km/s) = 7.05560 4.75677 6.01699
#
# Compressibility (1/GPa) = 0.01951240
#
# Stress axis : x y z
#
# Youngs Moduli (GPa) = 69.68809 178.40422 128.72909
#
# Poissons Ratio (x) = 0.32817 0.12039
# Poissons Ratio (y) = 0.12819 0.17130
# Poissons Ratio (z) = 0.06517 0.23740
#
# Static dielectric constant tensor:
#      x y z
#    x 1.890530 0.000000 -0.039890 
#    y 0.000000 1.840320 0.000000 
#    z -0.039890 0.000000 1.821440 
# 
# From -- ./inp_files/240641.got.cif
#   From: 2010.05.17/outbox.cif.g08.bks.cpg/sg12_121_cif.got.tgz:240641.got - 2010.06.03 13:09:07.
