data_PCOD9204231
_publ_section_title
;
Structure prediction by ZEFSAII (Michael W. Deem and Ramdas Pophale) SiO2 
 PCOD9204231
Probable space group: C 2/M
;
_chemical_formula_sum "Si O2"
_cell_formula_units_Z 52
_cell_length_a 25.917133
_cell_length_b 14.804131
_cell_length_c 9.055604
_cell_angle_alpha 90.000000
_cell_angle_beta 133.716148
_cell_angle_gamma 90.000000
_cell_volume 2511.243703
_symmetry_space_group_name_H-M "C 2/M"
_symmetry_group_IT_number 12
_symmetry_cell_setting 'monoclinic'
loop_
_space_group_symop_operation_xyz
x,y,z
-x,y,-z
-x,-y,-z
x,-y,z
1/2+x,1/2+y,z
1/2-x,1/2+y,-z
1/2-x,1/2-y,-z
1/2+x,1/2-y,z
loop_
_atom_site_type_symbol
_atom_site_label
_atom_site_fract_x
_atom_site_fract_y
_atom_site_fract_z
Si Si1 0.990079 0.099510 0.654823
Si Si2 0.931146 0.782305 0.970975
Si Si3 0.914979 0.400514 0.823588
Si Si4 0.204038 0.105388 0.391628
Si Si5 0.176815 0.138146 0.665493
Si Si6 0.253822 0.000000 0.041534
Si Si7 0.681357 0.155173 0.620766
O O1 0.906561 0.113336 0.520836
O O2 0.000000 0.098847 0.500000
O O3 0.039077 0.177271 0.819432
O O4 0.011658 0.000000 0.756505
O O5 0.899030 0.681428 0.903758
O O6 0.871360 0.848609 0.791068
O O7 0.000000 0.782782 0.000000
O O8 0.882872 0.500000 0.790191
O O9 0.890724 0.368693 0.612666
O O10 0.000000 0.409509 0.000000
O O11 0.216734 0.115207 0.590829
O O12 0.261512 0.152895 0.400701
O O13 0.202698 0.000000 0.348147
O O14 0.209786 0.079157 0.861060
O O15 0.179483 0.246145 0.688475
O O16 0.296172 0.078979 0.220346
#
# Coordination Sequence:
#
# PCOD9204231 Si02
#       7
#     8   8   8   8   8   4   8
#     4  11  24  42  69  98 143 179 222 271 349 422
#     4  11  22  38  66 102 128 178 226 281 334 392
#     4  10  20  40  68  94 125 167 228 288 335 387
#     4  12  23  40  70  98 141 173 234 287 337 404
#     4  12  24  44  67 100 136 185 227 283 338 408
#     4  12  26  44  66  95 140 186 222 276 343 420
#     4  12  25  45  70 101 134 182 231 283 346 411
#
# _framework density 20.706869999999999
#
# number of rings (size 3 to 8) (size 9 to 14) (size 15 to 20)
#    0.000    0.615    6.154    2.308    2.154    0.615 
#    0.000    0.000    0.000    0.462    0.000    0.000 
#    0.000    0.000    0.000    0.000    0.000    0.000 
#
# Total GULP energy -144765.413951 kJ/mol
# GULP energy per Si atom -5567.900537 kJ/mol
# Density = 2.065974 g / cm^3
# Si number density = 20.706870 Si / 1000 Ang^3
#
#
#
# Elastic Constant Matrix: (Units=GPa)
#
#
# Indices 1 2 3 4 5 6 
#
# 1 31.3389 3.1954 0.5163 0.0000 8.6638 0.0000
# 2 3.1954 199.3154 74.3878 0.0000 -8.0915 0.0000
# 3 0.5163 74.3878 148.5187 0.0000 4.9910 0.0000
# 4 0.0000 0.0000 0.0000 -81.0448 0.0000 9.8950
# 5 8.6638 -8.0915 4.9910 0.0000 17.0296 0.0000
# 6 0.0000 0.0000 0.0000 9.8950 0.0000 19.7778
#
#
#
# Elastic Compliance Matrix: (Units=1/GPa)
#
#
# Indices 1 2 3 4 5 6 
#
# 1 0.037803 -0.002036 0.001583 0.000000 -0.020663 0.000000
# 2 -0.002036 0.006544 -0.003444 0.000000 0.005154 0.000000
# 3 0.001583 -0.003444 0.008620 0.000000 -0.004968 0.000000
# 4 0.000000 0.000000 0.000000 -0.011629 0.000000 0.005818
# 5 -0.020663 0.005154 -0.004968 0.000000 0.073139 0.000000
# 6 0.000000 0.000000 0.000000 0.005818 0.000000 0.047651
#
#
# Mechanical properties :
#
#
# Convention : Reuss Voigt Hill
#
# Bulk Modulus (GPa) = 22.13704 59.48579 40.81141
# Shear Modulus (GPa) = 27.02990 11.22409 19.12699
#
# Velocity S-wave (km/s) = 3.61689 2.33072 3.04255
# Velocity P-wave (km/s) = 5.30627 6.00274 5.66522
#
# Compressibility (1/GPa) = 0.04517316
#
# Stress axis : x y z
#
# Youngs Moduli (GPa) = 26.45277 152.80180 116.01487
#
# Poissons Ratio (x) = 0.31103 -0.18360
# Poissons Ratio (y) = 0.05385 0.39956
# Poissons Ratio (z) = -0.04186 0.52625
#
# Static dielectric constant tensor:
#      x y z
#    x 1.764260 0.000000 0.018850 
#    y 0.000000 1.787540 0.000000 
#    z 0.018850 0.000000 1.732640 
# 
# From -- ./inp_files/112061.got.cif
#   From: 2010.05.17/outbox.cif.g08.bks.cpg/sg12_57_cif.got.tgz:112061.got - 2010.06.03 13:09:07.
