data_PCOD9204530
_publ_section_title
;
Structure prediction by ZEFSAII (Michael W. Deem and Ramdas Pophale) SiO2 
 PCOD9204530
Probable space group: C 2/M
;
_chemical_formula_sum "Si O2"
_cell_formula_units_Z 32
_cell_length_a 14.930448
_cell_length_b 11.806779
_cell_length_c 13.701347
_cell_angle_alpha 90.000000
_cell_angle_beta 41.029404
_cell_angle_gamma 90.000000
_cell_volume 1585.501712
_symmetry_space_group_name_H-M "C 2/M"
_symmetry_group_IT_number 12
_symmetry_cell_setting 'monoclinic'
loop_
_space_group_symop_operation_xyz
x,y,z
-x,y,-z
-x,-y,-z
x,-y,z
1/2+x,1/2+y,z
1/2-x,1/2+y,-z
1/2-x,1/2-y,-z
1/2+x,1/2-y,z
loop_
_atom_site_type_symbol
_atom_site_label
_atom_site_fract_x
_atom_site_fract_y
_atom_site_fract_z
Si Si1 0.111918 0.000000 0.820632
Si Si2 0.615170 0.286301 0.671240
Si Si3 0.582730 0.746965 0.329611
Si Si4 0.404826 0.000000 0.673194
Si Si5 0.140950 0.368903 0.826324
O O1 0.117088 0.109080 0.745455
O O2 0.251779 0.000000 0.763244
O O3 0.000000 0.000000 0.000000
O O4 0.750000 0.250000 0.500000
O O5 0.498794 0.316145 0.688290
O O6 0.602214 0.178717 0.752516
O O7 0.500000 0.740397 0.500000
O O8 0.734552 0.702746 0.228237
O O9 0.575311 0.877012 0.297228
O O10 0.500000 0.000000 0.500000
O O11 0.184278 0.500000 0.787049
O O12 0.000000 0.359406 0.000000
#
# Coordination Sequence:
#
# PCOD9204530 Si02
#       5
#     4   8   8   4   8
#     4  12  26  48  71 104 142 183 241 305 344 414
#     4  12  25  43  74 103 137 189 236 285 360 424
#     4  11  23  42  69 102 136 183 237 290 345 430
#     4  10  20  42  66  94 139 179 227 286 349 414
#     4  11  26  47  66  98 145 179 228 305 358 416
#
# _framework density 20.182886
#
# number of rings (size 3 to 8) (size 9 to 14) (size 15 to 20)
#    0.000    0.750    5.000    2.250    5.250    1.500 
#    0.000    0.000    0.000    0.000    0.000    0.000 
#    0.000    0.000    0.000    0.000    0.000    0.000 
#
# Total GULP energy -89203.073380 kJ/mol
# GULP energy per Si atom -5575.192086 kJ/mol
# Density = 2.013695 g / cm^3
# Si number density = 20.182886 Si / 1000 Ang^3
#
#
#
# Elastic Constant Matrix: (Units=GPa)
#
#
# Indices 1 2 3 4 5 6 
#
# 1 79.2787 -7.9524 34.1680 0.0000 3.5559 0.0000
# 2 -7.9524 87.1291 51.3896 0.0000 9.6828 0.0000
# 3 34.1680 51.3896 107.1739 0.0000 7.0269 0.0000
# 4 0.0000 0.0000 0.0000 45.1008 0.0000 12.8471
# 5 3.5559 9.6828 7.0269 0.0000 35.3845 0.0000
# 6 0.0000 0.0000 0.0000 12.8471 0.0000 33.3427
#
#
#
# Elastic Compliance Matrix: (Units=1/GPa)
#
#
# Indices 1 2 3 4 5 6 
#
# 1 0.017096 0.006848 -0.008611 0.000000 -0.001882 0.000000
# 2 0.006848 0.019044 -0.011072 0.000000 -0.003701 0.000000
# 3 -0.008611 -0.011072 0.017356 0.000000 0.000449 0.000000
# 4 0.000000 0.000000 0.000000 0.024906 0.000000 -0.009596
# 5 -0.001882 -0.003701 0.000449 0.000000 0.029374 0.000000
# 6 0.000000 0.000000 0.000000 -0.009596 0.000000 0.033689
#
#
# Mechanical properties :
#
#
# Convention : Reuss Voigt Hill
#
# Bulk Modulus (GPa) = 35.93720 47.64357 41.79038
# Shear Modulus (GPa) = 28.34313 35.83069 32.08691
#
# Velocity S-wave (km/s) = 3.75148 4.21800 3.99157
# Velocity P-wave (km/s) = 6.05056 6.88326 6.48030
#
# Compressibility (1/GPa) = 0.02782632
#
# Stress axis : x y z
#
# Youngs Moduli (GPa) = 58.49251 52.50988 57.61859
#
# Poissons Ratio (x) = -0.35960 0.49614
# Poissons Ratio (y) = -0.40057 0.63797
# Poissons Ratio (z) = 0.50366 0.58140
#
# Static dielectric constant tensor:
#      x y z
#    x 0.978340 0.000000 -1.253380 
#    y 0.000000 -8.871250 0.000000 
#    z -1.253380 0.000000 -0.545700 
# 
# From -- ./inp_files/56806.got.cif
#   From: 2010.05.17/outbox.cif.g08.bks.cpg/sg12_29_cif.got.tgz:56806.got - 2010.06.03 13:09:07.
