data_PCOD9204754
_publ_section_title
;
Structure prediction by ZEFSAII (Michael W. Deem and Ramdas Pophale) SiO2 
 PCOD9204754
Probable space group: C 2/M
;
_chemical_formula_sum "Si O2"
_cell_formula_units_Z 64
_cell_length_a 22.729883
_cell_length_b 9.530139
_cell_length_c 23.948433
_cell_angle_alpha 90.000000
_cell_angle_beta 136.765659
_cell_angle_gamma 90.000000
_cell_volume 3553.480209
_symmetry_space_group_name_H-M "C 2/M"
_symmetry_group_IT_number 12
_symmetry_cell_setting 'monoclinic'
loop_
_space_group_symop_operation_xyz
x,y,z
-x,y,-z
-x,-y,-z
x,-y,z
1/2+x,1/2+y,z
1/2-x,1/2+y,-z
1/2-x,1/2-y,-z
1/2+x,1/2-y,z
loop_
_atom_site_type_symbol
_atom_site_label
_atom_site_fract_x
_atom_site_fract_y
_atom_site_fract_z
Si Si1 0.137212 0.333680 0.568461
Si Si2 0.943042 0.154841 0.906135
Si Si3 0.302545 0.158878 0.677357
Si Si4 0.866796 0.838625 0.229228
Si Si5 0.541257 0.167369 0.617331
Si Si6 0.012075 0.666534 0.168472
Si Si7 0.822004 0.669977 0.087363
Si Si8 0.201831 0.351061 0.191381
O O1 0.153760 0.500000 0.580786
O O2 0.221934 0.254538 0.605937
O O3 0.105231 0.296332 0.609513
O O4 0.054413 0.307954 0.472308
O O5 0.981559 0.254744 0.885766
O O6 0.852930 0.217788 0.862747
O O7 0.932908 0.000000 0.874998
O O8 0.000000 0.150276 0.000000
O O9 0.401393 0.208916 0.737127
O O10 0.293263 0.152398 0.738452
O O11 0.293814 0.000000 0.649396
O O12 0.939690 0.755436 0.313928
O O13 0.830078 0.747451 0.152611
O O14 0.791217 0.848518 0.222397
O O15 0.889144 0.000000 0.228391
O O16 0.551248 0.000000 0.634626
O O17 0.022376 0.500000 0.167235
O O18 0.918339 0.689209 0.129174
O O19 0.805572 0.500000 0.079224
O O20 0.750000 0.750000 0.000000
O O21 0.158403 0.500000 0.145844
#
# Coordination Sequence:
#
# PCOD9204754 Si02
#       8
#     8   8   8   8   8   8   8   8
#     4   9  17  29  49  81 118 152 183 218 270 329
#     4  10  21  33  50  79 107 132 170 223 274 325
#     4   9  16  31  53  78 108 142 179 218 263 324
#     4  11  22  37  57  82 111 146 189 234 277 328
#     4   9  18  32  50  78 118 155 184 220 270 333
#     4   9  21  40  57  75 104 143 182 220 275 336
#     4  11  25  44  63  82 106 144 189 236 284 331
#     4   9  19  33  49  74 107 144 179 213 269 333
#
# _framework density 18.010511999999999
#
# number of rings (size 3 to 8) (size 9 to 14) (size 15 to 20)
#    0.000    2.375    1.250    2.625    1.750    5.500 
#    0.000    1.250    0.000    0.750    0.000    0.000 
#    0.000    0.000    0.000    0.000    0.000    0.000 
#
# Total GULP energy -178152.998269 kJ/mol
# GULP energy per Si atom -5567.281196 kJ/mol
# Density = 1.796952 g / cm^3
# Si number density = 18.010512 Si / 1000 Ang^3
#
#
#
# Elastic Constant Matrix: (Units=GPa)
#
#
# Indices 1 2 3 4 5 6 
#
# 1 48.8093 25.3695 23.1020 0.0000 18.4510 0.0000
# 2 25.3695 71.5695 54.9762 0.0000 5.2658 0.0000
# 3 23.1020 54.9762 94.2394 0.0000 4.9674 0.0000
# 4 0.0000 0.0000 0.0000 32.9421 0.0000 4.1442
# 5 18.4510 5.2658 4.9674 0.0000 27.4108 0.0000
# 6 0.0000 0.0000 0.0000 4.1442 0.0000 11.9316
#
#
#
# Elastic Compliance Matrix: (Units=1/GPa)
#
#
# Indices 1 2 3 4 5 6 
#
# 1 0.033945 -0.008976 -0.001991 0.000000 -0.020764 0.000000
# 2 -0.008976 0.027824 -0.014204 0.000000 0.003271 0.000000
# 3 -0.001991 -0.014204 0.019356 0.000000 0.000561 0.000000
# 4 0.000000 0.000000 0.000000 0.031743 0.000000 -0.011025
# 5 -0.020764 0.003271 0.000561 0.000000 0.049729 0.000000
# 6 0.000000 0.000000 0.000000 -0.011025 0.000000 0.087641
#
#
# Mechanical properties :
#
#
# Convention : Reuss Voigt Hill
#
# Bulk Modulus (GPa) = 32.48410 46.83485 39.65948
# Shear Modulus (GPa) = 16.08552 21.86827 18.97689
#
# Velocity S-wave (km/s) = 2.99175 3.48831 3.24953
# Velocity P-wave (km/s) = 5.47809 6.50269 6.01226
#
# Compressibility (1/GPa) = 0.03078429
#
# Stress axis : x y z
#
# Youngs Moduli (GPa) = 29.45981 35.94011 51.66426
#
# Poissons Ratio (x) = 0.32258 0.10285
# Poissons Ratio (y) = 0.26442 0.73383
# Poissons Ratio (z) = 0.05865 0.51049
#
# Static dielectric constant tensor:
#      x y z
#    x 1.623000 0.000000 0.024540 
#    y 0.000000 1.653320 0.000000 
#    z 0.024540 0.000000 1.633910 
# 
# From -- ./inp_files/346174.got.cif
#   From: 2010.05.17/outbox.cif.g08.bks.cpg/sg12_174_cif.got.tgz:346174.got - 2010.06.03 13:09:07.
