data_PCOD9204576
_publ_section_title
;
Structure prediction by ZEFSAII (Michael W. Deem and Ramdas Pophale) SiO2 
 PCOD9204576
Probable space group: C 2/M
;
_chemical_formula_sum "Si O2"
_cell_formula_units_Z 48
_cell_length_a 18.471110
_cell_length_b 29.704336
_cell_length_c 9.700689
_cell_angle_alpha 90.000000
_cell_angle_beta 152.651949
_cell_angle_gamma 90.000000
_cell_volume 2445.126539
_symmetry_space_group_name_H-M "C 2/M"
_symmetry_group_IT_number 12
_symmetry_cell_setting 'monoclinic'
loop_
_space_group_symop_operation_xyz
x,y,z
-x,y,-z
-x,-y,-z
x,-y,z
1/2+x,1/2+y,z
1/2-x,1/2+y,-z
1/2-x,1/2-y,-z
1/2+x,1/2-y,z
loop_
_atom_site_type_symbol
_atom_site_label
_atom_site_fract_x
_atom_site_fract_y
_atom_site_fract_z
Si Si1 0.958899 0.000000 0.701378
Si Si2 0.236590 0.500000 0.587536
Si Si3 0.949021 0.089399 0.265981
Si Si4 0.810520 0.706077 0.178829
Si Si5 0.860002 0.155924 0.870291
Si Si6 0.853877 0.611018 0.150534
Si Si7 0.928695 0.405438 0.727444
O O1 0.951445 0.045566 0.601866
O O2 0.826639 0.000000 0.593758
O O3 0.126493 0.000000 0.065858
O O4 0.135219 0.454807 0.418769
O O5 0.000000 0.108962 0.500000
O O6 0.939580 0.122206 0.118238
O O7 0.769493 0.075955 0.997316
O O8 0.725936 0.694920 0.183077
O O9 0.779036 0.660544 0.039569
O O10 0.000000 0.710044 0.500000
O O11 0.750000 0.750000 0.000000
O O12 0.717305 0.128614 0.553368
O O13 0.000000 0.168800 0.000000
O O14 0.000000 0.610806 0.500000
O O15 0.923277 0.604518 0.119481
O O16 0.000000 0.403040 0.000000
#
# Coordination Sequence:
#
# PCOD9204576 Si02
#       7
#     4   4   8   8   8   8   8
#     4  11  21  39  57  86 133 169 226 280 326 370
#     4  11  23  39  61  90 127 185 218 280 332 374
#     4  11  23  37  62  93 126 172 225 273 325 386
#     4  10  21  44  71  97 132 168 212 267 335 399
#     4  11  23  45  69  99 133 178 217 269 334 399
#     4  10  20  43  64  88 127 171 213 267 335 390
#     4  12  24  41  65  94 134 174 226 273 328 390
#
# _framework density 19.630884999999999
#
# number of rings (size 3 to 8) (size 9 to 14) (size 15 to 20)
#    0.000    1.167    6.667    1.500    4.667    3.333 
#    0.000    3.333    0.000    0.000    0.000    0.000 
#    0.000    0.000    0.000    0.000    0.000    0.000 
#
# Total GULP energy -133818.034715 kJ/mol
# GULP energy per Si atom -5575.751446 kJ/mol
# Density = 1.958620 g / cm^3
# Si number density = 19.630885 Si / 1000 Ang^3
#
#
#
# Elastic Constant Matrix: (Units=GPa)
#
#
# Indices 1 2 3 4 5 6 
#
# 1 156.1388 31.8823 18.7501 0.0000 9.9912 0.0000
# 2 31.8823 53.6383 22.3822 0.0000 8.1455 0.0000
# 3 18.7501 22.3822 53.5419 0.0000 -7.6505 0.0000
# 4 0.0000 0.0000 0.0000 20.0690 0.0000 -1.1219
# 5 9.9912 8.1455 -7.6505 0.0000 36.9989 0.0000
# 6 0.0000 0.0000 0.0000 -1.1219 0.0000 21.3507
#
#
#
# Elastic Compliance Matrix: (Units=1/GPa)
#
#
# Indices 1 2 3 4 5 6 
#
# 1 0.007395 -0.003641 -0.001276 0.000000 -0.001459 0.000000
# 2 -0.003641 0.026364 -0.010752 0.000000 -0.007044 0.000000
# 3 -0.001276 -0.010752 0.024737 0.000000 0.007827 0.000000
# 4 0.000000 0.000000 0.000000 0.049975 0.000000 0.002626
# 5 -0.001459 -0.007044 0.007827 0.000000 0.030591 0.000000
# 6 0.000000 0.000000 0.000000 0.002626 0.000000 0.046975
#
#
# Mechanical properties :
#
#
# Convention : Reuss Voigt Hill
#
# Bulk Modulus (GPa) = 36.82350 45.48315 41.15333
# Shear Modulus (GPa) = 22.08203 28.37067 25.22635
#
# Velocity S-wave (km/s) = 3.35753 3.80571 3.58863
# Velocity P-wave (km/s) = 5.81630 6.52156 6.17900
#
# Compressibility (1/GPa) = 0.02715657
#
# Stress axis : x y z
#
# Youngs Moduli (GPa) = 135.23240 37.92998 40.42529
#
# Poissons Ratio (x) = 0.13812 0.05158
# Poissons Ratio (y) = 0.49244 0.43467
# Poissons Ratio (z) = 0.17253 0.40784
#
# Static dielectric constant tensor:
#      x y z
#    x 1.662440 0.000000 -0.078900 
#    y 0.000000 1.781880 0.000000 
#    z -0.078900 0.000000 1.683590 
# 
# From -- ./inp_files/80878.got.cif
#   From: 2010.05.17/outbox.cif.g08.bks.cpg/sg12_41_cif.got.tgz:80878.got - 2010.06.03 13:09:07.
