data_PCOD9204741
_publ_section_title
;
Structure prediction by ZEFSAII (Michael W. Deem and Ramdas Pophale) SiO2 
 PCOD9204741
Probable space group: C 2/M
;
_chemical_formula_sum "Si O2"
_cell_formula_units_Z 56
_cell_length_a 12.744562
_cell_length_b 26.769605
_cell_length_c 14.705070
_cell_angle_alpha 90.000000
_cell_angle_beta 138.610203
_cell_angle_gamma 90.000000
_cell_volume 3317.054069
_symmetry_space_group_name_H-M "C 2/M"
_symmetry_group_IT_number 12
_symmetry_cell_setting 'monoclinic'
loop_
_space_group_symop_operation_xyz
x,y,z
-x,y,-z
-x,-y,-z
x,-y,z
1/2+x,1/2+y,z
1/2-x,1/2+y,-z
1/2-x,1/2-y,-z
1/2+x,1/2-y,z
loop_
_atom_site_type_symbol
_atom_site_label
_atom_site_fract_x
_atom_site_fract_y
_atom_site_fract_z
Si Si1 0.356753 0.188654 0.716317
Si Si2 0.683115 0.206610 0.642661
Si Si3 0.507759 0.442105 0.611807
Si Si4 0.288487 0.203489 0.130848
Si Si5 0.167962 0.815847 0.873928
Si Si6 0.340043 0.650816 0.584724
Si Si7 0.832709 0.606687 0.862752
O O1 0.287849 0.242833 0.700207
O O2 0.538360 0.194221 0.801423
O O3 0.250648 0.171947 0.561523
O O4 0.343428 0.146196 0.785615
O O5 0.500000 0.219298 0.500000
O O6 0.704514 0.188452 0.760026
O O7 0.736541 0.164335 0.605643
O O8 0.500000 0.428577 0.500000
O O9 0.465750 0.500000 0.595612
O O10 0.395369 0.405331 0.596800
O O11 0.690690 0.431712 0.755285
O O12 0.260132 0.262814 0.106844
O O13 0.159117 0.181096 0.977385
O O14 0.279786 0.859338 0.912555
O O15 0.004483 0.820837 0.713326
O O16 0.000000 0.583850 0.000000
#
# Coordination Sequence:
#
# PCOD9204741 Si02
#       7
#     8   8   8   8   8   8   8
#     4  12  21  34  51  80 117 153 182 223 262 327
#     4  12  23  32  53  80 115 156 193 219 262 326
#     4  10  22  40  62  84 105 137 185 237 288 334
#     4  11  21  34  48  74 115 153 192 218 259 316
#     4  10  21  33  49  76 112 154 187 221 260 317
#     4  11  22  37  54  79 107 145 186 229 276 322
#     4  11  21  34  56  83 115 147 177 222 283 333
#
# _framework density 16.882449000000001
#
# number of rings (size 3 to 8) (size 9 to 14) (size 15 to 20)
#    0.000    1.000    7.143    1.286    2.000    0.857 
#    0.000    0.000    0.000    0.429    0.000    8.000 
#    0.000    0.000    0.000    0.000    0.000    0.000 
#
# Total GULP energy -156186.105363 kJ/mol
# GULP energy per Si atom -5578.075192 kJ/mol
# Density = 1.684402 g / cm^3
# Si number density = 16.882449 Si / 1000 Ang^3
#
#
#
# Elastic Constant Matrix: (Units=GPa)
#
#
# Indices 1 2 3 4 5 6 
#
# 1 65.4614 24.9586 15.2132 0.0000 -17.7236 0.0000
# 2 24.9586 38.7651 7.8503 0.0000 -8.5200 0.0000
# 3 15.2132 7.8503 98.4736 0.0000 -15.3471 0.0000
# 4 0.0000 0.0000 0.0000 6.5495 0.0000 -1.9409
# 5 -17.7236 -8.5200 -15.3471 0.0000 37.4776 0.0000
# 6 0.0000 0.0000 0.0000 -1.9409 0.0000 15.0862
#
#
#
# Elastic Compliance Matrix: (Units=1/GPa)
#
#
# Indices 1 2 3 4 5 6 
#
# 1 0.022292 -0.012511 -0.001332 0.000000 0.007153 0.000000
# 2 -0.012511 0.034328 -0.000544 0.000000 0.001664 0.000000
# 3 -0.001332 -0.000544 0.010988 0.000000 0.003746 0.000000
# 4 0.000000 0.000000 0.000000 0.158735 0.000000 0.020422
# 5 0.007153 0.001664 0.003746 0.000000 0.031978 0.000000
# 6 0.000000 0.000000 0.000000 0.020422 0.000000 0.068913
#
#
# Mechanical properties :
#
#
# Convention : Reuss Voigt Hill
#
# Bulk Modulus (GPa) = 25.75096 33.19382 29.47239
# Shear Modulus (GPa) = 13.55187 22.13451 17.84319
#
# Velocity S-wave (km/s) = 2.83630 3.62483 3.25454
# Velocity P-wave (km/s) = 5.10023 6.10112 5.62299
#
# Compressibility (1/GPa) = 0.03883351
#
# Stress axis : x y z
#
# Youngs Moduli (GPa) = 44.85834 29.13112 91.00863
#
# Poissons Ratio (x) = 0.36446 0.12121
# Poissons Ratio (y) = 0.56122 0.04954
# Poissons Ratio (z) = 0.05974 0.01586
#
# Static dielectric constant tensor:
#      x y z
#    x 1.601850 0.000000 0.011430 
#    y 0.000000 1.539190 0.000000 
#    z 0.011430 0.000000 1.620960 
# 
# From -- ./inp_files/53196.got.cif
#   From: 2010.05.17/outbox.cif.g08.bks.cpg/sg12_27_cif.got.tgz:53196.got - 2010.06.03 13:09:07.
