data_PCOD9204427
_publ_section_title
;
Structure prediction by ZEFSAII (Michael W. Deem and Ramdas Pophale) SiO2 
 PCOD9204427
Probable space group: C 2/M
;
_chemical_formula_sum "Si O2"
_cell_formula_units_Z 46
_cell_length_a 13.133176
_cell_length_b 21.217858
_cell_length_c 11.241333
_cell_angle_alpha 90.000000
_cell_angle_beta 128.155627
_cell_angle_gamma 90.000000
_cell_volume 2463.185088
_symmetry_space_group_name_H-M "C 2/M"
_symmetry_group_IT_number 12
_symmetry_cell_setting 'monoclinic'
loop_
_space_group_symop_operation_xyz
x,y,z
-x,y,-z
-x,-y,-z
x,-y,z
1/2+x,1/2+y,z
1/2-x,1/2+y,-z
1/2-x,1/2-y,-z
1/2+x,1/2-y,z
loop_
_atom_site_type_symbol
_atom_site_label
_atom_site_fract_x
_atom_site_fract_y
_atom_site_fract_z
Si Si1 0.274794 0.426856 0.340841
Si Si2 0.000000 0.500000 0.500000
Si Si3 0.746351 0.427333 0.958461
Si Si4 0.510617 0.900879 0.289345
Si Si5 0.122968 0.187851 0.004636
Si Si6 0.000000 0.833674 0.500000
Si Si7 0.598107 0.231413 0.755222
O O1 0.310881 0.500000 0.386721
O O2 0.256172 0.417857 0.185335
O O3 0.142413 0.412922 0.313632
O O4 0.386578 0.379629 0.462921
O O5 0.002603 0.445584 0.397125
O O6 0.709614 0.500000 0.956189
O O7 0.655244 0.376708 0.957813
O O8 0.889427 0.415705 0.114752
O O9 0.495006 0.828560 0.317877
O O10 0.098416 0.242153 0.889708
O O11 0.255828 0.207837 0.166594
O O12 0.000000 0.181175 0.000000
O O13 0.055475 0.787908 0.640629
#
# Coordination Sequence:
#
# PCOD9204427 Si02
#       7
#     8   2   8   8   8   4   8
#     4  11  23  42  68  94 126 172 219 271 319 372
#     4  12  22  44  58 104 134 158 208 274 314 398
#     4  10  20  41  68  95 126 164 224 271 305 389
#     4  11  23  41  69  94 131 169 214 269 328 374
#     4  10  22  42  65  95 128 169 216 267 323 381
#     4  12  24  44  60  96 130 170 214 268 316 400
#     4  10  24  42  63  94 128 169 215 270 314 395
#
# _framework density 18.675007999999998
#
# number of rings (size 3 to 8) (size 9 to 14) (size 15 to 20)
#    0.000    1.391    3.478    1.304    2.435    2.435 
#    6.261    0.000    0.000    0.000    0.000    0.000 
#    0.000    0.000    0.000    0.000    0.000    0.000 
#
# Total GULP energy -128232.957762 kJ/mol
# GULP energy per Si atom -5575.345990 kJ/mol
# Density = 1.863250 g / cm^3
# Si number density = 18.675008 Si / 1000 Ang^3
#
#
#
# Elastic Constant Matrix: (Units=GPa)
#
#
# Indices 1 2 3 4 5 6 
#
# 1 95.1078 70.8359 37.5784 0.0000 7.1696 0.0000
# 2 70.8359 170.4347 47.2038 0.0000 9.1660 0.0000
# 3 37.5784 47.2038 48.0061 0.0000 -0.0544 0.0000
# 4 0.0000 0.0000 0.0000 30.9836 0.0000 -20.7815
# 5 7.1696 9.1660 -0.0544 0.0000 9.1990 0.0000
# 6 0.0000 0.0000 0.0000 -20.7815 0.0000 26.0996
#
#
#
# Elastic Compliance Matrix: (Units=1/GPa)
#
#
# Indices 1 2 3 4 5 6 
#
# 1 0.018571 -0.004313 -0.010308 0.000000 -0.010238 0.000000
# 2 -0.004313 0.009714 -0.006183 0.000000 -0.006354 0.000000
# 3 -0.010308 -0.006183 0.034995 0.000000 0.014401 0.000000
# 4 0.000000 0.000000 0.000000 0.069268 0.000000 0.055154
# 5 -0.010238 -0.006354 0.014401 0.000000 0.123104 0.000000
# 6 0.000000 0.000000 0.000000 0.055154 0.000000 0.082231
#
#
# Mechanical properties :
#
#
# Convention : Reuss Voigt Hill
#
# Bulk Modulus (GPa) = 46.13992 69.42054 57.78023
# Shear Modulus (GPa) = 12.92942 23.78514 18.35728
#
# Velocity S-wave (km/s) = 2.63409 3.57267 3.13866
# Velocity P-wave (km/s) = 5.83195 7.36698 6.64394
#
# Compressibility (1/GPa) = 0.02167321
#
# Stress axis : x y z
#
# Youngs Moduli (GPa) = 53.84645 102.94366 28.57536
#
# Poissons Ratio (x) = 0.44401 0.29455
# Poissons Ratio (y) = 0.23225 0.17667
# Poissons Ratio (z) = 0.55504 0.63646
#
# Static dielectric constant tensor:
#      x y z
#    x 1.597230 0.000000 0.009190 
#    y 0.000000 1.653150 0.000000 
#    z 0.009190 0.000000 1.653590 
# 
# From -- ./inp_files/134109.got.cif
#   From: 2010.05.17/outbox.cif.g08.bks.cpg/sg12_68_cif.got.tgz:134109.got - 2010.06.03 13:09:07.
