data_PCOD9204646
_publ_section_title
;
Structure prediction by ZEFSAII (Michael W. Deem and Ramdas Pophale) SiO2 
 PCOD9204646
Probable space group: C 2/M
;
_chemical_formula_sum "Si O2"
_cell_formula_units_Z 44
_cell_length_a 10.794202
_cell_length_b 28.189019
_cell_length_c 7.642880
_cell_angle_alpha 90.000000
_cell_angle_beta 100.376956
_cell_angle_gamma 90.000000
_cell_volume 2287.523104
_symmetry_space_group_name_H-M "C 2/M"
_symmetry_group_IT_number 12
_symmetry_cell_setting 'monoclinic'
loop_
_space_group_symop_operation_xyz
x,y,z
-x,y,-z
-x,-y,-z
x,-y,z
1/2+x,1/2+y,z
1/2-x,1/2+y,-z
1/2-x,1/2-y,-z
1/2+x,1/2-y,z
loop_
_atom_site_type_symbol
_atom_site_label
_atom_site_fract_x
_atom_site_fract_y
_atom_site_fract_z
Si Si1 0.076304 0.301593 0.699396
Si Si2 0.647699 0.142888 0.222461
Si Si3 0.902348 0.807409 0.314646
Si Si4 0.997127 0.447023 0.212971
Si Si5 0.500000 0.363712 0.000000
Si Si6 0.730893 0.114725 0.851696
O O1 0.119833 0.247919 0.735110
O O2 0.190871 0.338601 0.733576
O O3 0.000000 0.304133 0.500000
O O4 0.968173 0.320487 0.802618
O O5 0.771682 0.167081 0.331664
O O6 0.593727 0.094426 0.293673
O O7 0.686511 0.128494 0.036577
O O8 0.000000 0.810391 0.500000
O O9 0.955581 0.832073 0.153104
O O10 0.024687 0.500000 0.282274
O O11 0.858057 0.428498 0.227555
O O12 0.000000 0.448257 0.000000
O O13 0.379268 0.392936 0.901670
#
# Coordination Sequence:
#
# PCOD9204646 Si02
#       6
#     8   8   8   8   4   8
#     4  10  21  31  51  75 102 142 181 218 254 304
#     4   9  19  34  50  76 106 135 176 221 259 312
#     4  10  23  34  51  77 108 146 183 212 257 319
#     4   8  14  30  57  79  99 129 171 223 267 310
#     4  10  22  34  53  74 108 150 169 218 266 306
#     4   9  19  34  50  77 106 135 180 213 261 319
#
# _framework density 19.234777999999999
#
# number of rings (size 3 to 8) (size 9 to 14) (size 15 to 20)
#    0.000    2.727    0.000    1.636    7.636    2.909 
#    0.000    0.455    0.000   10.364    0.000    0.000 
#    0.000    0.000    0.000    0.000    0.000    0.000 
#
# Total GULP energy -122639.039648 kJ/mol
# GULP energy per Si atom -5574.501802 kJ/mol
# Density = 1.919100 g / cm^3
# Si number density = 19.234778 Si / 1000 Ang^3
#
#
#
# Elastic Constant Matrix: (Units=GPa)
#
#
# Indices 1 2 3 4 5 6 
#
# 1 132.8901 67.2705 15.8804 0.0000 21.5776 0.0000
# 2 67.2705 144.3941 14.4338 0.0000 19.2624 0.0000
# 3 15.8804 14.4338 35.4122 0.0000 -2.9279 0.0000
# 4 0.0000 0.0000 0.0000 78.6784 0.0000 1.2595
# 5 21.5776 19.2624 -2.9279 0.0000 23.9971 0.0000
# 6 0.0000 0.0000 0.0000 1.2595 0.0000 9.2868
#
#
#
# Elastic Compliance Matrix: (Units=1/GPa)
#
#
# Indices 1 2 3 4 5 6 
#
# 1 0.011142 -0.003787 -0.004071 0.000000 -0.007476 0.000000
# 2 -0.003787 0.009558 -0.002577 0.000000 -0.004582 0.000000
# 3 -0.004071 -0.002577 0.031910 0.000000 0.009623 0.000000
# 4 0.000000 0.000000 0.000000 0.012738 0.000000 -0.001727
# 5 -0.007476 -0.004582 0.009623 0.000000 0.053246 0.000000
# 6 0.000000 0.000000 0.000000 -0.001727 0.000000 0.107914
#
#
# Mechanical properties :
#
#
# Convention : Reuss Voigt Hill
#
# Bulk Modulus (GPa) = 31.50432 56.42953 43.96693
# Shear Modulus (GPa) = 19.38291 36.73324 28.05807
#
# Velocity S-wave (km/s) = 3.17787 4.37479 3.82346
# Velocity P-wave (km/s) = 5.46622 7.41075 6.51148
#
# Compressibility (1/GPa) = 0.03174168
#
# Stress axis : x y z
#
# Youngs Moduli (GPa) = 89.74790 104.61938 31.33770
#
# Poissons Ratio (x) = 0.39616 0.12759
# Poissons Ratio (y) = 0.33985 0.08075
# Poissons Ratio (z) = 0.36540 0.26957
#
# Static dielectric constant tensor:
#      x y z
#    x 1.692770 0.000000 -0.013190 
#    y 0.000000 1.666210 0.000000 
#    z -0.013190 0.000000 1.729790 
# 
# From -- ./inp_files/41738.got.cif
#   From: 2010.05.17/outbox.cif.g08.bks.cpg/sg12_21_cif.got.tgz:41738.got - 2010.06.03 13:09:07.
