data_PCOD9204559
_publ_section_title
;
Structure prediction by ZEFSAII (Michael W. Deem and Ramdas Pophale) SiO2 
 PCOD9204559
Probable space group: C 2/M
;
_chemical_formula_sum "Si O2"
_cell_formula_units_Z 40
_cell_length_a 9.366749
_cell_length_b 26.434732
_cell_length_c 13.934714
_cell_angle_alpha 90.000000
_cell_angle_beta 37.762413
_cell_angle_gamma 90.000000
_cell_volume 2112.948578
_symmetry_space_group_name_H-M "C 2/M"
_symmetry_group_IT_number 12
_symmetry_cell_setting 'monoclinic'
loop_
_space_group_symop_operation_xyz
x,y,z
-x,y,-z
-x,-y,-z
x,-y,z
1/2+x,1/2+y,z
1/2-x,1/2+y,-z
1/2-x,1/2-y,-z
1/2+x,1/2-y,z
loop_
_atom_site_type_symbol
_atom_site_label
_atom_site_fract_x
_atom_site_fract_y
_atom_site_fract_z
Si Si1 0.728219 0.204607 0.141035
Si Si2 0.545130 0.856744 0.864028
Si Si3 0.064963 0.639975 0.574791
Si Si4 0.995790 0.789423 0.611494
Si Si5 0.779640 0.440761 0.364751
O O1 0.662876 0.159177 0.247802
O O2 0.584056 0.251478 0.261956
O O3 0.637717 0.182470 0.087913
O O4 0.000000 0.216677 0.000000
O O5 0.206151 0.830839 0.286026
O O6 0.500000 0.862715 0.000000
O O7 0.573813 0.909838 0.793392
O O8 0.266031 0.681879 0.489011
O O9 0.154345 0.587986 0.572577
O O10 0.000000 0.636034 0.500000
O O11 0.000000 0.766995 0.500000
O O12 0.500000 0.435296 0.500000
O O13 0.834114 0.500000 0.335667
#
# Coordination Sequence:
#
# PCOD9204559 Si02
#       5
#     8   8   8   8   8
#     4  11  26  39  57  92 128 169 203 251 303 363
#     4  11  24  41  63  89 129 162 203 257 303 366
#     4  11  23  40  63  90 125 163 203 261 309 357
#     4  12  22  43  61  87 120 171 216 246 297 360
#     4  10  20  42  70  93 117 156 210 260 311 367
#
# _framework density 18.930892
#
# number of rings (size 3 to 8) (size 9 to 14) (size 15 to 20)
#    0.000    1.000    6.000    1.800    5.600    2.400 
#    0.000    0.000    0.000    9.600    0.000    0.000 
#    0.000    0.000    0.000    0.000    0.000    0.000 
#
# Total GULP energy -111701.608628 kJ/mol
# GULP energy per Si atom -5585.080431 kJ/mol
# Density = 1.888780 g / cm^3
# Si number density = 18.930892 Si / 1000 Ang^3
#
#
#
# Elastic Constant Matrix: (Units=GPa)
#
#
# Indices 1 2 3 4 5 6 
#
# 1 131.0113 57.5680 61.4782 0.0000 29.0297 0.0000
# 2 57.5680 136.2379 40.3267 0.0000 8.3166 0.0000
# 3 61.4782 40.3267 92.9545 0.0000 9.9457 0.0000
# 4 0.0000 0.0000 0.0000 26.8098 0.0000 10.1657
# 5 29.0297 8.3166 9.9457 0.0000 40.8258 0.0000
# 6 0.0000 0.0000 0.0000 10.1657 0.0000 3.8254
#
#
#
# Elastic Compliance Matrix: (Units=1/GPa)
#
#
# Indices 1 2 3 4 5 6 
#
# 1 0.014136 -0.003421 -0.007048 0.000000 -0.007638 0.000000
# 2 -0.003421 0.009278 -0.001869 0.000000 0.000998 0.000000
# 3 -0.007048 -0.001869 0.016072 0.000000 0.001477 0.000000
# 4 0.000000 0.000000 0.000000 -4.880816 0.000000 12.970468
# 5 -0.007638 0.000998 0.001477 0.000000 0.029362 0.000000
# 6 0.000000 0.000000 0.000000 12.970468 0.000000-34.206804
#
#
# Mechanical properties :
#
#
# Convention : Reuss Voigt Hill
#
# Bulk Modulus (GPa) = 67.52238 75.43884 71.48061
# Shear Modulus (GPa) = -0.12824 27.68093 13.77634
#
# Velocity S-wave (km/s) = -0.26055 3.82803 2.70055
# Velocity P-wave (km/s) = 5.97116 7.71197 6.89671
#
# Compressibility (1/GPa) = 0.01480990
#
# Stress axis : x y z
#
# Youngs Moduli (GPa) = 70.74337 107.78201 62.21901
#
# Poissons Ratio (x) = 0.36869 0.43851
# Poissons Ratio (y) = 0.24199 0.11632
# Poissons Ratio (z) = 0.49859 0.20150
#
# Static dielectric constant tensor:
#      x y z
#    x 1.685490 0.000000 0.014720 
#    y 0.000000 1.662680 0.000000 
#    z 0.014720 0.000000 1.656720 
# 
# From -- ./inp_files/124983.got.cif
#   From: 2010.05.17/outbox.cif.g08.bks.cpg/sg12_63_cif.got.tgz:124983.got - 2010.06.03 13:09:07.
