data_PCOD9204241
_publ_section_title
;
Structure prediction by ZEFSAII (Michael W. Deem and Ramdas Pophale) SiO2 
 PCOD9204241
Probable space group: C 2/M
;
_chemical_formula_sum "Si O2"
_cell_formula_units_Z 28
_cell_length_a 15.357349
_cell_length_b 8.743465
_cell_length_c 14.695506
_cell_angle_alpha 90.000000
_cell_angle_beta 37.935928
_cell_angle_gamma 90.000000
_cell_volume 1213.120726
_symmetry_space_group_name_H-M "C 2/M"
_symmetry_group_IT_number 12
_symmetry_cell_setting 'monoclinic'
loop_
_space_group_symop_operation_xyz
x,y,z
-x,y,-z
-x,-y,-z
x,-y,z
1/2+x,1/2+y,z
1/2-x,1/2+y,-z
1/2-x,1/2-y,-z
1/2+x,1/2-y,z
loop_
_atom_site_type_symbol
_atom_site_label
_atom_site_fract_x
_atom_site_fract_y
_atom_site_fract_z
Si Si1 0.724151 0.670259 0.117654
Si Si2 0.550385 0.177630 0.598251
Si Si3 0.000000 0.735370 0.000000
Si Si4 0.175224 0.679952 0.699559
O O1 0.668259 0.500000 0.148606
O O2 0.609082 0.762473 0.270270
O O3 0.750000 0.750000 0.000000
O O4 0.873197 0.661952 0.046288
O O5 0.661934 0.274574 0.448404
O O6 0.601414 0.191617 0.661712
O O7 0.558377 0.000000 0.566342
O O8 0.095884 0.791941 0.835944
O O9 0.163033 0.500000 0.737936
#
# Coordination Sequence:
#
# PCOD9204241 Si02
#       4
#     8   8   4   8
#     4  12  24  43  69  99 134 175 221 273 332 392
#     4  10  22  42  66  95 135 176 218 270 331 393
#     4  12  25  44  71 100 131 174 229 274 321 400
#     4  10  20  40  68  96 128 173 225 270 321 393
#
# _framework density 23.080969
#
# number of rings (size 3 to 8) (size 9 to 14) (size 15 to 20)
#    0.000    1.143    2.857    4.286    0.000    2.286 
#    0.000   10.714    0.000    0.000    0.000    0.000 
#    0.000    0.000    0.000    0.000    0.000    0.000 
#
# Total GULP energy -78120.144835 kJ/mol
# GULP energy per Si atom -5580.010345 kJ/mol
# Density = 2.302844 g / cm^3
# Si number density = 23.080969 Si / 1000 Ang^3
#
#
#
# Elastic Constant Matrix: (Units=GPa)
#
#
# Indices 1 2 3 4 5 6 
#
# 1 103.6686 27.4776 42.3789 0.0000 -6.0790 0.0000
# 2 27.4776 62.0690 18.9685 0.0000 -8.2584 0.0000
# 3 42.3789 18.9685 175.5174 0.0000 -17.9467 0.0000
# 4 0.0000 0.0000 0.0000 17.2515 0.0000 -2.5890
# 5 -6.0790 -8.2584 -17.9467 0.0000 51.0386 0.0000
# 6 0.0000 0.0000 0.0000 -2.5890 0.0000 -0.1104
#
#
#
# Elastic Compliance Matrix: (Units=1/GPa)
#
#
# Indices 1 2 3 4 5 6 
#
# 1 0.011808 -0.004522 -0.002379 0.000000 -0.000162 0.000000
# 2 -0.004522 0.018621 -0.000693 0.000000 0.002231 0.000000
# 3 -0.002379 -0.000693 0.006541 0.000000 0.001905 0.000000
# 4 0.000000 0.000000 0.000000 0.012822 0.000000 -0.300807
# 5 -0.000162 0.002231 0.001905 0.000000 0.020605 0.000000
# 6 0.000000 0.000000 0.000000 -0.300807 0.000000 -2.004370
#
#
# Mechanical properties :
#
#
# Convention : Reuss Voigt Hill
#
# Bulk Modulus (GPa) = 45.90493 57.65612 51.78052
# Shear Modulus (GPa) = -2.61571 30.46463 13.92446
#
# Velocity S-wave (km/s) = -1.06571 3.63699 2.45886
# Velocity P-wave (km/s) = 4.29156 6.53231 5.52669
#
# Compressibility (1/GPa) = 0.02178415
#
# Stress axis : x y z
#
# Youngs Moduli (GPa) = 84.69147 53.70192 152.87203
#
# Poissons Ratio (x) = 0.24282 0.36366
# Poissons Ratio (y) = 0.38295 0.10587
# Poissons Ratio (z) = 0.20147 0.03719
#
# Static dielectric constant tensor:
#      x y z
#    x 1.865340 0.000000 0.030880 
#    y 0.000000 1.808130 0.000000 
#    z 0.030880 0.000000 1.882200 
# 
# From -- ./inp_files/211128.got.cif
#   From: 2010.05.17/outbox.cif.g08.bks.cpg/sg12_106_cif.got.tgz:211128.got - 2010.06.03 13:09:07.
