data_PCOD9204250
_publ_section_title
;
Structure prediction by ZEFSAII (Michael W. Deem and Ramdas Pophale) SiO2 
 PCOD9204250
Probable space group: C 2/M
;
_chemical_formula_sum "Si O2"
_cell_formula_units_Z 52
_cell_length_a 13.335088
_cell_length_b 26.311571
_cell_length_c 8.812287
_cell_angle_alpha 90.000000
_cell_angle_beta 46.282853
_cell_angle_gamma 90.000000
_cell_volume 2234.732881
_symmetry_space_group_name_H-M "C 2/M"
_symmetry_group_IT_number 12
_symmetry_cell_setting 'monoclinic'
loop_
_space_group_symop_operation_xyz
x,y,z
-x,y,-z
-x,-y,-z
x,-y,z
1/2+x,1/2+y,z
1/2-x,1/2+y,-z
1/2-x,1/2-y,-z
1/2+x,1/2-y,z
loop_
_atom_site_type_symbol
_atom_site_label
_atom_site_fract_x
_atom_site_fract_y
_atom_site_fract_z
Si Si1 0.540864 0.500000 0.635061
Si Si2 0.532069 0.224793 0.288024
Si Si3 0.745779 0.817486 0.429647
Si Si4 0.265881 0.500000 0.116441
Si Si5 0.816112 0.820105 0.017232
Si Si6 0.631909 0.924551 0.468548
Si Si7 0.462283 0.614900 0.362936
Si Si8 0.996159 0.500000 0.182634
O O1 0.500000 0.500000 0.500000
O O2 0.597242 0.557729 0.603258
O O3 0.406744 0.500000 0.880569
O O4 0.500000 0.228407 0.500000
O O5 0.377416 0.218465 0.380260
O O6 0.606137 0.275285 0.153026
O O7 0.652527 0.181830 0.141914
O O8 0.658074 0.866513 0.467382
O O9 0.851139 0.841625 0.438533
O O10 0.820284 0.805309 0.191560
O O11 0.249162 0.452694 0.248541
O O12 0.143858 0.500000 0.116027
O O13 0.901531 0.870432 0.880086
O O14 0.500000 0.932336 0.500000
O O15 0.590590 0.952313 0.665549
O O16 0.500000 0.617897 0.500000
O O17 0.000000 0.500000 0.000000
#
# Coordination Sequence:
#
# PCOD9204250 Si02
#       8
#     4   8   8   4   8   8   8   4
#     4  10  23  40  59  84 119 170 222 270 323 376
#     4   9  20  39  68 100 130 163 206 263 325 385
#     4  11  22  39  65  93 124 167 212 259 316 387
#     4   9  18  34  57  82 119 163 206 261 319 376
#     4  10  20  40  68  98 128 163 208 263 321 386
#     4   9  18  35  58  89 122 157 205 259 318 384
#     4  11  25  43  62  89 129 170 216 271 326 383
#     4   9  19  32  55  88 122 161 206 259 317 382
#
# _framework density 23.269000999999999
#
# number of rings (size 3 to 8) (size 9 to 14) (size 15 to 20)
#    0.000    2.154    0.000    4.154    0.000    5.538 
#    0.000    6.154    0.000    0.923    0.000    0.000 
#    0.000    0.000    0.000    0.000    0.000    0.000 
#
# Total GULP energy -145188.849836 kJ/mol
# GULP energy per Si atom -5584.186532 kJ/mol
# Density = 2.321604 g / cm^3
# Si number density = 23.269001 Si / 1000 Ang^3
#
#
#
# Elastic Constant Matrix: (Units=GPa)
#
#
# Indices 1 2 3 4 5 6 
#
# 1 114.7344 11.8413 53.2602 0.0000 -7.7220 0.0000
# 2 11.8413 50.7665 28.4848 0.0000 -5.1316 0.0000
# 3 53.2602 28.4848 135.1149 0.0000 3.6144 0.0000
# 4 0.0000 0.0000 0.0000 38.0022 0.0000 -17.3452
# 5 -7.7220 -5.1316 3.6144 0.0000 40.7041 0.0000
# 6 0.0000 0.0000 0.0000 -17.3452 0.0000 -21.9854
#
#
#
# Elastic Compliance Matrix: (Units=1/GPa)
#
#
# Indices 1 2 3 4 5 6 
#
# 1 0.010909 0.000178 -0.004404 0.000000 0.002483 0.000000
# 2 0.000178 0.022779 -0.004962 0.000000 0.003346 0.000000
# 3 -0.004404 -0.004962 0.010247 0.000000 -0.002371 0.000000
# 4 0.000000 0.000000 0.000000 0.019347 0.000000 -0.015264
# 5 0.002483 0.003346 -0.002371 0.000000 0.025671 0.000000
# 6 0.000000 0.000000 0.000000 -0.015264 0.000000 -0.033442
#
#
# Mechanical properties :
#
#
# Convention : Reuss Voigt Hill
#
# Bulk Modulus (GPa) = 39.12673 54.19870 46.66271
# Shear Modulus (GPa) = 60.67533 25.14616 42.91075
#
# Velocity S-wave (km/s) = 5.11197 3.29092 4.29898
# Velocity P-wave (km/s) = 7.18988 6.14679 6.68870
#
# Compressibility (1/GPa) = 0.02555798
#
# Stress axis : x y z
#
# Youngs Moduli (GPa) = 91.66813 43.90046 97.59404
#
# Poissons Ratio (x) = -0.00779 0.42980
# Poissons Ratio (y) = -0.01627 0.48423
# Poissons Ratio (z) = 0.40370 0.21782
#
# Static dielectric constant tensor:
#      x y z
#    x 1.968180 0.000000 -0.038230 
#    y 0.000000 1.956780 0.000000 
#    z -0.038230 0.000000 1.874340 
# 
# From -- ./inp_files/68564.got.cif
#   From: 2010.05.17/outbox.cif.g08.bks.cpg/sg12_35_cif.got.tgz:68564.got - 2010.06.03 13:09:07.
