data_PCOD9204668
_publ_section_title
;
Structure prediction by ZEFSAII (Michael W. Deem and Ramdas Pophale) SiO2 
 PCOD9204668
Probable space group: C 2/M
;
_chemical_formula_sum "Si O2"
_cell_formula_units_Z 40
_cell_length_a 29.195330
_cell_length_b 15.024550
_cell_length_c 5.226631
_cell_angle_alpha 90.000000
_cell_angle_beta 71.994964
_cell_angle_gamma 90.000000
_cell_volume 2180.372132
_symmetry_space_group_name_H-M "C 2/M"
_symmetry_group_IT_number 12
_symmetry_cell_setting 'monoclinic'
loop_
_space_group_symop_operation_xyz
x,y,z
-x,y,-z
-x,-y,-z
x,-y,z
1/2+x,1/2+y,z
1/2-x,1/2+y,-z
1/2-x,1/2-y,-z
1/2+x,1/2-y,z
loop_
_atom_site_type_symbol
_atom_site_label
_atom_site_fract_x
_atom_site_fract_y
_atom_site_fract_z
Si Si1 0.270673 0.650679 0.003900
Si Si2 0.782225 0.597285 0.393816
Si Si3 0.852207 0.260456 0.033049
Si Si4 0.404316 0.100296 0.637479
Si Si5 0.446087 0.822452 0.052541
O O1 0.243213 0.607991 0.290106
O O2 0.250000 0.750000 0.000000
O O3 0.257822 0.603073 0.761944
O O4 0.325406 0.672216 0.988859
O O5 0.806370 0.500000 0.335409
O O6 0.818630 0.678704 0.275002
O O7 0.070975 0.377240 0.671684
O O8 0.904374 0.249482 0.072734
O O9 0.363222 0.172404 0.777138
O O10 0.385973 0.000000 0.673870
O O11 0.441507 0.116220 0.807592
O O12 0.500000 0.789798 0.000000
#
# Coordination Sequence:
#
# PCOD9204668 Si02
#       5
#     8   8   8   8   8
#     4  10  21  36  54  73 103 137 173 210 259 301
#     4  11  22  35  53  78 105 134 174 214 252 303
#     4   9  22  34  53  72 102 137 173 206 251 298
#     4  10  21  32  47  68  98 136 173 209 244 282
#     4  10  22  34  48  70 100 133 173 211 245 291
#
# _framework density 18.345493000000001
#
# number of rings (size 3 to 8) (size 9 to 14) (size 15 to 20)
#    1.200    0.800    0.000    4.800    8.400    2.400 
#    0.000    0.000    0.000    0.000    0.000    0.000 
#    0.000    4.800    0.000    0.000    0.000    0.000 
#
# Total GULP energy -111430.765075 kJ/mol
# GULP energy per Si atom -5571.538254 kJ/mol
# Density = 1.830374 g / cm^3
# Si number density = 18.345493 Si / 1000 Ang^3
#
#
#
# Elastic Constant Matrix: (Units=GPa)
#
#
# Indices 1 2 3 4 5 6 
#
# 1 116.0482 11.4755 37.4555 0.0000 -0.4898 0.0000
# 2 11.4755 22.7555 3.3290 0.0000 0.4771 0.0000
# 3 37.4555 3.3290 83.1200 0.0000 26.9070 0.0000
# 4 0.0000 0.0000 0.0000 22.3210 0.0000 -5.2612
# 5 -0.4898 0.4771 26.9070 0.0000 31.2416 0.0000
# 6 0.0000 0.0000 0.0000 -5.2612 0.0000 2.1460
#
#
#
# Elastic Compliance Matrix: (Units=1/GPa)
#
#
# Indices 1 2 3 4 5 6 
#
# 1 0.011364 -0.004846 -0.006944 0.000000 0.006233 0.000000
# 2 -0.004846 0.046302 0.000808 0.000000 -0.001479 0.000000
# 3 -0.006944 0.000808 0.021030 0.000000 -0.018234 0.000000
# 4 0.000000 0.000000 0.000000 0.106133 0.000000 0.260205
# 5 0.006233 -0.001479 -0.018234 0.000000 0.047833 0.000000
# 6 0.000000 0.000000 0.000000 0.260205 0.000000 1.103934
#
#
# Mechanical properties :
#
#
# Convention : Reuss Voigt Hill
#
# Bulk Modulus (GPa) = 17.62692 36.27152 26.94922
# Shear Modulus (GPa) = 3.62984 22.45263 13.04124
#
# Velocity S-wave (km/s) = 1.40815 3.50219 2.66910
# Velocity P-wave (km/s) = 3.50329 6.01399 4.92144
#
# Compressibility (1/GPa) = 0.05673140
#
# Stress axis : x y z
#
# Youngs Moduli (GPa) = 87.99747 21.59742 47.55068
#
# Poissons Ratio (x) = 0.10465 0.33022
# Poissons Ratio (y) = 0.42639 -0.03841
# Poissons Ratio (z) = 0.61110 -0.01744
#
# Static dielectric constant tensor:
#      x y z
#    x 1.738310 0.000000 0.015840 
#    y 0.000000 1.620010 0.000000 
#    z 0.015840 0.000000 1.649270 
# 
# From -- ./inp_files/31048.got.cif
#   From: 2010.05.17/outbox.cif.g08.bks.cpg/sg12_16_cif.got.tgz:31048.got - 2010.06.03 13:09:07.
