data_PCOD9204420
_publ_section_title
;
Structure prediction by ZEFSAII (Michael W. Deem and Ramdas Pophale) SiO2 
 PCOD9204420
Probable space group: C 2/M
;
_chemical_formula_sum "Si O2"
_cell_formula_units_Z 40
_cell_length_a 12.301685
_cell_length_b 22.941623
_cell_length_c 10.947454
_cell_angle_alpha 90.000000
_cell_angle_beta 36.513205
_cell_angle_gamma 90.000000
_cell_volume 1838.335193
_symmetry_space_group_name_H-M "C 2/M"
_symmetry_group_IT_number 12
_symmetry_cell_setting 'monoclinic'
loop_
_space_group_symop_operation_xyz
x,y,z
-x,y,-z
-x,-y,-z
x,-y,z
1/2+x,1/2+y,z
1/2-x,1/2+y,-z
1/2-x,1/2-y,-z
1/2+x,1/2-y,z
loop_
_atom_site_type_symbol
_atom_site_label
_atom_site_fract_x
_atom_site_fract_y
_atom_site_fract_z
Si Si1 0.365849 0.936590 0.240633
Si Si2 0.777986 0.675022 0.207798
Si Si3 0.736068 0.713136 0.635941
Si Si4 0.018580 0.391573 0.352664
Si Si5 0.326557 0.684892 0.961234
O O1 0.247049 0.878189 0.328833
O O2 0.472570 0.927363 0.271791
O O3 0.273854 0.000000 0.326273
O O4 0.500000 0.937116 0.000000
O O5 0.715433 0.738768 0.306179
O O6 0.690198 0.657832 0.158951
O O7 0.000000 0.681140 0.000000
O O8 0.750000 0.750000 0.500000
O O9 0.869977 0.659564 0.502363
O O10 0.528266 0.691811 0.830189
O O11 0.204535 0.355787 0.158076
O O12 0.000000 0.423707 0.500000
O O13 0.250000 0.750000 0.000000
#
# Coordination Sequence:
#
# PCOD9204420 Si02
#       5
#     8   8   8   8   8
#     4  10  20  41  68  89 118 164 219 266 304 364
#     4  11  19  36  60  89 124 164 211 247 308 374
#     4  12  23  35  58  95 133 164 199 252 320 382
#     4  12  25  39  61  96 125 164 208 252 321 380
#     4  12  21  37  57  85 131 169 197 251 302 376
#
# _framework density 21.758815999999999
#
# number of rings (size 3 to 8) (size 9 to 14) (size 15 to 20)
#    0.000    0.600   10.000    1.200    0.000    0.400 
#    0.000    0.000    0.000    3.600    0.000    2.800 
#    0.000    0.000    0.000    0.000    0.000    0.000 
#
# Total GULP energy -111722.019711 kJ/mol
# GULP energy per Si atom -5586.100986 kJ/mol
# Density = 2.170929 g / cm^3
# Si number density = 21.758816 Si / 1000 Ang^3
#
#
#
# Elastic Constant Matrix: (Units=GPa)
#
#
# Indices 1 2 3 4 5 6 
#
# 1 113.0602 17.8511 53.6159 0.0000 31.2729 0.0000
# 2 17.8511 93.4587 17.4060 0.0000 -2.3504 0.0000
# 3 53.6159 17.4060 95.7514 -0.0001 -0.7972 0.0000
# 4 0.0000 0.0000 -0.0001 3.7603 0.0000 -4.3396
# 5 31.2729 -2.3504 -0.7972 0.0000 54.0127 0.0000
# 6 0.0000 0.0000 0.0000 -4.3396 0.0000 6.1670
#
#
#
# Elastic Compliance Matrix: (Units=1/GPa)
#
#
# Indices 1 2 3 4 5 6 
#
# 1 0.015766 -0.001643 -0.008607 0.000000 -0.009327 0.000000
# 2 -0.001643 0.011257 -0.001115 0.000000 0.001425 0.000000
# 3 -0.008607 -0.001115 0.015509 0.000001 0.005164 0.000001
# 4 0.000000 0.000000 0.000001 1.415025 -0.000001 0.995716
# 5 -0.009327 0.001425 0.005164 -0.000001 0.024052 0.000000
# 6 0.000000 0.000000 0.000001 0.995716 0.000000 0.862812
#
#
# Mechanical properties :
#
#
# Convention : Reuss Voigt Hill
#
# Bulk Modulus (GPa) = 50.49813 53.33516 51.91664
# Shear Modulus (GPa) = 2.10637 27.01450 14.56044
#
# Velocity S-wave (km/s) = 0.98496 3.52738 2.58965
# Velocity P-wave (km/s) = 4.95500 6.41522 5.73180
#
# Compressibility (1/GPa) = 0.01980272
#
# Stress axis : x y z
#
# Youngs Moduli (GPa) = 63.42882 88.83270 64.47955
#
# Poissons Ratio (x) = 0.14594 0.55498
# Poissons Ratio (y) = 0.10421 0.07187
# Poissons Ratio (z) = 0.54593 0.09901
#
# Static dielectric constant tensor:
#      x y z
#    x 1.790750 0.000000 0.102650 
#    y 0.000000 1.804380 0.000000 
#    z 0.102650 0.000000 1.884100 
# 
# From -- ./inp_files/136471.got.cif
#   From: 2010.05.17/outbox.cif.g08.bks.cpg/sg12_69_cif.got.tgz:136471.got - 2010.06.03 13:09:07.
