data_PCOD9204191
_publ_section_title
;
Structure prediction by ZEFSAII (Michael W. Deem and Ramdas Pophale) SiO2 
 PCOD9204191
Probable space group: C 2/M
;
_chemical_formula_sum "Si O2"
_cell_formula_units_Z 40
_cell_length_a 17.867202
_cell_length_b 16.664994
_cell_length_c 10.691553
_cell_angle_alpha 90.000000
_cell_angle_beta 29.685515
_cell_angle_gamma 90.000000
_cell_volume 1576.584987
_symmetry_space_group_name_H-M "C 2/M"
_symmetry_group_IT_number 12
_symmetry_cell_setting 'monoclinic'
loop_
_space_group_symop_operation_xyz
x,y,z
-x,y,-z
-x,-y,-z
x,-y,z
1/2+x,1/2+y,z
1/2-x,1/2+y,-z
1/2-x,1/2-y,-z
1/2+x,1/2-y,z
loop_
_atom_site_type_symbol
_atom_site_label
_atom_site_fract_x
_atom_site_fract_y
_atom_site_fract_z
Si Si1 0.179441 0.000000 0.235024
Si Si2 0.124494 0.592821 0.709195
Si Si3 0.128505 0.146781 0.478171
Si Si4 0.964635 0.701049 0.749753
Si Si5 0.679249 0.000000 0.247142
Si Si6 0.806691 0.154089 0.041525
O O1 0.209057 0.916274 0.267950
O O2 0.000000 0.000000 0.500000
O O3 0.266154 0.000000 0.978211
O O4 0.165088 0.500000 0.631366
O O5 0.270718 0.641447 0.544135
O O6 0.047320 0.631827 0.701810
O O7 0.000000 0.596353 0.000000
O O8 0.086901 0.239241 0.506518
O O9 0.956000 0.118123 0.754498
O O10 0.834210 0.673450 0.845149
O O11 0.881224 0.761020 0.970111
O O12 0.500000 0.000000 0.500000
O O13 0.746891 0.919398 0.209136
#
# Coordination Sequence:
#
# PCOD9204191 Si02
#       6
#     4   8   8   8   4   8
#     4  12  20  38  76 109 137 191 249 310 351 437
#     4  11  24  37  61 106 153 190 243 304 376 440
#     4  10  20  40  67 104 139 185 251 300 358 434
#     4   9  21  42  63 106 146 189 243 307 370 423
#     4  12  26  44  67 110 160 186 230 308 383 437
#     4   9  21  42  70 100 140 194 244 292 372 433
#
# _framework density 25.371293999999999
#
# number of rings (size 3 to 8) (size 9 to 14) (size 15 to 20)
#    1.200    0.600    3.000    0.600    4.200    0.000 
#    3.600    0.000    0.000    0.000    0.000    2.800 
#    0.000    0.000    0.000    0.000    0.000    0.000 
#
# Total GULP energy -111671.344245 kJ/mol
# GULP energy per Si atom -5583.567212 kJ/mol
# Density = 2.531355 g / cm^3
# Si number density = 25.371294 Si / 1000 Ang^3
#
#
#
# Elastic Constant Matrix: (Units=GPa)
#
#
# Indices 1 2 3 4 5 6 
#
# 1 107.9821 28.0197 36.8011 -0.0001 -36.3011 0.0000
# 2 28.0197 102.5667 21.2637 -0.0001 -10.9503 0.0001
# 3 36.8011 21.2637 146.3164 -0.0004 -9.5900 0.0002
# 4 -0.0001 -0.0001 -0.0004 -22.9254 0.0002 -15.4144
# 5 -36.3011 -10.9503 -9.5900 0.0002 33.4585 -0.0001
# 6 0.0000 0.0001 0.0002 -15.4144 -0.0001 40.1742
#
#
#
# Elastic Compliance Matrix: (Units=1/GPa)
#
#
# Indices 1 2 3 4 5 6 
#
# 1 0.016117 -0.002135 -0.002694 0.000000 0.016015 0.000000
# 2 -0.002135 0.010625 -0.000949 0.000000 0.000889 0.000000
# 3 -0.002694 -0.000949 0.007580 0.000000 -0.001060 0.000000
# 4 0.000000 0.000000 0.000000 -0.034674 0.000000 -0.013304
# 5 0.016015 0.000889 -0.001060 0.000000 0.047251 0.000000
# 6 0.000000 0.000000 0.000000 -0.013304 0.000000 0.019787
#
#
# Mechanical properties :
#
#
# Convention : Reuss Voigt Hill
#
# Bulk Modulus (GPa) = 43.92256 58.78159 51.35207
# Shear Modulus (GPa) = 58.25591 28.19353 43.22472
#
# Velocity S-wave (km/s) = 4.79700 3.33714 4.13205
# Velocity P-wave (km/s) = 6.93045 6.16989 6.56120
#
# Compressibility (1/GPa) = 0.02276734
#
# Stress axis : x y z
#
# Youngs Moduli (GPa) = 62.04765 94.12173 131.91888
#
# Poissons Ratio (x) = 0.20091 0.35535
# Poissons Ratio (y) = 0.13244 0.12517
# Poissons Ratio (z) = 0.16714 0.08931
#
# Static dielectric constant tensor:
#      x y z
#    x 1.976320 0.000000 0.071390 
#    y 0.000000 2.110600 0.000000 
#    z 0.071390 0.000000 2.050210 
# 
# From -- ./inp_files/168678.got.cif
#   From: 2010.05.17/outbox.cif.g08.bks.cpg/sg12_85_cif.got.tgz:168678.got - 2010.06.03 13:09:07.
