data_PCOD9204317
_publ_section_title
;
Structure prediction by ZEFSAII (Michael W. Deem and Ramdas Pophale) SiO2 
 PCOD9204317
Probable space group: C 2/M
;
_chemical_formula_sum "Si O2"
_cell_formula_units_Z 44
_cell_length_a 11.868127
_cell_length_b 27.757376
_cell_length_c 8.236545
_cell_angle_alpha 90.000000
_cell_angle_beta 127.708700
_cell_angle_gamma 90.000000
_cell_volume 2146.613660
_symmetry_space_group_name_H-M "C 2/M"
_symmetry_group_IT_number 12
_symmetry_cell_setting 'monoclinic'
loop_
_space_group_symop_operation_xyz
x,y,z
-x,y,-z
-x,-y,-z
x,-y,z
1/2+x,1/2+y,z
1/2-x,1/2+y,-z
1/2-x,1/2-y,-z
1/2+x,1/2-y,z
loop_
_atom_site_type_symbol
_atom_site_label
_atom_site_fract_x
_atom_site_fract_y
_atom_site_fract_z
Si Si1 0.540904 0.893907 0.208148
Si Si2 0.672967 0.166302 0.775299
Si Si3 0.962003 0.816504 0.157677
Si Si4 0.000000 0.248968 0.500000
Si Si5 0.541414 0.000000 0.774805
Si Si6 0.175733 0.898433 0.359586
Si Si7 0.743874 0.500000 0.309055
O O1 0.463641 0.860380 0.271888
O O2 0.474502 0.947937 0.155747
O O3 0.708731 0.896770 0.393615
O O4 0.500000 0.872548 0.000000
O O5 0.630967 0.214793 0.645520
O O6 0.746402 0.128870 0.719386
O O7 0.791672 0.179406 0.012692
O O8 0.014858 0.781344 0.346996
O O9 0.033742 0.868093 0.258962
O O10 0.000000 0.803928 0.000000
O O11 0.396923 0.000000 0.537857
O O12 0.693233 0.000000 0.816801
O O13 0.159204 0.952939 0.287342
#
# Coordination Sequence:
#
# PCOD9204317 Si02
#       7
#     8   8   8   4   4   8   4
#     4  11  21  34  62  94 129 159 208 256 310 369
#     4  11  22  43  61  92 121 163 211 257 313 377
#     4  10  26  43  64  91 127 161 213 261 316 377
#     4  12  24  44  70  84 126 170 216 262 318 364
#     4   9  17  32  57  93 123 166 199 252 305 368
#     4  10  20  41  62  92 123 164 204 258 307 374
#     4   9  16  32  68  85 124 166 203 245 311 371
#
# _framework density 20.497402000000001
#
# number of rings (size 3 to 8) (size 9 to 14) (size 15 to 20)
#    0.000    1.636    3.636    0.818    2.545    3.636 
#    0.000    5.000    0.000    0.545    0.000    0.000 
#    0.000    0.000    0.000    0.000    0.000    0.000 
#
# Total GULP energy -122682.773680 kJ/mol
# GULP energy per Si atom -5576.489713 kJ/mol
# Density = 2.045075 g / cm^3
# Si number density = 20.497402 Si / 1000 Ang^3
#
#
#
# Elastic Constant Matrix: (Units=GPa)
#
#
# Indices 1 2 3 4 5 6 
#
# 1 21.3482 29.6745 25.5982 0.0000 3.1166 0.0000
# 2 29.6745 146.9353 52.4744 0.0000 0.9011 0.0000
# 3 25.5982 52.4744 105.0423 0.0000 3.8210 0.0000
# 4 0.0000 0.0000 0.0000 26.8891 0.0000 -7.2690
# 5 3.1166 0.9011 3.8210 0.0000 32.6099 0.0000
# 6 0.0000 0.0000 0.0000 -7.2690 0.0000 -64.2151
#
#
#
# Elastic Compliance Matrix: (Units=1/GPa)
#
#
# Indices 1 2 3 4 5 6 
#
# 1 0.079484 -0.011166 -0.013585 0.000000 -0.005696 0.000000
# 2 -0.011166 0.009854 -0.002240 0.000000 0.001057 0.000000
# 3 -0.013585 -0.002240 0.013960 0.000000 -0.000275 0.000000
# 4 0.000000 0.000000 0.000000 0.036086 0.000000 -0.004085
# 5 -0.005696 0.001057 -0.000275 0.000000 0.031213 0.000000
# 6 0.000000 0.000000 0.000000 -0.004085 0.000000 -0.015110
#
#
# Mechanical properties :
#
#
# Convention : Reuss Voigt Hill
#
# Bulk Modulus (GPa) = 20.27724 54.31332 37.29528
# Shear Modulus (GPa) = 22.13311 10.09535 16.11423
#
# Velocity S-wave (km/s) = 3.28960 2.22168 2.80690
# Velocity P-wave (km/s) = 4.93383 5.75642 5.36092
#
# Compressibility (1/GPa) = 0.04931639
#
# Stress axis : x y z
#
# Youngs Moduli (GPa) = 12.58119 101.47888 71.63555
#
# Poissons Ratio (x) = 1.13310 0.97314
# Poissons Ratio (y) = 0.14048 0.16047
# Poissons Ratio (z) = 0.17091 0.22733
#
# Static dielectric constant tensor:
#      x y z
#    x 1.736920 0.000000 -0.014950 
#    y 0.000000 1.720630 0.000000 
#    z -0.014950 0.000000 1.805760 
# 
# From -- ./inp_files/53451.got.cif
#   From: 2010.05.17/outbox.cif.g08.bks.cpg/sg12_27_cif.got.tgz:53451.got - 2010.06.03 13:09:07.
