data_PCOD9204475
_publ_section_title
;
Structure prediction by ZEFSAII (Michael W. Deem and Ramdas Pophale) SiO2 
 PCOD9204475
Probable space group: C 2/M
;
_chemical_formula_sum "Si O2"
_cell_formula_units_Z 34
_cell_length_a 13.640419
_cell_length_b 22.578013
_cell_length_c 13.943765
_cell_angle_alpha 90.000000
_cell_angle_beta 159.405215
_cell_angle_gamma 90.000000
_cell_volume 1510.551552
_symmetry_space_group_name_H-M "C 2/M"
_symmetry_group_IT_number 12
_symmetry_cell_setting 'monoclinic'
loop_
_space_group_symop_operation_xyz
x,y,z
-x,y,-z
-x,-y,-z
x,-y,z
1/2+x,1/2+y,z
1/2-x,1/2+y,-z
1/2-x,1/2-y,-z
1/2+x,1/2-y,z
loop_
_atom_site_type_symbol
_atom_site_label
_atom_site_fract_x
_atom_site_fract_y
_atom_site_fract_z
Si Si1 0.114698 0.067292 0.336446
Si Si2 0.000000 0.710414 0.000000
Si Si3 0.721788 0.597082 0.788311
Si Si4 0.500000 0.000000 0.500000
Si Si5 0.000000 0.289186 0.500000
Si Si6 0.826699 0.392928 0.204060
O O1 0.922761 0.068023 0.253524
O O2 0.421000 0.091399 0.637765
O O3 0.147185 0.000000 0.327140
O O4 0.963835 0.105777 0.117155
O O5 0.825215 0.664186 0.905537
O O6 0.227352 0.748534 0.265195
O O7 0.500000 0.600242 0.500000
O O8 0.000000 0.567763 0.000000
O O9 0.342258 0.947034 0.292836
O O10 0.904648 0.332234 0.326919
#
# Coordination Sequence:
#
# PCOD9204475 Si02
#       6
#     8   4   8   2   4   8
#     4  12  23  41  62  96 130 156 203 259 303 370
#     4  10  20  44  63  87 116 172 206 266 290 366
#     4  10  22  41  67  85 125 163 209 252 317 354
#     4  10  20  42  60  86 128 170 186 242 302 366
#     4  11  22  41  66  86 125 166 211 242 316 364
#     4  11  24  38  62  95 125 164 204 246 306 372
#
# _framework density 22.508334000000001
#
# number of rings (size 3 to 8) (size 9 to 14) (size 15 to 20)
#    0.706    0.471    3.529    2.824    0.000    4.706 
#    0.000    7.059    0.000    0.000    0.000    0.000 
#    0.000    0.000    0.000    0.000    0.000    0.000 
#
# Total GULP energy -94752.337124 kJ/mol
# GULP energy per Si atom -5573.666890 kJ/mol
# Density = 2.245710 g / cm^3
# Si number density = 22.508334 Si / 1000 Ang^3
#
#
#
# Elastic Constant Matrix: (Units=GPa)
#
#
# Indices 1 2 3 4 5 6 
#
# 1 42.8107 -2.1535 12.9924 0.0023 14.6743 0.0010
# 2 -2.1535 104.8425 32.4776 -0.0015 -0.2478 0.0003
# 3 12.9924 32.4776 125.3458 0.0077 9.6223 0.0009
# 4 0.0023 -0.0015 0.0077 49.6425 0.0062 11.3240
# 5 14.6743 -0.2478 9.6223 0.0062 35.7720 0.0015
# 6 0.0010 0.0003 0.0009 11.3240 0.0015 18.2234
#
#
#
# Elastic Compliance Matrix: (Units=1/GPa)
#
#
# Indices 1 2 3 4 5 6 
#
# 1 0.027841 0.001288 -0.002393 0.000001 -0.010768 -0.000001
# 2 0.001288 0.010453 -0.002866 0.000001 0.000315 -0.000001
# 3 -0.002393 -0.002866 0.009082 -0.000001 -0.001481 0.000001
# 4 0.000001 0.000001 -0.000001 0.023471 -0.000003 -0.014585
# 5 -0.010768 0.000315 -0.001481 -0.000003 0.032773 0.000000
# 6 -0.000001 -0.000001 0.000001 -0.014585 0.000000 0.063938
#
#
# Mechanical properties :
#
#
# Convention : Reuss Voigt Hill
#
# Bulk Modulus (GPa) = 25.35911 39.95910 32.65910
# Shear Modulus (GPa) = 26.50491 36.03975 31.27233
#
# Velocity S-wave (km/s) = 3.43528 4.00581 3.73146
# Velocity P-wave (km/s) = 5.19864 6.25994 5.75382
#
# Compressibility (1/GPa) = 0.03943356
#
# Stress axis : x y z
#
# Youngs Moduli (GPa) = 35.91878 95.66485 110.10451
#
# Poissons Ratio (x) = -0.12318 0.26345
# Poissons Ratio (y) = -0.04625 0.31557
# Poissons Ratio (z) = 0.08594 0.27419
#
# Static dielectric constant tensor:
#      x y z
#    x 2.146960 0.000000 0.128990 
#    y 0.000000 1.841700 0.000000 
#    z 0.128990 0.000000 1.817280 
# 
# From -- ./inp_files/218630.got.cif
#   From: 2010.05.17/outbox.cif.g08.bks.cpg/sg12_110_cif.got.tgz:218630.got - 2010.06.03 13:09:07.
