data_PCOD9204811
_publ_section_title
;
Structure prediction by ZEFSAII (Michael W. Deem and Ramdas Pophale) SiO2 
 PCOD9204811
Probable space group: C 2/M
;
_chemical_formula_sum "Si O2"
_cell_formula_units_Z 48
_cell_length_a 15.055479
_cell_length_b 16.443175
_cell_length_c 24.668956
_cell_angle_alpha 90.000000
_cell_angle_beta 25.767433
_cell_angle_gamma 90.000000
_cell_volume 2654.849675
_symmetry_space_group_name_H-M "C 2/M"
_symmetry_group_IT_number 12
_symmetry_cell_setting 'monoclinic'
loop_
_space_group_symop_operation_xyz
x,y,z
-x,y,-z
-x,-y,-z
x,-y,z
1/2+x,1/2+y,z
1/2-x,1/2+y,-z
1/2-x,1/2-y,-z
1/2+x,1/2-y,z
loop_
_atom_site_type_symbol
_atom_site_label
_atom_site_fract_x
_atom_site_fract_y
_atom_site_fract_z
Si Si1 0.343289 0.329326 0.249163
Si Si2 0.701708 0.228240 0.824475
Si Si3 0.238916 0.500000 0.356496
Si Si4 0.500000 0.723922 0.500000
Si Si5 0.254120 0.824330 0.082309
Si Si6 0.756322 0.500000 0.132611
Si Si7 0.385543 0.500000 0.399720
Si Si8 0.874711 0.171419 0.454765
O O1 0.315183 0.309898 0.201345
O O2 0.303638 0.421339 0.287469
O O3 0.173672 0.278435 0.375788
O O4 0.570553 0.303711 0.143077
O O5 0.743042 0.232808 0.865796
O O6 0.895649 0.182063 0.693692
O O7 0.486830 0.181599 0.933904
O O8 0.330657 0.500000 0.366431
O O9 0.000000 0.500000 0.500000
O O10 0.391484 0.675708 0.510626
O O11 0.209311 0.915473 0.128109
O O12 0.633793 0.500000 0.256850
O O13 0.000000 0.500000 0.000000
O O14 0.306310 0.583163 0.470537
O O15 0.750000 0.250000 0.500000
#
# Coordination Sequence:
#
# PCOD9204811 Si02
#       8
#     8   8   4   4   8   4   4   8
#     4  11  21  36  55  83 113 150 192 236 290 338
#     4  10  21  33  56  81 112 151 179 237 283 345
#     4  12  22  36  55  84 113 148 196 247 285 339
#     4  10  22  36  56  80 120 154 188 235 284 355
#     4  11  19  36  55  84 114 141 192 232 290 341
#     4  12  18  32  59  85 111 139 181 249 288 328
#     4  12  22  37  60  86 112 153 192 243 295 338
#     4  11  22  38  57  86 118 156 195 234 296 347
#
# _framework density 18.080119
#
# number of rings (size 3 to 8) (size 9 to 14) (size 15 to 20)
#    0.000    1.000    5.833    2.500    2.333    0.333 
#    0.000    0.000    0.000    2.000    0.000   10.500 
#    0.000    0.000    0.000    0.000    0.000    0.000 
#
# Total GULP energy -133767.367594 kJ/mol
# GULP energy per Si atom -5573.640316 kJ/mol
# Density = 1.803897 g / cm^3
# Si number density = 18.080119 Si / 1000 Ang^3
#
#
#
# Elastic Constant Matrix: (Units=GPa)
#
#
# Indices 1 2 3 4 5 6 
#
# 1 95.9323 60.6885 14.9426 0.0020 5.9609 -0.0009
# 2 60.6885 132.3667 22.7868 0.0060 14.3984 -0.0036
# 3 14.9426 22.7868 81.1624 -0.0071 -9.8808 0.0066
# 4 0.0020 0.0060 -0.0071 23.6432 0.0007 3.7631
# 5 5.9609 14.3984 -9.8808 0.0007 29.5119 -0.0058
# 6 -0.0009 -0.0036 0.0066 3.7631 -0.0058 25.9994
#
#
#
# Elastic Compliance Matrix: (Units=1/GPa)
#
#
# Indices 1 2 3 4 5 6 
#
# 1 0.014739 -0.006604 -0.000865 0.000000 -0.000045 0.000000
# 2 -0.006604 0.011613 -0.002681 -0.000003 -0.005230 0.000001
# 3 -0.000865 -0.002681 0.013983 0.000005 0.006165 -0.000003
# 4 0.000000 -0.000003 0.000005 0.043293 0.000001 -0.006266
# 5 -0.000045 -0.005230 0.006165 0.000001 0.038509 0.000006
# 6 0.000000 0.000001 -0.000003 -0.006266 0.000006 0.039369
#
#
# Mechanical properties :
#
#
# Convention : Reuss Voigt Hill
#
# Bulk Modulus (GPa) = 49.91154 56.25523 53.08339
# Shear Modulus (GPa) = 26.52716 29.90047 28.21381
#
# Velocity S-wave (km/s) = 3.83456 4.07108 3.95459
# Velocity P-wave (km/s) = 6.87538 7.29933 7.09052
#
# Compressibility (1/GPa) = 0.02003544
#
# Stress axis : x y z
#
# Youngs Moduli (GPa) = 67.84552 86.10973 71.51302
#
# Poissons Ratio (x) = 0.56867 0.06185
# Poissons Ratio (y) = 0.44806 0.19174
# Poissons Ratio (z) = 0.05868 0.23088
#
# Static dielectric constant tensor:
#      x y z
#    x 1.669070 0.000000 -0.046430 
#    y 0.000000 1.629170 0.000000 
#    z -0.046430 0.000000 1.684380 
# 
# From -- ./inp_files/340117.got.cif
#   From: 2010.05.17/outbox.cif.g08.bks.cpg/sg12_171_cif.got.tgz:340117.got - 2010.06.03 13:09:07.
