data_PCOD9204595
_publ_section_title
;
Structure prediction by ZEFSAII (Michael W. Deem and Ramdas Pophale) SiO2 
 PCOD9204595
Probable space group: C 2/M
;
_chemical_formula_sum "Si O2"
_cell_formula_units_Z 40
_cell_length_a 9.712670
_cell_length_b 12.848623
_cell_length_c 30.875714
_cell_angle_alpha 90.000000
_cell_angle_beta 153.154658
_cell_angle_gamma 90.000000
_cell_volume 1740.005203
_symmetry_space_group_name_H-M "C 2/M"
_symmetry_group_IT_number 12
_symmetry_cell_setting 'monoclinic'
loop_
_space_group_symop_operation_xyz
x,y,z
-x,y,-z
-x,-y,-z
x,-y,z
1/2+x,1/2+y,z
1/2-x,1/2+y,-z
1/2-x,1/2-y,-z
1/2+x,1/2-y,z
loop_
_atom_site_type_symbol
_atom_site_label
_atom_site_fract_x
_atom_site_fract_y
_atom_site_fract_z
Si Si1 0.280593 0.320435 0.877417
Si Si2 0.558624 0.877846 0.911793
Si Si3 0.291013 0.774609 0.613233
Si Si4 0.695879 0.340011 0.670430
Si Si5 0.131515 0.500000 0.394622
Si Si6 0.682927 0.000000 0.505559
O O1 0.336101 0.202387 0.874908
O O2 0.144690 0.333116 0.887963
O O3 0.035054 0.373961 0.776610
O O4 0.614123 0.371573 0.971825
O O5 0.464170 0.000000 0.882448
O O6 0.553104 0.697015 0.674415
O O7 0.205297 0.749266 0.637932
O O8 0.000000 0.764819 0.500000
O O9 0.425960 0.891455 0.645976
O O10 0.428280 0.407897 0.575077
O O11 0.500000 0.500000 0.500000
O O12 0.018373 0.500000 0.412855
O O13 0.500000 0.000000 0.500000
#
# Coordination Sequence:
#
# PCOD9204595 Si02
#       6
#     8   8   8   8   4   4
#     4  10  22  42  67  99 131 170 219 272 326 406
#     4  10  22  45  71  95 138 177 208 270 350 392
#     4  11  22  40  60  83 124 171 203 262 322 365
#     4  12  24  39  64  93 123 161 221 263 312 384
#     4  10  20  44  58  78 123 171 205 251 330 372
#     4  12  26  40  62  93 123 170 221 263 316 390
#
# _framework density 22.988437000000001
#
# number of rings (size 3 to 8) (size 9 to 14) (size 15 to 20)
#    0.000    1.200    4.000    3.600    5.600    0.000 
#    1.800    9.000    0.000    0.000    0.000    0.000 
#    0.000    0.000    0.000    0.000    0.000    0.000 
#
# Total GULP energy -111441.646463 kJ/mol
# GULP energy per Si atom -5572.082323 kJ/mol
# Density = 2.293611 g / cm^3
# Si number density = 22.988437 Si / 1000 Ang^3
#
#
#
# Elastic Constant Matrix: (Units=GPa)
#
#
# Indices 1 2 3 4 5 6 
#
# 1 112.3174 23.9429 11.4311 0.0001 -1.4399 0.0000
# 2 23.9429 108.7601 -4.2539 -0.0003 10.1378 -0.0001
# 3 11.4311 -4.2539 101.1063 -0.0010 -9.8774 -0.0006
# 4 0.0001 -0.0003 -0.0010 -57.1779 -0.0001 -22.8892
# 5 -1.4399 10.1378 -9.8774 -0.0001 16.1891 0.0000
# 6 0.0000 -0.0001 -0.0006 -22.8892 0.0000 10.1189
#
#
#
# Elastic Compliance Matrix: (Units=1/GPa)
#
#
# Indices 1 2 3 4 5 6 
#
# 1 0.009515 -0.002289 -0.001010 0.000000 0.001664 0.000000
# 2 -0.002289 0.010319 0.000044 0.000000 -0.006638 0.000000
# 3 -0.001010 0.000044 0.010629 0.000000 0.006367 0.000000
# 4 0.000000 0.000000 0.000000 -0.009178 0.000000 -0.020761
# 5 0.001664 -0.006638 0.006367 0.000000 0.069960 0.000000
# 6 0.000000 0.000000 0.000000 -0.020761 0.000000 0.051862
#
#
# Mechanical properties :
#
#
# Convention : Reuss Voigt Hill
#
# Bulk Modulus (GPa) = 41.74634 42.71376 42.23005
# Shear Modulus (GPa) = 31.72578 13.23028 22.47803
#
# Velocity S-wave (km/s) = 3.71897 2.40160 3.13037
# Velocity P-wave (km/s) = 6.05311 5.12944 5.61031
#
# Compressibility (1/GPa) = 0.02395419
#
# Stress axis : x y z
#
# Youngs Moduli (GPa) = 105.09225 96.90798 94.08554
#
# Poissons Ratio (x) = 0.22186 0.09499
# Poissons Ratio (y) = 0.24059 -0.00418
# Poissons Ratio (z) = 0.10610 -0.00431
#
# Static dielectric constant tensor:
#      x y z
#    x 1.943880 0.000000 -0.049230 
#    y 0.000000 1.920600 0.000000 
#    z -0.049230 0.000000 1.886310 
# 
# From -- ./inp_files/372701.got.cif
#   From: 2010.05.17/outbox.cif.g08.bks.cpg/sg12_187_cif.got.tgz:372701.got - 2010.06.03 13:09:07.
