data_PCOD9204765
_publ_section_title
;
Structure prediction by ZEFSAII (Michael W. Deem and Ramdas Pophale) SiO2 
 PCOD9204765
Probable space group: C 2/M
;
_chemical_formula_sum "Si O2"
_cell_formula_units_Z 52
_cell_length_a 12.813370
_cell_length_b 28.798382
_cell_length_c 7.129766
_cell_angle_alpha 90.000000
_cell_angle_beta 71.675284
_cell_angle_gamma 90.000000
_cell_volume 2497.500653
_symmetry_space_group_name_H-M "C 2/M"
_symmetry_group_IT_number 12
_symmetry_cell_setting 'monoclinic'
loop_
_space_group_symop_operation_xyz
x,y,z
-x,y,-z
-x,-y,-z
x,-y,z
1/2+x,1/2+y,z
1/2-x,1/2+y,-z
1/2-x,1/2-y,-z
1/2+x,1/2-y,z
loop_
_atom_site_type_symbol
_atom_site_label
_atom_site_fract_x
_atom_site_fract_y
_atom_site_fract_z
Si Si1 0.370922 0.054407 0.074461
Si Si2 0.539610 0.201690 0.674997
Si Si3 0.225177 0.629231 0.600578
Si Si4 0.295201 0.795720 0.880259
Si Si5 0.000000 0.868100 0.000000
Si Si6 0.372906 0.304057 0.360314
Si Si7 0.738757 0.396376 0.857200
O O1 0.299530 0.084946 0.259281
O O2 0.366377 0.000000 0.121855
O O3 0.500000 0.068430 0.000000
O O4 0.314727 0.065068 0.906288
O O5 0.500000 0.180762 0.500000
O O6 0.628025 0.165850 0.698202
O O7 0.424739 0.206978 0.843071
O O8 0.584370 0.253419 0.615587
O O9 0.333841 0.662018 0.548950
O O10 0.231910 0.611439 0.378842
O O11 0.236471 0.794837 0.706888
O O12 0.263356 0.847884 0.952658
O O13 0.250000 0.750000 0.000000
O O14 0.038723 0.832724 0.812965
O O15 0.107827 0.900081 0.960517
#
# Coordination Sequence:
#
# PCOD9204765 Si02
#       7
#     8   8   8   8   4   8   8
#     4  11  26  44  68  96 119 156 208 266 329 377
#     4  12  20  33  53  82 123 168 205 242 298 357
#     4  10  23  41  60  89 124 164 205 259 312 373
#     4  10  21  33  51  84 119 167 204 242 294 352
#     4   8  18  40  59  90 124 174 209 248 310 362
#     4  10  21  34  55  85 129 164 210 243 293 363
#     4  10  21  42  65  89 128 163 210 256 312 373
#
# _framework density 20.820816000000001
#
# number of rings (size 3 to 8) (size 9 to 14) (size 15 to 20)
#    0.000    2.000    3.077    3.231    2.154    1.846 
#    1.385    4.231    0.000    4.615    0.000    0.000 
#    0.000    0.000    0.000    0.000    0.000    0.000 
#
# Total GULP energy -144933.304578 kJ/mol
# GULP energy per Si atom -5574.357868 kJ/mol
# Density = 2.077343 g / cm^3
# Si number density = 20.820816 Si / 1000 Ang^3
#
#
#
# Elastic Constant Matrix: (Units=GPa)
#
#
# Indices 1 2 3 4 5 6 
#
# 1 100.5866 20.8340 28.9969 0.0000 -24.2373 0.0000
# 2 20.8340 71.1480 24.9820 0.0000 -12.0500 0.0000
# 3 28.9969 24.9820 72.2768 0.0000 -19.0546 0.0000
# 4 0.0000 0.0000 0.0000 30.4740 0.0000 -0.0803
# 5 -24.2373 -12.0500 -19.0546 0.0000 35.0448 0.0000
# 6 0.0000 0.0000 0.0000 -0.0803 0.0000 25.1275
#
#
#
# Elastic Compliance Matrix: (Units=1/GPa)
#
#
# Indices 1 2 3 4 5 6 
#
# 1 0.012691 -0.001607 -0.002764 0.000000 0.006722 0.000000
# 2 -0.001607 0.016459 -0.004488 0.000000 0.002107 0.000000
# 3 -0.002764 -0.004488 0.018193 0.000000 0.006437 0.000000
# 4 0.000000 0.000000 0.000000 0.032815 0.000000 0.000105
# 5 0.006722 0.002107 0.006437 0.000000 0.037408 0.000000
# 6 0.000000 0.000000 0.000000 0.000105 0.000000 0.039797
#
#
# Mechanical properties :
#
#
# Convention : Reuss Voigt Hill
#
# Bulk Modulus (GPa) = 33.75714 43.73744 38.74729
# Shear Modulus (GPa) = 27.03324 29.40918 28.22121
#
# Velocity S-wave (km/s) = 3.60721 3.76239 3.68561
# Velocity P-wave (km/s) = 5.79635 6.31872 6.06316
#
# Compressibility (1/GPa) = 0.02962337
#
# Stress axis : x y z
#
# Youngs Moduli (GPa) = 78.79563 60.75780 54.96624
#
# Poissons Ratio (x) = 0.09766 0.15192
# Poissons Ratio (y) = 0.12665 0.24672
# Poissons Ratio (z) = 0.21778 0.27271
#
# Static dielectric constant tensor:
#      x y z
#    x 1.788810 0.000000 0.048690 
#    y 0.000000 1.711250 0.000000 
#    z 0.048690 0.000000 1.852070 
# 
# From -- ./inp_files/52522.got.cif
#   From: 2010.05.17/outbox.cif.g08.bks.cpg/sg12_27_cif.got.tgz:52522.got - 2010.06.03 13:09:07.
