data_PCOD9204540
_publ_section_title
;
Structure prediction by ZEFSAII (Michael W. Deem and Ramdas Pophale) SiO2 
 PCOD9204540
Probable space group: C 2/M
;
_chemical_formula_sum "Si O2"
_cell_formula_units_Z 64
_cell_length_a 14.250955
_cell_length_b 16.711712
_cell_length_c 11.546277
_cell_angle_alpha 90.000000
_cell_angle_beta 90.879414
_cell_angle_gamma 90.000000
_cell_volume 2749.512672
_symmetry_space_group_name_H-M "C 2/M"
_symmetry_group_IT_number 12
_symmetry_cell_setting 'monoclinic'
loop_
_space_group_symop_operation_xyz
x,y,z
-x,y,-z
-x,-y,-z
x,-y,z
1/2+x,1/2+y,z
1/2-x,1/2+y,-z
1/2-x,1/2-y,-z
1/2+x,1/2-y,z
loop_
_atom_site_type_symbol
_atom_site_label
_atom_site_fract_x
_atom_site_fract_y
_atom_site_fract_z
Si Si1 0.785177 0.912519 0.543410
Si Si2 0.623536 0.124108 0.394418
Si Si3 0.242867 0.335777 0.173508
Si Si4 0.238312 0.855556 0.201506
Si Si5 0.108260 0.904750 0.982492
Si Si6 0.572777 0.907959 0.102468
Si Si7 0.558175 0.146168 0.719645
Si Si8 0.097010 0.779205 0.537248
O O1 0.676134 0.915237 0.503902
O O2 0.800678 0.881912 0.673419
O O3 0.826005 0.846094 0.459013
O O4 0.826056 0.000000 0.528759
O O5 0.691422 0.120959 0.282690
O O6 0.515769 0.099483 0.366531
O O7 0.616788 0.216220 0.435204
O O8 0.240459 0.240789 0.189258
O O9 0.170974 0.367630 0.073009
O O10 0.343372 0.363541 0.128605
O O11 0.172161 0.887294 0.097596
O O12 0.347065 0.886220 0.218834
O O13 0.108941 0.000000 0.962893
O O14 0.000000 0.879239 0.000000
O O15 0.518535 0.843610 0.181844
O O16 0.585595 0.000000 0.147893
O O17 0.500000 0.917144 0.000000
O O18 0.588030 0.225334 0.650792
O O19 0.000000 0.819346 0.500000
#
# Coordination Sequence:
#
# PCOD9204540 Si02
#       8
#     8   8   8   8   8   8   8   8
#     4  12  25  42  68 103 144 185 231 290 356 411
#     4  10  21  42  68 102 140 181 225 285 343 419
#     4  11  23  42  75  99 134 181 233 280 348 422
#     4  12  24  44  72 101 134 180 234 291 346 418
#     4  11  27  50  70  97 138 181 232 291 350 411
#     4  10  22  41  68 106 144 175 226 297 362 420
#     4  10  22  38  69 102 139 186 227 277 355 417
#     4  10  20  42  67  95 140 189 233 278 335 406
#
# _framework density 23.27685
#
# number of rings (size 3 to 8) (size 9 to 14) (size 15 to 20)
#    0.000    1.250    2.500    3.000    0.000    7.250 
#    2.250    0.625    0.000    0.000    0.000    0.000 
#    0.000    0.500    0.000    0.000    0.000    0.000 
#
# Total GULP energy -178376.151745 kJ/mol
# GULP energy per Si atom -5574.254742 kJ/mol
# Density = 2.322387 g / cm^3
# Si number density = 23.276850 Si / 1000 Ang^3
#
#
#
# Elastic Constant Matrix: (Units=GPa)
#
#
# Indices 1 2 3 4 5 6 
#
# 1 148.4713 35.4714 47.1224 0.0000 4.9934 0.0000
# 2 35.4714 94.4459 22.0568 0.0000 -4.4537 0.0000
# 3 47.1224 22.0568 82.9725 0.0000 5.1848 0.0000
# 4 0.0000 0.0000 0.0000 22.2618 0.0000 21.9010
# 5 4.9934 -4.4537 5.1848 0.0000 47.7995 0.0000
# 6 0.0000 0.0000 0.0000 21.9010 0.0000 40.7750
#
#
#
# Elastic Compliance Matrix: (Units=1/GPa)
#
#
# Indices 1 2 3 4 5 6 
#
# 1 0.008658 -0.002286 -0.004269 0.000000 -0.000654 0.000000
# 2 -0.002286 0.011984 -0.001986 0.000000 0.001571 0.000000
# 3 -0.004269 -0.001986 0.015090 0.000000 -0.001376 0.000000
# 4 0.000000 0.000000 0.000000 0.095253 0.000000 -0.051162
# 5 -0.000654 0.001571 -0.001376 0.000000 0.021285 0.000000
# 6 0.000000 0.000000 0.000000 -0.051162 0.000000 0.052005
#
#
# Mechanical properties :
#
#
# Convention : Reuss Voigt Hill
#
# Bulk Modulus (GPa) = 53.61256 59.46565 56.53911
# Shear Modulus (GPa) = 21.97092 36.91655 29.44373
#
# Velocity S-wave (km/s) = 3.07562 3.98675 3.56045
# Velocity P-wave (km/s) = 5.97454 6.84068 6.42223
#
# Compressibility (1/GPa) = 0.01865234
#
# Stress axis : x y z
#
# Youngs Moduli (GPa) = 115.49706 83.44191 66.26726
#
# Poissons Ratio (x) = 0.19073 0.28288
# Poissons Ratio (y) = 0.26400 0.13160
# Poissons Ratio (z) = 0.49303 0.16570
#
# Static dielectric constant tensor:
#      x y z
#    x 1.941900 0.000000 0.042320 
#    y 0.000000 1.853800 0.000000 
#    z 0.042320 0.000000 2.029410 
# 
# From -- ./inp_files/146147.got.cif
#   From: 2010.05.17/outbox.cif.g08.bks.cpg/sg12_74_cif.got.tgz:146147.got - 2010.06.03 13:09:07.
