data_PCOD9204442
_publ_section_title
;
Structure prediction by ZEFSAII (Michael W. Deem and Ramdas Pophale) SiO2 
 PCOD9204442
Probable space group: C 2/M
;
_chemical_formula_sum "Si O2"
_cell_formula_units_Z 64
_cell_length_a 21.116562
_cell_length_b 22.250462
_cell_length_c 7.752740
_cell_angle_alpha 90.000000
_cell_angle_beta 134.102319
_cell_angle_gamma 90.000000
_cell_volume 2615.780275
_symmetry_space_group_name_H-M "C 2/M"
_symmetry_group_IT_number 12
_symmetry_cell_setting 'monoclinic'
loop_
_space_group_symop_operation_xyz
x,y,z
-x,y,-z
-x,-y,-z
x,-y,z
1/2+x,1/2+y,z
1/2-x,1/2+y,-z
1/2-x,1/2-y,-z
1/2+x,1/2-y,z
loop_
_atom_site_type_symbol
_atom_site_label
_atom_site_fract_x
_atom_site_fract_y
_atom_site_fract_z
Si Si1 0.554850 0.435402 0.775665
Si Si2 0.777868 0.145128 0.946036
Si Si3 0.072526 0.142799 0.276885
Si Si4 0.120331 0.433345 0.749832
Si Si5 0.157708 0.687113 0.002765
Si Si6 0.983238 0.264689 0.762333
Si Si7 0.235767 0.352958 0.495313
Si Si8 0.064878 0.398233 0.287751
O O1 0.500000 0.440982 0.500000
O O2 0.594942 0.500000 0.899324
O O3 0.476004 0.415553 0.748858
O O4 0.624817 0.381930 0.882634
O O5 0.716664 0.085752 0.857427
O O6 0.756902 0.174825 0.722040
O O7 0.740274 0.185986 0.029200
O O8 0.169387 0.128192 0.396723
O O9 0.071311 0.204778 0.384805
O O10 0.000000 0.161861 0.000000
O O11 0.121779 0.500000 0.827583
O O12 0.060146 0.432813 0.461615
O O13 0.111105 0.377869 0.867614
O O14 0.192056 0.686769 0.263383
O O15 0.077488 0.733978 0.842684
O O16 0.936895 0.328813 0.644623
O O17 0.000000 0.272116 0.000000
O O18 0.163070 0.404059 0.393267
O O19 0.000000 0.408177 0.000000
#
# Coordination Sequence:
#
# PCOD9204442 Si02
#       8
#     8   8   8   8   8   8   8   8
#     4  11  23  44  69  98 144 185 226 290 355 411
#     4   9  21  40  69 100 136 178 234 281 342 420
#     4  11  24  43  68 102 138 179 236 284 342 412
#     4   9  21  40  65  98 137 177 225 286 344 410
#     4  10  21  41  71  96 139 185 231 280 353 409
#     4  10  21  43  68  94 135 182 222 289 343 412
#     4  11  20  43  69  98 139 182 232 283 347 416
#     4  10  20  41  69  96 135 184 228 281 354 410
#
# _framework density 24.466887
#
# number of rings (size 3 to 8) (size 9 to 14) (size 15 to 20)
#    0.750    1.125    3.750    1.125    0.000    1.500 
#    2.250    5.625    0.000    0.375    0.000    0.000 
#    0.000    0.000    0.000    0.000    0.000    0.000 
#
# Total GULP energy -178198.976362 kJ/mol
# GULP energy per Si atom -5568.718011 kJ/mol
# Density = 2.441120 g / cm^3
# Si number density = 24.466887 Si / 1000 Ang^3
#
#
#
# Elastic Constant Matrix: (Units=GPa)
#
#
# Indices 1 2 3 4 5 6 
#
# 1 140.9468 20.7728 36.5519 0.0000 18.8886 0.0000
# 2 20.7728 97.3219 15.2722 0.0000 -5.0069 0.0000
# 3 36.5519 15.2722 86.1255 0.0000 9.0665 0.0000
# 4 0.0000 0.0000 0.0000 7.8092 0.0000 8.9082
# 5 18.8886 -5.0069 9.0665 0.0000 48.9314 0.0000
# 6 0.0000 0.0000 0.0000 8.9082 0.0000 -14.8425
#
#
#
# Elastic Compliance Matrix: (Units=1/GPa)
#
#
# Indices 1 2 3 4 5 6 
#
# 1 0.008485 -0.001482 -0.003037 0.000000 -0.002864 0.000000
# 2 -0.001482 0.010931 -0.001517 0.000000 0.001972 0.000000
# 3 -0.003037 -0.001517 0.013321 0.000000 -0.001451 0.000000
# 4 0.000000 0.000000 0.000000 0.076013 0.000000 0.045621
# 5 -0.002864 0.001972 -0.001451 0.000000 0.022013 0.000000
# 6 0.000000 0.000000 0.000000 0.045621 0.000000 -0.039993
#
#
# Mechanical properties :
#
#
# Convention : Reuss Voigt Hill
#
# Bulk Modulus (GPa) = 48.38818 52.17644 50.28231
# Shear Modulus (GPa) = 45.56665 25.16609 35.36637
#
# Velocity S-wave (km/s) = 4.32021 3.21062 3.80607
# Velocity P-wave (km/s) = 6.68622 5.92586 6.31749
#
# Compressibility (1/GPa) = 0.02066620
#
# Stress axis : x y z
#
# Youngs Moduli (GPa) = 117.86074 91.48333 75.06671
#
# Poissons Ratio (x) = 0.13556 0.22795
# Poissons Ratio (y) = 0.17465 0.11388
# Poissons Ratio (z) = 0.35790 0.13878
#
# Static dielectric constant tensor:
#      x y z
#    x 2.017860 0.000000 0.012440 
#    y 0.000000 2.127280 0.000000 
#    z 0.012440 0.000000 1.935230 
# 
# From -- ./inp_files/90707.got.cif
#   From: 2010.05.17/outbox.cif.g08.bks.cpg/sg12_46_cif.got.tgz:90707.got - 2010.06.03 13:09:07.
