data_PCOD9204392
_publ_section_title
;
Structure prediction by ZEFSAII (Michael W. Deem and Ramdas Pophale) SiO2 
 PCOD9204392
Probable space group: C 2/M
;
_chemical_formula_sum "Si O2"
_cell_formula_units_Z 48
_cell_length_a 8.280224
_cell_length_b 27.472933
_cell_length_c 14.347761
_cell_angle_alpha 90.000000
_cell_angle_beta 39.076915
_cell_angle_gamma 90.000000
_cell_volume 2057.415537
_symmetry_space_group_name_H-M "C 2/M"
_symmetry_group_IT_number 12
_symmetry_cell_setting 'monoclinic'
loop_
_space_group_symop_operation_xyz
x,y,z
-x,y,-z
-x,-y,-z
x,-y,z
1/2+x,1/2+y,z
1/2-x,1/2+y,-z
1/2-x,1/2-y,-z
1/2+x,1/2-y,z
loop_
_atom_site_type_symbol
_atom_site_label
_atom_site_fract_x
_atom_site_fract_y
_atom_site_fract_z
Si Si1 0.918740 0.100397 0.933106
Si Si2 0.919413 0.556254 0.191582
Si Si3 0.232944 0.799635 0.565390
Si Si4 0.883341 0.944231 0.324490
Si Si5 0.275774 0.297545 0.923522
Si Si6 0.240936 0.602357 0.562688
O O1 0.127517 0.089853 0.760122
O O2 0.843243 0.156449 0.957171
O O3 0.674786 0.066518 0.019520
O O4 0.000000 0.087426 0.000000
O O5 0.910014 0.500000 0.227650
O O6 0.663490 0.565203 0.246602
O O7 0.945703 0.593274 0.267448
O O8 0.500000 0.806372 0.500000
O O9 0.250000 0.750000 0.500000
O O10 0.213946 0.844492 0.501168
O O11 0.995577 0.795742 0.744554
O O12 0.696854 0.931526 0.493216
O O13 0.863237 0.000000 0.306419
O O14 0.250000 0.250000 0.000000
O O15 0.000000 0.305856 0.000000
O O16 0.500000 0.586316 0.500000
#
# Coordination Sequence:
#
# PCOD9204392 Si02
#       6
#     8   8   8   8   8   8
#     4  12  26  41  64  97 139 181 232 286 346 409
#     4  10  22  39  66  98 133 182 233 287 346 412
#     4  12  27  46  73 105 142 181 229 288 350 415
#     4  10  20  41  66  95 133 178 231 286 343 413
#     4  12  27  48  75 104 141 183 231 288 350 418
#     4  10  22  40  68  99 136 177 230 284 346 414
#
# _framework density 23.330241000000001
#
# number of rings (size 3 to 8) (size 9 to 14) (size 15 to 20)
#    0.000    1.000    1.667    4.500    7.000    4.667 
#    0.000    0.000    0.000    3.000    0.000    0.000 
#    0.000    0.000    0.000    0.000    0.000    0.000 
#
# Total GULP energy -134245.056845 kJ/mol
# GULP energy per Si atom -5593.544035 kJ/mol
# Density = 2.327714 g / cm^3
# Si number density = 23.330241 Si / 1000 Ang^3
#
#
#
# Elastic Constant Matrix: (Units=GPa)
#
#
# Indices 1 2 3 4 5 6 
#
# 1 71.6103 9.7961 41.2747 0.0000 11.7984 0.0000
# 2 9.7961 101.6338 18.1718 0.0000 28.7305 0.0000
# 3 41.2747 18.1718 151.6342 0.0000 6.7618 0.0000
# 4 0.0000 0.0000 0.0000 37.2926 0.0000 11.6004
# 5 11.7984 28.7305 6.7618 0.0000 51.5213 0.0000
# 6 0.0000 0.0000 0.0000 11.6004 0.0000 25.4118
#
#
#
# Elastic Compliance Matrix: (Units=1/GPa)
#
#
# Indices 1 2 3 4 5 6 
#
# 1 0.017113 0.000117 -0.004521 0.000000 -0.003391 0.000000
# 2 0.000117 0.011872 -0.001165 0.000000 -0.006494 0.000000
# 3 -0.004521 -0.001165 0.007936 0.000000 0.000643 0.000000
# 4 0.000000 0.000000 0.000000 0.031253 0.000000 -0.014267
# 5 -0.003391 -0.006494 0.000643 0.000000 0.023723 0.000000
# 6 0.000000 0.000000 0.000000 -0.014267 0.000000 0.045865
#
#
# Mechanical properties :
#
#
# Convention : Reuss Voigt Hill
#
# Bulk Modulus (GPa) = 38.78358 51.48485 45.13422
# Shear Modulus (GPa) = 31.74722 39.88750 35.81736
#
# Velocity S-wave (km/s) = 3.69287 4.13933 3.92246
# Velocity P-wave (km/s) = 5.90279 6.70531 6.31680
#
# Compressibility (1/GPa) = 0.02578411
#
# Stress axis : x y z
#
# Youngs Moduli (GPa) = 58.43547 84.23101 126.00230
#
# Poissons Ratio (x) = -0.00990 0.56965
# Poissons Ratio (y) = -0.00686 0.14681
# Poissons Ratio (z) = 0.26419 0.09814
#
# Static dielectric constant tensor:
#      x y z
#    x 1.883290 0.000000 -0.032250 
#    y 0.000000 1.825670 0.000000 
#    z -0.032250 0.000000 1.923290 
# 
# From -- ./inp_files/200114.got.cif
#   From: 2010.05.17/outbox.cif.g08.bks.cpg/sg12_101_cif.got.tgz:200114.got - 2010.06.03 13:09:07.
