data_PCOD9204796
_publ_section_title
;
Structure prediction by ZEFSAII (Michael W. Deem and Ramdas Pophale) SiO2 
 PCOD9204796
Probable space group: C 2/M
;
_chemical_formula_sum "Si O2"
_cell_formula_units_Z 40
_cell_length_a 15.014617
_cell_length_b 23.991565
_cell_length_c 8.909814
_cell_angle_alpha 90.000000
_cell_angle_beta 40.773737
_cell_angle_gamma 90.000000
_cell_volume 2096.059312
_symmetry_space_group_name_H-M "C 2/M"
_symmetry_group_IT_number 12
_symmetry_cell_setting 'monoclinic'
loop_
_space_group_symop_operation_xyz
x,y,z
-x,y,-z
-x,-y,-z
x,-y,z
1/2+x,1/2+y,z
1/2-x,1/2+y,-z
1/2-x,1/2-y,-z
1/2+x,1/2-y,z
loop_
_atom_site_type_symbol
_atom_site_label
_atom_site_fract_x
_atom_site_fract_y
_atom_site_fract_z
Si Si1 0.193200 0.192416 0.146556
Si Si2 0.019756 0.653478 0.151527
Si Si3 0.619405 0.934552 0.470547
Si Si4 0.865619 0.140214 0.069875
Si Si5 0.670509 0.764441 0.451228
O O1 0.144358 0.214169 0.370977
O O2 0.250000 0.250000 0.000000
O O3 0.321121 0.151490 0.015416
O O4 0.103112 0.158758 0.140950
O O5 0.930932 0.601273 0.321959
O O6 0.965066 0.704808 0.321717
O O7 0.000000 0.664025 0.000000
O O8 0.500000 0.924789 0.500000
O O9 0.763546 0.911936 0.223304
O O10 0.626918 0.000000 0.492906
O O11 0.769300 0.190600 0.248514
O O12 0.000000 0.135711 0.000000
O O13 0.750000 0.750000 0.500000
#
# Coordination Sequence:
#
# PCOD9204796 Si02
#       5
#     8   8   8   8   8
#     4  10  21  34  53  81 120 158 192 232 285 342
#     4  11  21  37  57  85 117 153 202 238 285 352
#     4  10  21  40  64  86 111 148 200 259 302 341
#     4  10  22  38  56  85 117 154 201 239 291 359
#     4  10  21  33  54  83 118 159 194 233 281 348
#
# _framework density 19.083428999999999
#
# number of rings (size 3 to 8) (size 9 to 14) (size 15 to 20)
#    0.000    1.800    4.000    0.000    5.600    0.800 
#    0.000    0.000    0.000    0.000    0.000    1.400 
#    0.000    0.000    0.000    0.000    0.000    0.000 
#
# Total GULP energy -111564.992603 kJ/mol
# GULP energy per Si atom -5578.249630 kJ/mol
# Density = 1.903999 g / cm^3
# Si number density = 19.083429 Si / 1000 Ang^3
#
#
#
# Elastic Constant Matrix: (Units=GPa)
#
#
# Indices 1 2 3 4 5 6 
#
# 1 134.5593 34.4316 53.7665 0.0000 -3.3120 0.0000
# 2 34.4316 75.4827 49.4265 0.0000 4.2221 0.0000
# 3 53.7665 49.4265 100.4835 0.0000 12.2990 0.0000
# 4 0.0000 0.0000 0.0000 14.7456 0.0000 -2.2339
# 5 -3.3120 4.2221 12.2990 0.0000 38.4357 0.0000
# 6 0.0000 0.0000 0.0000 -2.2339 0.0000 20.1859
#
#
#
# Elastic Compliance Matrix: (Units=1/GPa)
#
#
# Indices 1 2 3 4 5 6 
#
# 1 0.009800 -0.001438 -0.004849 0.000000 0.002554 0.000000
# 2 -0.001438 0.019788 -0.009037 0.000000 0.000594 0.000000
# 3 -0.004849 -0.009037 0.017611 0.000000 -0.005060 0.000000
# 4 0.000000 0.000000 0.000000 0.068973 0.000000 0.007633
# 5 0.002554 0.000594 -0.005060 0.000000 0.027792 0.000000
# 6 0.000000 0.000000 0.000000 0.007633 0.000000 0.050384
#
#
# Mechanical properties :
#
#
# Convention : Reuss Voigt Hill
#
# Bulk Modulus (GPa) = 60.41763 65.08606 62.75185
# Shear Modulus (GPa) = 21.69073 26.20016 23.94545
#
# Velocity S-wave (km/s) = 3.37505 3.70932 3.54613
# Velocity P-wave (km/s) = 6.84955 7.24745 7.05131
#
# Compressibility (1/GPa) = 0.01655146
#
# Stress axis : x y z
#
# Youngs Moduli (GPa) = 102.04020 50.53531 56.78263
#
# Poissons Ratio (x) = 0.07267 0.27534
# Poissons Ratio (y) = 0.14673 0.51313
# Poissons Ratio (z) = 0.49480 0.45668
#
# Static dielectric constant tensor:
#      x y z
#    x 1.691730 0.000000 0.011260 
#    y 0.000000 1.651490 0.000000 
#    z 0.011260 0.000000 1.741180 
# 
# From -- ./inp_files/50433.got.cif
#   From: 2010.05.17/outbox.cif.g08.bks.cpg/sg12_26_cif.got.tgz:50433.got - 2010.06.03 13:09:07.
