data_PCOD9204367
_publ_section_title
;
Structure prediction by ZEFSAII (Michael W. Deem and Ramdas Pophale) SiO2 
 PCOD9204367
Probable space group: C 2/M
;
_chemical_formula_sum "Si O2"
_cell_formula_units_Z 44
_cell_length_a 18.435305
_cell_length_b 24.389478
_cell_length_c 5.462242
_cell_angle_alpha 90.000000
_cell_angle_beta 130.986493
_cell_angle_gamma 90.000000
_cell_volume 1853.926918
_symmetry_space_group_name_H-M "C 2/M"
_symmetry_group_IT_number 12
_symmetry_cell_setting 'monoclinic'
loop_
_space_group_symop_operation_xyz
x,y,z
-x,y,-z
-x,-y,-z
x,-y,z
1/2+x,1/2+y,z
1/2-x,1/2+y,-z
1/2-x,1/2-y,-z
1/2+x,1/2-y,z
loop_
_atom_site_type_symbol
_atom_site_label
_atom_site_fract_x
_atom_site_fract_y
_atom_site_fract_z
Si Si1 0.552254 0.100076 0.867695
Si Si2 0.407101 0.224983 0.928530
Si Si3 0.755629 0.409078 0.934907
Si Si4 0.109911 0.098693 0.227305
Si Si5 0.727911 0.690203 0.207120
Si Si6 0.802819 0.000000 0.864548
O O1 0.500000 0.084484 0.500000
O O2 0.500000 0.081799 0.000000
O O3 0.558053 0.166484 0.892902
O O4 0.662111 0.081355 0.083230
O O5 0.352024 0.262656 0.004306
O O6 0.324279 0.212953 0.543871
O O7 0.500000 0.250396 0.000000
O O8 0.653820 0.420337 0.583126
O O9 0.754605 0.347605 0.036544
O O10 0.767477 0.451848 0.177196
O O11 0.175184 0.149171 0.280924
O O12 0.126308 0.048257 0.083861
O O13 0.000000 0.114320 0.000000
#
# Coordination Sequence:
#
# PCOD9204367 Si02
#       6
#     8   8   8   8   8   4
#     4  11  24  44  73 101 138 186 231 279 343 410
#     4  10  20  41  65  97 138 185 229 273 335 408
#     4  11  23  44  66  98 131 174 226 288 341 415
#     4  11  23  42  65  97 134 175 223 288 345 411
#     4  10  22  40  65  97 139 178 227 281 338 403
#     4  10  25  41  71  92 132 173 229 280 356 409
#
# _framework density 23.733404
#
# number of rings (size 3 to 8) (size 9 to 14) (size 15 to 20)
#    0.000    1.455    1.818    3.545    2.545    4.364 
#    9.818    0.909    0.000    0.000    0.000    0.000 
#    0.000    0.000    0.000    0.000    0.000    0.000 
#
# Total GULP energy -122541.618732 kJ/mol
# GULP energy per Si atom -5570.073579 kJ/mol
# Density = 2.367939 g / cm^3
# Si number density = 23.733404 Si / 1000 Ang^3
#
#
#
# Elastic Constant Matrix: (Units=GPa)
#
#
# Indices 1 2 3 4 5 6 
#
# 1 154.9570 39.0743 61.0129 0.0000 8.8465 0.0000
# 2 39.0743 64.8164 -4.4896 0.0000 15.2629 0.0000
# 3 61.0129 -4.4896 91.3392 0.0000 17.5095 0.0000
# 4 0.0000 0.0000 0.0000 -65.0653 0.0000 21.0339
# 5 8.8465 15.2629 17.5095 0.0000 31.8966 0.0000
# 6 0.0000 0.0000 0.0000 21.0339 0.0000 -8.0193
#
#
#
# Elastic Compliance Matrix: (Units=1/GPa)
#
#
# Indices 1 2 3 4 5 6 
#
# 1 0.012574 -0.009899 -0.010199 0.000000 0.006848 0.000000
# 2 -0.009899 0.025816 0.010867 0.000000 -0.015573 0.000000
# 3 -0.010199 0.010867 0.020955 0.000000 -0.013874 0.000000
# 4 0.000000 0.000000 0.000000 -0.101055 0.000000 -0.265057
# 5 0.006848 -0.015573 -0.013874 0.000000 0.044520 0.000000
# 6 0.000000 0.000000 0.000000 -0.265057 0.000000 -0.819917
#
#
# Mechanical properties :
#
#
# Convention : Reuss Voigt Hill
#
# Bulk Modulus (GPa) = 24.46065 55.81199 40.13632
# Shear Modulus (GPa) = -6.36928 6.13007 -0.11961
#
# Velocity S-wave (km/s) = -1.63997 1.60888 -0.22473
# Velocity P-wave (km/s) = 2.59669 5.19794 4.10861
#
# Compressibility (1/GPa) = 0.04088198
#
# Stress axis : x y z
#
# Youngs Moduli (GPa) = 79.52666 38.73594 47.72226
#
# Poissons Ratio (x) = 0.38346 0.48671
# Poissons Ratio (y) = 0.78727 -0.51859
# Poissons Ratio (z) = 0.81108 -0.42094
#
# Static dielectric constant tensor:
#      x y z
#    x 1.960320 0.000000 -0.083620 
#    y 0.000000 1.912510 0.000000 
#    z -0.083620 0.000000 2.024020 
# 
# From -- ./inp_files/17803.got.cif
#   From: 2010.05.17/outbox.cif.g08.bks.cpg/sg12_9_cif.got.tgz:17803.got - 2010.06.03 13:09:07.
