data_PCOD9204948
_publ_section_title
;
Structure prediction by ZEFSAII (Michael W. Deem and Ramdas Pophale) SiO2 
 PCOD9204948
Probable space group: C 2/M
;
_chemical_formula_sum "Si O2"
_cell_formula_units_Z 56
_cell_length_a 24.081745
_cell_length_b 20.231186
_cell_length_c 5.513511
_cell_angle_alpha 90.000000
_cell_angle_beta 79.215145
_cell_angle_gamma 90.000000
_cell_volume 2638.748090
_symmetry_space_group_name_H-M "C 2/M"
_symmetry_group_IT_number 12
_symmetry_cell_setting 'monoclinic'
loop_
_space_group_symop_operation_xyz
x,y,z
-x,y,-z
-x,-y,-z
x,-y,z
1/2+x,1/2+y,z
1/2-x,1/2+y,-z
1/2-x,1/2-y,-z
1/2+x,1/2-y,z
loop_
_atom_site_type_symbol
_atom_site_label
_atom_site_fract_x
_atom_site_fract_y
_atom_site_fract_z
Si Si1 0.147633 0.785826 0.680418
Si Si2 0.516626 0.324801 0.741659
Si Si3 0.955031 0.684931 0.733544
Si Si4 0.212596 0.424388 0.090597
Si Si5 0.289853 0.311759 0.883909
Si Si6 0.408722 0.927377 0.081660
Si Si7 0.354264 0.150667 0.499356
O O1 0.082367 0.805282 0.692269
O O2 0.182972 0.801247 0.405054
O O3 0.154143 0.705969 0.697299
O O4 0.167784 0.816166 0.919287
O O5 0.500000 0.356887 0.500000
O O6 0.478831 0.256884 0.779222
O O7 0.500000 0.362106 0.000000
O O8 0.893419 0.688603 0.661188
O O9 0.000000 0.659379 0.500000
O O10 0.945722 0.632067 0.949911
O O11 0.230196 0.500000 0.120097
O O12 0.255306 0.380167 0.903750
O O13 0.151202 0.426936 0.012181
O O14 0.200923 0.381052 0.341183
O O15 0.250000 0.250000 0.000000
O O16 0.391364 0.909563 0.368400
O O17 0.433431 0.000000 0.036182
#
# Coordination Sequence:
#
# PCOD9204948 Si02
#       7
#     8   8   8   8   8   8   8
#     4  12  24  38  63  91 128 159 204 264 306 375
#     4  11  21  37  60  88 119 165 195 244 319 371
#     4  10  21  34  53  78 111 158 199 254 306 360
#     4  10  23  41  61  84 122 167 209 254 312 374
#     4  12  25  41  61  95 126 161 211 265 319 366
#     4  10  22  37  56  81 112 162 221 257 296 364
#     4  11  20  36  59  84 116 159 210 251 306 364
#
# _framework density 21.222185
#
# number of rings (size 3 to 8) (size 9 to 14) (size 15 to 20)
#    0.000    1.143    4.286    3.429    4.000    0.857 
#    0.000    0.714    0.000    0.000    0.000    0.000 
#    0.000   11.429    0.000    0.000    0.000    0.000 
#
# Total GULP energy -156401.700464 kJ/mol
# GULP energy per Si atom -5585.775017 kJ/mol
# Density = 2.117388 g / cm^3
# Si number density = 21.222185 Si / 1000 Ang^3
#
#
#
# Elastic Constant Matrix: (Units=GPa)
#
#
# Indices 1 2 3 4 5 6 
#
# 1 65.9185 22.5467 22.7585 0.0000 8.2033 0.0000
# 2 22.5467 48.9512 3.1146 0.0000 -8.0669 0.0000
# 3 22.7585 3.1146 118.1611 0.0000 -8.8434 0.0000
# 4 0.0000 0.0000 0.0000 16.9093 0.0000 -0.7394
# 5 8.2033 -8.0669 -8.8434 0.0000 40.4181 0.0000
# 6 0.0000 0.0000 0.0000 -0.7394 0.0000 12.1128
#
#
#
# Elastic Compliance Matrix: (Units=1/GPa)
#
#
# Indices 1 2 3 4 5 6 
#
# 1 0.021278 -0.010745 -0.004370 0.000000 -0.007419 0.000000
# 2 -0.010745 0.026556 0.001962 0.000000 0.007910 0.000000
# 3 -0.004370 0.001962 0.009504 0.000000 0.003358 0.000000
# 4 0.000000 0.000000 0.000000 0.059297 0.000000 0.003619
# 5 -0.007419 0.007910 0.003358 0.000000 0.028561 0.000000
# 6 0.000000 0.000000 0.000000 0.003619 0.000000 0.082778
#
#
# Mechanical properties :
#
#
# Convention : Reuss Voigt Hill
#
# Bulk Modulus (GPa) = 32.22576 36.65226 34.43901
# Shear Modulus (GPa) = 18.89464 26.19545 22.54504
#
# Velocity S-wave (km/s) = 2.98707 3.51713 3.26288
# Velocity P-wave (km/s) = 5.20718 5.81394 5.51890
#
# Compressibility (1/GPa) = 0.03103108
#
# Stress axis : x y z
#
# Youngs Moduli (GPa) = 46.99786 37.65575 105.21477
#
# Poissons Ratio (x) = 0.40461 0.45981
# Poissons Ratio (y) = 0.50499 -0.20639
# Poissons Ratio (z) = 0.20539 -0.07386
#
# Static dielectric constant tensor:
#      x y z
#    x 1.825720 0.000000 0.047990 
#    y 0.000000 1.735260 0.000000 
#    z 0.047990 0.000000 1.894210 
# 
# From -- ./inp_files/25363.got.cif
#   From: 2010.05.17/outbox.cif.g08.bks.cpg/sg12_13_cif.got.tgz:25363.got - 2010.06.03 13:09:07.
