data_PCOD9204081
_publ_section_title
;
Structure prediction by ZEFSAII (Michael W. Deem and Ramdas Pophale) SiO2 
 PCOD9204081
Probable space group: C 2/M
;
_chemical_formula_sum "Si O2"
_cell_formula_units_Z 60
_cell_length_a 15.900896
_cell_length_b 15.819798
_cell_length_c 22.717576
_cell_angle_alpha 90.000000
_cell_angle_beta 31.352846
_cell_angle_gamma 90.000000
_cell_volume 2973.337310
_symmetry_space_group_name_H-M "C 2/M"
_symmetry_group_IT_number 12
_symmetry_cell_setting 'monoclinic'
loop_
_space_group_symop_operation_xyz
x,y,z
-x,y,-z
-x,-y,-z
x,-y,z
1/2+x,1/2+y,z
1/2-x,1/2+y,-z
1/2-x,1/2-y,-z
1/2+x,1/2-y,z
loop_
_atom_site_type_symbol
_atom_site_label
_atom_site_fract_x
_atom_site_fract_y
_atom_site_fract_z
Si Si1 0.097071 0.723332 0.829867
Si Si2 0.000000 0.779660 0.000000
Si Si3 0.143416 0.367639 0.458200
Si Si4 0.945293 0.094389 0.203418
Si Si5 0.681988 0.906951 0.016888
Si Si6 0.676387 0.670499 0.409825
Si Si7 0.907304 0.400226 0.373519
Si Si8 0.234242 0.595298 0.123379
O O1 0.120204 0.727891 0.886037
O O2 0.095324 0.821077 0.809239
O O3 0.216714 0.675170 0.713902
O O4 0.927150 0.673623 0.930767
O O5 0.115644 0.842747 0.966012
O O6 0.313142 0.403820 0.333919
O O7 0.148091 0.267095 0.446354
O O8 0.121181 0.384294 0.540509
O O9 0.000000 0.398844 0.500000
O O10 0.935950 0.000000 0.180060
O O11 0.130780 0.103783 0.112842
O O12 0.679277 0.911523 0.089134
O O13 0.625662 0.000000 0.028425
O O14 0.500000 0.632828 0.500000
O O15 0.775658 0.631592 0.404992
O O16 0.916238 0.500000 0.359286
O O17 0.085357 0.367843 0.249532
O O18 0.275549 0.500000 0.119596
#
# Coordination Sequence:
#
# PCOD9204081 Si02
#       8
#     8   4   8   8   8   8   8   8
#     4  11  23  41  60  91 123 161 204 255 318 370
#     4  12  25  34  59  92 128 162 198 250 318 378
#     4  10  23  40  61  91 130 167 204 250 314 381
#     4  10  21  36  59  90 122 162 202 247 307 374
#     4  10  20  40  65  85 116 160 208 256 306 366
#     4  10  23  43  64  87 120 164 215 262 308 365
#     4  11  23  40  64  92 121 163 210 259 317 368
#     4  10  22  37  60  92 123 154 202 257 310 375
#
# _framework density 20.179345999999999
#
# number of rings (size 3 to 8) (size 9 to 14) (size 15 to 20)
#    0.000    1.600    2.667    1.400    5.600    1.867 
#    2.400    0.333    0.000    0.000    0.000    0.000 
#    0.000    0.000    0.000    0.000    0.000    0.000 
#
# Total GULP energy -167175.500532 kJ/mol
# GULP energy per Si atom -5572.516684 kJ/mol
# Density = 2.013342 g / cm^3
# Si number density = 20.179346 Si / 1000 Ang^3
#
#
#
# Elastic Constant Matrix: (Units=GPa)
#
#
# Indices 1 2 3 4 5 6 
#
# 1 72.8468 10.2550 47.9993 0.0002 21.0849 0.0000
# 2 10.2550 34.9114 16.3011 0.0018 7.0814 -0.0029
# 3 47.9993 16.3011 155.0172 0.0051 17.1544 -0.0147
# 4 0.0002 0.0018 0.0051 32.7428 0.0001 -48.0154
# 5 21.0849 7.0814 17.1544 0.0001 14.0228 -0.0004
# 6 0.0000 -0.0029 -0.0147 -48.0154 -0.0004 200.6770
#
#
#
# Elastic Compliance Matrix: (Units=1/GPa)
#
#
# Indices 1 2 3 4 5 6 
#
# 1 0.026756 0.001436 -0.004515 0.000000 -0.035432 0.000000
# 2 0.001436 0.032439 -0.002087 -0.000002 -0.015988 0.000000
# 3 -0.004515 -0.002087 0.008328 0.000000 -0.002346 0.000000
# 4 0.000000 -0.000002 0.000000 0.047049 0.000001 0.011257
# 5 -0.035432 -0.015988 -0.002346 0.000001 0.135532 0.000000
# 6 0.000000 0.000000 0.000000 0.011257 0.000000 0.007677
#
#
# Mechanical properties :
#
#
# Convention : Reuss Voigt Hill
#
# Bulk Modulus (GPa) = 17.48493 45.76513 31.62503
# Shear Modulus (GPa) = 17.41095 62.03653 39.72374
#
# Velocity S-wave (km/s) = 2.94055 5.55062 4.44163
# Velocity P-wave (km/s) = 4.49585 7.98796 6.48152
#
# Compressibility (1/GPa) = 0.05719212
#
# Stress axis : x y z
#
# Youngs Moduli (GPa) = 37.37541 30.82668 120.08025
#
# Poissons Ratio (x) = -0.04426 0.54211
# Poissons Ratio (y) = -0.05366 0.25055
# Poissons Ratio (z) = 0.16873 0.06432
#
# Static dielectric constant tensor:
#      x y z
#    x 1.745020 0.000000 -0.003290 
#    y 0.000000 1.766070 0.000000 
#    z -0.003290 0.000000 1.765910 
# 
# From -- ./inp_files/340655.got.cif
#   From: 2010.05.17/outbox.cif.g08.bks.cpg/sg12_171_cif.got.tgz:340655.got - 2010.06.03 13:09:07.
