data_PCOD9204945
_publ_section_title
;
Structure prediction by ZEFSAII (Michael W. Deem and Ramdas Pophale) SiO2 
 PCOD9204945
Probable space group: C 2/M
;
_chemical_formula_sum "Si O2"
_cell_formula_units_Z 56
_cell_length_a 10.116240
_cell_length_b 20.907022
_cell_length_c 15.083108
_cell_angle_alpha 90.000000
_cell_angle_beta 115.804438
_cell_angle_gamma 90.000000
_cell_volume 2871.985102
_symmetry_space_group_name_H-M "C 2/M"
_symmetry_group_IT_number 12
_symmetry_cell_setting 'monoclinic'
loop_
_space_group_symop_operation_xyz
x,y,z
-x,y,-z
-x,-y,-z
x,-y,z
1/2+x,1/2+y,z
1/2-x,1/2+y,-z
1/2-x,1/2-y,-z
1/2+x,1/2-y,z
loop_
_atom_site_type_symbol
_atom_site_label
_atom_site_fract_x
_atom_site_fract_y
_atom_site_fract_z
Si Si1 0.412774 0.073174 0.239057
Si Si2 0.577014 0.255671 0.928722
Si Si3 0.936249 0.076399 0.580503
Si Si4 0.593370 0.573321 0.109913
Si Si5 0.561397 0.117017 0.113573
Si Si6 0.610075 0.073946 0.450152
Si Si7 0.089101 0.129340 0.795055
O O1 0.252174 0.103680 0.177120
O O2 0.499009 0.072926 0.172390
O O3 0.521029 0.104274 0.342684
O O4 0.386145 0.000000 0.263684
O O5 0.506363 0.187078 0.885529
O O6 0.558361 0.305611 0.842455
O O7 0.500000 0.272313 0.000000
O O8 0.750000 0.250000 0.000000
O O9 0.767511 0.099267 0.525375
O O10 0.000000 0.081871 0.500000
O O11 0.021667 0.118138 0.678281
O O12 0.942814 0.000000 0.606869
O O13 0.627260 0.500000 0.096051
O O14 0.491004 0.577863 0.165422
O O15 0.500000 0.598381 0.000000
O O16 0.736524 0.120136 0.159991
O O17 0.500000 0.097596 0.000000
O O18 0.500000 0.073769 0.500000
O O19 0.643840 0.000000 0.433977
#
# Coordination Sequence:
#
# PCOD9204945 Si02
#       7
#     8   8   8   8   8   8   8
#     4  10  21  36  57  85 120 161 196 238 299 359
#     4  11  23  43  63  87 115 152 205 250 300 362
#     4  10  21  37  59  89 122 156 197 246 299 356
#     4  10  21  34  52  86 126 159 193 239 299 363
#     4  11  23  38  57  85 116 151 195 239 294 362
#     4   9  17  33  54  78 111 149 194 238 278 340
#     4  12  22  36  62  86 115 155 201 249 299 358
#
# _framework density 19.498709000000002
#
# number of rings (size 3 to 8) (size 9 to 14) (size 15 to 20)
#    0.000    1.571    2.857    3.429    2.000    4.857 
#    0.000    0.000    0.000    4.286    0.000    0.000 
#    0.000    0.000    0.000    0.000    0.000    0.000 
#
# Total GULP energy -156131.529707 kJ/mol
# GULP energy per Si atom -5576.126061 kJ/mol
# Density = 1.945433 g / cm^3
# Si number density = 19.498709 Si / 1000 Ang^3
#
#
#
# Elastic Constant Matrix: (Units=GPa)
#
#
# Indices 1 2 3 4 5 6 
#
# 1 153.6944 7.3317 66.2311 0.0000 28.1932 0.0000
# 2 7.3317 36.8950 25.8879 0.0000 -1.5460 0.0000
# 3 66.2311 25.8879 173.9269 0.0000 24.5975 0.0000
# 4 0.0000 0.0000 0.0000 9.9121 0.0000 -12.7788
# 5 28.1932 -1.5460 24.5975 0.0000 34.1745 0.0000
# 6 0.0000 0.0000 0.0000 -12.7788 0.0000 -3.2870
#
#
#
# Elastic Compliance Matrix: (Units=1/GPa)
#
#
# Indices 1 2 3 4 5 6 
#
# 1 0.008553 -0.000177 -0.002485 0.000000 -0.005276 0.000000
# 2 -0.000177 0.031100 -0.005323 0.000000 0.005385 0.000000
# 3 -0.002485 -0.005323 0.008052 0.000000 -0.003986 0.000000
# 4 0.000000 0.000000 0.000000 0.016781 0.000000 -0.065238
# 5 -0.005276 0.005385 -0.003986 0.000000 0.036727 0.000000
# 6 0.000000 0.000000 0.000000 -0.065238 0.000000 -0.050603
#
#
# Mechanical properties :
#
#
# Convention : Reuss Voigt Hill
#
# Bulk Modulus (GPa) = 31.51099 62.60198 47.05648
# Shear Modulus (GPa) = 64.80260 25.83098 45.31679
#
# Velocity S-wave (km/s) = 5.77117 3.64366 4.82611
# Velocity P-wave (km/s) = 7.78487 7.06237 7.43241
#
# Compressibility (1/GPa) = 0.03173496
#
# Stress axis : x y z
#
# Youngs Moduli (GPa) = 116.91301 32.15459 124.19726
#
# Poissons Ratio (x) = 0.00571 0.30857
# Poissons Ratio (y) = 0.02075 0.66109
# Poissons Ratio (z) = 0.29047 0.17116
#
# Static dielectric constant tensor:
#      x y z
#    x 1.666320 0.000000 0.031370 
#    y 0.000000 1.723440 0.000000 
#    z 0.031370 0.000000 1.696700 
# 
# From -- ./inp_files/198498.got.cif
#   From: 2010.05.17/outbox.cif.g08.bks.cpg/sg12_100_cif.got.tgz:198498.got - 2010.06.03 13:09:07.
