data_PCOD9204601
_publ_section_title
;
Structure prediction by ZEFSAII (Michael W. Deem and Ramdas Pophale) SiO2 
 PCOD9204601
Probable space group: C 2/M
;
_chemical_formula_sum "Si O2"
_cell_formula_units_Z 42
_cell_length_a 9.354775
_cell_length_b 21.170224
_cell_length_c 11.423900
_cell_angle_alpha 90.000000
_cell_angle_beta 71.496596
_cell_angle_gamma 90.000000
_cell_volume 2145.463558
_symmetry_space_group_name_H-M "C 2/M"
_symmetry_group_IT_number 12
_symmetry_cell_setting 'monoclinic'
loop_
_space_group_symop_operation_xyz
x,y,z
-x,y,-z
-x,-y,-z
x,-y,z
1/2+x,1/2+y,z
1/2-x,1/2+y,-z
1/2-x,1/2-y,-z
1/2+x,1/2-y,z
loop_
_atom_site_type_symbol
_atom_site_label
_atom_site_fract_x
_atom_site_fract_y
_atom_site_fract_z
Si Si1 0.259415 0.500000 0.482265
Si Si2 0.996355 0.279001 0.632901
Si Si3 0.758660 0.102950 0.901233
Si Si4 0.691296 0.768638 0.794529
Si Si5 0.500000 0.000000 0.000000
Si Si6 0.091665 0.000000 0.300443
Si Si7 0.500000 0.099305 0.500000
Si Si8 0.500000 0.327863 0.000000
O O1 0.412270 0.500000 0.367281
O O2 0.319249 0.500000 0.599515
O O3 0.148154 0.441518 0.485856
O O4 0.864061 0.252175 0.746447
O O5 0.000000 0.251083 0.500000
O O6 0.144364 0.270225 0.670619
O O7 0.971611 0.353240 0.614956
O O8 0.683034 0.163083 0.856720
O O9 0.631081 0.055475 0.980123
O O10 0.854913 0.061786 0.783394
O O11 0.875508 0.130053 0.965962
O O12 0.591068 0.717947 0.888697
#
# Coordination Sequence:
#
# PCOD9204601 Si02
#       8
#     4   8   8   8   2   4   4   4
#     4  10  20  44  63  96 132 182 232 270 346 392
#     4  10  24  40  66 103 134 178 218 277 350 403
#     4  11  25  46  67 101 133 181 235 274 351 394
#     4  12  23  45  68 104 142 177 221 285 340 421
#     4  10  26  46  70  92 132 176 228 300 314 408
#     4  10  24  42  68  93 130 186 219 294 321 406
#     4   9  22  38  64 100 134 173 226 276 336 417
#     4  12  27  43  70 105 135 188 224 280 346 414
#
# _framework density 19.576187000000001
#
# number of rings (size 3 to 8) (size 9 to 14) (size 15 to 20)
#    0.571    0.762    1.905    2.857    5.333    1.524 
#    3.429    1.905    0.000    0.000    0.000    0.000 
#    0.000    0.000    0.000    0.000    0.000    0.000 
#
# Total GULP energy -116904.798246 kJ/mol
# GULP energy per Si atom -5566.895155 kJ/mol
# Density = 1.953163 g / cm^3
# Si number density = 19.576187 Si / 1000 Ang^3
#
#
#
# Elastic Constant Matrix: (Units=GPa)
#
#
# Indices 1 2 3 4 5 6 
#
# 1 122.1888 44.6905 41.7427 0.0000 -1.5427 0.0000
# 2 44.6905 112.8841 36.5353 0.0000 -16.1172 0.0000
# 3 41.7427 36.5353 62.7431 0.0000 5.7563 0.0000
# 4 0.0000 0.0000 0.0000 51.8609 0.0000 14.3112
# 5 -1.5427 -16.1172 5.7563 0.0000 23.9333 0.0000
# 6 0.0000 0.0000 0.0000 14.3112 0.0000 33.8594
#
#
#
# Elastic Compliance Matrix: (Units=1/GPa)
#
#
# Indices 1 2 3 4 5 6 
#
# 1 0.011133 -0.002349 -0.006094 0.000000 0.000601 0.000000
# 2 -0.002349 0.013756 -0.007447 0.000000 0.010903 0.000000
# 3 -0.006094 -0.007447 0.025385 0.000000 -0.011513 0.000000
# 4 0.000000 0.000000 0.000000 0.021828 0.000000 -0.009226
# 5 0.000601 0.010903 -0.011513 0.000000 0.051933 0.000000
# 6 0.000000 0.000000 0.000000 -0.009226 0.000000 0.033433
#
#
# Mechanical properties :
#
#
# Convention : Reuss Voigt Hill
#
# Bulk Modulus (GPa) = 54.07499 60.41700 57.24599
# Shear Modulus (GPa) = 25.58681 33.58719 29.58700
#
# Velocity S-wave (km/s) = 3.61922 4.14661 3.89186
# Velocity P-wave (km/s) = 6.71921 7.33862 7.03574
#
# Compressibility (1/GPa) = 0.01849284
#
# Stress axis : x y z
#
# Youngs Moduli (GPa) = 89.82579 72.69665 39.39343
#
# Poissons Ratio (x) = 0.17079 0.24005
# Poissons Ratio (y) = 0.21103 0.29337
# Poissons Ratio (z) = 0.54737 0.54139
#
# Static dielectric constant tensor:
#      x y z
#    x 1.596640 0.000000 0.003290 
#    y 0.000000 1.662440 0.000000 
#    z 0.003290 0.000000 1.682500 
# 
# From -- ./inp_files/120685.got.cif
#   From: 2010.05.17/outbox.cif.g08.bks.cpg/sg12_61_cif.got.tgz:120685.got - 2010.06.03 13:09:07.
