data_PCOD9204309
_publ_section_title
;
Structure prediction by ZEFSAII (Michael W. Deem and Ramdas Pophale) SiO2 
 PCOD9204309
Probable space group: C 2/M
;
_chemical_formula_sum "Si O2"
_cell_formula_units_Z 56
_cell_length_a 26.010719
_cell_length_b 16.833803
_cell_length_c 18.114913
_cell_angle_alpha 90.000000
_cell_angle_beta 160.660962
_cell_angle_gamma 90.000000
_cell_volume 2626.668531
_symmetry_space_group_name_H-M "C 2/M"
_symmetry_group_IT_number 12
_symmetry_cell_setting 'monoclinic'
loop_
_space_group_symop_operation_xyz
x,y,z
-x,y,-z
-x,-y,-z
x,-y,z
1/2+x,1/2+y,z
1/2-x,1/2+y,-z
1/2-x,1/2-y,-z
1/2+x,1/2-y,z
loop_
_atom_site_type_symbol
_atom_site_label
_atom_site_fract_x
_atom_site_fract_y
_atom_site_fract_z
Si Si1 0.175259 0.910613 0.374129
Si Si2 0.330451 0.786879 0.866857
Si Si3 0.135424 0.293693 0.477478
Si Si4 0.328025 0.593744 0.259356
Si Si5 0.191563 0.658602 0.922298
Si Si6 0.053849 0.412654 0.156986
Si Si7 0.905986 0.169109 0.086564
O O1 0.273104 0.852026 0.453921
O O2 0.267341 0.912642 0.576949
O O3 0.002311 0.882864 0.158768
O O4 0.176369 0.000000 0.344978
O O5 0.261290 0.745822 0.702067
O O6 0.252643 0.871769 0.777610
O O7 0.503928 0.821201 0.107497
O O8 0.302550 0.729147 0.897727
O O9 0.995944 0.339900 0.332443
O O10 0.036136 0.224188 0.302959
O O11 0.500000 0.627689 0.500000
O O12 0.334689 0.500000 0.268539
O O13 0.243108 0.620836 0.069815
O O14 0.250000 0.750000 0.000000
O O15 0.294522 0.624945 0.994018
O O16 0.001317 0.500000 0.119957
O O17 0.000000 0.417654 0.000000
#
# Coordination Sequence:
#
# PCOD9204309 Si02
#       7
#     8   8   8   8   8   8   8
#     4  11  24  44  65  93 134 175 221 281 333 392
#     4  12  23  36  65  91 130 170 219 275 322 391
#     4  11  23  40  66  95 128 177 229 264 329 399
#     4  11  22  37  63  98 133 168 212 272 343 402
#     4  10  20  41  61  93 134 173 216 265 316 403
#     4  10  21  37  60  92 130 167 208 268 341 400
#     4  11  23  40  64  96 131 169 230 269 333 392
#
# _framework density 21.319782
#
# number of rings (size 3 to 8) (size 9 to 14) (size 15 to 20)
#    0.000    1.143    4.286    3.429    2.000    2.286 
#    0.000    5.000    0.000    0.000    0.000    3.000 
#    0.000    0.000    0.000    0.000    0.000    0.000 
#
# Total GULP energy -155917.642124 kJ/mol
# GULP energy per Si atom -5568.487219 kJ/mol
# Density = 2.127126 g / cm^3
# Si number density = 21.319782 Si / 1000 Ang^3
#
#
#
# Elastic Constant Matrix: (Units=GPa)
#
#
# Indices 1 2 3 4 5 6 
#
# 1 100.4505 41.5057 20.0956 -0.0001 19.8553 0.0000
# 2 41.5057 75.6247 30.8665 0.0000 0.9997 0.0000
# 3 20.0956 30.8665 52.9369 -0.0002 6.1051 -0.0001
# 4 -0.0001 0.0000 -0.0002 26.8337 -0.0001 -2.8993
# 5 19.8553 0.9997 6.1051 -0.0001 36.6099 0.0000
# 6 0.0000 0.0000 -0.0001 -2.8993 0.0000 25.6422
#
#
#
# Elastic Compliance Matrix: (Units=1/GPa)
#
#
# Indices 1 2 3 4 5 6 
#
# 1 0.014818 -0.008007 -0.000056 0.000000 -0.007809 0.000000
# 2 -0.008007 0.021734 -0.010263 0.000000 0.005460 0.000000
# 3 -0.000056 -0.010263 0.025348 0.000000 -0.003916 0.000000
# 4 0.000000 0.000000 0.000000 0.037727 0.000000 0.004266
# 5 -0.007809 0.005460 -0.003916 0.000000 0.032054 0.000000
# 6 0.000000 0.000000 0.000000 0.004266 0.000000 0.039481
#
#
# Mechanical properties :
#
#
# Convention : Reuss Voigt Hill
#
# Bulk Modulus (GPa) = 39.60671 45.99420 42.80045
# Shear Modulus (GPa) = 23.12354 26.92012 25.02183
#
# Velocity S-wave (km/s) = 3.29691 3.55728 3.42957
# Velocity P-wave (km/s) = 5.75418 6.20424 5.98344
#
# Compressibility (1/GPa) = 0.02524825
#
# Stress axis : x y z
#
# Youngs Moduli (GPa) = 67.48480 46.01022 39.45149
#
# Poissons Ratio (x) = 0.36839 0.00221
# Poissons Ratio (y) = 0.54033 0.40490
# Poissons Ratio (z) = 0.00379 0.47221
#
# Static dielectric constant tensor:
#      x y z
#    x 4.119480 0.000000 2.031150 
#    y 0.000000 1.868180 0.000000 
#    z 2.031150 0.000000 3.469290 
# 
# From -- ./inp_files/293828.got.cif
#   From: 2010.05.17/outbox.cif.g08.bks.cpg/sg12_147_cif.got.tgz:293828.got - 2010.06.03 13:09:07.
