data_PCOD9204981
_publ_section_title
;
Structure prediction by ZEFSAII (Michael W. Deem and Ramdas Pophale) SiO2 
 PCOD9204981
Probable space group: C 2/M
;
_chemical_formula_sum "Si O2"
_cell_formula_units_Z 56
_cell_length_a 16.496785
_cell_length_b 24.111464
_cell_length_c 9.247166
_cell_angle_alpha 90.000000
_cell_angle_beta 43.590056
_cell_angle_gamma 90.000000
_cell_volume 2536.074138
_symmetry_space_group_name_H-M "C 2/M"
_symmetry_group_IT_number 12
_symmetry_cell_setting 'monoclinic'
loop_
_space_group_symop_operation_xyz
x,y,z
-x,y,-z
-x,-y,-z
x,-y,z
1/2+x,1/2+y,z
1/2-x,1/2+y,-z
1/2-x,1/2-y,-z
1/2+x,1/2-y,z
loop_
_atom_site_type_symbol
_atom_site_label
_atom_site_fract_x
_atom_site_fract_y
_atom_site_fract_z
Si Si1 0.812999 0.730852 0.065899
Si Si2 0.612385 0.326179 0.515640
Si Si3 0.317324 0.063159 0.522953
Si Si4 0.524009 0.210697 0.630348
Si Si5 0.203034 0.063174 0.344618
Si Si6 0.285570 0.328431 0.301684
Si Si7 0.052086 0.567536 0.085060
O O1 0.724044 0.697346 0.281959
O O2 0.841549 0.787196 0.114897
O O3 0.750000 0.750000 0.000000
O O4 0.926399 0.695827 0.873264
O O5 0.516199 0.278112 0.627595
O O6 0.604337 0.389566 0.475106
O O7 0.641725 0.328422 0.646616
O O8 0.265277 0.063806 0.424955
O O9 0.243051 0.108526 0.706086
O O10 0.454484 0.081336 0.332054
O O11 0.309825 0.000000 0.585286
O O12 0.500000 0.189000 0.500000
O O13 0.655716 0.196205 0.504579
O O14 0.164261 0.000000 0.369571
O O15 0.308762 0.078168 0.096579
O O16 0.044997 0.500000 0.088289
O O17 0.000000 0.588930 0.000000
#
# Coordination Sequence:
#
# PCOD9204981 Si02
#       7
#     8   8   8   8   8   8   8
#     4  11  21  37  55  74 102 145 178 214 267 318
#     4  10  21  34  54  85 107 131 179 223 257 308
#     4   8  14  26  45  72 107 137 162 206 263 311
#     4  11  21  37  55  74 102 145 177 215 267 316
#     4   8  14  26  45  72 106 136 165 210 262 305
#     4  10  21  34  54  85 107 132 180 218 254 315
#     4   7  10  18  34  60  95 132 160 184 235 302
#
# _framework density 22.081372999999999
#
# number of rings (size 3 to 8) (size 9 to 14) (size 15 to 20)
#    0.000    2.714    2.857    3.429    2.000    2.286 
#    0.000    0.000    0.000    2.571    0.000    4.000 
#    0.000    0.000    0.000    0.000    0.000    0.000 
#
# Total GULP energy -156116.602231 kJ/mol
# GULP energy per Si atom -5575.592937 kJ/mol
# Density = 2.203111 g / cm^3
# Si number density = 22.081373 Si / 1000 Ang^3
#
#
#
# Elastic Constant Matrix: (Units=GPa)
#
#
# Indices 1 2 3 4 5 6 
#
# 1 46.6256 1.2991 3.2336 0.0000 4.2242 0.0000
# 2 1.2991 106.5609 11.6933 0.0000 12.1516 0.0000
# 3 3.2336 11.6933 68.8288 0.0000 5.3438 0.0000
# 4 0.0000 0.0000 0.0000 14.8094 0.0000 -22.0642
# 5 4.2242 12.1516 5.3438 0.0000 16.5257 0.0000
# 6 0.0000 0.0000 0.0000 -22.0642 0.0000 3.6797
#
#
#
# Elastic Compliance Matrix: (Units=1/GPa)
#
#
# Indices 1 2 3 4 5 6 
#
# 1 0.022001 0.000460 -0.000666 0.000000 -0.005747 0.000000
# 2 0.000460 0.010348 -0.001210 0.000000 -0.007335 0.000000
# 3 -0.000666 -0.001210 0.015062 0.000000 -0.003810 0.000000
# 4 0.000000 0.000000 0.000000 -0.008511 0.000000 -0.051035
# 5 -0.005747 -0.007335 -0.003810 0.000000 0.068607 0.000000
# 6 0.000000 0.000000 0.000000 -0.051035 0.000000 -0.034255
#
#
# Mechanical properties :
#
#
# Convention : Reuss Voigt Hill
#
# Bulk Modulus (GPa) = 22.43168 28.27414 25.35291
# Shear Modulus (GPa) = 54.97955 20.72224 37.85089
#
# Velocity S-wave (km/s) = 4.99526 3.06673 4.14473
# Velocity P-wave (km/s) = 6.59173 5.03708 5.86613
#
# Compressibility (1/GPa) = 0.04457981
#
# Stress axis : x y z
#
# Youngs Moduli (GPa) = 45.45152 96.63736 66.39441
#
# Poissons Ratio (x) = -0.04447 0.04419
# Poissons Ratio (y) = -0.02092 0.08035
# Poissons Ratio (z) = 0.03025 0.11694
#
# Static dielectric constant tensor:
#      x y z
#    x 1.811850 0.000000 -0.009380 
#    y 0.000000 1.906290 0.000000 
#    z -0.009380 0.000000 1.835810 
# 
# From -- ./inp_files/79657.got.cif
#   From: 2010.05.17/outbox.cif.g08.bks.cpg/sg12_40_cif.got.tgz:79657.got - 2010.06.03 13:09:07.
