data_PCOD9204078
_publ_section_title
;
Structure prediction by ZEFSAII (Michael W. Deem and Ramdas Pophale) SiO2 
 PCOD9204078
Probable space group: C 2/M
;
_chemical_formula_sum "Si O2"
_cell_formula_units_Z 36
_cell_length_a 14.354401
_cell_length_b 9.987725
_cell_length_c 13.221807
_cell_angle_alpha 90.000000
_cell_angle_beta 80.805121
_cell_angle_gamma 90.000000
_cell_volume 1871.224332
_symmetry_space_group_name_H-M "C 2/M"
_symmetry_group_IT_number 12
_symmetry_cell_setting 'monoclinic'
loop_
_space_group_symop_operation_xyz
x,y,z
-x,y,-z
-x,-y,-z
x,-y,z
1/2+x,1/2+y,z
1/2-x,1/2+y,-z
1/2-x,1/2-y,-z
1/2+x,1/2-y,z
loop_
_atom_site_type_symbol
_atom_site_label
_atom_site_fract_x
_atom_site_fract_y
_atom_site_fract_z
Si Si1 0.585283 0.843438 0.905377
Si Si2 0.754669 0.345957 0.856873
Si Si3 0.487977 0.500000 0.380776
Si Si4 0.951453 0.739519 0.750731
Si Si5 0.424579 0.000000 0.599987
Si Si6 0.780611 0.000000 0.333746
O O1 0.673300 0.747427 0.915871
O O2 0.538335 0.794109 0.808961
O O3 0.612932 0.000000 0.893516
O O4 0.500000 0.833404 0.000000
O O5 0.763188 0.500000 0.897562
O O6 0.855420 0.273234 0.833271
O O7 0.725543 0.376586 0.744610
O O8 0.500000 0.500000 0.500000
O O9 0.532488 0.374036 0.314375
O O10 0.376093 0.500000 0.378070
O O11 0.940684 0.625449 0.669189
O O12 0.500000 0.000000 0.500000
O O13 0.315285 0.000000 0.585357
#
# Coordination Sequence:
#
# PCOD9204078 Si02
#       6
#     8   8   4   8   4   4
#     4  11  23  39  63  94 123 156 201 253 303 359
#     4   9  19  40  64  85 121 162 202 241 310 362
#     4  12  24  40  60  94 124 155 207 264 294 349
#     4  11  21  42  60  86 128 161 198 254 300 358
#     4  10  20  40  65  85 112 170 205 235 309 373
#     4   8  18  40  60  81 119 153 200 239 299 358
#
# _framework density 19.238741000000001
#
# number of rings (size 3 to 8) (size 9 to 14) (size 15 to 20)
#    0.667    1.111    4.444    0.667    1.556    1.333 
#    4.000    3.333    0.000    0.000    0.000    0.000 
#    0.000    0.000    0.000    0.000    0.000    0.000 
#
# Total GULP energy -100365.835069 kJ/mol
# GULP energy per Si atom -5575.879726 kJ/mol
# Density = 1.919495 g / cm^3
# Si number density = 19.238741 Si / 1000 Ang^3
#
#
#
# Elastic Constant Matrix: (Units=GPa)
#
#
# Indices 1 2 3 4 5 6 
#
# 1 116.0733 55.7643 34.3405 0.0000 -16.0799 0.0000
# 2 55.7643 162.3794 51.6954 0.0000 -21.4239 0.0000
# 3 34.3405 51.6954 78.6547 0.0000 -15.8802 0.0000
# 4 0.0000 0.0000 0.0000 27.5356 0.0000 -12.0377
# 5 -16.0799 -21.4239 -15.8802 0.0000 40.6475 0.0000
# 6 0.0000 0.0000 0.0000 -12.0377 0.0000 25.8839
#
#
#
# Elastic Compliance Matrix: (Units=1/GPa)
#
#
# Indices 1 2 3 4 5 6 
#
# 1 0.010940 -0.002666 -0.002642 0.000000 0.001890 0.000000
# 2 -0.002666 0.008638 -0.004133 0.000000 0.001883 0.000000
# 3 -0.002642 -0.004133 0.017297 0.000000 0.003534 0.000000
# 4 0.000000 0.000000 0.000000 0.045585 0.000000 0.021200
# 5 0.001890 0.001883 0.003534 0.000000 0.027723 0.000000
# 6 0.000000 0.000000 0.000000 0.021200 0.000000 0.048493
#
#
# Mechanical properties :
#
#
# Convention : Reuss Voigt Hill
#
# Bulk Modulus (GPa) = 55.57993 71.18975 63.38484
# Shear Modulus (GPa) = 27.23947 33.16721 30.20334
#
# Velocity S-wave (km/s) = 3.76688 4.15659 3.96652
# Velocity P-wave (km/s) = 6.91892 7.75371 7.34818
#
# Compressibility (1/GPa) = 0.01799211
#
# Stress axis : x y z
#
# Youngs Moduli (GPa) = 91.40954 115.76147 57.81215
#
# Poissons Ratio (x) = 0.30866 0.15275
# Poissons Ratio (y) = 0.24373 0.23895
# Poissons Ratio (z) = 0.24152 0.47846
#
# Static dielectric constant tensor:
#      x y z
#    x 1.691700 0.000000 0.001340 
#    y 0.000000 1.645880 0.000000 
#    z 0.001340 0.000000 1.673000 
# 
# From -- ./inp_files/210702.got.cif
#   From: 2010.05.17/outbox.cif.g08.bks.cpg/sg12_106_cif.got.tgz:210702.got - 2010.06.03 13:09:07.
