data_PCOD9204196
_publ_section_title
;
Structure prediction by ZEFSAII (Michael W. Deem and Ramdas Pophale) SiO2 
 PCOD9204196
Probable space group: C 2/M
;
_chemical_formula_sum "Si O2"
_cell_formula_units_Z 56
_cell_length_a 32.433536
_cell_length_b 8.931433
_cell_length_c 20.454872
_cell_angle_alpha 90.000000
_cell_angle_beta 149.813218
_cell_angle_gamma 90.000000
_cell_volume 2979.375392
_symmetry_space_group_name_H-M "C 2/M"
_symmetry_group_IT_number 12
_symmetry_cell_setting 'monoclinic'
loop_
_space_group_symop_operation_xyz
x,y,z
-x,y,-z
-x,-y,-z
x,-y,z
1/2+x,1/2+y,z
1/2-x,1/2+y,-z
1/2-x,1/2-y,-z
1/2+x,1/2-y,z
loop_
_atom_site_type_symbol
_atom_site_label
_atom_site_fract_x
_atom_site_fract_y
_atom_site_fract_z
Si Si1 0.267595 0.179860 0.697056
Si Si2 0.199326 0.821319 0.871297
Si Si3 0.592790 0.178964 0.434370
Si Si4 0.005885 0.178166 0.820550
Si Si5 0.182162 0.679492 0.086397
Si Si6 0.565206 0.178476 0.147286
Si Si7 0.023955 0.679964 0.606128
O O1 0.184689 0.259057 0.561700
O O2 0.290886 0.221955 0.803449
O O3 0.344863 0.215129 0.756796
O O4 0.256067 0.000000 0.680073
O O5 0.247310 0.787791 0.869584
O O6 0.108365 0.755550 0.743404
O O7 0.196448 0.000000 0.875298
O O8 0.250000 0.750000 0.000000
O O9 0.540591 0.251161 0.304721
O O10 0.547674 0.216211 0.440817
O O11 0.593146 0.000000 0.427397
O O12 0.960202 0.231482 0.823703
O O13 0.006222 0.000000 0.816131
O O14 0.098444 0.239693 0.951888
O O15 0.167244 0.500000 0.065810
O O16 0.561714 0.000000 0.156817
O O17 0.500000 0.206667 0.000000
O O18 0.035209 0.500000 0.621892
O O19 0.000000 0.726388 0.500000
#
# Coordination Sequence:
#
# PCOD9204196 Si02
#       7
#     8   8   8   8   8   8   8
#     4  10  21  39  65  91 117 152 198 247 296 356
#     4  11  23  37  59  88 120 157 200 250 300 355
#     4  11  24  41  61  87 123 164 201 244 303 362
#     4  12  25  39  61  91 124 160 202 252 296 350
#     4  10  21  40  62  87 119 158 200 245 303 362
#     4  10  20  40  67  91 120 159 196 241 303 362
#     4  10  22  41  63  87 120 160 201 249 305 361
#
# _framework density 18.795885999999999
#
# number of rings (size 3 to 8) (size 9 to 14) (size 15 to 20)
#    0.000    1.429    1.429    3.857    0.000    8.000 
#    0.000    0.000    0.000    0.000    0.000    0.000 
#    0.000    0.000    0.000    0.000    0.000    0.000 
#
# Total GULP energy -156595.633675 kJ/mol
# GULP energy per Si atom -5592.701203 kJ/mol
# Density = 1.875311 g / cm^3
# Si number density = 18.795886 Si / 1000 Ang^3
#
#
#
# Elastic Constant Matrix: (Units=GPa)
#
#
# Indices 1 2 3 4 5 6 
#
# 1 46.2543 18.1200 -0.0531 0.0000 12.0690 0.0000
# 2 18.1200 27.6907 21.6568 0.0000 8.7393 0.0000
# 3 -0.0531 21.6568 91.5574 0.0000 10.5836 0.0000
# 4 0.0000 0.0000 0.0000 39.6553 0.0000 4.8509
# 5 12.0690 8.7393 10.5836 0.0000 33.7402 0.0000
# 6 0.0000 0.0000 0.0000 4.8509 0.0000 12.6596
#
#
#
# Elastic Compliance Matrix: (Units=1/GPa)
#
#
# Indices 1 2 3 4 5 6 
#
# 1 0.033262 -0.024616 0.006724 0.000000 -0.007631 0.000000
# 2 -0.024616 0.065007 -0.015007 0.000000 -0.003325 0.000000
# 3 0.006724 -0.015007 0.014843 0.000000 -0.003174 0.000000
# 4 0.000000 0.000000 0.000000 0.026457 0.000000 -0.010138
# 5 -0.007631 -0.003325 -0.003174 0.000000 0.034225 0.000000
# 6 0.000000 0.000000 0.000000 -0.010138 0.000000 0.082876
#
#
# Mechanical properties :
#
#
# Convention : Reuss Voigt Hill
#
# Bulk Modulus (GPa) = 21.13512 27.21663 24.17587
# Shear Modulus (GPa) = 14.78247 25.59626 20.18937
#
# Velocity S-wave (km/s) = 2.80746 3.69426 3.28096
# Velocity P-wave (km/s) = 4.66669 5.71912 5.21950
#
# Compressibility (1/GPa) = 0.04731462
#
# Stress axis : x y z
#
# Youngs Moduli (GPa) = 30.06457 15.38289 67.37395
#
# Poissons Ratio (x) = 0.37866 -0.45302
# Poissons Ratio (y) = 0.74007 1.01105
# Poissons Ratio (z) = -0.20215 0.23084
#
# Static dielectric constant tensor:
#      x y z
#    x 1.639260 0.000000 -0.000130 
#    y 0.000000 1.627110 0.000000 
#    z -0.000130 0.000000 1.601440 
# 
# From -- ./inp_files/329659.got.cif
#   From: 2010.05.17/outbox.cif.g08.bks.cpg/sg12_165_cif.got.tgz:329659.got - 2010.06.03 13:09:07.
