data_PCOD9204517
_publ_section_title
;
Structure prediction by ZEFSAII (Michael W. Deem and Ramdas Pophale) SiO2 
 PCOD9204517
Probable space group: C 2/M
;
_chemical_formula_sum "Si O2"
_cell_formula_units_Z 42
_cell_length_a 17.476194
_cell_length_b 21.650815
_cell_length_c 5.414490
_cell_angle_alpha 90.000000
_cell_angle_beta 53.952443
_cell_angle_gamma 90.000000
_cell_volume 1656.434156
_symmetry_space_group_name_H-M "C 2/M"
_symmetry_group_IT_number 12
_symmetry_cell_setting 'monoclinic'
loop_
_space_group_symop_operation_xyz
x,y,z
-x,y,-z
-x,-y,-z
x,-y,z
1/2+x,1/2+y,z
1/2-x,1/2+y,-z
1/2-x,1/2-y,-z
1/2+x,1/2-y,z
loop_
_atom_site_type_symbol
_atom_site_label
_atom_site_fract_x
_atom_site_fract_y
_atom_site_fract_z
Si Si1 0.390046 0.932557 0.778495
Si Si2 0.885849 0.301960 0.973264
Si Si3 0.111998 0.890729 0.511905
Si Si4 0.500000 0.500000 0.500000
Si Si5 0.711831 0.428052 0.823908
Si Si6 0.401896 0.248740 0.439017
O O1 0.500000 0.931618 0.500000
O O2 0.371127 0.874763 0.987746
O O3 0.324097 0.926033 0.661662
O O4 0.366131 0.000000 0.933461
O O5 0.851108 0.271734 0.785380
O O6 0.998343 0.287479 0.754520
O O7 0.849467 0.271892 0.291508
O O8 0.175505 0.904520 0.631880
O O9 0.075239 0.821173 0.606708
O O10 0.168849 0.894146 0.144776
O O11 0.035815 0.944782 0.624455
O O12 0.679652 0.500000 0.916015
#
# Coordination Sequence:
#
# PCOD9204517 Si02
#       6
#     8   8   8   2   8   8
#     4  10  22  45  80 106 135 193 244 292 369 428
#     4  10  20  42  65  99 138 177 235 304 329 419
#     4  12  25  44  69 106 140 196 232 293 367 416
#     4  12  24  42  80 102 142 194 246 282 356 446
#     4  11  24  47  66 105 154 175 234 317 351 417
#     4  10  21  39  66  94 143 177 232 293 341 416
#
# _framework density 25.355668000000001
#
# number of rings (size 3 to 8) (size 9 to 14) (size 15 to 20)
#    0.000    1.333    3.810    2.286    0.000    4.571 
#    0.000   10.476    0.000    0.000    0.000    0.000 
#    0.000    0.000    0.000    0.000    0.000    0.000 
#
# Total GULP energy -117378.531533 kJ/mol
# GULP energy per Si atom -5589.453883 kJ/mol
# Density = 2.529796 g / cm^3
# Si number density = 25.355668 Si / 1000 Ang^3
#
#
#
# Elastic Constant Matrix: (Units=GPa)
#
#
# Indices 1 2 3 4 5 6 
#
# 1 142.7393 61.8875 84.0229 0.0000 20.6898 0.0000
# 2 61.8875 244.6493 41.5603 0.0000 33.1616 0.0000
# 3 84.0229 41.5603 129.9371 0.0000 58.6993 0.0000
# 4 0.0000 0.0000 0.0000 -2.7957 0.0000 44.1178
# 5 20.6898 33.1616 58.6993 0.0000 48.3669 0.0000
# 6 0.0000 0.0000 0.0000 44.1178 0.0000 -5.6371
#
#
#
# Elastic Compliance Matrix: (Units=1/GPa)
#
#
# Indices 1 2 3 4 5 6 
#
# 1 0.015370 -0.003213 -0.015354 0.000000 0.014262 0.000000
# 2 -0.003213 0.005178 0.003109 0.000000 -0.005949 0.000000
# 3 -0.015354 0.003109 0.032377 0.000000 -0.034857 0.000000
# 4 0.000000 0.000000 0.000000 0.002920 0.000000 0.022852
# 5 0.014262 -0.005949 -0.034857 0.000000 0.060956 0.000000
# 6 0.000000 0.000000 0.000000 0.022852 0.000000 0.001448
#
#
# Mechanical properties :
#
#
# Convention : Reuss Voigt Hill
#
# Bulk Modulus (GPa) = 45.43658 99.14080 72.28869
# Shear Modulus (GPa) = 31.94857 29.97715 30.96286
#
# Velocity S-wave (km/s) = 3.55352 3.44214 3.49827
# Velocity P-wave (km/s) = 5.89875 7.41503 6.69993
#
# Compressibility (1/GPa) = 0.02200870
#
# Stress axis : x y z
#
# Youngs Moduli (GPa) = 65.06391 193.10662 30.88625
#
# Poissons Ratio (x) = 0.62042 0.47422
# Poissons Ratio (y) = 0.20904 -0.09601
# Poissons Ratio (z) = 0.99898 -0.60030
#
# Static dielectric constant tensor:
#      x y z
#    x 1.938340 0.000000 -0.194250 
#    y 0.000000 1.946110 0.000000 
#    z -0.194250 0.000000 2.568480 
# 
# From -- ./inp_files/16022.got.cif
#   From: 2010.05.17/outbox.cif.g08.bks.cpg/sg12_9_cif.got.tgz:16022.got - 2010.06.03 13:09:07.
