data_PCOD9204172
_publ_section_title
;
Structure prediction by ZEFSAII (Michael W. Deem and Ramdas Pophale) SiO2 
 PCOD9204172
Probable space group: C 2/M
;
_chemical_formula_sum "Si O2"
_cell_formula_units_Z 48
_cell_length_a 30.015538
_cell_length_b 8.906814
_cell_length_c 15.338981
_cell_angle_alpha 90.000000
_cell_angle_beta 39.952497
_cell_angle_gamma 90.000000
_cell_volume 2633.316433
_symmetry_space_group_name_H-M "C 2/M"
_symmetry_group_IT_number 12
_symmetry_cell_setting 'monoclinic'
loop_
_space_group_symop_operation_xyz
x,y,z
-x,y,-z
-x,-y,-z
x,-y,z
1/2+x,1/2+y,z
1/2-x,1/2+y,-z
1/2-x,1/2-y,-z
1/2+x,1/2-y,z
loop_
_atom_site_type_symbol
_atom_site_label
_atom_site_fract_x
_atom_site_fract_y
_atom_site_fract_z
Si Si1 0.576778 0.179969 0.349891
Si Si2 0.671906 0.178854 0.868402
Si Si3 0.420117 0.320152 0.143618
Si Si4 0.079880 0.179829 0.653562
Si Si5 0.079138 0.820594 0.158532
Si Si6 0.323837 0.820649 0.637159
O O1 0.500000 0.219923 0.500000
O O2 0.591155 0.263577 0.238283
O O3 0.632130 0.215607 0.341922
O O4 0.577518 0.000000 0.333815
O O5 0.630894 0.235304 0.844579
O O6 0.749451 0.242922 0.750723
O O7 0.672860 0.000000 0.869988
O O8 0.630698 0.243570 0.013270
O O9 0.411409 0.500000 0.144589
O O10 0.408085 0.284444 0.263026
O O11 0.500000 0.285288 0.000000
O O12 0.131588 0.264268 0.511799
O O13 0.000282 0.216662 0.748647
O O14 0.088203 0.000000 0.630144
O O15 0.086981 0.000000 0.141116
O O16 0.315571 0.000000 0.645459
#
# Coordination Sequence:
#
# PCOD9204172 Si02
#       6
#     8   8   8   8   8   8
#     4  10  21  39  63  94 125 159 206 257 307 362
#     4  12  26  42  62  91 128 163 207 259 308 365
#     4  10  20  40  66  92 124 162 205 253 306 367
#     4  10  21  38  64  94 124 159 204 253 302 367
#     4  11  22  39  65  94 124 163 207 250 307 370
#     4  11  24  42  64  89 127 167 203 253 313 368
#
# _framework density 18.227965000000001
#
# number of rings (size 3 to 8) (size 9 to 14) (size 15 to 20)
#    0.000    1.333    3.333    2.500    0.000    4.667 
#    0.000    0.000    0.000    0.000    0.000    0.000 
#    0.000    0.000    0.000    0.000    0.000    0.000 
#
# Total GULP energy -134195.939407 kJ/mol
# GULP energy per Si atom -5591.497475 kJ/mol
# Density = 1.818648 g / cm^3
# Si number density = 18.227965 Si / 1000 Ang^3
#
#
#
# Elastic Constant Matrix: (Units=GPa)
#
#
# Indices 1 2 3 4 5 6 
#
# 1 168.6624 95.3888 119.8085 0.0000 3.6590 0.0000
# 2 95.3888 87.5019 97.5040 -0.0005 -0.2684 0.0001
# 3 119.8085 97.5040 177.2474 -0.0002 0.5035 0.0000
# 4 0.0000 -0.0005 -0.0002 35.8451 0.0000 7.1107
# 5 3.6590 -0.2684 0.5035 0.0000 36.4811 0.0000
# 6 0.0000 0.0001 0.0000 7.1107 0.0000 16.5773
#
#
#
# Elastic Compliance Matrix: (Units=1/GPa)
#
#
# Indices 1 2 3 4 5 6 
#
# 1 0.016229 -0.014156 -0.003178 0.000000 -0.001688 0.000000
# 2 -0.014156 0.041884 -0.013477 0.000001 0.001914 0.000000
# 3 -0.003178 -0.013477 0.015204 0.000000 0.000010 0.000000
# 4 0.000000 0.000001 0.000000 0.030492 0.000000 -0.013080
# 5 -0.001688 0.001914 0.000010 0.000000 0.027595 0.000000
# 6 0.000000 0.000000 0.000000 -0.013080 0.000000 0.065934
#
#
# Mechanical properties :
#
#
# Convention : Reuss Voigt Hill
#
# Bulk Modulus (GPa) = 85.51015 117.64606 101.57811
# Shear Modulus (GPa) = 19.02171 25.82805 22.42488
#
# Velocity S-wave (km/s) = 3.23390 3.76832 3.51129
# Velocity P-wave (km/s) = 7.80753 9.14414 8.50214
#
# Compressibility (1/GPa) = 0.01169452
#
# Stress axis : x y z
#
# Youngs Moduli (GPa) = 61.61821 23.87568 65.77335
#
# Poissons Ratio (x) = 0.33798 0.20902
# Poissons Ratio (y) = 0.87225 0.88644
# Poissons Ratio (z) = 0.19582 0.32178
#
# Static dielectric constant tensor:
#      x y z
#    x 1.602580 0.000000 -0.000050 
#    y 0.000000 1.606590 0.000000 
#    z -0.000050 0.000000 1.589160 
# 
# From -- ./inp_files/244604.got.cif
#   From: 2010.05.17/outbox.cif.g08.bks.cpg/sg12_123_cif.got.tgz:244604.got - 2010.06.03 13:09:07.
