data_PCOD9204993
_publ_section_title
;
Structure prediction by ZEFSAII (Michael W. Deem and Ramdas Pophale) SiO2 
 PCOD9204993
Probable space group: C 2/M
;
_chemical_formula_sum "Si O2"
_cell_formula_units_Z 56
_cell_length_a 7.744709
_cell_length_b 33.542193
_cell_length_c 18.847067
_cell_angle_alpha 90.000000
_cell_angle_beta 142.808804
_cell_angle_gamma 90.000000
_cell_volume 2959.510652
_symmetry_space_group_name_H-M "C 2/M"
_symmetry_group_IT_number 12
_symmetry_cell_setting 'monoclinic'
loop_
_space_group_symop_operation_xyz
x,y,z
-x,y,-z
-x,-y,-z
x,-y,z
1/2+x,1/2+y,z
1/2-x,1/2+y,-z
1/2-x,1/2-y,-z
1/2+x,1/2-y,z
loop_
_atom_site_type_symbol
_atom_site_label
_atom_site_fract_x
_atom_site_fract_y
_atom_site_fract_z
Si Si1 0.688008 0.167583 0.212080
Si Si2 0.080783 0.314018 0.727401
Si Si3 0.962852 0.907990 0.656184
Si Si4 0.688824 0.268913 0.403649
Si Si5 0.761618 0.456039 0.641620
Si Si6 0.660799 0.704473 0.977322
Si Si7 0.481989 0.107851 0.609644
O O1 0.525196 0.166839 0.234077
O O2 0.822833 0.124887 0.244258
O O3 0.942037 0.199808 0.305544
O O4 0.453814 0.180068 0.077485
O O5 0.419209 0.305291 0.840743
O O6 0.030516 0.346869 0.650666
O O7 0.908403 0.271993 0.667973
O O8 0.796385 0.891318 0.531996
O O9 0.725526 0.911929 0.639649
O O10 0.134778 0.944471 0.677175
O O11 0.750000 0.250000 0.500000
O O12 0.000000 0.289276 0.500000
O O13 0.500000 0.458725 0.500000
O O14 0.898298 0.500000 0.688071
O O15 0.942491 0.420259 0.665705
O O16 0.500000 0.699649 0.000000
O O17 0.750000 0.750000 0.000000
#
# Coordination Sequence:
#
# PCOD9204993 Si02
#       7
#     8   8   8   8   8   8   8
#     4  11  22  37  53  75 109 147 195 239 286 334
#     4  11  22  38  54  73 110 152 192 239 293 333
#     4  10  21  34  55  85 115 148 187 232 279 343
#     4  12  24  32  49  76 102 145 190 233 280 342
#     4   9  18  35  58  84 118 154 182 223 287 347
#     4  10  22  38  55  74 102 147 198 248 284 332
#     4  10  21  34  55  85 116 149 187 232 281 343
#
# _framework density 18.922048
#
# number of rings (size 3 to 8) (size 9 to 14) (size 15 to 20)
#    0.000    1.571    4.286    0.857    4.000    1.714 
#    0.000    2.857    0.000    0.000    0.000    2.000 
#    0.000    2.286    0.000    0.000    0.000    0.000 
#
# Total GULP energy -155981.960496 kJ/mol
# GULP energy per Si atom -5570.784303 kJ/mol
# Density = 1.887898 g / cm^3
# Si number density = 18.922048 Si / 1000 Ang^3
#
#
#
# Elastic Constant Matrix: (Units=GPa)
#
#
# Indices 1 2 3 4 5 6 
#
# 1 49.2779 15.9047 13.4306 0.0000 9.1643 0.0000
# 2 15.9047 88.8405 27.3853 0.0000 7.8867 0.0000
# 3 13.4306 27.3853 84.9501 0.0000 23.3010 0.0000
# 4 0.0000 0.0000 0.0000 8.8329 0.0000 2.4819
# 5 9.1643 7.8867 23.3010 0.0000 23.0225 0.0000
# 6 0.0000 0.0000 0.0000 2.4819 0.0000 21.2537
#
#
#
# Elastic Compliance Matrix: (Units=1/GPa)
#
#
# Indices 1 2 3 4 5 6 
#
# 1 0.022878 -0.003275 -0.000514 0.000000 -0.007465 0.000000
# 2 -0.003275 0.012968 -0.003879 0.000000 0.000787 0.000000
# 3 -0.000514 -0.003879 0.017556 0.000000 -0.016236 0.000000
# 4 0.000000 0.000000 0.000000 0.117054 0.000000 -0.013669
# 5 -0.007465 0.000787 -0.016236 0.000000 0.062570 0.000000
# 6 0.000000 0.000000 0.000000 -0.013669 0.000000 0.048647
#
#
# Mechanical properties :
#
#
# Convention : Reuss Voigt Hill
#
# Bulk Modulus (GPa) = 26.26821 37.38997 31.82909
# Shear Modulus (GPa) = 16.14480 21.71168 18.92824
#
# Velocity S-wave (km/s) = 2.92417 3.39105 3.16623
# Velocity P-wave (km/s) = 5.03125 5.92749 5.49767
#
# Compressibility (1/GPa) = 0.03806883
#
# Stress axis : x y z
#
# Youngs Moduli (GPa) = 43.70951 77.11216 56.95904
#
# Poissons Ratio (x) = 0.25252 0.02927
# Poissons Ratio (y) = 0.14314 0.22092
# Poissons Ratio (z) = 0.02246 0.29908
#
# Static dielectric constant tensor:
#      x y z
#    x 1.778960 0.000000 0.015000 
#    y 0.000000 1.680540 0.000000 
#    z 0.015000 0.000000 1.732840 
# 
# From -- ./inp_files/200980.got.cif
#   From: 2010.05.17/outbox.cif.g08.bks.cpg/sg12_101_cif.got.tgz:200980.got - 2010.06.03 13:09:07.
