data_PCOD9204956
_publ_section_title
;
Structure prediction by ZEFSAII (Michael W. Deem and Ramdas Pophale) SiO2 
 PCOD9204956
Probable space group: C 2/M
;
_chemical_formula_sum "Si O2"
_cell_formula_units_Z 56
_cell_length_a 28.364715
_cell_length_b 7.684400
_cell_length_c 19.495976
_cell_angle_alpha 90.000000
_cell_angle_beta 143.933962
_cell_angle_gamma 90.000000
_cell_volume 2501.728529
_symmetry_space_group_name_H-M "C 2/M"
_symmetry_group_IT_number 12
_symmetry_cell_setting 'monoclinic'
loop_
_space_group_symop_operation_xyz
x,y,z
-x,y,-z
-x,-y,-z
x,-y,z
1/2+x,1/2+y,z
1/2-x,1/2+y,-z
1/2-x,1/2-y,-z
1/2+x,1/2-y,z
loop_
_atom_site_type_symbol
_atom_site_label
_atom_site_fract_x
_atom_site_fract_y
_atom_site_fract_z
Si Si1 0.921252 0.205928 0.446130
Si Si2 0.251943 0.289843 0.804724
Si Si3 0.697261 0.712033 0.287288
Si Si4 0.490257 0.792396 0.208565
Si Si5 0.480620 0.798053 0.903179
Si Si6 0.181610 0.793573 0.973713
Si Si7 0.132795 0.297298 0.466899
O O1 0.840863 0.235906 0.307926
O O2 0.904491 0.287827 0.500611
O O3 0.000000 0.272273 0.500000
O O4 0.931333 0.000000 0.469343
O O5 0.253932 0.500000 0.807471
O O6 0.292269 0.235062 0.780351
O O7 0.293838 0.222133 0.922487
O O8 0.694443 0.500000 0.286294
O O9 0.614816 0.785746 0.218306
O O10 0.777180 0.774250 0.420558
O O11 0.481804 0.719702 0.121409
O O12 0.567938 0.719647 0.338740
O O13 0.502033 0.000000 0.216111
O O14 0.407187 0.766715 0.150134
O O15 0.506413 0.000000 0.937315
O O16 0.500000 0.716650 0.000000
O O17 0.177798 0.000000 0.974819
O O18 0.250000 0.750000 0.000000
O O19 0.142761 0.500000 0.460851
#
# Coordination Sequence:
#
# PCOD9204956 Si02
#       7
#     8   8   8   8   8   8   8
#     4  10  21  34  53  83 112 140 183 241 290 334
#     4   9  20  38  57  79 109 149 190 228 280 346
#     4   9  18  35  58  83 110 144 191 238 281 336
#     4  10  22  40  59  83 117 156 196 237 285 344
#     4  10  21  36  57  86 118 151 189 236 291 342
#     4  11  24  40  59  84 114 151 194 238 289 342
#     4   9  20  38  57  79 113 155 194 234 283 346
#
# _framework density 22.384523000000002
#
# number of rings (size 3 to 8) (size 9 to 14) (size 15 to 20)
#    0.000    2.286    0.000    2.571    2.000    6.571 
#    0.000    0.000    0.000    0.000    0.000    0.000 
#    0.000    0.000    0.000    0.000    0.000    0.000 
#
# Total GULP energy -156406.361346 kJ/mol
# GULP energy per Si atom -5585.941477 kJ/mol
# Density = 2.233357 g / cm^3
# Si number density = 22.384523 Si / 1000 Ang^3
#
#
#
# Elastic Constant Matrix: (Units=GPa)
#
#
# Indices 1 2 3 4 5 6 
#
# 1 64.8150 -9.9561 35.8435 0.0000 16.6317 0.0000
# 2 -9.9561 44.6750 -6.1733 0.0000 -8.0846 0.0000
# 3 35.8435 -6.1733 104.3927 0.0000 -9.7795 0.0000
# 4 0.0000 0.0000 0.0000 -2.7646 0.0000 19.4149
# 5 16.6317 -8.0846 -9.7795 0.0000 32.8855 0.0000
# 6 0.0000 0.0000 0.0000 19.4149 0.0000 7.5939
#
#
#
# Elastic Compliance Matrix: (Units=1/GPa)
#
#
# Indices 1 2 3 4 5 6 
#
# 1 0.025082 0.001446 -0.009959 0.000000 -0.015291 0.000000
# 2 0.001446 0.023914 0.001440 0.000000 0.005576 0.000000
# 3 -0.009959 0.001440 0.013978 0.000000 0.009547 0.000000
# 4 0.000000 0.000000 0.000000 -0.019083 0.000000 0.048789
# 5 -0.015291 0.005576 0.009547 0.000000 0.042352 0.000000
# 6 0.000000 0.000000 0.000000 0.048789 0.000000 0.006947
#
#
# Mechanical properties :
#
#
# Convention : Reuss Voigt Hill
#
# Bulk Modulus (GPa) = 20.47962 28.14565 24.31264
# Shear Modulus (GPa) = 40.44939 20.48753 30.46846
#
# Velocity S-wave (km/s) = 4.25552 3.02860 3.69336
# Velocity P-wave (km/s) = 5.77190 4.98306 5.39193
#
# Compressibility (1/GPa) = 0.04882903
#
# Stress axis : x y z
#
# Youngs Moduli (GPa) = 39.86973 41.81610 71.54026
#
# Poissons Ratio (x) = -0.06048 0.71245
# Poissons Ratio (y) = -0.05767 -0.10301
# Poissons Ratio (z) = 0.39705 -0.06021
#
# Static dielectric constant tensor:
#      x y z
#    x 1.737850 0.000000 -0.046590 
#    y 0.000000 1.914370 0.000000 
#    z -0.046590 0.000000 1.841340 
# 
# From -- ./inp_files/238308.got.cif
#   From: 2010.05.17/outbox.cif.g08.bks.cpg/sg12_120_cif.got.tgz:238308.got - 2010.06.03 13:09:07.
