data_PCOD9204904
_publ_section_title
;
Structure prediction by ZEFSAII (Michael W. Deem and Ramdas Pophale) SiO2 
 PCOD9204904
Probable space group: C 2/M
;
_chemical_formula_sum "Si O2"
_cell_formula_units_Z 56
_cell_length_a 5.227642
_cell_length_b 23.513128
_cell_length_c 22.626423
_cell_angle_alpha 90.000000
_cell_angle_beta 85.973454
_cell_angle_gamma 90.000000
_cell_volume 2774.334492
_symmetry_space_group_name_H-M "C 2/M"
_symmetry_group_IT_number 12
_symmetry_cell_setting 'monoclinic'
loop_
_space_group_symop_operation_xyz
x,y,z
-x,y,-z
-x,-y,-z
x,-y,z
1/2+x,1/2+y,z
1/2-x,1/2+y,-z
1/2-x,1/2-y,-z
1/2+x,1/2-y,z
loop_
_atom_site_type_symbol
_atom_site_label
_atom_site_fract_x
_atom_site_fract_y
_atom_site_fract_z
Si Si1 0.104828 0.122427 0.151029
Si Si2 0.636314 0.931555 0.745005
Si Si3 0.164448 0.931193 0.671591
Si Si4 0.239556 0.930617 0.536190
Si Si5 0.258976 0.218985 0.822293
Si Si6 0.486973 0.820492 0.934719
Si Si7 0.312257 0.561647 0.059190
O O1 0.309837 0.098594 0.193786
O O2 0.247917 0.164268 0.102690
O O3 0.882753 0.159183 0.186307
O O4 0.976042 0.072243 0.115832
O O5 0.384561 0.913481 0.713659
O O6 0.883230 0.918095 0.700411
O O7 0.626825 0.000000 0.754175
O O8 0.213676 0.910792 0.604157
O O9 0.179842 0.000000 0.669177
O O10 0.500000 0.912666 0.500000
O O11 0.000000 0.913404 0.500000
O O12 0.240863 0.000000 0.537760
O O13 0.549289 0.236146 0.800629
O O14 0.305300 0.214137 0.892899
O O15 0.364985 0.883591 0.943050
O O16 0.500000 0.795874 0.000000
O O17 0.180454 0.500000 0.063617
O O18 0.500000 0.562103 0.000000
#
# Coordination Sequence:
#
# PCOD9204904 Si02
#       7
#     8   8   8   8   8   8   8
#     4  11  23  39  57  76 104 134 179 214 265 330
#     4  10  21  34  51  73 104 142 179 218 254 299
#     4   9  18  31  45  69 102 137 181 223 254 289
#     4   9  15  24  42  65  93 132 178 224 258 282
#     4  11  24  43  62  83 102 127 163 215 277 336
#     4  11  23  39  57  80 106 131 168 222 267 334
#     4  10  21  35  53  78 107 138 171 215 265 312
#
# _framework density 20.185023000000001
#
# number of rings (size 3 to 8) (size 9 to 14) (size 15 to 20)
#    0.000    1.857    2.857    1.286    4.000    5.429 
#    0.000    0.000    0.000    0.000    0.000    0.000 
#    0.000    0.000    0.000    0.000    0.000   50.000 
#
# Total GULP energy -156312.819231 kJ/mol
# GULP energy per Si atom -5582.600687 kJ/mol
# Density = 2.013908 g / cm^3
# Si number density = 20.185023 Si / 1000 Ang^3
#
#
#
# Elastic Constant Matrix: (Units=GPa)
#
#
# Indices 1 2 3 4 5 6 
#
# 1 111.7142 9.1675 21.8824 0.0000 9.1845 0.0000
# 2 9.1675 48.8275 2.9001 0.0000 -0.0272 0.0000
# 3 21.8824 2.9001 84.1072 0.0000 5.6129 0.0000
# 4 0.0000 0.0000 0.0000 132.0205 0.0000 78.4899
# 5 9.1845 -0.0272 5.6129 0.0000 28.5262 0.0000
# 6 0.0000 0.0000 0.0000 78.4899 0.0000 66.7628
#
#
#
# Elastic Compliance Matrix: (Units=1/GPa)
#
#
# Indices 1 2 3 4 5 6 
#
# 1 0.009763 -0.001698 -0.002302 0.000000 -0.002692 0.000000
# 2 -0.001698 0.020818 -0.000318 0.000000 0.000629 0.000000
# 3 -0.002302 -0.000318 0.012616 0.000000 -0.001741 0.000000
# 4 0.000000 0.000000 0.000000 0.025161 0.000000 -0.029581
# 5 -0.002692 0.000629 -0.001741 0.000000 0.036266 0.000000
# 6 0.000000 0.000000 0.000000 -0.029581 0.000000 0.049755
#
#
# Mechanical properties :
#
#
# Convention : Reuss Voigt Hill
#
# Bulk Modulus (GPa) = 28.93405 34.72767 31.83086
# Shear Modulus (GPa) = 28.64753 59.50847 44.07800
#
# Velocity S-wave (km/s) = 3.77138 5.43558 4.67808
# Velocity P-wave (km/s) = 5.77321 7.52569 6.70693
#
# Compressibility (1/GPa) = 0.03456135
#
# Stress axis : x y z
#
# Youngs Moduli (GPa) = 102.42806 48.03473 79.26661
#
# Poissons Ratio (x) = 0.08155 0.18246
# Poissons Ratio (y) = 0.17390 0.02522
# Poissons Ratio (z) = 0.23578 0.01528
#
# Static dielectric constant tensor:
#      x y z
#    x 1.761610 0.000000 -0.012720 
#    y 0.000000 1.750130 0.000000 
#    z -0.012720 0.000000 1.714060 
# 
# From -- ./inp_files/298026.got.cif
#   From: 2010.05.17/outbox.cif.g08.bks.cpg/sg12_150_cif.got.tgz:298026.got - 2010.06.03 13:09:07.
