data_PCOD9204032
_publ_section_title
;
Structure prediction by ZEFSAII (Michael W. Deem and Ramdas Pophale) SiO2 
 PCOD9204032
Probable space group: C 2/M
;
_chemical_formula_sum "Si O2"
_cell_formula_units_Z 48
_cell_length_a 20.400429
_cell_length_b 9.141799
_cell_length_c 16.942261
_cell_angle_alpha 90.000000
_cell_angle_beta 53.462092
_cell_angle_gamma 90.000000
_cell_volume 2538.681939
_symmetry_space_group_name_H-M "C 2/M"
_symmetry_group_IT_number 12
_symmetry_cell_setting 'monoclinic'
loop_
_space_group_symop_operation_xyz
x,y,z
-x,y,-z
-x,-y,-z
x,-y,z
1/2+x,1/2+y,z
1/2-x,1/2+y,-z
1/2-x,1/2-y,-z
1/2+x,1/2-y,z
loop_
_atom_site_type_symbol
_atom_site_label
_atom_site_fract_x
_atom_site_fract_y
_atom_site_fract_z
Si Si1 0.802873 0.825447 0.144222
Si Si2 0.418589 0.824965 0.933639
Si Si3 0.837445 0.326291 0.436082
Si Si4 0.607196 0.173506 0.782635
Si Si5 0.619827 0.825109 0.220981
Si Si6 0.020448 0.173340 0.576917
O O1 0.829617 0.760447 0.208920
O O2 0.710055 0.788903 0.187232
O O3 0.810346 0.000000 0.139377
O O4 0.863815 0.757635 0.036026
O O5 0.514199 0.785533 0.870497
O O6 0.388855 0.793807 0.865912
O O7 0.412115 0.000000 0.951124
O O8 0.830054 0.500000 0.453988
O O9 0.750000 0.250000 0.500000
O O10 0.877311 0.303009 0.321077
O O11 0.897082 0.254638 0.457067
O O12 0.616251 0.000000 0.791372
O O13 0.551988 0.738535 0.318061
O O14 0.605973 0.000000 0.240642
O O15 0.000000 0.197296 0.500000
O O16 0.028811 0.000000 0.584638
#
# Coordination Sequence:
#
# PCOD9204032 Si02
#       6
#     8   8   8   8   8   8
#     4  11  24  37  58  94 127 158 204 256 303 359
#     4  10  20  40  64  85 117 164 210 249 305 368
#     4  11  24  44  68  94 126 163 206 255 310 369
#     4  10  22  41  63  86 121 165 204 247 304 367
#     4  10  22  42  63  88 123 164 207 251 308 368
#     4  11  25  43  65  95 126 160 206 256 310 370
#
# _framework density 18.907447999999999
#
# number of rings (size 3 to 8) (size 9 to 14) (size 15 to 20)
#    0.000    1.500    1.667    2.500    2.333    7.333 
#    0.000    0.000    0.000    0.000    0.000    0.000 
#    0.000    0.000    0.000    0.000    0.000    0.000 
#
# Total GULP energy -134214.981102 kJ/mol
# GULP energy per Si atom -5592.290879 kJ/mol
# Density = 1.886441 g / cm^3
# Si number density = 18.907448 Si / 1000 Ang^3
#
#
#
# Elastic Constant Matrix: (Units=GPa)
#
#
# Indices 1 2 3 4 5 6 
#
# 1 131.8511 61.5145 26.6169 0.0000 -7.1578 0.0000
# 2 61.5145 61.8370 44.9389 0.0001 -0.9397 0.0000
# 3 26.6169 44.9389 56.3349 0.0000 -10.8116 0.0000
# 4 0.0000 0.0001 0.0000 32.2542 0.0000 1.2569
# 5 -7.1578 -0.9397 -10.8116 0.0000 31.5867 0.0000
# 6 0.0000 0.0000 0.0000 1.2569 0.0000 37.0242
#
#
#
# Elastic Compliance Matrix: (Units=1/GPa)
#
#
# Indices 1 2 3 4 5 6 
#
# 1 0.020127 -0.034246 0.019789 0.000000 0.010315 0.000000
# 2 -0.034246 0.099959 -0.069009 0.000000 -0.028407 0.000000
# 3 0.019789 -0.069009 0.068411 0.000000 0.025847 0.000000
# 4 0.000000 0.000000 0.000000 0.031045 0.000000 -0.001054
# 5 0.010315 -0.028407 0.025847 0.000000 0.041998 0.000000
# 6 0.000000 0.000000 0.000000 -0.001054 0.000000 0.027045
#
#
# Mechanical properties :
#
#
# Convention : Reuss Voigt Hill
#
# Bulk Modulus (GPa) = 46.37534 57.35150 51.86342
# Shear Modulus (GPa) = 10.80598 27.96988 19.38793
#
# Velocity S-wave (km/s) = 2.39324 3.85035 3.20568
# Velocity P-wave (km/s) = 5.67606 7.08276 6.41806
#
# Compressibility (1/GPa) = 0.02156318
#
# Stress axis : x y z
#
# Youngs Moduli (GPa) = 49.68448 10.00412 14.61752
#
# Poissons Ratio (x) = 0.34261 -0.28926
# Poissons Ratio (y) = 1.70152 1.00874
# Poissons Ratio (z) = -0.98320 0.69038
#
# Static dielectric constant tensor:
#      x y z
#    x 1.641580 0.000000 0.005400 
#    y 0.000000 1.627520 0.000000 
#    z 0.005400 0.000000 1.625080 
# 
# From -- ./inp_files/280759.got.cif
#   From: 2010.05.17/outbox.cif.g08.bks.cpg/sg12_141_cif.got.tgz:280759.got - 2010.06.03 13:09:07.
