data_PCOD9204629
_publ_section_title
;
Structure prediction by ZEFSAII (Michael W. Deem and Ramdas Pophale) SiO2 
 PCOD9204629
Probable space group: C 2/M
;
_chemical_formula_sum "Si O2"
_cell_formula_units_Z 36
_cell_length_a 14.612188
_cell_length_b 9.344329
_cell_length_c 21.399599
_cell_angle_alpha 90.000000
_cell_angle_beta 31.754719
_cell_angle_gamma 90.000000
_cell_volume 1537.762055
_symmetry_space_group_name_H-M "C 2/M"
_symmetry_group_IT_number 12
_symmetry_cell_setting 'monoclinic'
loop_
_space_group_symop_operation_xyz
x,y,z
-x,y,-z
-x,-y,-z
x,-y,z
1/2+x,1/2+y,z
1/2-x,1/2+y,-z
1/2-x,1/2-y,-z
1/2+x,1/2-y,z
loop_
_atom_site_type_symbol
_atom_site_label
_atom_site_fract_x
_atom_site_fract_y
_atom_site_fract_z
Si Si1 0.005323 0.232517 0.405291
Si Si2 0.866823 0.166967 0.019468
Si Si3 0.512029 0.672260 0.262093
Si Si4 0.500000 0.000000 0.500000
Si Si5 0.500000 0.500000 0.500000
Si Si6 0.607141 0.168932 0.783945
O O1 0.948359 0.221508 0.366980
O O2 0.208482 0.179340 0.287893
O O3 0.997543 0.379056 0.445735
O O4 0.917289 0.120785 0.502197
O O5 0.956043 0.264774 0.914877
O O6 0.839956 0.000000 0.015350
O O7 0.691121 0.243509 0.143569
O O8 0.000000 0.163591 0.000000
O O9 0.531249 0.500000 0.250004
O O10 0.390555 0.725493 0.276571
O O11 0.580307 0.000000 0.785155
#
# Coordination Sequence:
#
# PCOD9204629 Si02
#       6
#     8   8   8   2   2   8
#     4  11  24  47  72  96 135 175 223 276 342 395
#     4  11  24  41  68 102 140 178 220 267 325 397
#     4  12  25  43  70 101 138 178 222 271 329 401
#     4  10  28  42  78  96 132 172 224 294 334 392
#     4  10  20  50  70  96 120 180 224 278 334 388
#     4  12  25  43  70 101 138 178 222 271 329 401
#
# _framework density 23.410644000000001
#
# number of rings (size 3 to 8) (size 9 to 14) (size 15 to 20)
#    0.000    0.667    4.444    2.667    6.222    0.889 
#    0.000    6.667    0.000    0.000    0.000    0.000 
#    0.000    0.000    0.000    0.000    0.000    0.000 
#
# Total GULP energy -100229.992119 kJ/mol
# GULP energy per Si atom -5568.332895 kJ/mol
# Density = 2.335736 g / cm^3
# Si number density = 23.410644 Si / 1000 Ang^3
#
#
#
# Elastic Constant Matrix: (Units=GPa)
#
#
# Indices 1 2 3 4 5 6 
#
# 1 70.5756 9.0250 12.0672 0.0000 26.9290 0.0000
# 2 9.0250 256.2303 44.9750 0.0001 23.0329 -0.0001
# 3 12.0672 44.9750 90.6059 0.0001 6.5206 0.0000
# 4 0.0000 0.0001 0.0001 86.5768 0.0001 -2.1875
# 5 26.9290 23.0329 6.5206 0.0001 54.8460 0.0000
# 6 0.0000 -0.0001 0.0000 -2.1875 0.0000 9.4582
#
#
#
# Elastic Compliance Matrix: (Units=1/GPa)
#
#
# Indices 1 2 3 4 5 6 
#
# 1 0.017764 0.000506 -0.001991 0.000000 -0.008697 0.000000
# 2 0.000506 0.004426 -0.002131 0.000000 -0.001853 0.000000
# 3 -0.001991 -0.002131 0.012330 0.000000 0.000406 0.000000
# 4 0.000000 0.000000 0.000000 0.011618 0.000000 0.002687
# 5 -0.008697 -0.001853 0.000406 0.000000 0.023233 0.000000
# 6 0.000000 0.000000 0.000000 0.002687 0.000000 0.106349
#
#
# Mechanical properties :
#
#
# Convention : Reuss Voigt Hill
#
# Bulk Modulus (GPa) = 36.64675 61.06068 48.85372
# Shear Modulus (GPa) = 26.03513 53.59917 39.81715
#
# Velocity S-wave (km/s) = 3.33844 4.79009 4.12857
# Velocity P-wave (km/s) = 5.52704 7.53208 6.60607
#
# Compressibility (1/GPa) = 0.02728755
#
# Stress axis : x y z
#
# Youngs Moduli (GPa) = 56.29500 225.96145 81.10066
#
# Poissons Ratio (x) = -0.11425 0.16146
# Poissons Ratio (y) = -0.02846 0.17280
# Poissons Ratio (z) = 0.11207 0.48146
#
# Static dielectric constant tensor:
#      x y z
#    x 1.910130 0.000000 -0.034480 
#    y 0.000000 1.777150 0.000000 
#    z -0.034480 0.000000 1.991470 
# 
# From -- ./inp_files/308866.got.cif
#   From: 2010.05.17/outbox.cif.g08.bks.cpg/sg12_155_cif.got.tgz:308866.got - 2010.06.03 13:09:07.
