data_PCOD9204800
_publ_section_title
;
Structure prediction by ZEFSAII (Michael W. Deem and Ramdas Pophale) SiO2 
 PCOD9204800
Probable space group: C 2/M
;
_chemical_formula_sum "Si O2"
_cell_formula_units_Z 64
_cell_length_a 14.500565
_cell_length_b 23.634233
_cell_length_c 9.464468
_cell_angle_alpha 90.000000
_cell_angle_beta 84.342955
_cell_angle_gamma 90.000000
_cell_volume 3227.768320
_symmetry_space_group_name_H-M "C 2/M"
_symmetry_group_IT_number 12
_symmetry_cell_setting 'monoclinic'
loop_
_space_group_symop_operation_xyz
x,y,z
-x,y,-z
-x,-y,-z
x,-y,z
1/2+x,1/2+y,z
1/2-x,1/2+y,-z
1/2-x,1/2-y,-z
1/2+x,1/2-y,z
loop_
_atom_site_type_symbol
_atom_site_label
_atom_site_fract_x
_atom_site_fract_y
_atom_site_fract_z
Si Si1 0.631563 0.065550 0.302650
Si Si2 0.737828 0.857584 0.504225
Si Si3 0.750259 0.065428 0.766026
Si Si4 0.729796 0.435114 0.937887
Si Si5 0.434827 0.794535 0.370596
Si Si6 0.539327 0.899947 0.833613
Si Si7 0.057934 0.834350 0.635057
Si Si8 0.035838 0.937147 0.834762
O O1 0.667321 0.102375 0.426772
O O2 0.685023 0.091064 0.157622
O O3 0.526147 0.068008 0.269123
O O4 0.657939 0.000000 0.321895
O O5 0.770533 0.894013 0.633507
O O6 0.671456 0.806375 0.564407
O O7 0.831682 0.842933 0.407612
O O8 0.640758 0.072334 0.815404
O O9 0.773108 0.000000 0.731056
O O10 0.797600 0.086646 0.904267
O O11 0.756964 0.500000 0.965766
O O12 0.646370 0.436869 0.841455
O O13 0.500000 0.804167 0.500000
O O14 0.454060 0.838155 0.240341
O O15 0.451623 0.730724 0.316807
O O16 0.500000 0.900688 0.000000
O O17 0.017941 0.883034 0.742372
O O18 0.000000 0.839079 0.500000
O O19 0.007463 0.000000 0.785065
O O20 0.000000 0.932611 0.000000
#
# Coordination Sequence:
#
# PCOD9204800 Si02
#       8
#     8   8   8   8   8   8   8   8
#     4  11  20  33  59  89 121 161 194 230 289 361
#     4  11  22  39  61  83 118 158 197 246 290 346
#     4  10  21  33  54  89 123 154 192 235 287 352
#     4   9  18  34  54  80 117 154 187 227 283 350
#     4  10  22  42  61  84 114 156 200 245 293 344
#     4  11  21  35  58  86 124 158 194 237 288 347
#     4  11  25  42  63  86 114 152 202 250 297 344
#     4  10  22  40  62  86 114 149 187 238 301 354
#
# _framework density 19.827940000000002
#
# number of rings (size 3 to 8) (size 9 to 14) (size 15 to 20)
#    0.000    1.625    3.750    1.125    1.750    1.750 
#    0.000    1.875    0.000    2.250    0.000    0.000 
#    0.000    0.000    0.000    0.000    0.000    0.000 
#
# Total GULP energy -178397.096121 kJ/mol
# GULP energy per Si atom -5574.909254 kJ/mol
# Density = 1.978281 g / cm^3
# Si number density = 19.827940 Si / 1000 Ang^3
#
#
#
# Elastic Constant Matrix: (Units=GPa)
#
#
# Indices 1 2 3 4 5 6 
#
# 1 48.1113 6.4216 -15.9706 0.0000 2.8827 0.0000
# 2 6.4216 116.3834 35.3223 0.0000 6.3084 0.0000
# 3 -15.9706 35.3223 48.4016 0.0000 10.0238 0.0000
# 4 0.0000 0.0000 0.0000 26.1596 0.0000 2.4713
# 5 2.8827 6.3084 10.0238 0.0000 30.2786 0.0000
# 6 0.0000 0.0000 0.0000 2.4713 0.0000 14.3595
#
#
#
# Elastic Compliance Matrix: (Units=1/GPa)
#
#
# Indices 1 2 3 4 5 6 
#
# 1 0.026465 -0.005347 0.013877 0.000000 -0.006000 0.000000
# 2 -0.005347 0.012121 -0.010943 0.000000 0.001606 0.000000
# 3 0.013877 -0.010943 0.035457 0.000000 -0.010779 0.000000
# 4 0.000000 0.000000 0.000000 0.038859 0.000000 -0.006688
# 5 -0.006000 0.001606 -0.010779 0.000000 0.036832 0.000000
# 6 0.000000 0.000000 0.000000 -0.006688 0.000000 0.070791
#
#
# Mechanical properties :
#
#
# Convention : Reuss Voigt Hill
#
# Bulk Modulus (GPa) = 14.44714 29.38252 21.91483
# Shear Modulus (GPa) = 20.12702 26.63443 23.38073
#
# Velocity S-wave (km/s) = 3.18949 3.66905 3.43765
# Velocity P-wave (km/s) = 4.56792 5.72714 5.18006
#
# Compressibility (1/GPa) = 0.06921787
#
# Stress axis : x y z
#
# Youngs Moduli (GPa) = 37.78634 82.49944 28.20304
#
# Poissons Ratio (x) = 0.44109 -0.39136
# Poissons Ratio (y) = 0.20203 0.30861
# Poissons Ratio (z) = -0.52434 0.90276
#
# Static dielectric constant tensor:
#      x y z
#    x 1.761510 0.000000 -0.005950 
#    y 0.000000 1.689220 0.000000 
#    z -0.005950 0.000000 1.729220 
# 
# From -- ./inp_files/65860.got.cif
#   From: 2010.05.17/outbox.cif.g08.bks.cpg/sg12_33_cif.got.tgz:65860.got - 2010.06.03 13:09:07.
