data_PCOD9204545
_publ_section_title
;
Structure prediction by ZEFSAII (Michael W. Deem and Ramdas Pophale) SiO2 
 PCOD9204545
Probable space group: C 2/M
;
_chemical_formula_sum "Si O2"
_cell_formula_units_Z 44
_cell_length_a 27.850154
_cell_length_b 13.893422
_cell_length_c 16.732591
_cell_angle_alpha 90.000000
_cell_angle_beta 158.413226
_cell_angle_gamma 90.000000
_cell_volume 2381.998682
_symmetry_space_group_name_H-M "C 2/M"
_symmetry_group_IT_number 12
_symmetry_cell_setting 'monoclinic'
loop_
_space_group_symop_operation_xyz
x,y,z
-x,y,-z
-x,-y,-z
x,-y,z
1/2+x,1/2+y,z
1/2-x,1/2+y,-z
1/2-x,1/2-y,-z
1/2+x,1/2-y,z
loop_
_atom_site_type_symbol
_atom_site_label
_atom_site_fract_x
_atom_site_fract_y
_atom_site_fract_z
Si Si1 0.735078 0.289740 0.068663
Si Si2 0.317606 0.685836 0.350328
Si Si3 0.028950 0.384360 0.952505
Si Si4 0.472245 0.196459 0.709265
Si Si5 0.121363 0.500000 0.902366
Si Si6 0.348750 0.000000 0.237544
Si Si7 0.096779 0.000000 0.575385
O O1 0.815929 0.225391 0.257076
O O2 0.780934 0.398898 0.153791
O O3 0.750000 0.250000 0.000000
O O4 0.588216 0.272004 0.871727
O O5 0.359225 0.768158 0.476358
O O6 0.414080 0.594924 0.494946
O O7 0.176580 0.646329 0.159064
O O8 0.013494 0.500000 0.916034
O O9 0.942930 0.321998 0.757122
O O10 0.000000 0.364873 0.000000
O O11 0.535407 0.094481 0.782878
O O12 0.159743 0.500000 0.870601
O O13 0.254727 0.500000 0.159541
O O14 0.500000 0.000000 0.500000
O O15 0.000000 0.000000 0.500000
#
# Coordination Sequence:
#
# PCOD9204545 Si02
#       7
#     8   8   8   8   4   4   4
#     4  11  23  37  55  83 121 165 202 239 289 345
#     4  11  23  38  58  93 118 156 204 245 297 359
#     4  10  20  42  68  88 114 153 202 255 304 360
#     4  11  22  37  61  86 121 150 202 248 300 355
#     4  12  20  42  56  80 120 165 204 243 281 352
#     4  12  24  36  54  82 117 166 207 237 283 356
#     4  12  24  36  60  84 124 163 203 244 288 340
#
# _framework density 18.471882999999998
#
# number of rings (size 3 to 8) (size 9 to 14) (size 15 to 20)
#    0.000    0.909    7.273    1.091    5.091    0.727 
#    0.000    0.000    0.000    0.000    0.000    3.818 
#    0.000    0.000    0.000    0.000    0.000    0.000 
#
# Total GULP energy -122687.317206 kJ/mol
# GULP energy per Si atom -5576.696237 kJ/mol
# Density = 1.842984 g / cm^3
# Si number density = 18.471883 Si / 1000 Ang^3
#
#
#
# Elastic Constant Matrix: (Units=GPa)
#
#
# Indices 1 2 3 4 5 6 
#
# 1 132.4725 49.7121 25.6725 0.0000 -23.1023 0.0000
# 2 49.7121 131.4847 37.3319 0.0000 -10.2813 0.0000
# 3 25.6725 37.3319 54.2239 0.0000 -20.4240 0.0000
# 4 0.0000 0.0000 0.0000 30.9282 0.0000 -9.0511
# 5 -23.1023 -10.2813 -20.4240 0.0000 27.9195 0.0000
# 6 0.0000 0.0000 0.0000 -9.0511 0.0000 23.3700
#
#
#
# Elastic Compliance Matrix: (Units=1/GPa)
#
#
# Indices 1 2 3 4 5 6 
#
# 1 0.009996 -0.003287 0.000262 0.000000 0.007253 0.000000
# 2 -0.003287 0.010597 -0.007308 0.000000 -0.004163 0.000000
# 3 0.000262 -0.007308 0.030944 0.000000 0.020162 0.000000
# 4 0.000000 0.000000 0.000000 0.036466 0.000000 0.014123
# 5 0.007253 -0.004163 0.020162 0.000000 0.055034 0.000000
# 6 0.000000 0.000000 0.000000 0.014123 0.000000 0.048260
#
#
# Mechanical properties :
#
#
# Convention : Reuss Voigt Hill
#
# Bulk Modulus (GPa) = 32.39239 60.40155 46.39697
# Shear Modulus (GPa) = 22.49677 30.14117 26.31897
#
# Velocity S-wave (km/s) = 3.49362 4.04385 3.77876
# Velocity P-wave (km/s) = 5.81790 7.38741 6.64913
#
# Compressibility (1/GPa) = 0.03087145
#
# Stress axis : x y z
#
# Youngs Moduli (GPa) = 100.03853 94.36188 32.31676
#
# Poissons Ratio (x) = 0.31013 -0.00846
# Poissons Ratio (y) = 0.32879 0.23618
# Poissons Ratio (z) = -0.02619 0.68961
#
# Static dielectric constant tensor:
#      x y z
#    x 1.665320 0.000000 -0.026660 
#    y 0.000000 1.801090 0.000000 
#    z -0.026660 0.000000 1.680720 
# 
# From -- ./inp_files/296734.got.cif
#   From: 2010.05.17/outbox.cif.g08.bks.cpg/sg12_149_cif.got.tgz:296734.got - 2010.06.03 13:09:07.
