data_PCOD9204872
_publ_section_title
;
Structure prediction by ZEFSAII (Michael W. Deem and Ramdas Pophale) SiO2 
 PCOD9204872
Probable space group: C 2/M
;
_chemical_formula_sum "Si O2"
_cell_formula_units_Z 48
_cell_length_a 22.680831
_cell_length_b 17.114551
_cell_length_c 6.610334
_cell_angle_alpha 90.000000
_cell_angle_beta 82.144336
_cell_angle_gamma 90.000000
_cell_volume 2541.868066
_symmetry_space_group_name_H-M "C 2/M"
_symmetry_group_IT_number 12
_symmetry_cell_setting 'monoclinic'
loop_
_space_group_symop_operation_xyz
x,y,z
-x,y,-z
-x,-y,-z
x,-y,z
1/2+x,1/2+y,z
1/2-x,1/2+y,-z
1/2-x,1/2-y,-z
1/2+x,1/2-y,z
loop_
_atom_site_type_symbol
_atom_site_label
_atom_site_fract_x
_atom_site_fract_y
_atom_site_fract_z
Si Si1 0.870849 0.407628 0.798342
Si Si2 0.228178 0.089543 0.863022
Si Si3 0.772525 0.196980 0.798439
Si Si4 0.936624 0.712810 0.069501
Si Si5 0.556903 0.916139 0.615844
Si Si6 0.328023 0.272859 0.369835
O O1 0.888373 0.500000 0.836311
O O2 0.799871 0.404110 0.844309
O O3 0.889608 0.395055 0.557350
O O4 0.901866 0.338244 0.913631
O O5 0.202334 0.148386 0.706817
O O6 0.212483 0.000000 0.830228
O O7 0.208061 0.119285 0.094768
O O8 0.713866 0.200849 0.685287
O O9 0.823241 0.223895 0.615855
O O10 0.750000 0.250000 0.000000
O O11 0.956782 0.645358 0.211237
O O12 0.889528 0.762971 0.221178
O O13 0.000000 0.754848 0.000000
O O14 0.500000 0.921095 0.500000
O O15 0.569469 0.000000 0.703830
#
# Coordination Sequence:
#
# PCOD9204872 Si02
#       6
#     8   8   8   8   8   8
#     4  10  21  35  52  79 114 150 187 224 267 327
#     4  10  21  37  59  84 111 145 183 230 284 334
#     4   9  19  36  57  80 109 145 178 229 284 328
#     4  12  23  35  55  79 110 153 191 225 275 329
#     4  10  21  34  49  74 113 154 193 228 258 313
#     4  10  22  36  56  84 114 143 184 233 280 332
#
# _framework density 18.883748000000001
#
# number of rings (size 3 to 8) (size 9 to 14) (size 15 to 20)
#    0.000    1.833    3.333    0.500    7.000    1.333 
#    0.000    0.000    0.000    0.500    0.000    1.167 
#    0.000    0.000    0.000    0.000    0.000    0.000 
#
# Total GULP energy -133604.537384 kJ/mol
# GULP energy per Si atom -5566.855724 kJ/mol
# Density = 1.884077 g / cm^3
# Si number density = 18.883748 Si / 1000 Ang^3
#
#
#
# Elastic Constant Matrix: (Units=GPa)
#
#
# Indices 1 2 3 4 5 6 
#
# 1 75.4095 23.4271 28.5224 0.0000 -23.3842 0.0000
# 2 23.4271 64.3916 24.9735 0.0000 -3.4755 0.0000
# 3 28.5224 24.9735 83.7772 0.0000 -14.5625 0.0000
# 4 0.0000 0.0000 0.0000 28.2104 0.0000 -3.6216
# 5 -23.3842 -3.4755 -14.5625 0.0000 30.3752 0.0000
# 6 0.0000 0.0000 0.0000 -3.6216 0.0000 21.0603
#
#
#
# Elastic Compliance Matrix: (Units=1/GPa)
#
#
# Indices 1 2 3 4 5 6 
#
# 1 0.020290 -0.005524 -0.002897 0.000000 0.013599 0.000000
# 2 -0.005524 0.019073 -0.004543 0.000000 -0.004249 0.000000
# 3 -0.002897 -0.004543 0.015054 0.000000 0.004467 0.000000
# 4 0.000000 0.000000 0.000000 0.036248 0.000000 0.006233
# 5 0.013599 -0.004249 0.004467 0.000000 0.045046 0.000000
# 6 0.000000 0.000000 0.000000 0.006233 0.000000 0.048555
#
#
# Mechanical properties :
#
#
# Convention : Reuss Voigt Hill
#
# Bulk Modulus (GPa) = 35.10413 41.93604 38.52009
# Shear Modulus (GPa) = 22.75937 25.70621 24.23279
#
# Velocity S-wave (km/s) = 3.47542 3.69357 3.58615
# Velocity P-wave (km/s) = 5.89361 6.35968 6.13108
#
# Compressibility (1/GPa) = 0.02848667
#
# Stress axis : x y z
#
# Youngs Moduli (GPa) = 49.28539 52.43150 66.42972
#
# Poissons Ratio (x) = 0.28965 0.19246
# Poissons Ratio (y) = 0.27227 0.30180
# Poissons Ratio (z) = 0.14279 0.23820
#
# Static dielectric constant tensor:
#      x y z
#    x 1.752670 0.000000 -0.035320 
#    y 0.000000 1.717790 0.000000 
#    z -0.035320 0.000000 1.722570 
# 
# From -- ./inp_files/24740.got.cif
#   From: 2010.05.17/outbox.cif.g08.bks.cpg/sg12_13_cif.got.tgz:24740.got - 2010.06.03 13:09:07.
