data_PCOD9204429
_publ_section_title
;
Structure prediction by ZEFSAII (Michael W. Deem and Ramdas Pophale) SiO2 
 PCOD9204429
Probable space group: C 2/M
;
_chemical_formula_sum "Si O2"
_cell_formula_units_Z 48
_cell_length_a 13.231677
_cell_length_b 20.461269
_cell_length_c 15.685734
_cell_angle_alpha 90.000000
_cell_angle_beta 145.340017
_cell_angle_gamma 90.000000
_cell_volume 2415.124271
_symmetry_space_group_name_H-M "C 2/M"
_symmetry_group_IT_number 12
_symmetry_cell_setting 'monoclinic'
loop_
_space_group_symop_operation_xyz
x,y,z
-x,y,-z
-x,-y,-z
x,-y,z
1/2+x,1/2+y,z
1/2-x,1/2+y,-z
1/2-x,1/2-y,-z
1/2+x,1/2-y,z
loop_
_atom_site_type_symbol
_atom_site_label
_atom_site_fract_x
_atom_site_fract_y
_atom_site_fract_z
Si Si1 0.463531 0.244309 0.150893
Si Si2 0.033986 0.374632 0.325181
Si Si3 0.631067 0.617790 0.319993
Si Si4 0.689070 0.575286 0.171786
Si Si5 0.231710 0.069082 0.866581
Si Si6 0.500000 0.822198 0.000000
Si Si7 0.061376 0.500000 0.842720
O O1 0.522793 0.188792 0.258330
O O2 0.548295 0.313067 0.234558
O O3 0.522175 0.221630 0.098192
O O4 0.250000 0.250000 0.000000
O O5 0.195802 0.372093 0.503245
O O6 0.848168 0.381452 0.247304
O O7 0.046626 0.441191 0.279835
O O8 0.675573 0.579428 0.263846
O O9 0.474755 0.581567 0.262766
O O10 0.726156 0.500000 0.168020
O O11 0.500000 0.593574 0.000000
O O12 0.265121 0.000000 0.841495
O O13 0.332333 0.129394 0.894917
O O14 0.321282 0.055834 0.021086
#
# Coordination Sequence:
#
# PCOD9204429 Si02
#       7
#     8   8   8   8   8   4   4
#     4  12  25  47  70  97 131 184 233 270 329 416
#     4  12  25  43  66 102 142 177 219 290 348 391
#     4  12  26  41  66 103 142 175 220 287 348 396
#     4  11  24  40  68  99 133 180 230 269 330 413
#     4  10  22  42  69 100 130 175 230 280 324 408
#     4  12  23  44  74  98 125 178 238 276 322 399
#     4  10  20  41  68  95 133 177 231 271 330 407
#
# _framework density 19.874752999999998
#
# number of rings (size 3 to 8) (size 9 to 14) (size 15 to 20)
#    0.500    0.167    4.167    3.750    8.167    0.667 
#    0.000    0.833    0.000    2.000    0.000    0.000 
#    0.000    0.000    0.000    0.000    0.000    0.000 
#
# Total GULP energy -133706.691445 kJ/mol
# GULP energy per Si atom -5571.112144 kJ/mol
# Density = 1.982952 g / cm^3
# Si number density = 19.874753 Si / 1000 Ang^3
#
#
#
# Elastic Constant Matrix: (Units=GPa)
#
#
# Indices 1 2 3 4 5 6 
#
# 1 49.1334 1.5984 36.4049 0.0000 6.9612 0.0000
# 2 1.5984 91.9139 38.7873 0.0000 6.0530 0.0000
# 3 36.4049 38.7873 160.2025 0.0001 -7.7822 0.0000
# 4 0.0000 0.0000 0.0001 19.7366 0.0001 -6.5042
# 5 6.9612 6.0530 -7.7822 0.0001 15.8802 0.0000
# 6 0.0000 0.0000 0.0000 -6.5042 0.0000 34.2963
#
#
#
# Elastic Compliance Matrix: (Units=1/GPa)
#
#
# Indices 1 2 3 4 5 6 
#
# 1 0.029236 0.004354 -0.008606 0.000000 -0.018693 0.000000
# 2 0.004354 0.013394 -0.004685 0.000000 -0.009310 0.000000
# 3 -0.008606 -0.004685 0.009836 0.000000 0.010378 0.000000
# 4 0.000000 0.000000 0.000000 0.054045 0.000000 0.010250
# 5 -0.018693 -0.009310 0.010378 0.000000 0.079801 0.000000
# 6 0.000000 0.000000 0.000000 0.010250 0.000000 0.031101
#
#
# Mechanical properties :
#
#
# Convention : Reuss Voigt Hill
#
# Bulk Modulus (GPa) = 28.90707 50.53678 39.72192
# Shear Modulus (GPa) = 20.25792 28.94656 24.60224
#
# Velocity S-wave (km/s) = 3.19608 3.82049 3.52215
# Velocity P-wave (km/s) = 5.31000 6.70405 6.04733
#
# Compressibility (1/GPa) = 0.03459362
#
# Stress axis : x y z
#
# Youngs Moduli (GPa) = 34.20429 74.66025 101.66602
#
# Poissons Ratio (x) = -0.32509 0.87494
# Poissons Ratio (y) = -0.14894 0.47627
# Poissons Ratio (z) = 0.29436 0.34975
#
# Static dielectric constant tensor:
#      x y z
#    x 1.529400 0.000000 -0.094670 
#    y 0.000000 1.733490 0.000000 
#    z -0.094670 0.000000 1.614550 
# 
# From -- ./inp_files/208046.got.cif
#   From: 2010.05.17/outbox.cif.g08.bks.cpg/sg12_105_cif.got.tgz:208046.got - 2010.06.03 13:09:07.
