data_PCOD9204515
_publ_section_title
;
Structure prediction by ZEFSAII (Michael W. Deem and Ramdas Pophale) SiO2 
 PCOD9204515
Probable space group: C 2/M
;
_chemical_formula_sum "Si O2"
_cell_formula_units_Z 40
_cell_length_a 18.558874
_cell_length_b 19.482369
_cell_length_c 4.901826
_cell_angle_alpha 90.000000
_cell_angle_beta 58.201837
_cell_angle_gamma 90.000000
_cell_volume 1506.343464
_symmetry_space_group_name_H-M "C 2/M"
_symmetry_group_IT_number 12
_symmetry_cell_setting 'monoclinic'
loop_
_space_group_symop_operation_xyz
x,y,z
-x,y,-z
-x,-y,-z
x,-y,z
1/2+x,1/2+y,z
1/2-x,1/2+y,-z
1/2-x,1/2-y,-z
1/2+x,1/2-y,z
loop_
_atom_site_type_symbol
_atom_site_label
_atom_site_fract_x
_atom_site_fract_y
_atom_site_fract_z
Si Si1 0.266261 0.500000 0.447214
Si Si2 0.143893 0.361048 0.227725
Si Si3 0.914495 0.000000 0.849139
Si Si4 0.500000 0.386517 0.000000
Si Si5 0.760184 0.147943 0.504485
Si Si6 0.578948 0.000000 0.624527
Si Si7 0.579302 0.263257 0.667134
O O1 0.289676 0.571706 0.540056
O O2 0.165272 0.500000 0.627067
O O3 0.312294 0.500000 0.056051
O O4 0.226864 0.358830 0.261397
O O5 0.092214 0.430606 0.411540
O O6 0.095788 0.292031 0.407514
O O7 0.175838 0.347461 0.859031
O O8 0.000000 0.000000 0.500000
O O9 0.932649 0.933135 0.990901
O O10 0.460561 0.337682 0.307366
O O11 0.829539 0.208160 0.399306
O O12 0.500000 0.000000 0.000000
O O13 0.500000 0.233365 0.000000
#
# Coordination Sequence:
#
# PCOD9204515 Si02
#       7
#     4   8   4   4   8   4   8
#     4  10  20  42  65  96 134 173 222 277 337 396
#     4  11  24  44  67  93 129 175 221 281 324 396
#     4  11  21  41  66 102 135 177 214 268 327 409
#     4   9  22  40  60  95 138 162 220 261 324 406
#     4  11  23  43  65  97 127 173 221 271 333 398
#     4  10  23  43  67  96 127 174 232 280 331 386
#     4  10  21  42  64  94 134 172 214 271 337 398
#
# _framework density 26.554366999999999
#
# number of rings (size 3 to 8) (size 9 to 14) (size 15 to 20)
#    0.600    1.000    2.000    2.400    0.000    3.200 
#    3.600   16.000    0.000    0.000    0.000    0.000 
#    0.000    0.000    0.000    0.000    0.000    0.000 
#
# Total GULP energy -111376.395713 kJ/mol
# GULP energy per Si atom -5568.819786 kJ/mol
# Density = 2.649393 g / cm^3
# Si number density = 26.554367 Si / 1000 Ang^3
#
#
#
# Elastic Constant Matrix: (Units=GPa)
#
#
# Indices 1 2 3 4 5 6 
#
# 1 74.2526 8.7380 39.7302 0.0000 -20.8229 0.0000
# 2 8.7380 187.1942 49.7064 0.0000 -13.9528 0.0000
# 3 39.7302 49.7064 158.5412 0.0000 -50.3176 0.0000
# 4 0.0000 0.0000 0.0000 51.6903 0.0000 -41.5360
# 5 -20.8229 -13.9528 -50.3176 0.0000 49.1220 0.0000
# 6 0.0000 0.0000 0.0000 -41.5360 0.0000 22.9552
#
#
#
# Elastic Compliance Matrix: (Units=1/GPa)
#
#
# Indices 1 2 3 4 5 6 
#
# 1 0.016077 0.000306 -0.002866 0.000000 0.003966 0.000000
# 2 0.000306 0.005836 -0.001984 0.000000 -0.000245 0.000000
# 3 -0.002866 -0.001984 0.010496 0.000000 0.008972 0.000000
# 4 0.000000 0.000000 0.000000 -0.042614 0.000000 -0.077107
# 5 0.003966 -0.000245 0.008972 0.000000 0.031160 0.000000
# 6 0.000000 0.000000 0.000000 -0.077107 0.000000 -0.095957
#
#
# Mechanical properties :
#
#
# Convention : Reuss Voigt Hill
#
# Bulk Modulus (GPa) = 42.88033 68.48193 55.68113
# Shear Modulus (GPa) = -85.99970 46.20773 -19.89598
#
# Velocity S-wave (km/s) = -5.69707 4.17600 -2.74022
# Velocity P-wave (km/s) = 5.20502 7.00694 3.31700
#
# Compressibility (1/GPa) = 0.02332072
#
# Stress axis : x y z
#
# Youngs Moduli (GPa) = 62.19928 171.33843 95.27833
#
# Poissons Ratio (x) = -0.05247 0.27308
# Poissons Ratio (y) = -0.01905 0.18907
# Poissons Ratio (z) = 0.17827 0.34000
#
# Static dielectric constant tensor:
#      x y z
#    x 2.105920 0.000000 -0.058970 
#    y 0.000000 2.088450 0.000000 
#    z -0.058970 0.000000 2.189130 
# 
# From -- ./inp_files/25993.got.cif
#   From: 2010.05.17/outbox.cif.g08.bks.cpg/sg12_13_cif.got.tgz:25993.got - 2010.06.03 13:09:07.
