data_PCOD9204951
_publ_section_title
;
Structure prediction by ZEFSAII (Michael W. Deem and Ramdas Pophale) SiO2 
 PCOD9204951
Probable space group: C 2/M
;
_chemical_formula_sum "Si O2"
_cell_formula_units_Z 50
_cell_length_a 25.278523
_cell_length_b 7.722760
_cell_length_c 15.322958
_cell_angle_alpha 90.000000
_cell_angle_beta 119.907163
_cell_angle_gamma 90.000000
_cell_volume 2593.002847
_symmetry_space_group_name_H-M "C 2/M"
_symmetry_group_IT_number 12
_symmetry_cell_setting 'monoclinic'
loop_
_space_group_symop_operation_xyz
x,y,z
-x,y,-z
-x,-y,-z
x,-y,z
1/2+x,1/2+y,z
1/2-x,1/2+y,-z
1/2-x,1/2-y,-z
1/2+x,1/2-y,z
loop_
_atom_site_type_symbol
_atom_site_label
_atom_site_fract_x
_atom_site_fract_y
_atom_site_fract_z
Si Si1 0.846889 0.700939 0.555086
Si Si2 0.075995 0.200093 0.635429
Si Si3 0.538085 0.791820 0.113384
Si Si4 0.672530 0.791560 0.269727
Si Si5 0.000000 0.500000 0.500000
Si Si6 0.196513 0.706252 0.667443
Si Si7 0.483145 0.704569 0.709986
O O1 0.828687 0.500000 0.537701
O O2 0.821714 0.776462 0.625574
O O3 0.824260 0.777524 0.445347
O O4 0.920193 0.709753 0.626295
O O5 0.052117 0.345122 0.548998
O O6 0.148811 0.216782 0.696971
O O7 0.039440 0.249393 0.693507
O O8 0.061180 0.000000 0.601400
O O9 0.608073 0.728257 0.178236
O O10 0.507763 0.751713 0.181761
O O11 0.540875 0.000000 0.107724
O O12 0.500000 0.724132 0.000000
O O13 0.732441 0.747680 0.265184
O O14 0.667997 0.000000 0.272137
O O15 0.189946 0.500000 0.663969
O O16 0.473501 0.500000 0.695511
#
# Coordination Sequence:
#
# PCOD9204951 Si02
#       7
#     8   8   8   8   2   8   8
#     4   9  19  32  49  72 104 147 188 227 269 323
#     4  11  24  37  52  80 115 154 198 241 280 325
#     4   9  19  37  62  86 107 138 180 230 293 353
#     4   9  18  33  51  75 109 142 178 230 286 337
#     4  12  22  36  56  78 110 156 204 236 268 324
#     4  11  21  33  51  76 108 154 197 228 271 334
#     4  10  21  34  53  80 111 144 182 235 286 329
#
# _framework density 19.282661999999998
#
# number of rings (size 3 to 8) (size 9 to 14) (size 15 to 20)
#    0.000    2.080    0.800    3.600    4.480    5.440 
#    0.000    0.000    0.000    0.960    0.000    0.000 
#    0.000    0.000    0.000    0.000    0.000    0.000 
#
# Total GULP energy -139260.705361 kJ/mol
# GULP energy per Si atom -5570.428214 kJ/mol
# Density = 1.923877 g / cm^3
# Si number density = 19.282662 Si / 1000 Ang^3
#
#
#
# Elastic Constant Matrix: (Units=GPa)
#
#
# Indices 1 2 3 4 5 6 
#
# 1 150.5928 5.8870 28.3986 0.0000 7.8104 0.0000
# 2 5.8870 58.1715 8.0254 0.0000 3.4518 0.0000
# 3 28.3986 8.0254 54.1017 0.0000 -1.7991 0.0000
# 4 0.0000 0.0000 0.0000 48.9280 0.0000 -4.9584
# 5 7.8104 3.4518 -1.7991 0.0000 13.4038 0.0000
# 6 0.0000 0.0000 0.0000 -4.9584 0.0000 23.0398
#
#
#
# Elastic Compliance Matrix: (Units=1/GPa)
#
#
# Indices 1 2 3 4 5 6 
#
# 1 0.007696 0.000105 -0.004224 0.000000 -0.005079 0.000000
# 2 0.000105 0.017876 -0.002875 0.000000 -0.005051 0.000000
# 3 -0.004224 -0.002875 0.021329 0.000000 0.006065 0.000000
# 4 0.000000 0.000000 0.000000 0.020894 0.000000 0.004497
# 5 -0.005079 -0.005051 0.006065 0.000000 0.079680 0.000000
# 6 0.000000 0.000000 0.000000 0.004497 0.000000 0.044371
#
#
# Mechanical properties :
#
#
# Convention : Reuss Voigt Hill
#
# Bulk Modulus (GPa) = 30.38247 38.60978 34.49612
# Shear Modulus (GPa) = 23.06213 31.77800 27.42007
#
# Velocity S-wave (km/s) = 3.46208 4.06397 3.77504
# Velocity P-wave (km/s) = 5.63666 6.48750 6.07699
#
# Compressibility (1/GPa) = 0.03291372
#
# Stress axis : x y z
#
# Youngs Moduli (GPa) = 129.93178 55.94018 46.88392
#
# Poissons Ratio (x) = -0.00589 0.19806
# Poissons Ratio (y) = -0.01368 0.13479
# Poissons Ratio (z) = 0.54888 0.16083
#
# Static dielectric constant tensor:
#      x y z
#    x 1.736040 0.000000 -0.003750 
#    y 0.000000 1.701330 0.000000 
#    z -0.003750 0.000000 1.677410 
# 
# From -- ./inp_files/237955.got.cif
#   From: 2010.05.17/outbox.cif.g08.bks.cpg/sg12_119_cif.got.tgz:237955.got - 2010.06.03 13:09:07.
