data_PCOD9204542
_publ_section_title
;
Structure prediction by ZEFSAII (Michael W. Deem and Ramdas Pophale) SiO2 
 PCOD9204542
Probable space group: C 2/M
;
_chemical_formula_sum "Si O2"
_cell_formula_units_Z 58
_cell_length_a 16.345390
_cell_length_b 16.725283
_cell_length_c 17.010123
_cell_angle_alpha 90.000000
_cell_angle_beta 143.968049
_cell_angle_gamma 90.000000
_cell_volume 2735.445361
_symmetry_space_group_name_H-M "C 2/M"
_symmetry_group_IT_number 12
_symmetry_cell_setting 'monoclinic'
loop_
_space_group_symop_operation_xyz
x,y,z
-x,y,-z
-x,-y,-z
x,-y,z
1/2+x,1/2+y,z
1/2-x,1/2+y,-z
1/2-x,1/2-y,-z
1/2+x,1/2-y,z
loop_
_atom_site_type_symbol
_atom_site_label
_atom_site_fract_x
_atom_site_fract_y
_atom_site_fract_z
Si Si1 0.087353 0.746698 0.359226
Si Si2 0.338949 0.833790 0.969874
Si Si3 0.658135 0.408046 0.095284
Si Si4 0.898140 0.296749 0.357649
Si Si5 0.555562 0.086529 0.238739
Si Si6 0.000000 0.000000 0.500000
Si Si7 0.087318 0.823220 0.893595
Si Si8 0.285241 0.631643 0.294772
O O1 0.250000 0.750000 0.500000
O O2 0.049781 0.661040 0.291962
O O3 0.991431 0.745100 0.362081
O O4 0.049980 0.815043 0.265818
O O5 0.201735 0.816136 0.914014
O O6 0.302592 0.856755 0.853390
O O7 0.428290 0.902205 0.080144
O O8 0.419522 0.750389 0.049031
O O9 0.690943 0.500000 0.139596
O O10 0.777217 0.351136 0.224908
O O11 0.500000 0.391038 0.000000
O O12 0.641015 0.395248 0.988454
O O13 0.829450 0.221803 0.349140
O O14 0.000000 0.338619 0.500000
O O15 0.693474 0.095502 0.293470
O O16 0.551965 0.000000 0.274937
O O17 0.912610 0.929096 0.384831
#
# Coordination Sequence:
#
# PCOD9204542 Si02
#       8
#     8   8   8   8   8   2   8   8
#     4  11  25  43  69 102 135 178 233 281 336 420
#     4  10  21  37  66  97 127 167 225 276 329 407
#     4  11  26  45  69 101 137 177 237 304 355 408
#     4  12  25  44  74 101 135 191 235 281 350 417
#     4  11  25  41  64 100 135 171 223 283 343 403
#     4  12  28  40  62  92 158 176 224 266 340 416
#     4  10  20  42  67  98 130 172 230 279 343 406
#     4  12  23  42  64  97 136 185 217 272 335 418
#
# _framework density 21.203129000000001
#
# number of rings (size 3 to 8) (size 9 to 14) (size 15 to 20)
#    0.000    0.966    4.138    2.897    6.759    3.034 
#    0.000    0.690    0.000    0.000    0.000    0.000 
#    0.000    0.000    0.000    0.000    0.000    0.000 
#
# Total GULP energy -161552.484573 kJ/mol
# GULP energy per Si atom -5570.775330 kJ/mol
# Density = 2.115487 g / cm^3
# Si number density = 21.203129 Si / 1000 Ang^3
#
#
#
# Elastic Constant Matrix: (Units=GPa)
#
#
# Indices 1 2 3 4 5 6 
#
# 1 24.1534 -2.8673 14.8007 0.0000 -8.6665 0.0000
# 2 -2.8673 82.8425 30.5426 0.0001 6.3252 0.0001
# 3 14.8007 30.5426 148.9148 0.0000 1.1075 0.0001
# 4 0.0000 0.0001 0.0000 18.6873 0.0001 -1.7879
# 5 -8.6665 6.3252 1.1075 0.0001 24.8180 0.0001
# 6 0.0000 0.0001 0.0001 -1.7879 0.0001 10.0775
#
#
#
# Elastic Compliance Matrix: (Units=1/GPa)
#
#
# Indices 1 2 3 4 5 6 
#
# 1 0.051571 0.002573 -0.005784 0.000000 0.017611 0.000000
# 2 0.002573 0.013448 -0.002996 0.000000 -0.002395 0.000000
# 3 -0.005784 -0.002996 0.007917 0.000000 -0.001610 0.000000
# 4 0.000000 0.000000 0.000000 0.054436 0.000000 0.009658
# 5 0.017611 -0.002395 -0.001610 0.000000 0.047126 0.000000
# 6 0.000000 0.000000 0.000000 0.009658 0.000000 0.100944
#
#
# Mechanical properties :
#
#
# Convention : Reuss Voigt Hill
#
# Bulk Modulus (GPa) = 16.52335 37.87363 27.19849
# Shear Modulus (GPa) = 16.23220 24.94554 20.58887
#
# Velocity S-wave (km/s) = 2.76987 3.43374 3.11952
# Velocity P-wave (km/s) = 4.24728 5.79843 5.08238
#
# Compressibility (1/GPa) = 0.06052041
#
# Stress axis : x y z
#
# Youngs Moduli (GPa) = 19.39069 74.36266 126.31652
#
# Poissons Ratio (x) = -0.19133 0.73066
# Poissons Ratio (y) = -0.04989 0.37845
# Poissons Ratio (z) = 0.11216 0.22279
#
# Static dielectric constant tensor:
#      x y z
#    x 1.851470 0.000000 -0.000170 
#    y 0.000000 1.855670 0.000000 
#    z -0.000170 0.000000 1.819500 
# 
# From -- ./inp_files/278837.got.cif
#   From: 2010.05.17/outbox.cif.g08.bks.cpg/sg12_140_cif.got.tgz:278837.got - 2010.06.03 13:09:07.
