data_PCOD9204815
_publ_section_title
;
Structure prediction by ZEFSAII (Michael W. Deem and Ramdas Pophale) SiO2 
 PCOD9204815
Probable space group: C 2/M
;
_chemical_formula_sum "Si O2"
_cell_formula_units_Z 64
_cell_length_a 8.863088
_cell_length_b 24.559356
_cell_length_c 15.146413
_cell_angle_alpha 90.000000
_cell_angle_beta 76.304881
_cell_angle_gamma 90.000000
_cell_volume 3203.211467
_symmetry_space_group_name_H-M "C 2/M"
_symmetry_group_IT_number 12
_symmetry_cell_setting 'monoclinic'
loop_
_space_group_symop_operation_xyz
x,y,z
-x,y,-z
-x,-y,-z
x,-y,z
1/2+x,1/2+y,z
1/2-x,1/2+y,-z
1/2-x,1/2-y,-z
1/2+x,1/2-y,z
loop_
_atom_site_type_symbol
_atom_site_label
_atom_site_fract_x
_atom_site_fract_y
_atom_site_fract_z
Si Si1 0.715202 0.709472 0.115980
Si Si2 0.967171 0.352827 0.168735
Si Si3 0.819090 0.868419 0.545011
Si Si4 0.802538 0.827710 0.078102
Si Si5 0.763381 0.672510 0.622459
Si Si6 0.225574 0.064306 0.276938
Si Si7 0.083836 0.283357 0.651427
Si Si8 0.472022 0.633317 0.210365
O O1 0.861044 0.670250 0.105879
O O2 0.768438 0.770021 0.131998
O O3 0.583113 0.686802 0.199036
O O4 0.660812 0.698112 0.023099
O O5 0.880735 0.405182 0.220817
O O6 0.954426 0.305474 0.245178
O O7 0.139073 0.358619 0.108337
O O8 0.737277 0.867824 0.460817
O O9 0.799477 0.916990 0.617975
O O10 0.735746 0.817859 0.603370
O O11 0.000000 0.861302 0.500000
O O12 0.921550 0.865924 0.114716
O O13 0.640256 0.722014 0.626948
O O14 0.687754 0.640439 0.714843
O O15 0.931532 0.698136 0.618092
O O16 0.080963 0.087482 0.238382
O O17 0.236275 0.000000 0.267872
#
# Coordination Sequence:
#
# PCOD9204815 Si02
#       8
#     8   8   8   8   8   8   8   8
#     4  10  21  33  56  93 135 169 192 225 288 362
#     4  10  21  36  60  87 120 165 204 244 297 356
#     4  11  22  40  59  88 114 152 203 247 307 367
#     4  11  19  35  58  93 132 164 195 235 287 363
#     4  12  22  36  56  88 125 166 198 236 293 371
#     4  10  24  46  66  83 111 153 209 267 315 359
#     4  11  23  35  58  85 131 165 194 238 291 362
#     4  11  22  36  59  85 120 159 208 245 295 353
#
# _framework density 19.979948
#
# number of rings (size 3 to 8) (size 9 to 14) (size 15 to 20)
#    0.000    1.250    2.500    4.500    3.500    2.250 
#    0.000    0.625    0.000   18.000    0.000    0.000 
#    0.000    0.000    0.000    0.000    0.000    0.000 
#
# Total GULP energy -178401.603664 kJ/mol
# GULP energy per Si atom -5575.050115 kJ/mol
# Density = 1.993447 g / cm^3
# Si number density = 19.979948 Si / 1000 Ang^3
#
#
#
# Elastic Constant Matrix: (Units=GPa)
#
#
# Indices 1 2 3 4 5 6 
#
# 1 83.5415 37.9111 3.3148 0.0000 1.2887 0.0000
# 2 37.9111 106.2339 31.7479 0.0000 3.5088 0.0000
# 3 3.3148 31.7479 61.1046 0.0000 9.0773 0.0000
# 4 0.0000 0.0000 0.0000 13.8130 0.0000 4.7401
# 5 1.2887 3.5088 9.0773 0.0000 44.1514 0.0000
# 6 0.0000 0.0000 0.0000 4.7401 0.0000 13.7584
#
#
#
# Elastic Compliance Matrix: (Units=1/GPa)
#
#
# Indices 1 2 3 4 5 6 
#
# 1 0.014550 -0.005873 0.002327 0.000000 -0.000436 0.000000
# 2 -0.005873 0.013519 -0.006778 0.000000 0.000491 0.000000
# 3 0.002327 -0.006778 0.020311 0.000000 -0.003705 0.000000
# 4 0.000000 0.000000 0.000000 0.082102 0.000000 -0.028286
# 5 -0.000436 0.000491 -0.003705 0.000000 0.023385 0.000000
# 6 0.000000 0.000000 0.000000 -0.028286 0.000000 0.082428
#
#
# Mechanical properties :
#
#
# Convention : Reuss Voigt Hill
#
# Bulk Modulus (GPa) = 36.06074 44.09198 40.07636
# Shear Modulus (GPa) = 18.78380 26.20498 22.49439
#
# Velocity S-wave (km/s) = 3.06948 3.62548 3.35901
# Velocity P-wave (km/s) = 5.53624 6.29615 5.92838
#
# Compressibility (1/GPa) = 0.02773099
#
# Stress axis : x y z
#
# Youngs Moduli (GPa) = 68.72936 73.97212 49.23391
#
# Poissons Ratio (x) = 0.43446 -0.11457
# Poissons Ratio (y) = 0.40367 0.33371
# Poissons Ratio (z) = -0.15994 0.50139
#
# Static dielectric constant tensor:
#      x y z
#    x 1.770180 0.000000 0.018540 
#    y 0.000000 1.651780 0.000000 
#    z 0.018540 0.000000 1.816280 
# 
# From -- ./inp_files/199786.got.cif
#   From: 2010.05.17/outbox.cif.g08.bks.cpg/sg12_100_cif.got.tgz:199786.got - 2010.06.03 13:09:07.
