data_PCOD9204055
_publ_section_title
;
Structure prediction by ZEFSAII (Michael W. Deem and Ramdas Pophale) SiO2 
 PCOD9204055
Probable space group: C 2/M
;
_chemical_formula_sum "Si O2"
_cell_formula_units_Z 48
_cell_length_a 19.020867
_cell_length_b 8.979382
_cell_length_c 15.212371
_cell_angle_alpha 90.000000
_cell_angle_beta 81.057724
_cell_angle_gamma 90.000000
_cell_volume 2566.626451
_symmetry_space_group_name_H-M "C 2/M"
_symmetry_group_IT_number 12
_symmetry_cell_setting 'monoclinic'
loop_
_space_group_symop_operation_xyz
x,y,z
-x,y,-z
-x,-y,-z
x,-y,z
1/2+x,1/2+y,z
1/2-x,1/2+y,-z
1/2-x,1/2-y,-z
1/2+x,1/2-y,z
loop_
_atom_site_type_symbol
_atom_site_label
_atom_site_fract_x
_atom_site_fract_y
_atom_site_fract_z
Si Si1 0.174662 0.320347 0.760619
Si Si2 0.193099 0.175051 0.947152
Si Si3 0.282259 0.679687 0.581845
Si Si4 0.445195 0.320432 0.587235
Si Si5 0.064040 0.668242 0.056365
Si Si6 0.486998 0.821986 0.254289
O O1 0.174259 0.500000 0.771849
O O2 0.192439 0.247179 0.850473
O O3 0.232307 0.281986 0.674757
O O4 0.095109 0.275597 0.745194
O O5 0.204779 0.000000 0.937840
O O6 0.250000 0.250000 0.000000
O O7 0.118904 0.213989 0.008427
O O8 0.281391 0.500000 0.573288
O O9 0.250000 0.750000 0.500000
O O10 0.364098 0.726784 0.582366
O O11 0.500000 0.275165 0.500000
O O12 0.444997 0.500000 0.591918
O O13 0.475384 0.256483 0.671789
O O14 0.095955 0.500000 0.054017
O O15 0.031655 0.705777 0.157120
O O16 0.000000 0.660877 0.000000
O O17 0.486279 0.000000 0.269032
#
# Coordination Sequence:
#
# PCOD9204055 Si02
#       6
#     8   8   8   8   8   8
#     4  10  21  41  62  86 120 160 204 249 302 358
#     4  12  26  41  61  89 123 163 207 253 303 361
#     4  10  22  39  62  88 118 157 198 244 300 361
#     4  10  22  39  58  86 123 156 193 247 304 354
#     4  10  20  40  64  88 123 162 200 247 302 356
#     4  10  21  37  62  89 117 155 199 248 297 353
#
# _framework density 18.701591000000001
#
# number of rings (size 3 to 8) (size 9 to 14) (size 15 to 20)
#    0.000    1.667    1.667    2.500    2.333    3.333 
#    0.000    0.000    0.000    0.000    0.000    0.000 
#    0.000    0.000    0.000    0.000    0.000    0.000 
#
# Total GULP energy -134076.364292 kJ/mol
# GULP energy per Si atom -5586.515179 kJ/mol
# Density = 1.865903 g / cm^3
# Si number density = 18.701591 Si / 1000 Ang^3
#
#
#
# Elastic Constant Matrix: (Units=GPa)
#
#
# Indices 1 2 3 4 5 6 
#
# 1 145.4611 51.6923 102.0358 0.0000 12.6540 0.0000
# 2 51.6923 43.0416 60.4289 0.0000 2.0138 0.0000
# 3 102.0358 60.4289 190.4412 0.0000 13.7358 0.0000
# 4 0.0000 0.0000 0.0000 51.8098 0.0000 -5.5204
# 5 12.6540 2.0138 13.7358 0.0000 34.2945 0.0000
# 6 0.0000 0.0000 0.0000 -5.5204 0.0000 36.7630
#
#
#
# Elastic Compliance Matrix: (Units=1/GPa)
#
#
# Indices 1 2 3 4 5 6 
#
# 1 0.013588 -0.011287 -0.003486 0.000000 -0.002955 0.000000
# 2 -0.011287 0.051566 -0.010706 0.000000 0.005425 0.000000
# 3 -0.003486 -0.010706 0.010686 0.000000 -0.002365 0.000000
# 4 0.000000 0.000000 0.000000 0.019615 0.000000 0.002945
# 5 -0.002955 0.005425 -0.002365 0.000000 0.030878 0.000000
# 6 0.000000 0.000000 0.000000 0.002945 0.000000 0.027644
#
#
# Mechanical properties :
#
#
# Convention : Reuss Voigt Hill
#
# Bulk Modulus (GPa) = 40.18861 89.69532 64.94196
# Shear Modulus (GPa) = 23.44899 35.55926 29.50412
#
# Velocity S-wave (km/s) = 3.54482 4.36524 3.97624
# Velocity P-wave (km/s) = 6.18792 8.57161 7.47539
#
# Compressibility (1/GPa) = 0.02488267
#
# Stress axis : x y z
#
# Youngs Moduli (GPa) = 73.59608 19.39260 93.57711
#
# Poissons Ratio (x) = 0.21888 0.32617
# Poissons Ratio (y) = 0.83065 1.00188
# Poissons Ratio (z) = 0.25653 0.20763
#
# Static dielectric constant tensor:
#      x y z
#    x 1.643770 0.000000 -0.007880 
#    y 0.000000 1.641960 0.000000 
#    z -0.007880 0.000000 1.624370 
# 
# From -- ./inp_files/221668.got.cif
#   From: 2010.05.17/outbox.cif.g08.bks.cpg/sg12_111_cif.got.tgz:221668.got - 2010.06.03 13:09:07.
