data_PCOD9204551
_publ_section_title
;
Structure prediction by ZEFSAII (Michael W. Deem and Ramdas Pophale) SiO2 
 PCOD9204551
Probable space group: C 2/M
;
_chemical_formula_sum "Si O2"
_cell_formula_units_Z 50
_cell_length_a 15.690471
_cell_length_b 19.322056
_cell_length_c 7.873949
_cell_angle_alpha 90.000000
_cell_angle_beta 68.968364
_cell_angle_gamma 90.000000
_cell_volume 2228.135135
_symmetry_space_group_name_H-M "C 2/M"
_symmetry_group_IT_number 12
_symmetry_cell_setting 'monoclinic'
loop_
_space_group_symop_operation_xyz
x,y,z
-x,y,-z
-x,-y,-z
x,-y,z
1/2+x,1/2+y,z
1/2-x,1/2+y,-z
1/2-x,1/2-y,-z
1/2+x,1/2-y,z
loop_
_atom_site_type_symbol
_atom_site_label
_atom_site_fract_x
_atom_site_fract_y
_atom_site_fract_z
Si Si1 0.847347 0.921830 0.913800
Si Si2 0.293892 0.581033 0.567824
Si Si3 0.556339 0.218883 0.805757
Si Si4 0.875038 0.371330 0.527767
Si Si5 0.476235 0.640384 0.320552
Si Si6 0.728013 0.708534 0.844395
Si Si7 0.000000 0.500000 0.500000
O O1 0.802183 0.903428 0.762772
O O2 0.955732 0.916705 0.801562
O O3 0.821740 0.000000 0.980286
O O4 0.819480 0.863423 0.065723
O O5 0.314333 0.500000 0.539151
O O6 0.197634 0.598403 0.556241
O O7 0.370829 0.620523 0.405972
O O8 0.556725 0.171754 0.640206
O O9 0.506523 0.290253 0.794818
O O10 0.658535 0.243219 0.786361
O O11 0.500000 0.185795 0.000000
O O12 0.819377 0.316653 0.682871
O O13 0.922142 0.437700 0.578163
O O14 0.500000 0.651629 0.500000
O O15 0.750000 0.750000 0.000000
#
# Coordination Sequence:
#
# PCOD9204551 Si02
#       7
#     8   8   8   8   8   8   2
#     4  10  22  40  68 108 148 182 222 287 363 442
#     4  10  20  42  68  99 141 188 230 282 351 432
#     4  12  26  45  71 109 138 183 236 304 371 435
#     4  12  28  49  72  99 140 188 253 304 365 427
#     4  10  21  38  68 105 144 181 223 279 361 436
#     4  12  27  45  75 106 144 190 247 299 367 437
#     4  12  32  52  74 104 136 204 254 318 374 416
#
# _framework density 22.440291999999999
#
# number of rings (size 3 to 8) (size 9 to 14) (size 15 to 20)
#    0.000    0.960    4.000    1.920    8.960    1.920 
#    0.000    1.200    0.000    0.000    0.000    0.000 
#    0.000    0.000    0.000    0.000    0.000    0.000 
#
# Total GULP energy -139576.215000 kJ/mol
# GULP energy per Si atom -5583.048600 kJ/mol
# Density = 2.238922 g / cm^3
# Si number density = 22.440292 Si / 1000 Ang^3
#
#
#
# Elastic Constant Matrix: (Units=GPa)
#
#
# Indices 1 2 3 4 5 6 
#
# 1 48.3928 15.1302 -3.7390 0.0000 -5.8731 0.0000
# 2 15.1302 95.9179 48.6279 0.0000 9.3147 0.0000
# 3 -3.7390 48.6279 109.3884 0.0000 -5.4407 0.0000
# 4 0.0000 0.0000 0.0000 22.2463 0.0000 1.9985
# 5 -5.8731 9.3147 -5.4407 0.0000 26.3784 0.0000
# 6 0.0000 0.0000 0.0000 1.9985 0.0000 26.6920
#
#
#
# Elastic Compliance Matrix: (Units=1/GPa)
#
#
# Indices 1 2 3 4 5 6 
#
# 1 0.024189 -0.006839 0.004299 0.000000 0.008687 0.000000
# 2 -0.006839 0.016420 -0.007979 0.000000 -0.008967 0.000000
# 3 0.004299 -0.007979 0.013159 0.000000 0.006489 0.000000
# 4 0.000000 0.000000 0.000000 0.045256 0.000000 -0.003388
# 5 0.008687 -0.008967 0.006489 0.000000 0.044349 0.000000
# 6 0.000000 0.000000 0.000000 -0.003388 0.000000 0.037718
#
#
# Mechanical properties :
#
#
# Convention : Reuss Voigt Hill
#
# Bulk Modulus (GPa) = 30.55322 41.52635 36.03979
# Shear Modulus (GPa) = 23.46996 27.97535 25.72265
#
# Velocity S-wave (km/s) = 3.23752 3.53463 3.38934
# Velocity P-wave (km/s) = 5.25550 5.93326 5.60464
#
# Compressibility (1/GPa) = 0.03272978
#
# Stress axis : x y z
#
# Youngs Moduli (GPa) = 41.34139 60.89988 75.99614
#
# Poissons Ratio (x) = 0.41647 -0.32670
# Poissons Ratio (y) = 0.28272 0.60640
# Poissons Ratio (z) = -0.17772 0.48594
#
# Static dielectric constant tensor:
#      x y z
#    x 1.883990 0.000000 0.002840 
#    y 0.000000 1.783310 0.000000 
#    z 0.002840 0.000000 1.843270 
# 
# From -- ./inp_files/75784.got.cif
#   From: 2010.05.17/outbox.cif.g08.bks.cpg/sg12_38_cif.got.tgz:75784.got - 2010.06.03 13:09:07.
