data_PCOD9204002
_publ_section_title
;
Structure prediction by ZEFSAII (Michael W. Deem and Ramdas Pophale) SiO2 
 PCOD9204002
Probable space group: C 2/M
;
_chemical_formula_sum "Si O2"
_cell_formula_units_Z 50
_cell_length_a 8.502061
_cell_length_b 27.151573
_cell_length_c 13.907333
_cell_angle_alpha 90.000000
_cell_angle_beta 127.348378
_cell_angle_gamma 90.000000
_cell_volume 2552.167516
_symmetry_space_group_name_H-M "C 2/M"
_symmetry_group_IT_number 12
_symmetry_cell_setting 'monoclinic'
loop_
_space_group_symop_operation_xyz
x,y,z
-x,y,-z
-x,-y,-z
x,-y,z
1/2+x,1/2+y,z
1/2-x,1/2+y,-z
1/2-x,1/2-y,-z
1/2+x,1/2-y,z
loop_
_atom_site_type_symbol
_atom_site_label
_atom_site_fract_x
_atom_site_fract_y
_atom_site_fract_z
Si Si1 0.421045 0.847381 0.364043
Si Si2 0.782572 0.945190 0.639347
Si Si3 0.729742 0.572755 0.779701
Si Si4 0.194732 0.681776 0.132229
Si Si5 0.000000 0.500000 0.000000
Si Si6 0.277232 0.400711 0.426914
Si Si7 0.563822 0.713976 0.136628
O O1 0.500000 0.830402 0.500000
O O2 0.323404 0.901250 0.344285
O O3 0.615181 0.857821 0.373057
O O4 0.253897 0.815685 0.248027
O O5 0.760049 0.931203 0.518993
O O6 0.017590 0.942832 0.742834
O O7 0.709894 0.000000 0.634063
O O8 0.739845 0.631954 0.792343
O O9 0.748279 0.564045 0.673256
O O10 0.893957 0.542971 0.895596
O O11 0.373503 0.700120 0.130107
O O12 0.124042 0.728719 0.167245
O O13 0.000000 0.668084 0.000000
O O14 0.500000 0.380521 0.500000
O O15 0.500000 0.705711 0.000000
#
# Coordination Sequence:
#
# PCOD9204002 Si02
#       7
#     8   8   8   8   2   8   8
#     4  10  22  42  63  94 130 165 211 267 319 371
#     4  10  20  40  63  87 126 169 208 257 315 374
#     4  11  22  38  62  92 129 159 210 260 312 368
#     4  11  23  41  64  94 127 167 213 260 309 383
#     4  12  24  36  62  94 128 168 198 264 320 356
#     4   9  22  37  63  92 122 166 215 256 308 380
#     4  11  24  41  68  93 123 171 215 258 318 383
#
# _framework density 19.591190999999998
#
# number of rings (size 3 to 8) (size 9 to 14) (size 15 to 20)
#    0.000    1.600    3.200    1.920    5.600    3.840 
#    0.000    3.200    0.000    1.440    0.000    0.000 
#    0.000    0.000    0.000    0.000    0.000    0.000 
#
# Total GULP energy -139207.710750 kJ/mol
# GULP energy per Si atom -5568.308430 kJ/mol
# Density = 1.954660 g / cm^3
# Si number density = 19.591191 Si / 1000 Ang^3
#
#
#
# Elastic Constant Matrix: (Units=GPa)
#
#
# Indices 1 2 3 4 5 6 
#
# 1 65.6474 17.7102 27.0090 0.0000 6.0300 0.0000
# 2 17.7102 122.5547 35.7745 0.0000 -3.9812 0.0000
# 3 27.0090 35.7745 91.5850 0.0000 17.4206 0.0000
# 4 0.0000 0.0000 0.0000 5.5692 0.0000 11.9502
# 5 6.0300 -3.9812 17.4206 0.0000 18.4851 0.0000
# 6 0.0000 0.0000 0.0000 11.9502 0.0000 11.2246
#
#
#
# Elastic Compliance Matrix: (Units=1/GPa)
#
#
# Indices 1 2 3 4 5 6 
#
# 1 0.017535 -0.001354 -0.004263 0.000000 -0.001995 0.000000
# 2 -0.001354 0.010014 -0.004882 0.000000 0.007199 0.000000
# 3 -0.004263 -0.004882 0.017080 0.000000 -0.015757 0.000000
# 4 0.000000 0.000000 0.000000 -0.139791 0.000000 0.148828
# 5 -0.001995 0.007199 -0.015757 0.000000 0.071149 0.000000
# 6 0.000000 0.000000 0.000000 0.148828 0.000000 -0.069358
#
#
# Mechanical properties :
#
#
# Convention : Reuss Voigt Hill
#
# Bulk Modulus (GPa) = 42.31594 48.97495 45.64545
# Shear Modulus (GPa) = -77.52449 20.34199 -28.59125
#
# Velocity S-wave (km/s) = -6.29738 3.22580 -3.82434
# Velocity P-wave (km/s) = 5.58835 6.23916 1.96182
#
# Compressibility (1/GPa) = 0.02363175
#
# Stress axis : x y z
#
# Youngs Moduli (GPa) = 57.02765 99.85824 58.54787
#
# Poissons Ratio (x) = 0.13525 0.24958
# Poissons Ratio (y) = 0.07724 0.28581
# Poissons Ratio (z) = 0.24310 0.48747
#
# Static dielectric constant tensor:
#      x y z
#    x 1.710870 0.000000 0.011170 
#    y 0.000000 1.678870 0.000000 
#    z 0.011170 0.000000 1.710330 
# 
# From -- ./inp_files/199647.got.cif
#   From: 2010.05.17/outbox.cif.g08.bks.cpg/sg12_100_cif.got.tgz:199647.got - 2010.06.03 13:09:07.
