data_PCOD9204213
_publ_section_title
;
Structure prediction by ZEFSAII (Michael W. Deem and Ramdas Pophale) SiO2 
 PCOD9204213
Probable space group: C 2/M
;
_chemical_formula_sum "Si O2"
_cell_formula_units_Z 40
_cell_length_a 12.289037
_cell_length_b 18.508591
_cell_length_c 17.726640
_cell_angle_alpha 90.000000
_cell_angle_beta 153.291806
_cell_angle_gamma 90.000000
_cell_volume 1812.157273
_symmetry_space_group_name_H-M "C 2/M"
_symmetry_group_IT_number 12
_symmetry_cell_setting 'monoclinic'
loop_
_space_group_symop_operation_xyz
x,y,z
-x,y,-z
-x,-y,-z
x,-y,z
1/2+x,1/2+y,z
1/2-x,1/2+y,-z
1/2-x,1/2-y,-z
1/2+x,1/2-y,z
loop_
_atom_site_type_symbol
_atom_site_label
_atom_site_fract_x
_atom_site_fract_y
_atom_site_fract_z
Si Si1 0.248154 0.174348 0.800498
Si Si2 0.201642 0.083971 0.458369
Si Si3 0.615853 0.083047 0.259195
Si Si4 0.547134 0.582542 0.939138
Si Si5 0.381262 0.180619 0.350812
O O1 0.298018 0.138540 0.750033
O O2 0.153883 0.255364 0.730243
O O3 0.042067 0.126493 0.712034
O O4 0.500000 0.174146 0.000000
O O5 0.246190 0.090283 0.576108
O O6 0.433485 0.120481 0.564198
O O7 0.184778 0.000000 0.428586
O O8 0.652001 0.000000 0.254739
O O9 0.330028 0.093127 0.098140
O O10 0.483328 0.500000 0.877680
O O11 0.373886 0.641062 0.793784
O O12 0.500000 0.588470 0.000000
O O13 0.500000 0.211247 0.500000
#
# Coordination Sequence:
#
# PCOD9204213 Si02
#       5
#     8   8   8   8   8
#     4  12  28  45  66  98 138 179 222 276 332 396
#     4  11  24  46  73  99 133 175 223 274 331 397
#     4  10  22  43  72  99 132 177 222 271 330 399
#     4  10  20  40  68 101 135 173 221 272 332 396
#     4  12  26  44  67 100 135 179 220 277 334 395
#
# _framework density 22.073138
#
# number of rings (size 3 to 8) (size 9 to 14) (size 15 to 20)
#    0.000    1.000    2.000    4.200    2.800    5.600 
#    0.000    0.000    0.000    0.000    0.000    0.000 
#    0.000    0.000    0.000    0.000    0.000    0.000 
#
# Total GULP energy -112040.372391 kJ/mol
# GULP energy per Si atom -5602.018620 kJ/mol
# Density = 2.202290 g / cm^3
# Si number density = 22.073138 Si / 1000 Ang^3
#
#
#
# Elastic Constant Matrix: (Units=GPa)
#
#
# Indices 1 2 3 4 5 6 
#
# 1 35.1808 13.2043 2.2085 -0.0025 10.7946 -0.0028
# 2 13.2043 117.5594 66.6819 -0.0031 17.6820 -0.0040
# 3 2.2085 66.6819 142.8862 -0.0004 12.1050 -0.0127
# 4 -0.0025 -0.0031 -0.0004 33.2392 -0.0073 -3.8661
# 5 10.7946 17.6820 12.1050 -0.0073 30.9715 -0.0062
# 6 -0.0028 -0.0040 -0.0127 -3.8661 -0.0062 10.4578
#
#
#
# Elastic Compliance Matrix: (Units=1/GPa)
#
#
# Indices 1 2 3 4 5 6 
#
# 1 0.032656 -0.003166 0.001845 0.000000 -0.010295 0.000004
# 2 -0.003166 0.012561 -0.005480 -0.000001 -0.003926 -0.000005
# 3 0.001845 -0.005480 0.009636 0.000001 -0.001280 0.000010
# 4 0.000000 -0.000001 0.000001 0.031437 0.000010 0.011622
# 5 -0.010295 -0.003926 -0.001280 0.000010 0.038618 0.000021
# 6 0.000004 -0.000005 0.000010 0.011622 0.000021 0.099918
#
#
# Mechanical properties :
#
#
# Convention : Reuss Voigt Hill
#
# Bulk Modulus (GPa) = 24.24227 51.09064 37.66646
# Shear Modulus (GPa) = 19.82720 29.16916 24.49818
#
# Velocity S-wave (km/s) = 3.00033 3.63916 3.33508
# Velocity P-wave (km/s) = 4.79679 6.39173 5.65082
#
# Compressibility (1/GPa) = 0.04125026
#
# Stress axis : x y z
#
# Youngs Moduli (GPa) = 30.62232 79.61142 103.77605
#
# Poissons Ratio (x) = 0.25204 -0.19146
# Poissons Ratio (y) = 0.09695 0.56874
# Poissons Ratio (z) = -0.05649 0.43631
#
# Static dielectric constant tensor:
#      x y z
#    x 1.802700 0.000000 -0.025320 
#    y 0.000000 1.777730 -0.000010 
#    z -0.025320 -0.000010 1.789700 
# 
# From -- ./inp_files/158426.got.cif
#   From: 2010.05.17/outbox.cif.g08.bks.cpg/sg12_80_cif.got.tgz:158426.got - 2010.06.03 13:09:07.
