data_PCOD9204691
_publ_section_title
;
Structure prediction by ZEFSAII (Michael W. Deem and Ramdas Pophale) SiO2 
 PCOD9204691
Probable space group: C 2/M
;
_chemical_formula_sum "Si O2"
_cell_formula_units_Z 52
_cell_length_a 11.829879
_cell_length_b 33.657144
_cell_length_c 10.315537
_cell_angle_alpha 90.000000
_cell_angle_beta 38.439996
_cell_angle_gamma 90.000000
_cell_volume 2553.445344
_symmetry_space_group_name_H-M "C 2/M"
_symmetry_group_IT_number 12
_symmetry_cell_setting 'monoclinic'
loop_
_space_group_symop_operation_xyz
x,y,z
-x,y,-z
-x,-y,-z
x,-y,z
1/2+x,1/2+y,z
1/2-x,1/2+y,-z
1/2-x,1/2-y,-z
1/2+x,1/2-y,z
loop_
_atom_site_type_symbol
_atom_site_label
_atom_site_fract_x
_atom_site_fract_y
_atom_site_fract_z
Si Si1 0.714155 0.767644 0.332709
Si Si2 0.991470 0.870574 0.278031
Si Si3 0.066372 0.542598 0.089970
Si Si4 0.577533 0.871056 0.075933
Si Si5 0.291533 0.810341 0.387282
Si Si6 0.500000 0.326230 0.000000
Si Si7 0.495709 0.456556 0.659545
O O1 0.500000 0.766671 0.500000
O O2 0.743284 0.787485 0.447264
O O3 0.786061 0.722535 0.279608
O O4 0.829503 0.796140 0.135370
O O5 0.928300 0.916242 0.348441
O O6 0.867652 0.842909 0.480040
O O7 0.205025 0.868384 0.120777
O O8 0.973809 0.853817 0.148464
O O9 0.005485 0.500000 0.201374
O O10 0.019865 0.585987 0.187006
O O11 0.284714 0.542118 0.889399
O O12 0.000000 0.542774 0.000000
O O13 0.479045 0.834194 0.230819
O O14 0.500000 0.870475 0.000000
O O15 0.500000 0.452371 0.500000
O O16 0.576138 0.500000 0.619200
#
# Coordination Sequence:
#
# PCOD9204691 Si02
#       7
#     8   8   8   8   8   4   8
#     4  10  22  39  58  74 107 143 182 233 274 328
#     4  10  22  37  58  80 114 146 187 229 268 326
#     4   8  15  28  44  69 105 142 169 198 255 322
#     4  10  21  32  52  83 112 141 173 224 279 328
#     4  10  23  36  53  85 103 141 188 221 283 329
#     4  10  22  42  59  78 102 152 195 226 272 326
#     4   9  18  31  51  81 114 144 174 219 277 326
#
# _framework density 20.364640000000001
#
# number of rings (size 3 to 8) (size 9 to 14) (size 15 to 20)
#    0.000    2.462    0.000    0.923    9.692    0.000 
#    0.000    5.000    0.000    0.000    0.000    0.000 
#    0.000   14.769    0.000    0.000    0.000    0.000 
#
# Total GULP energy -144949.677904 kJ/mol
# GULP energy per Si atom -5574.987612 kJ/mol
# Density = 2.031829 g / cm^3
# Si number density = 20.364640 Si / 1000 Ang^3
#
#
#
# Elastic Constant Matrix: (Units=GPa)
#
#
# Indices 1 2 3 4 5 6 
#
# 1 34.1123 23.7790 6.1670 0.0000 -12.4144 0.0000
# 2 23.7790 194.8631 42.3582 0.0000 -1.4851 0.0000
# 3 6.1670 42.3582 57.0860 0.0000 -13.8670 0.0000
# 4 0.0000 0.0000 0.0000 -66.8524 0.0000 9.6529
# 5 -12.4144 -1.4851 -13.8670 0.0000 31.7866 0.0000
# 6 0.0000 0.0000 0.0000 9.6529 0.0000 23.3007
#
#
#
# Elastic Compliance Matrix: (Units=1/GPa)
#
#
# Indices 1 2 3 4 5 6 
#
# 1 0.038346 -0.005389 0.003840 0.000000 0.016399 0.000000
# 2 -0.005389 0.006980 -0.005625 0.000000 -0.004233 0.000000
# 3 0.003840 -0.005625 0.024135 0.000000 0.011766 0.000000
# 4 0.000000 0.000000 0.000000 -0.014114 0.000000 0.005847
# 5 0.016399 -0.004233 0.011766 0.000000 0.042800 0.000000
# 6 0.000000 0.000000 0.000000 0.005847 0.000000 0.040495
#
#
# Mechanical properties :
#
#
# Convention : Reuss Voigt Hill
#
# Bulk Modulus (GPa) = 18.14502 47.85219 32.99860
# Shear Modulus (GPa) = 29.17837 11.89745 20.53791
#
# Velocity S-wave (km/s) = 3.78934 2.41969 3.17915
# Velocity P-wave (km/s) = 5.29857 5.59957 5.45115
#
# Compressibility (1/GPa) = 0.05511154
#
# Stress axis : x y z
#
# Youngs Moduli (GPa) = 26.07863 143.26806 41.43434
#
# Poissons Ratio (x) = 0.77207 -0.15910
# Poissons Ratio (y) = 0.14054 0.23307
# Poissons Ratio (z) = -0.10014 0.80590
#
# Static dielectric constant tensor:
#      x y z
#    x 1.698270 0.000000 -0.035980 
#    y 0.000000 1.810350 0.000000 
#    z -0.035980 0.000000 1.784770 
# 
# From -- ./inp_files/137571.got.cif
#   From: 2010.05.17/outbox.cif.g08.bks.cpg/sg12_69_cif.got.tgz:137571.got - 2010.06.03 13:09:07.
