data_PCOD9204490
_publ_section_title
;
Structure prediction by ZEFSAII (Michael W. Deem and Ramdas Pophale) SiO2 
 PCOD9204490
Probable space group: C 2/M
;
_chemical_formula_sum "Si O2"
_cell_formula_units_Z 58
_cell_length_a 21.615465
_cell_length_b 24.557909
_cell_length_c 8.896638
_cell_angle_alpha 90.000000
_cell_angle_beta 36.624324
_cell_angle_gamma 90.000000
_cell_volume 2817.345618
_symmetry_space_group_name_H-M "C 2/M"
_symmetry_group_IT_number 12
_symmetry_cell_setting 'monoclinic'
loop_
_space_group_symop_operation_xyz
x,y,z
-x,y,-z
-x,-y,-z
x,-y,z
1/2+x,1/2+y,z
1/2-x,1/2+y,-z
1/2-x,1/2-y,-z
1/2+x,1/2-y,z
loop_
_atom_site_type_symbol
_atom_site_label
_atom_site_fract_x
_atom_site_fract_y
_atom_site_fract_z
Si Si1 0.764724 0.935319 0.286654
Si Si2 0.447784 0.199960 0.439542
Si Si3 0.500000 0.500000 0.000000
Si Si4 0.827477 0.442112 0.981810
Si Si5 0.751408 0.851012 0.073117
Si Si6 0.023755 0.408918 0.779569
Si Si7 0.923755 0.177989 0.518585
Si Si8 0.856372 0.085536 0.430070
O O1 0.807254 0.894184 0.076074
O O2 0.639759 0.930123 0.520835
O O3 0.799601 0.911595 0.379403
O O4 0.796589 0.000000 0.220188
O O5 0.500000 0.189266 0.500000
O O6 0.324785 0.188526 0.689773
O O7 0.485681 0.154841 0.248182
O O8 0.464298 0.263903 0.381869
O O9 0.547995 0.546692 0.793222
O O10 0.818364 0.500000 0.917780
O O11 0.731722 0.437338 0.284890
O O12 0.818761 0.391764 0.888362
O O13 0.935717 0.438887 0.856558
O O14 0.820279 0.817807 0.821855
O O15 0.000000 0.416563 0.000000
O O16 0.898922 0.139022 0.428700
O O17 0.000000 0.155420 0.500000
#
# Coordination Sequence:
#
# PCOD9204490 Si02
#       8
#     8   8   2   8   8   8   8   8
#     4  11  22  38  60  95 128 164 200 245 317 371
#     4  10  20  42  63  89 120 166 203 258 312 360
#     4  12  24  44  66  78 128 164 214 248 314 350
#     4  11  20  38  61  94 129 165 203 249 307 372
#     4  10  22  38  63  90 125 161 212 253 301 369
#     4  11  22  36  62  93 132 164 201 245 308 384
#     4  10  24  43  64  88 116 160 219 261 311 354
#     4  11  24  41  63  88 121 167 204 257 305 369
#
# _framework density 20.586753000000002
#
# number of rings (size 3 to 8) (size 9 to 14) (size 15 to 20)
#    0.000    1.379    4.138    1.241    1.931    0.552 
#    1.241    5.172    0.000    0.000    0.000    0.000 
#    0.000    0.000    0.000    0.000    0.000    0.000 
#
# Total GULP energy -161536.013054 kJ/mol
# GULP energy per Si atom -5570.207347 kJ/mol
# Density = 2.053990 g / cm^3
# Si number density = 20.586753 Si / 1000 Ang^3
#
#
#
# Elastic Constant Matrix: (Units=GPa)
#
#
# Indices 1 2 3 4 5 6 
#
# 1 79.6797 23.7298 -9.4770 0.0000 3.6885 0.0000
# 2 23.7298 74.7449 17.0915 0.0000 1.5158 0.0000
# 3 -9.4770 17.0915 45.7151 0.0000 3.9605 0.0000
# 4 0.0000 0.0000 0.0000 10.1257 0.0000 -29.1705
# 5 3.6885 1.5158 3.9605 0.0000 22.4750 0.0000
# 6 0.0000 0.0000 0.0000 -29.1705 0.0000 18.8180
#
#
#
# Elastic Compliance Matrix: (Units=1/GPa)
#
#
# Indices 1 2 3 4 5 6 
#
# 1 0.015170 -0.006051 0.005674 0.000000 -0.003081 0.000000
# 2 -0.006051 0.017043 -0.007731 0.000000 0.001206 0.000000
# 3 0.005674 -0.007731 0.026379 0.000000 -0.005058 0.000000
# 4 0.000000 0.000000 0.000000 -0.028496 0.000000 -0.044173
# 5 -0.003081 0.001206 -0.005058 0.000000 0.045810 0.000000
# 6 0.000000 0.000000 0.000000 -0.044173 0.000000 -0.015333
#
#
# Mechanical properties :
#
#
# Convention : Reuss Voigt Hill
#
# Bulk Modulus (GPa) = 23.59781 29.20315 26.40048
# Shear Modulus (GPa) = 54.99712 21.53677 38.26695
#
# Velocity S-wave (km/s) = 5.17424 3.23793 4.31607
# Velocity P-wave (km/s) = 6.86910 5.30991 6.13921
#
# Compressibility (1/GPa) = 0.04237682
#
# Stress axis : x y z
#
# Youngs Moduli (GPa) = 65.92023 58.67434 37.90833
#
# Poissons Ratio (x) = 0.35504 -0.21509
# Poissons Ratio (y) = 0.39889 0.29306
# Poissons Ratio (z) = -0.37403 0.45360
#
# Static dielectric constant tensor:
#      x y z
#    x 1.766660 0.000000 -0.050010 
#    y 0.000000 1.724550 0.000000 
#    z -0.050010 0.000000 1.759000 
# 
# From -- ./inp_files/90786.got.cif
#   From: 2010.05.17/outbox.cif.g08.bks.cpg/sg12_46_cif.got.tgz:90786.got - 2010.06.03 13:09:07.
