data_PCOD9204465
_publ_section_title
;
Structure prediction by ZEFSAII (Michael W. Deem and Ramdas Pophale) SiO2 
 PCOD9204465
Probable space group: C 2/M
;
_chemical_formula_sum "Si O2"
_cell_formula_units_Z 32
_cell_length_a 13.129657
_cell_length_b 20.413023
_cell_length_c 9.308297
_cell_angle_alpha 90.000000
_cell_angle_beta 28.493161
_cell_angle_gamma 90.000000
_cell_volume 1190.140818
_symmetry_space_group_name_H-M "C 2/M"
_symmetry_group_IT_number 12
_symmetry_cell_setting 'monoclinic'
loop_
_space_group_symop_operation_xyz
x,y,z
-x,y,-z
-x,-y,-z
x,-y,z
1/2+x,1/2+y,z
1/2-x,1/2+y,-z
1/2-x,1/2-y,-z
1/2+x,1/2-y,z
loop_
_atom_site_type_symbol
_atom_site_label
_atom_site_fract_x
_atom_site_fract_y
_atom_site_fract_z
Si Si1 0.069507 0.071688 0.578175
Si Si2 0.241032 0.238202 0.223637
Si Si3 0.293096 0.379573 0.148206
Si Si4 0.363446 0.167398 0.395300
O O1 0.000000 0.078535 0.500000
O O2 0.219385 0.129141 0.457287
O O3 0.825649 0.000000 0.535069
O O4 0.859657 0.073238 0.939278
O O5 0.279841 0.307164 0.093372
O O6 0.419472 0.189147 0.949210
O O7 0.241648 0.271468 0.382628
O O8 0.000000 0.217017 0.500000
O O9 0.109747 0.381546 0.498267
O O10 0.500000 0.382579 0.000000
#
# Coordination Sequence:
#
# PCOD9204465 Si02
#       4
#     8   8   8   8
#     4  10  21  43  76 113 157 206 262 325 388 453
#     4  10  20  41  74 111 160 213 250 305 387 467
#     4   8  19  37  67 107 148 199 251 315 377 462
#     4   9  21  40  75 112 160 204 256 313 381 465
#
# _framework density 26.887577
#
# number of rings (size 3 to 8) (size 9 to 14) (size 15 to 20)
#    1.500    1.250    0.000    0.750    0.000    8.500 
#    0.000    5.000    5.500    3.750    0.000   12.250 
#    0.000    4.000    0.000    0.000    0.000    0.000 
#
# Total GULP energy -89295.910310 kJ/mol
# GULP energy per Si atom -5580.994394 kJ/mol
# Density = 2.682638 g / cm^3
# Si number density = 26.887577 Si / 1000 Ang^3
#
#
#
# Elastic Constant Matrix: (Units=GPa)
#
#
# Indices 1 2 3 4 5 6 
#
# 1 184.6715 66.7885 102.0744 0.0002 40.3156 0.0008
# 2 66.7885 154.8439 81.9896 -0.0010 0.1865 0.0033
# 3 102.0744 81.9896 213.5214 -0.0035 24.4698 0.0015
# 4 0.0002 -0.0010 -0.0035 5.3514 0.0013 -20.7122
# 5 40.3156 0.1865 24.4698 0.0013 53.0603 0.0008
# 6 0.0008 0.0033 0.0015 -20.7122 0.0008 -7.3558
#
#
#
# Elastic Compliance Matrix: (Units=1/GPa)
#
#
# Indices 1 2 3 4 5 6 
#
# 1 0.009032 -0.002438 -0.002741 -0.000001 -0.005590 0.000000
# 2 -0.002438 0.008877 -0.002589 0.000001 0.003015 0.000000
# 3 -0.002741 -0.002589 0.007125 0.000000 -0.001194 -0.000001
# 4 -0.000001 0.000001 0.000000 0.015705 0.000001 -0.044223
# 5 -0.005590 0.003015 -0.001194 0.000001 0.023634 0.000002
# 6 0.000000 0.000000 -0.000001 -0.044223 0.000002 -0.011426
#
#
# Mechanical properties :
#
#
# Convention : Reuss Voigt Hill
#
# Bulk Modulus (GPa) = 105.28140 117.19354 111.23747
# Shear Modulus (GPa) = 69.78587 30.35680 50.07134
#
# Velocity S-wave (km/s) = 5.10010 3.36374 4.32006
# Velocity P-wave (km/s) = 8.59782 7.66600 8.14524
#
# Compressibility (1/GPa) = 0.00949835
#
# Stress axis : x y z
#
# Youngs Moduli (GPa) = 110.71622 112.65569 140.35797
#
# Poissons Ratio (x) = 0.27461 0.38475
# Poissons Ratio (y) = 0.26988 0.36334
# Poissons Ratio (z) = 0.30349 0.29163
#
# Static dielectric constant tensor:
#      x y z
#    x 2.349400 0.000000 -0.031330 
#    y 0.000000 2.118930 0.000000 
#    z -0.031330 0.000000 2.155160 
# 
# From -- ./inp_files/49828.got.cif
#   From: 2010.05.17/outbox.cif.g08.bks.cpg/sg12_25_cif.got.tgz:49828.got - 2010.06.03 13:09:07.
