data_PCOD9204724
_publ_section_title
;
Structure prediction by ZEFSAII (Michael W. Deem and Ramdas Pophale) SiO2 
 PCOD9204724
Probable space group: C 2/M
;
_chemical_formula_sum "Si O2"
_cell_formula_units_Z 64
_cell_length_a 14.868231
_cell_length_b 16.976620
_cell_length_c 18.050445
_cell_angle_alpha 90.000000
_cell_angle_beta 127.462483
_cell_angle_gamma 90.000000
_cell_volume 3616.455747
_symmetry_space_group_name_H-M "C 2/M"
_symmetry_group_IT_number 12
_symmetry_cell_setting 'monoclinic'
loop_
_space_group_symop_operation_xyz
x,y,z
-x,y,-z
-x,-y,-z
x,-y,z
1/2+x,1/2+y,z
1/2-x,1/2+y,-z
1/2-x,1/2-y,-z
1/2+x,1/2-y,z
loop_
_atom_site_type_symbol
_atom_site_label
_atom_site_fract_x
_atom_site_fract_y
_atom_site_fract_z
Si Si1 0.997523 0.593262 0.731122
Si Si2 0.015845 0.301813 0.887050
Si Si3 0.646592 0.773468 0.396283
Si Si4 0.895323 0.909545 0.245457
Si Si5 0.412805 0.656292 0.759516
Si Si6 0.943509 0.791692 0.391717
Si Si7 0.310358 0.200396 0.896019
Si Si8 0.290580 0.162882 0.247500
O O1 0.982841 0.500000 0.732781
O O2 0.021216 0.639310 0.820136
O O3 0.106209 0.610969 0.732384
O O4 0.884825 0.636996 0.641828
O O5 0.994668 0.212762 0.848435
O O6 0.905577 0.321347 0.882108
O O7 0.125463 0.302303 0.994004
O O8 0.750000 0.750000 0.500000
O O9 0.647417 0.719161 0.324738
O O10 0.537496 0.745277 0.385966
O O11 0.911276 0.872989 0.335579
O O12 0.794863 0.858416 0.159730
O O13 0.008862 0.897744 0.252920
O O14 0.865090 0.000000 0.233633
O O15 0.313864 0.621623 0.762026
O O16 0.843161 0.728609 0.330099
O O17 0.000000 0.799615 0.500000
O O18 0.261944 0.285334 0.846125
#
# Coordination Sequence:
#
# PCOD9204724 Si02
#       8
#     8   8   8   8   8   8   8   8
#     4  10  21  34  50  79 112 135 163 210 265 312
#     4   9  18  34  56  77  98 130 175 218 253 298
#     4   9  17  32  53  72  95 130 170 209 247 294
#     4  10  21  33  46  73 109 136 162 203 257 311
#     4   9  18  33  53  74  96 132 177 210 241 293
#     4   9  17  31  52  73  93 126 172 213 249 294
#     4   9  18  34  55  76  98 132 176 215 252 299
#     4   9  18  33  54  76  99 133 175 215 251 295
#
# _framework density 17.696885000000002
#
# number of rings (size 3 to 8) (size 9 to 14) (size 15 to 20)
#    0.000    2.750    0.000    3.000    0.000    4.750 
#    0.000    3.750    0.000   12.750    0.000    5.250 
#    0.000    0.000    0.000    0.000    0.000    0.000 
#
# Total GULP energy -178153.166764 kJ/mol
# GULP energy per Si atom -5567.286461 kJ/mol
# Density = 1.765661 g / cm^3
# Si number density = 17.696885 Si / 1000 Ang^3
#
#
#
# Elastic Constant Matrix: (Units=GPa)
#
#
# Indices 1 2 3 4 5 6 
#
# 1 53.1141 -1.7260 12.5855 0.0000 -1.2759 0.0000
# 2 -1.7260 29.4858 9.3613 0.0000 -0.8269 0.0000
# 3 12.5855 9.3613 105.1513 0.0000 -0.1318 0.0000
# 4 0.0000 0.0000 0.0000 7.0172 0.0000 1.3436
# 5 -1.2759 -0.8269 -0.1318 0.0000 24.5564 0.0000
# 6 0.0000 0.0000 0.0000 1.3436 0.0000 12.6489
#
#
#
# Elastic Compliance Matrix: (Units=1/GPa)
#
#
# Indices 1 2 3 4 5 6 
#
# 1 0.019512 0.001969 -0.002509 0.000000 0.001067 0.000000
# 2 0.001969 0.035133 -0.003362 0.000000 0.001267 0.000000
# 3 -0.002509 -0.003362 0.010109 0.000000 -0.000189 0.000000
# 4 0.000000 0.000000 0.000000 0.145465 0.000000 -0.015452
# 5 0.001067 0.001267 -0.000189 0.000000 0.040820 0.000000
# 6 0.000000 0.000000 0.000000 -0.015452 0.000000 0.080700
#
#
# Mechanical properties :
#
#
# Convention : Reuss Voigt Hill
#
# Bulk Modulus (GPa) = 17.55956 25.35477 21.45717
# Shear Modulus (GPa) = 13.94598 20.01319 16.97958
#
# Velocity S-wave (km/s) = 2.81026 3.36652 3.10089
# Velocity P-wave (km/s) = 4.52483 5.42859 4.99718
#
# Compressibility (1/GPa) = 0.05694904
#
# Stress axis : x y z
#
# Youngs Moduli (GPa) = 51.25167 28.46349 98.91695
#
# Poissons Ratio (x) = -0.05604 0.24821
# Poissons Ratio (y) = -0.10090 0.33254
# Poissons Ratio (z) = 0.12860 0.09569
#
# Static dielectric constant tensor:
#      x y z
#    x 1.610630 0.000000 0.237390 
#    y 0.000000 1.572250 0.000000 
#    z 0.237390 0.000000 0.360350 
# 
# From -- ./inp_files/270705.got.cif
#   From: 2010.05.17/outbox.cif.g08.bks.cpg/sg12_136_cif.got.tgz:270705.got - 2010.06.03 13:09:07.
