data_PCOD9204033
_publ_section_title
;
Structure prediction by ZEFSAII (Michael W. Deem and Ramdas Pophale) SiO2 
 PCOD9204033
Probable space group: C 2/M
;
_chemical_formula_sum "Si O2"
_cell_formula_units_Z 56
_cell_length_a 20.610921
_cell_length_b 8.489175
_cell_length_c 16.774377
_cell_angle_alpha 90.000000
_cell_angle_beta 92.199160
_cell_angle_gamma 90.000000
_cell_volume 2932.846273
_symmetry_space_group_name_H-M "C 2/M"
_symmetry_group_IT_number 12
_symmetry_cell_setting 'monoclinic'
loop_
_space_group_symop_operation_xyz
x,y,z
-x,y,-z
-x,-y,-z
x,-y,z
1/2+x,1/2+y,z
1/2-x,1/2+y,-z
1/2-x,1/2-y,-z
1/2+x,1/2-y,z
loop_
_atom_site_type_symbol
_atom_site_label
_atom_site_fract_x
_atom_site_fract_y
_atom_site_fract_z
Si Si1 0.129038 0.689095 0.808134
Si Si2 0.323133 0.310050 0.019173
Si Si3 0.375328 0.691283 0.854611
Si Si4 0.490517 0.688948 0.744311
Si Si5 0.239529 0.809830 0.268390
Si Si6 0.803957 0.312251 0.562714
Si Si7 0.451450 0.809237 0.567698
O O1 0.125393 0.500000 0.807203
O O2 0.148693 0.744865 0.897259
O O3 0.188077 0.737526 0.752749
O O4 0.061363 0.758634 0.775669
O O5 0.321903 0.500000 0.022034
O O6 0.250000 0.250000 0.000000
O O7 0.367040 0.259096 0.945591
O O8 0.377491 0.500000 0.855429
O O9 0.437189 0.745475 0.806698
O O10 0.310540 0.736924 0.803435
O O11 0.487193 0.500000 0.741174
O O12 0.473476 0.753087 0.655955
O O13 0.215565 0.739373 0.349702
O O14 0.237794 0.000000 0.274427
O O15 0.804746 0.500000 0.557656
O O16 0.750000 0.250000 0.500000
O O17 0.877385 0.255666 0.548983
O O18 0.500000 0.756194 0.500000
O O19 0.451997 0.000000 0.568144
#
# Coordination Sequence:
#
# PCOD9204033 Si02
#       7
#     8   8   8   8   8   8   8
#     4  11  24  41  61  89 125 162 201 249 305 359
#     4  11  21  38  62  91 123 159 204 250 303 358
#     4   9  19  38  63  87 118 160 198 241 302 361
#     4  11  23  41  64  90 120 157 203 250 298 358
#     4  10  20  40  64  85 118 163 202 243 301 359
#     4  11  24  40  62  93 124 157 201 250 298 354
#     4  10  23  43  63  86 121 163 198 238 302 364
#
# _framework density 19.094079000000001
#
# number of rings (size 3 to 8) (size 9 to 14) (size 15 to 20)
#    0.000    1.571    2.857    1.714    2.000    2.571 
#    0.000    5.714    0.000    0.000    0.000    0.000 
#    0.000    0.000    0.000    0.000    0.000    0.000 
#
# Total GULP energy -156443.867957 kJ/mol
# GULP energy per Si atom -5587.280998 kJ/mol
# Density = 1.905062 g / cm^3
# Si number density = 19.094079 Si / 1000 Ang^3
#
#
#
# Elastic Constant Matrix: (Units=GPa)
#
#
# Indices 1 2 3 4 5 6 
#
# 1 179.9824 21.8628 81.1114 0.0000 -12.6413 0.0000
# 2 21.8628 18.5767 17.5136 0.0000 -5.3736 0.0000
# 3 81.1114 17.5136 128.0033 0.0000 -17.6093 0.0000
# 4 0.0000 0.0000 0.0000 36.5348 0.0000 4.4156
# 5 -12.6413 -5.3736 -17.6093 0.0000 40.9512 0.0000
# 6 0.0000 0.0000 0.0000 4.4156 0.0000 29.4494
#
#
#
# Elastic Compliance Matrix: (Units=1/GPa)
#
#
# Indices 1 2 3 4 5 6 
#
# 1 0.008236 -0.005499 -0.004481 0.000000 -0.000106 0.000000
# 2 -0.005499 0.066358 -0.004921 0.000000 0.004894 0.000000
# 3 -0.004481 -0.004921 0.011741 0.000000 0.003019 0.000000
# 4 0.000000 0.000000 0.000000 0.027876 0.000000 -0.004180
# 5 -0.000106 0.004894 0.003019 0.000000 0.026327 0.000000
# 6 0.000000 0.000000 0.000000 -0.004180 0.000000 0.034583
#
#
# Mechanical properties :
#
#
# Convention : Reuss Voigt Hill
#
# Bulk Modulus (GPa) = 17.68926 63.05977 40.37452
# Shear Modulus (GPa) = 22.34453 35.12538 28.73496
#
# Velocity S-wave (km/s) = 3.42458 4.29370 3.88353
# Velocity P-wave (km/s) = 4.99213 7.59465 6.42651
#
# Compressibility (1/GPa) = 0.05653148
#
# Stress axis : x y z
#
# Youngs Moduli (GPa) = 121.41646 15.06979 85.17456
#
# Poissons Ratio (x) = 0.08287 0.38168
# Poissons Ratio (y) = 0.66767 0.41918
# Poissons Ratio (z) = 0.54409 0.07416
#
# Static dielectric constant tensor:
#      x y z
#    x 1.656480 0.000000 -0.020760 
#    y 0.000000 1.657180 0.000000 
#    z -0.020760 0.000000 1.636840 
# 
# From -- ./inp_files/230857.got.cif
#   From: 2010.05.17/outbox.cif.g08.bks.cpg/sg12_116_cif.got.tgz:230857.got - 2010.06.03 13:09:07.
