data_PCOD9204094
_publ_section_title
;
Structure prediction by ZEFSAII (Michael W. Deem and Ramdas Pophale) SiO2 
 PCOD9204094
Probable space group: C 2/M
;
_chemical_formula_sum "Si O2"
_cell_formula_units_Z 56
_cell_length_a 25.772551
_cell_length_b 7.890296
_cell_length_c 15.065925
_cell_angle_alpha 90.000000
_cell_angle_beta 121.902129
_cell_angle_gamma 90.000000
_cell_volume 2600.936005
_symmetry_space_group_name_H-M "C 2/M"
_symmetry_group_IT_number 12
_symmetry_cell_setting 'monoclinic'
loop_
_space_group_symop_operation_xyz
x,y,z
-x,y,-z
-x,-y,-z
x,-y,z
1/2+x,1/2+y,z
1/2-x,1/2+y,-z
1/2-x,1/2-y,-z
1/2+x,1/2-y,z
loop_
_atom_site_type_symbol
_atom_site_label
_atom_site_fract_x
_atom_site_fract_y
_atom_site_fract_z
Si Si1 0.413641 0.304416 0.507721
Si Si2 0.491111 0.803604 0.262247
Si Si3 0.244295 0.795862 0.892558
Si Si4 0.178610 0.294608 0.198684
Si Si5 0.885844 0.199103 0.291151
Si Si6 0.720038 0.801401 0.565863
Si Si7 0.957666 0.292505 0.879224
O O1 0.435250 0.500000 0.526408
O O2 0.455070 0.211268 0.616809
O O3 0.414630 0.231550 0.408499
O O4 0.342929 0.295623 0.472703
O O5 0.432070 0.718146 0.251858
O O6 0.514955 0.734388 0.189940
O O7 0.475195 0.000000 0.234513
O O8 0.300015 0.739918 0.880102
O O9 0.180481 0.729609 0.793778
O O10 0.242383 0.000000 0.886336
O O11 0.250000 0.750000 0.000000
O O12 0.177479 0.500000 0.199394
O O13 0.230666 0.236649 0.313606
O O14 0.111741 0.234986 0.167267
O O15 0.876890 0.000000 0.302020
O O16 0.750000 0.750000 0.500000
O O17 0.705321 0.000000 0.551254
O O18 0.956474 0.500000 0.875415
O O19 0.000000 0.243179 0.000000
#
# Coordination Sequence:
#
# PCOD9204094 Si02
#       7
#     8   8   8   8   8   8   8
#     4  11  22  41  64  87 122 163 204 247 309 370
#     4  11  23  37  60  94 124 156 205 256 304 363
#     4  10  22  39  62  91 121 158 206 255 312 373
#     4  10  20  40  65  88 120 160 205 253 307 368
#     4  10  22  41  61  86 122 165 204 245 306 376
#     4  12  24  38  61  91 125 161 204 252 307 367
#     4   9  20  38  61  87 117 156 201 247 296 356
#
# _framework density 21.530711
#
# number of rings (size 3 to 8) (size 9 to 14) (size 15 to 20)
#    0.000    1.571    1.429    3.429    2.000    5.143 
#    0.000    0.714    0.000    2.143    0.000    0.000 
#    0.000    0.000    0.000    0.000    0.000    0.000 
#
# Total GULP energy -156556.292198 kJ/mol
# GULP energy per Si atom -5591.296150 kJ/mol
# Density = 2.148171 g / cm^3
# Si number density = 21.530711 Si / 1000 Ang^3
#
#
#
# Elastic Constant Matrix: (Units=GPa)
#
#
# Indices 1 2 3 4 5 6 
#
# 1 129.8851 -4.5685 34.4995 0.0000 -26.3277 0.0000
# 2 -4.5685 30.7923 -4.1347 0.0000 -3.9870 0.0000
# 3 34.4995 -4.1347 83.8211 0.0000 -28.2420 0.0000
# 4 0.0000 0.0000 0.0000 26.0488 0.0000 -3.0860
# 5 -26.3277 -3.9870 -28.2420 0.0000 44.4117 0.0000
# 6 0.0000 0.0000 0.0000 -3.0860 0.0000 21.1643
#
#
#
# Elastic Compliance Matrix: (Units=1/GPa)
#
#
# Indices 1 2 3 4 5 6 
#
# 1 0.009208 0.001588 -0.002322 0.000000 0.004125 0.000000
# 2 0.001588 0.033877 0.003003 0.000000 0.005892 0.000000
# 3 -0.002322 0.003003 0.016113 0.000000 0.009140 0.000000
# 4 0.000000 0.000000 0.000000 0.039064 0.000000 0.005696
# 5 0.004125 0.005892 0.009140 0.000000 0.031303 0.000000
# 6 0.000000 0.000000 0.000000 0.005696 0.000000 0.048080
#
#
# Mechanical properties :
#
#
# Convention : Reuss Voigt Hill
#
# Bulk Modulus (GPa) = 15.68936 32.89899 24.29418
# Shear Modulus (GPa) = 25.72641 32.90511 29.31576
#
# Velocity S-wave (km/s) = 3.46044 3.91357 3.69396
# Velocity P-wave (km/s) = 4.82379 5.97784 5.43155
#
# Compressibility (1/GPa) = 0.06373745
#
# Stress axis : x y z
#
# Youngs Moduli (GPa) = 108.60450 29.51813 62.06015
#
# Poissons Ratio (x) = -0.04689 0.14408
# Poissons Ratio (y) = -0.17251 -0.18635
# Poissons Ratio (z) = 0.25214 -0.08863
#
# Static dielectric constant tensor:
#      x y z
#    x 1.766500 0.000000 -0.008380 
#    y 0.000000 1.766680 0.000000 
#    z -0.008380 0.000000 1.753800 
# 
# From -- ./inp_files/239031.got.cif
#   From: 2010.05.17/outbox.cif.g08.bks.cpg/sg12_120_cif.got.tgz:239031.got - 2010.06.03 13:09:07.
