data_PCOD9204319
_publ_section_title
;
Structure prediction by ZEFSAII (Michael W. Deem and Ramdas Pophale) SiO2 
 PCOD9204319
Probable space group: C 2/M
;
_chemical_formula_sum "Si O2"
_cell_formula_units_Z 34
_cell_length_a 8.864101
_cell_length_b 12.114590
_cell_length_c 14.802014
_cell_angle_alpha 90.000000
_cell_angle_beta 98.011586
_cell_angle_gamma 90.000000
_cell_volume 1573.999722
_symmetry_space_group_name_H-M "C 2/M"
_symmetry_group_IT_number 12
_symmetry_cell_setting 'monoclinic'
loop_
_space_group_symop_operation_xyz
x,y,z
-x,y,-z
-x,-y,-z
x,-y,z
1/2+x,1/2+y,z
1/2-x,1/2+y,-z
1/2-x,1/2-y,-z
1/2+x,1/2-y,z
loop_
_atom_site_type_symbol
_atom_site_label
_atom_site_fract_x
_atom_site_fract_y
_atom_site_fract_z
Si Si1 0.431947 0.873424 0.394214
Si Si2 0.757251 0.162930 0.100048
Si Si3 0.500000 0.000000 0.000000
Si Si4 0.184824 0.278477 0.288095
Si Si5 0.102298 0.124481 0.126520
O O1 0.500000 0.862303 0.500000
O O2 0.306555 0.780623 0.362499
O O3 0.565192 0.849729 0.333373
O O4 0.375876 0.000000 0.378802
O O5 0.617898 0.094449 0.049541
O O6 0.752463 0.152123 0.209837
O O7 0.925961 0.130062 0.083682
O O8 0.718098 0.292981 0.086102
O O9 0.106124 0.176813 0.227308
O O10 0.158917 0.000000 0.126944
#
# Coordination Sequence:
#
# PCOD9204319 Si02
#       5
#     8   8   2   8   8
#     4  11  23  38  62  95 130 164 212 264 304 369
#     4  10  23  40  66  91 125 169 202 268 314 375
#     4  12  24  44  66  98 132 152 218 268 318 376
#     4  10  20  41  63  88 126 169 209 250 320 367
#     4  10  20  41  63  91 120 169 211 251 310 382
#
# _framework density 21.601020999999999
#
# number of rings (size 3 to 8) (size 9 to 14) (size 15 to 20)
#    1.412    0.235    3.529    1.412    1.647    0.941 
#    2.118    0.588    0.000    4.941    0.000    0.000 
#    0.000    0.000    0.000    0.000    0.000    0.000 
#
# Total GULP energy -94671.171072 kJ/mol
# GULP energy per Si atom -5568.892416 kJ/mol
# Density = 2.155186 g / cm^3
# Si number density = 21.601021 Si / 1000 Ang^3
#
#
#
# Elastic Constant Matrix: (Units=GPa)
#
#
# Indices 1 2 3 4 5 6 
#
# 1 35.2566 15.5287 -3.2116 0.0000 10.1356 0.0000
# 2 15.5287 119.2794 20.3010 0.0000 -3.8472 0.0000
# 3 -3.2116 20.3010 68.7694 0.0000 12.0437 0.0000
# 4 0.0000 0.0000 0.0000 24.6936 0.0000 -27.8383
# 5 10.1356 -3.8472 12.0437 0.0000 33.0992 0.0000
# 6 0.0000 0.0000 0.0000 -27.8383 0.0000 483.9489
#
#
#
# Elastic Compliance Matrix: (Units=1/GPa)
#
#
# Indices 1 2 3 4 5 6 
#
# 1 0.035504 -0.006059 0.005847 0.000000 -0.013704 0.000000
# 2 -0.006059 0.010001 -0.004020 0.000000 0.004481 0.000000
# 3 0.005847 -0.004020 0.017513 0.000000 -0.008630 0.000000
# 4 0.000000 0.000000 0.000000 0.043305 0.000000 0.002491
# 5 -0.013704 0.004481 -0.008630 0.000000 0.038070 0.000000
# 6 0.000000 0.000000 0.000000 0.002491 0.000000 0.002210
#
#
# Mechanical properties :
#
#
# Convention : Reuss Voigt Hill
#
# Bulk Modulus (GPa) = 18.33080 32.06019 25.19550
# Shear Modulus (GPa) = 28.85976 121.06083 74.96029
#
# Velocity S-wave (km/s) = 3.65915 7.49438 5.89725
# Velocity P-wave (km/s) = 5.13391 9.47427 7.61967
#
# Compressibility (1/GPa) = 0.05455298
#
# Stress axis : x y z
#
# Youngs Moduli (GPa) = 28.16545 99.98744 57.10198
#
# Poissons Ratio (x) = 0.60586 -0.33386
# Poissons Ratio (y) = 0.17066 0.22956
# Poissons Ratio (z) = -0.16468 0.40196
#
# Static dielectric constant tensor:
#      x y z
#    x 1.773370 0.000000 -0.031680 
#    y 0.000000 1.756020 0.000000 
#    z -0.031680 0.000000 1.850230 
# 
# From -- ./inp_files/194225.got.cif
#   From: 2010.05.17/outbox.cif.g08.bks.cpg/sg12_98_cif.got.tgz:194225.got - 2010.06.03 13:09:07.
