data_PCOD9204287
_publ_section_title
;
Structure prediction by ZEFSAII (Michael W. Deem and Ramdas Pophale) SiO2 
 PCOD9204287
Probable space group: C 2/M
;
_chemical_formula_sum "Si O2"
_cell_formula_units_Z 34
_cell_length_a 23.688814
_cell_length_b 7.929389
_cell_length_c 20.546214
_cell_angle_alpha 90.000000
_cell_angle_beta 156.047098
_cell_angle_gamma 90.000000
_cell_volume 1566.842826
_symmetry_space_group_name_H-M "C 2/M"
_symmetry_group_IT_number 12
_symmetry_cell_setting 'monoclinic'
loop_
_space_group_symop_operation_xyz
x,y,z
-x,y,-z
-x,-y,-z
x,-y,z
1/2+x,1/2+y,z
1/2-x,1/2+y,-z
1/2-x,1/2-y,-z
1/2+x,1/2-y,z
loop_
_atom_site_type_symbol
_atom_site_label
_atom_site_fract_x
_atom_site_fract_y
_atom_site_fract_z
Si Si1 0.348346 0.192538 0.661984
Si Si2 0.500000 0.500000 0.500000
Si Si3 0.652972 0.303254 0.956920
Si Si4 0.148041 0.690895 0.710783
Si Si5 0.653660 0.796257 0.192563
O O1 0.250000 0.250000 0.500000
O O2 0.507814 0.207658 0.807959
O O3 0.339360 0.267263 0.725682
O O4 0.311682 0.000000 0.634321
O O5 0.543791 0.347942 0.597931
O O6 0.617996 0.500000 0.914145
O O7 0.750000 0.250000 0.000000
O O8 0.741659 0.279296 0.115638
O O9 0.091145 0.500000 0.658537
O O10 0.236571 0.705253 0.737697
O O11 0.685150 0.000000 0.221259
O O12 0.500000 0.774056 0.000000
#
# Coordination Sequence:
#
# PCOD9204287 Si02
#       5
#     8   2   8   8   8
#     4  11  24  42  69 102 140 180 230 286 350 414
#     4  12  26  44  70  94 152 176 230 290 346 408
#     4  11  25  44  70  99 137 184 235 285 350 425
#     4  11  25  44  71 105 134 183 237 285 347 419
#     4  10  20  40  72  99 131 179 225 279 349 416
#
# _framework density 21.699687999999998
#
# number of rings (size 3 to 8) (size 9 to 14) (size 15 to 20)
#    0.000    1.176    3.529    1.765    3.294    4.235 
#    0.000    0.000    0.000    0.000    0.000    0.000 
#    0.000    0.000    0.000    0.000    0.000    0.000 
#
# Total GULP energy -94736.459564 kJ/mol
# GULP energy per Si atom -5572.732916 kJ/mol
# Density = 2.165030 g / cm^3
# Si number density = 21.699688 Si / 1000 Ang^3
#
#
#
# Elastic Constant Matrix: (Units=GPa)
#
#
# Indices 1 2 3 4 5 6 
#
# 1 138.5613 0.5156 41.8068 0.0000 -33.0033 0.0000
# 2 0.5156 105.7804 48.5383 0.0000 -10.9647 0.0000
# 3 41.8068 48.5383 116.3680 0.0000 -41.9130 0.0000
# 4 0.0000 0.0000 0.0000 40.2587 0.0000 -2.1205
# 5 -33.0033 -10.9647 -41.9130 0.0000 28.2204 0.0000
# 6 0.0000 0.0000 0.0000 -2.1205 0.0000 22.6687
#
#
#
# Elastic Compliance Matrix: (Units=1/GPa)
#
#
# Indices 1 2 3 4 5 6 
#
# 1 0.010181 0.000991 0.000766 0.000000 0.013429 0.000000
# 2 0.000991 0.012247 -0.007167 0.000000 -0.004727 0.000000
# 3 0.000766 -0.007167 0.022851 0.000000 0.032050 0.000000
# 4 0.000000 0.000000 0.000000 0.024962 0.000000 0.002335
# 5 0.013429 -0.004727 0.032050 0.000000 0.096903 0.000000
# 6 0.000000 0.000000 0.000000 0.002335 0.000000 0.044332
#
#
# Mechanical properties :
#
#
# Convention : Reuss Voigt Hill
#
# Bulk Modulus (GPa) = 29.02038 60.27010 44.64524
# Shear Modulus (GPa) = 21.38723 36.21949 28.80336
#
# Velocity S-wave (km/s) = 3.14283 4.08992 3.64725
# Velocity P-wave (km/s) = 5.15486 7.08084 6.19317
#
# Compressibility (1/GPa) = 0.03445855
#
# Stress axis : x y z
#
# Youngs Moduli (GPa) = 98.22424 81.64966 43.76113
#
# Poissons Ratio (x) = -0.08091 -0.03351
# Poissons Ratio (y) = -0.09734 0.31364
# Poissons Ratio (z) = -0.07521 0.58520
#
# Static dielectric constant tensor:
#      x y z
#    x 1.845950 0.000000 -0.016830 
#    y 0.000000 1.809480 0.000000 
#    z -0.016830 0.000000 1.814470 
# 
# From -- ./inp_files/282342.got.cif
#   From: 2010.05.17/outbox.cif.g08.bks.cpg/sg12_142_cif.got.tgz:282342.got - 2010.06.03 13:09:07.
