data_PCOD9204713
_publ_section_title
;
Structure prediction by ZEFSAII (Michael W. Deem and Ramdas Pophale) SiO2 
 PCOD9204713
Probable space group: C 2/M
;
_chemical_formula_sum "Si O2"
_cell_formula_units_Z 36
_cell_length_a 14.433328
_cell_length_b 5.707559
_cell_length_c 19.523431
_cell_angle_alpha 90.000000
_cell_angle_beta 125.653088
_cell_angle_gamma 90.000000
_cell_volume 1306.859887
_symmetry_space_group_name_H-M "C 2/M"
_symmetry_group_IT_number 12
_symmetry_cell_setting 'monoclinic'
loop_
_space_group_symop_operation_xyz
x,y,z
-x,y,-z
-x,-y,-z
x,-y,z
1/2+x,1/2+y,z
1/2-x,1/2+y,-z
1/2-x,1/2-y,-z
1/2+x,1/2-y,z
loop_
_atom_site_type_symbol
_atom_site_label
_atom_site_fract_x
_atom_site_fract_y
_atom_site_fract_z
Si Si1 0.647798 0.000000 0.018720
Si Si2 0.746801 0.000000 0.904286
Si Si3 0.948042 0.000000 0.795270
Si Si4 0.536318 0.000000 0.155713
Si Si5 0.809695 0.000000 0.287884
Si Si6 0.943485 0.000000 0.643954
Si Si7 0.293647 0.000000 0.263924
Si Si8 0.622358 0.748640 0.514755
O O1 0.515109 0.000000 0.941193
O O2 0.700071 0.000000 0.962586
O O3 0.688129 0.754052 0.069614
O O4 0.671418 0.000000 0.801054
O O5 0.004600 0.252779 0.829263
O O6 0.894983 0.000000 0.697624
O O7 0.843172 0.000000 0.802385
O O8 0.674205 0.000000 0.215375
O O9 0.919495 0.000000 0.284427
O O10 0.825906 0.267599 0.319422
O O11 0.907872 0.212030 0.578974
O O12 0.500000 0.748609 0.500000
O O13 0.680408 0.500000 0.559748
O O14 0.677905 0.000000 0.544358
#
# Coordination Sequence:
#
# PCOD9204713 Si02
#       8
#     4   4   4   4   4   4   4   8
#     4  10  21  37  62  84 101 135 187 238 280 335
#     4  10  21  37  62  84 101 135 187 238 280 335
#     4  10  23  35  56  79 117 147 185 214 285 320
#     4  10  22  42  51  83 115 146 173 236 280 342
#     4  10  23  35  56  79 117 147 185 214 285 320
#     4  10  21  32  60  88 108 152 194 222 262 338
#     4  10  22  42  51  83 115 146 173 236 280 342
#     4   8  16  30  50  82 116 140 181 237 272 301
#
# _framework density 27.546945999999998
#
# number of rings (size 3 to 8) (size 9 to 14) (size 15 to 20)
#    0.667    1.778    0.000    1.333    6.222    0.000 
#    0.000   13.333    0.000    0.000    0.000   24.889 
#    0.000    0.000    0.000    0.000    0.000    0.000 
#
# Total GULP energy -100334.254429 kJ/mol
# GULP energy per Si atom -5574.125246 kJ/mol
# Density = 2.748425 g / cm^3
# Si number density = 27.546946 Si / 1000 Ang^3
#
#
#
# Elastic Constant Matrix: (Units=GPa)
#
#
# Indices 1 2 3 4 5 6 
#
# 1 52.8453 35.3274 12.5408 0.0000 -5.2961 0.0000
# 2 35.3274 344.3062 101.6889 0.0000 -10.2277 0.0000
# 3 12.5408 101.6889 125.3428 0.0000 -18.1674 0.0000
# 4 0.0000 0.0000 0.0000 15.5626 0.0000 -6.2952
# 5 -5.2961 -10.2277 -18.1674 0.0000 49.4722 0.0000
# 6 0.0000 0.0000 0.0000 -6.2952 0.0000 13.0390
#
#
#
# Elastic Compliance Matrix: (Units=1/GPa)
#
#
# Indices 1 2 3 4 5 6 
#
# 1 0.020472 -0.001996 -0.000180 0.000000 0.001713 0.000000
# 2 -0.001996 0.004021 -0.003140 0.000000 -0.000536 0.000000
# 3 -0.000180 -0.003140 0.011034 0.000000 0.003383 0.000000
# 4 0.000000 0.000000 0.000000 0.079851 0.000000 0.038552
# 5 0.001713 -0.000536 0.003383 0.000000 0.021528 0.000000
# 6 0.000000 0.000000 0.000000 0.038552 0.000000 0.095306
#
#
# Mechanical properties :
#
#
# Convention : Reuss Voigt Hill
#
# Bulk Modulus (GPa) = 40.17104 91.28983 65.73044
# Shear Modulus (GPa) = 19.90900 40.47726 30.19313
#
# Velocity S-wave (km/s) = 2.69128 3.83742 3.31427
# Velocity P-wave (km/s) = 4.92664 7.26953 6.20958
#
# Compressibility (1/GPa) = 0.02489355
#
# Stress axis : x y z
#
# Youngs Moduli (GPa) = 48.84667 248.71712 90.63048
#
# Poissons Ratio (x) = 0.49654 0.01635
# Poissons Ratio (y) = 0.09752 0.28456
# Poissons Ratio (z) = 0.00881 0.78091
#
# Static dielectric constant tensor:
#      x y z
#    x 2.200030 0.000000 0.005810 
#    y 0.000000 2.182350 0.000000 
#    z 0.005810 0.000000 2.105140 
# 
# From -- ./inp_files/313059.got.cif
#   From: 2010.05.17/outbox.cif.g08.bks.cpg/sg12_157_cif.got.tgz:313059.got - 2010.06.03 13:09:07.
