data_PCOD9204650
_publ_section_title
;
Structure prediction by ZEFSAII (Michael W. Deem and Ramdas Pophale) SiO2 
 PCOD9204650
Probable space group: C 2/M
;
_chemical_formula_sum "Si O2"
_cell_formula_units_Z 48
_cell_length_a 21.275110
_cell_length_b 26.340355
_cell_length_c 10.961059
_cell_angle_alpha 90.000000
_cell_angle_beta 25.293592
_cell_angle_gamma 90.000000
_cell_volume 2624.429335
_symmetry_space_group_name_H-M "C 2/M"
_symmetry_group_IT_number 12
_symmetry_cell_setting 'monoclinic'
loop_
_space_group_symop_operation_xyz
x,y,z
-x,y,-z
-x,-y,-z
x,-y,z
1/2+x,1/2+y,z
1/2-x,1/2+y,-z
1/2-x,1/2-y,-z
1/2+x,1/2-y,z
loop_
_atom_site_type_symbol
_atom_site_label
_atom_site_fract_x
_atom_site_fract_y
_atom_site_fract_z
Si Si1 0.216217 0.690817 0.792717
Si Si2 0.259305 0.786978 0.864164
Si Si3 0.442711 0.943251 0.737614
Si Si4 0.663202 0.374009 0.197491
Si Si5 0.413660 0.846408 0.404415
Si Si6 0.830578 0.195816 0.336402
O O1 0.204016 0.750045 0.853111
O O2 0.298496 0.664329 0.760253
O O3 0.307679 0.675605 0.513716
O O4 0.049013 0.671935 0.083831
O O5 0.405389 0.810721 0.541737
O O6 0.250000 0.750000 0.000000
O O7 0.179216 0.838454 0.049013
O O8 0.500000 0.946503 0.500000
O O9 0.546330 0.903269 0.626311
O O10 0.438313 0.000000 0.798344
O O11 0.283608 0.917482 0.001104
O O12 0.500000 0.393530 0.500000
O O13 0.264466 0.837434 0.591761
O O14 0.750000 0.250000 0.500000
O O15 0.000000 0.200229 0.000000
#
# Coordination Sequence:
#
# PCOD9204650 Si02
#       6
#     8   8   8   8   8   8
#     4  10  23  36  54  82 122 162 196 233 281 355
#     4  10  21  31  53  83 124 157 190 225 288 352
#     4  10  21  40  62  86 114 151 201 255 302 345
#     4  10  22  34  57  87 120 150 194 240 298 356
#     4  11  22  39  60  83 118 158 203 239 289 354
#     4  12  25  37  55  82 122 161 195 234 285 350
#
# _framework density 18.289691000000001
#
# number of rings (size 3 to 8) (size 9 to 14) (size 15 to 20)
#    0.000    1.500    3.333    1.500    7.000    0.333 
#    0.000    0.000    0.000    8.500    0.000    0.000 
#    0.000    0.000    0.000    0.000    0.000    0.000 
#
# Total GULP energy -133649.531851 kJ/mol
# GULP energy per Si atom -5568.730494 kJ/mol
# Density = 1.824806 g / cm^3
# Si number density = 18.289691 Si / 1000 Ang^3
#
#
#
# Elastic Constant Matrix: (Units=GPa)
#
#
# Indices 1 2 3 4 5 6 
#
# 1 78.0031 43.4076 58.0979 0.0004 -5.2710 0.0009
# 2 43.4076 134.8698 44.6050 -0.0033 -8.8894 -0.0002
# 3 58.0979 44.6050 148.6031 -0.0224 2.0023 0.0027
# 4 0.0004 -0.0033 -0.0224 12.8248 0.0061 2.1243
# 5 -5.2710 -8.8894 2.0023 0.0061 34.6498 -0.0011
# 6 0.0009 -0.0002 0.0027 2.1243 -0.0011 14.6530
#
#
#
# Elastic Compliance Matrix: (Units=1/GPa)
#
#
# Indices 1 2 3 4 5 6 
#
# 1 0.020301 -0.004151 -0.006723 -0.000015 0.002412 0.000002
# 2 -0.004151 0.009261 -0.001181 -0.000001 0.001813 0.000001
# 3 -0.006723 -0.001181 0.009738 0.000019 -0.001888 -0.000004
# 4 -0.000015 -0.000001 0.000019 0.079893 -0.000018 -0.011582
# 5 0.002412 0.001813 -0.001888 -0.000018 0.029801 0.000005
# 6 0.000002 0.000001 -0.000004 -0.011582 0.000005 0.069924
#
#
# Mechanical properties :
#
#
# Convention : Reuss Voigt Hill
#
# Bulk Modulus (GPa) = 65.84151 72.63300 69.23726
# Shear Modulus (GPa) = 20.15388 26.78323 23.46855
#
# Velocity S-wave (km/s) = 3.32313 3.83089 3.58600
# Velocity P-wave (km/s) = 7.12753 7.70495 7.42186
#
# Compressibility (1/GPa) = 0.01518799
#
# Stress axis : x y z
#
# Youngs Moduli (GPa) = 49.25967 107.98271 102.69239
#
# Poissons Ratio (x) = 0.44826 0.69042
# Poissons Ratio (y) = 0.20449 0.12130
# Poissons Ratio (z) = 0.33118 0.12755
#
# Static dielectric constant tensor:
#      x y z
#    x 1.711240 0.000000 0.047890 
#    y 0.000000 1.649650 -0.000010 
#    z 0.047890 -0.000010 1.631960 
# 
# From -- ./inp_files/123043.got.cif
#   From: 2010.05.17/outbox.cif.g08.bks.cpg/sg12_62_cif.got.tgz:123043.got - 2010.06.03 13:09:07.
