data_PCOD9204368
_publ_section_title
;
Structure prediction by ZEFSAII (Michael W. Deem and Ramdas Pophale) SiO2 
 PCOD9204368
Probable space group: C 2/M
;
_chemical_formula_sum "Si O2"
_cell_formula_units_Z 58
_cell_length_a 11.787207
_cell_length_b 23.787263
_cell_length_c 9.240776
_cell_angle_alpha 90.000000
_cell_angle_beta 96.688860
_cell_angle_gamma 90.000000
_cell_volume 2573.342635
_symmetry_space_group_name_H-M "C 2/M"
_symmetry_group_IT_number 12
_symmetry_cell_setting 'monoclinic'
loop_
_space_group_symop_operation_xyz
x,y,z
-x,y,-z
-x,-y,-z
x,-y,z
1/2+x,1/2+y,z
1/2-x,1/2+y,-z
1/2-x,1/2-y,-z
1/2+x,1/2-y,z
loop_
_atom_site_type_symbol
_atom_site_label
_atom_site_fract_x
_atom_site_fract_y
_atom_site_fract_z
Si Si1 0.237832 0.865718 0.852951
Si Si2 0.432373 0.291117 0.350243
Si Si3 0.906597 0.739926 0.860886
Si Si4 0.307194 0.919252 0.596047
Si Si5 0.207171 0.140481 0.172984
Si Si6 0.500000 0.000000 0.500000
Si Si7 0.369449 0.178441 0.431201
Si Si8 0.587586 0.561700 0.380912
O O1 0.127044 0.836451 0.761522
O O2 0.333505 0.816514 0.862472
O O3 0.277171 0.917362 0.759244
O O4 0.218676 0.884339 0.014959
O O5 0.500000 0.313214 0.500000
O O6 0.521506 0.252910 0.272737
O O7 0.345588 0.243637 0.396831
O O8 0.829488 0.795374 0.863613
O O9 0.000000 0.739013 0.000000
O O10 0.421669 0.950968 0.569280
O O11 0.305411 0.853162 0.550449
O O12 0.207394 0.942746 0.482298
O O13 0.324970 0.144996 0.282303
O O14 0.115112 0.107952 0.260770
O O15 0.500000 0.172975 0.500000
O O16 0.500000 0.572026 0.500000
O O17 0.558701 0.500000 0.313130
#
# Coordination Sequence:
#
# PCOD9204368 Si02
#       8
#     8   8   8   8   8   2   8   8
#     4  12  25  44  64 109 145 193 236 284 358 440
#     4  11  24  37  64  99 146 186 239 284 342 417
#     4  12  24  40  64  98 150 199 223 280 353 430
#     4  11  25  42  74  96 138 182 246 299 359 420
#     4  11  24  42  70 101 146 187 234 290 352 441
#     4  12  24  52  70  98 130 192 242 310 364 410
#     4  10  20  41  65  98 134 187 236 290 338 416
#     4  10  24  48  75 104 134 179 239 306 375 429
#
# _framework density 22.538778000000001
#
# number of rings (size 3 to 8) (size 9 to 14) (size 15 to 20)
#    0.000    0.966    4.138    2.897    5.793    1.103 
#    1.241    0.000    0.000    5.379    0.000    0.000 
#    0.000    0.000    0.000    0.000    0.000    0.000 
#
# Total GULP energy -161710.995751 kJ/mol
# GULP energy per Si atom -5576.241233 kJ/mol
# Density = 2.248748 g / cm^3
# Si number density = 22.538778 Si / 1000 Ang^3
#
#
#
# Elastic Constant Matrix: (Units=GPa)
#
#
# Indices 1 2 3 4 5 6 
#
# 1 82.6955 15.2578 54.1107 0.0000 1.9163 0.0000
# 2 15.2578 81.6660 17.5471 0.0000 -7.6171 0.0000
# 3 54.1107 17.5471 170.6472 0.0000 1.4278 0.0000
# 4 0.0000 0.0000 0.0000 8.9935 0.0000 -14.5259
# 5 1.9163 -7.6171 1.4278 0.0000 43.5138 0.0000
# 6 0.0000 0.0000 0.0000 -14.5259 0.0000 16.4721
#
#
#
# Elastic Compliance Matrix: (Units=1/GPa)
#
#
# Indices 1 2 3 4 5 6 
#
# 1 0.015570 -0.001975 -0.004727 0.000000 -0.000876 0.000000
# 2 -0.001975 0.012993 -0.000730 0.000000 0.002385 0.000000
# 3 -0.004727 -0.000730 0.007435 0.000000 -0.000164 0.000000
# 4 0.000000 0.000000 0.000000 -0.262038 0.000000 -0.231078
# 5 -0.000876 0.002385 -0.000164 0.000000 0.023443 0.000000
# 6 0.000000 0.000000 0.000000 -0.231078 0.000000 -0.143068
#
#
# Mechanical properties :
#
#
# Convention : Reuss Voigt Hill
#
# Bulk Modulus (GPa) = 47.31367 56.53777 51.92572
# Shear Modulus (GPa) = -15.44375 30.33541 7.44583
#
# Velocity S-wave (km/s) = -2.62049 3.67266 1.81954
# Velocity P-wave (km/s) = 3.44699 6.56686 5.24430
#
# Compressibility (1/GPa) = 0.02113554
#
# Stress axis : x y z
#
# Youngs Moduli (GPa) = 64.22538 76.96277 134.49445
#
# Poissons Ratio (x) = 0.15201 0.63572
# Poissons Ratio (y) = 0.12685 0.09814
# Poissons Ratio (z) = 0.30358 0.05616
#
# Static dielectric constant tensor:
#      x y z
#    x 1.926750 0.000000 -0.078460 
#    y 0.000000 1.984660 0.000000 
#    z -0.078460 0.000000 1.928070 
# 
# From -- ./inp_files/53257.got.cif
#   From: 2010.05.17/outbox.cif.g08.bks.cpg/sg12_27_cif.got.tgz:53257.got - 2010.06.03 13:09:07.
