data_PCOD9204879
_publ_section_title
;
Structure prediction by ZEFSAII (Michael W. Deem and Ramdas Pophale) SiO2 
 PCOD9204879
Probable space group: C 2/M
;
_chemical_formula_sum "Si O2"
_cell_formula_units_Z 64
_cell_length_a 9.162054
_cell_length_b 23.063386
_cell_length_c 21.730663
_cell_angle_alpha 90.000000
_cell_angle_beta 55.723179
_cell_angle_gamma 90.000000
_cell_volume 3794.376441
_symmetry_space_group_name_H-M "C 2/M"
_symmetry_group_IT_number 12
_symmetry_cell_setting 'monoclinic'
loop_
_space_group_symop_operation_xyz
x,y,z
-x,y,-z
-x,-y,-z
x,-y,z
1/2+x,1/2+y,z
1/2-x,1/2+y,-z
1/2-x,1/2-y,-z
1/2+x,1/2-y,z
loop_
_atom_site_type_symbol
_atom_site_label
_atom_site_fract_x
_atom_site_fract_y
_atom_site_fract_z
Si Si1 0.923326 0.880785 0.368906
Si Si2 0.451409 0.733693 0.440981
Si Si3 0.652689 0.937564 0.516017
Si Si4 0.277500 0.930893 0.226779
Si Si5 0.181013 0.429266 0.923986
Si Si6 0.879561 0.569477 0.769553
Si Si7 0.987401 0.930158 0.072981
Si Si8 0.408020 0.854146 0.641115
O O1 0.964534 0.821960 0.395027
O O2 0.835978 0.924297 0.439220
O O3 0.765340 0.870451 0.357564
O O4 0.099502 0.903867 0.295882
O O5 0.500000 0.721779 0.500000
O O6 0.250000 0.750000 0.500000
O O7 0.554392 0.786741 0.383123
O O8 0.500000 0.939857 0.500000
O O9 0.584756 0.886230 0.574534
O O10 0.655826 0.000000 0.547103
O O11 0.311181 0.910567 0.148869
O O12 0.447293 0.921146 0.229682
O O13 0.251039 0.000000 0.230343
O O14 0.181504 0.500000 0.923724
O O15 0.352208 0.409612 0.921843
O O16 0.000000 0.411143 0.000000
O O17 0.877105 0.500000 0.751125
O O18 0.702762 0.579778 0.851338
O O19 0.880639 0.615866 0.713828
O O20 0.007399 0.000000 0.064874
O O21 0.000000 0.908001 0.000000
#
# Coordination Sequence:
#
# PCOD9204879 Si02
#       8
#     8   8   8   8   8   8   8   8
#     4  11  22  35  55  76 103 135 175 221 268 316
#     4  12  23  41  59  78 100 131 179 230 273 319
#     4   9  17  30  49  72  98 131 169 206 253 315
#     4  10  21  34  49  77 112 143 176 218 266 313
#     4   9  16  28  48  73 105 143 179 214 255 307
#     4  10  21  34  50  77 112 144 177 218 262 315
#     4   9  16  28  48  73 104 143 180 213 254 308
#     4  11  21  36  53  76 101 137 177 216 269 318
#
# _framework density 16.867066999999999
#
# number of rings (size 3 to 8) (size 9 to 14) (size 15 to 20)
#    0.000    1.875    2.500    2.625    1.750    5.500 
#    0.000    0.000    0.000    3.000    0.000    0.875 
#    0.000    6.000    0.000    0.000    0.000    0.000 
#
# Total GULP energy -178285.979693 kJ/mol
# GULP energy per Si atom -5571.436865 kJ/mol
# Density = 1.682868 g / cm^3
# Si number density = 16.867067 Si / 1000 Ang^3
#
#
#
# Elastic Constant Matrix: (Units=GPa)
#
#
# Indices 1 2 3 4 5 6 
#
# 1 116.4286 33.3316 70.5379 0.0000 -0.6836 0.0000
# 2 33.3316 59.4338 41.8071 0.0000 6.8196 0.0000
# 3 70.5379 41.8071 141.7887 0.0000 -1.6573 0.0000
# 4 0.0000 0.0000 0.0000 3.1642 0.0000 1.3633
# 5 -0.6836 6.8196 -1.6573 0.0000 36.0179 0.0000
# 6 0.0000 0.0000 0.0000 1.3633 0.0000 17.3468
#
#
#
# Elastic Compliance Matrix: (Units=1/GPa)
#
#
# Indices 1 2 3 4 5 6 
#
# 1 0.012835 -0.003518 -0.005340 0.000000 0.000664 0.000000
# 2 -0.003518 0.022883 -0.005051 0.000000 -0.004632 0.000000
# 3 -0.005340 -0.005051 0.011215 0.000000 0.001371 0.000000
# 4 0.000000 0.000000 0.000000 0.327111 0.000000 -0.025708
# 5 0.000664 -0.004632 0.001371 0.000000 0.028717 0.000000
# 6 0.000000 0.000000 0.000000 -0.025708 0.000000 0.059668
#
#
# Mechanical properties :
#
#
# Convention : Reuss Voigt Hill
#
# Bulk Modulus (GPa) = 52.31700 67.66715 59.99208
# Shear Modulus (GPa) = 10.06806 22.77074 16.41940
#
# Velocity S-wave (km/s) = 2.44582 3.67824 3.12342
# Velocity P-wave (km/s) = 6.24985 7.63179 6.97513
#
# Compressibility (1/GPa) = 0.01911424
#
# Stress axis : x y z
#
# Youngs Moduli (GPa) = 77.90916 43.70063 89.16713
#
# Poissons Ratio (x) = 0.15374 0.47619
# Poissons Ratio (y) = 0.27408 0.45040
# Poissons Ratio (z) = 0.41607 0.22074
#
# Static dielectric constant tensor:
#      x y z
#    x 1.526900 0.000000 0.016200 
#    y 0.000000 1.550970 0.000000 
#    z 0.016200 0.000000 1.559440 
# 
# From -- ./inp_files/302299.got.cif
#   From: 2010.05.17/outbox.cif.g08.bks.cpg/sg12_152_cif.got.tgz:302299.got - 2010.06.03 13:09:07.
