data_PCOD9204087
_publ_section_title
;
Structure prediction by ZEFSAII (Michael W. Deem and Ramdas Pophale) SiO2 
 PCOD9204087
Probable space group: C 2/M
;
_chemical_formula_sum "Si O2"
_cell_formula_units_Z 64
_cell_length_a 28.192377
_cell_length_b 9.776344
_cell_length_c 16.684444
_cell_angle_alpha 90.000000
_cell_angle_beta 44.070040
_cell_angle_gamma 90.000000
_cell_volume 3198.455154
_symmetry_space_group_name_H-M "C 2/M"
_symmetry_group_IT_number 12
_symmetry_cell_setting 'monoclinic'
loop_
_space_group_symop_operation_xyz
x,y,z
-x,y,-z
-x,-y,-z
x,-y,z
1/2+x,1/2+y,z
1/2-x,1/2+y,-z
1/2-x,1/2-y,-z
1/2+x,1/2-y,z
loop_
_atom_site_type_symbol
_atom_site_label
_atom_site_fract_x
_atom_site_fract_y
_atom_site_fract_z
Si Si1 0.305084 0.336595 0.637006
Si Si2 0.156929 0.659655 0.776669
Si Si3 0.312971 0.236530 0.808076
Si Si4 0.443008 0.341432 0.386200
Si Si5 0.414374 0.158435 0.965868
Si Si6 0.548136 0.339809 0.814580
Si Si7 0.534137 0.154154 0.374141
Si Si8 0.169251 0.146950 0.042730
O O1 0.305265 0.500000 0.628448
O O2 0.235113 0.290856 0.680187
O O3 0.303893 0.302655 0.732272
O O4 0.374449 0.286185 0.511723
O O5 0.151546 0.500000 0.755645
O O6 0.107393 0.760578 0.789563
O O7 0.133862 0.658824 0.897579
O O8 0.384551 0.157916 0.718112
O O9 0.321625 0.337668 0.873224
O O10 0.244560 0.154710 0.912713
O O11 0.452570 0.500000 0.398218
O O12 0.436382 0.336131 0.299047
O O13 0.506544 0.255038 0.340195
O O14 0.479314 0.251625 0.908423
O O15 0.374021 0.229729 0.942203
O O16 0.432621 0.000000 0.926258
O O17 0.541176 0.500000 0.846694
O O18 0.500000 0.196823 0.500000
O O19 0.511267 0.000000 0.384726
O O20 0.136771 0.000000 0.062795
#
# Coordination Sequence:
#
# PCOD9204087 Si02
#       8
#     8   8   8   8   8   8   8   8
#     4  10  20  40  65  87 118 161 208 251 291 359
#     4  10  22  41  65  91 117 157 207 252 305 370
#     4  11  22  39  61  88 124 167 203 246 302 364
#     4  10  23  42  64  90 121 162 208 249 298 360
#     4  11  23  41  65  91 122 163 206 247 302 372
#     4  11  24  41  62  93 127 157 199 256 310 360
#     4  11  23  39  60  90 125 160 201 249 300 352
#     4  11  24  38  61  94 126 159 202 255 308 359
#
# _framework density 20.00966
#
# number of rings (size 3 to 8) (size 9 to 14) (size 15 to 20)
#    0.000    1.375    2.500    2.625    0.000    9.750 
#    0.000    0.625    0.000    0.000    0.000    0.000 
#    0.000    0.000    0.000    0.000    0.000    0.000 
#
# Total GULP energy -178773.063465 kJ/mol
# GULP energy per Si atom -5586.658233 kJ/mol
# Density = 1.996412 g / cm^3
# Si number density = 20.009660 Si / 1000 Ang^3
#
#
#
# Elastic Constant Matrix: (Units=GPa)
#
#
# Indices 1 2 3 4 5 6 
#
# 1 98.3094 54.5104 8.6475 0.0000 -20.7218 0.0001
# 2 54.5104 99.6731 8.8148 -0.0001 -10.2630 0.0007
# 3 8.6475 8.8148 66.9052 0.0002 -15.2954 0.0004
# 4 0.0000 -0.0001 0.0002 4.1686 0.0001 0.6155
# 5 -20.7218 -10.2630 -15.2954 0.0001 29.8862 0.0000
# 6 0.0001 0.0007 0.0004 0.6155 0.0000 23.4472
#
#
#
# Elastic Compliance Matrix: (Units=1/GPa)
#
#
# Indices 1 2 3 4 5 6 
#
# 1 0.016571 -0.008207 0.001044 0.000000 0.009206 0.000000
# 2 -0.008207 0.014489 -0.001146 0.000000 -0.001301 0.000000
# 3 0.001044 -0.001146 0.017031 -0.000001 0.009047 0.000000
# 4 0.000000 0.000000 -0.000001 0.240823 -0.000001 -0.006321
# 5 0.009206 -0.001301 0.009047 -0.000001 0.044026 0.000000
# 6 0.000000 0.000000 0.000000 -0.006321 0.000000 0.042815
#
#
# Mechanical properties :
#
#
# Convention : Reuss Voigt Hill
#
# Bulk Modulus (GPa) = 31.77328 45.42589 38.59958
# Shear Modulus (GPa) = 12.41117 24.36138 18.38628
#
# Velocity S-wave (km/s) = 2.49320 3.49303 3.03458
# Velocity P-wave (km/s) = 4.91950 6.24657 5.62233
#
# Compressibility (1/GPa) = 0.03147299
#
# Stress axis : x y z
#
# Youngs Moduli (GPa) = 60.34572 69.02022 58.71758
#
# Poissons Ratio (x) = 0.56646 -0.06130
# Poissons Ratio (y) = 0.49526 0.06727
# Poissons Ratio (z) = -0.06300 0.07907
#
# Static dielectric constant tensor:
#      x y z
#    x 1.679500 0.000000 -0.012790 
#    y 0.000000 1.698210 0.000000 
#    z -0.012790 0.000000 1.728310 
# 
# From -- ./inp_files/295533.got.cif
#   From: 2010.05.17/outbox.cif.g08.bks.cpg/sg12_148_cif.got.tgz:295533.got - 2010.06.03 13:09:07.
