data_PCOD9204662
_publ_section_title
;
Structure prediction by ZEFSAII (Michael W. Deem and Ramdas Pophale) SiO2 
 PCOD9204662
Probable space group: C 2/M
;
_chemical_formula_sum "Si O2"
_cell_formula_units_Z 44
_cell_length_a 5.446283
_cell_length_b 30.569185
_cell_length_c 16.003426
_cell_angle_alpha 90.000000
_cell_angle_beta 73.440698
_cell_angle_gamma 90.000000
_cell_volume 2553.880626
_symmetry_space_group_name_H-M "C 2/M"
_symmetry_group_IT_number 12
_symmetry_cell_setting 'monoclinic'
loop_
_space_group_symop_operation_xyz
x,y,z
-x,y,-z
-x,-y,-z
x,-y,z
1/2+x,1/2+y,z
1/2-x,1/2+y,-z
1/2-x,1/2-y,-z
1/2+x,1/2-y,z
loop_
_atom_site_type_symbol
_atom_site_label
_atom_site_fract_x
_atom_site_fract_y
_atom_site_fract_z
Si Si1 0.790744 0.051604 0.684997
Si Si2 0.097581 0.773609 0.893622
Si Si3 0.863314 0.446814 0.600730
Si Si4 0.564805 0.548550 0.141853
Si Si5 0.300042 0.370949 0.097522
Si Si6 0.500000 0.915603 0.000000
O O1 0.548350 0.069214 0.657501
O O2 0.784333 0.053550 0.785767
O O3 0.071125 0.069630 0.632858
O O4 0.796080 0.000000 0.662659
O O5 0.352966 0.743930 0.866393
O O6 0.178558 0.823300 0.865575
O O7 0.000000 0.773234 0.000000
O O8 0.844744 0.500000 0.609123
O O9 0.000000 0.436960 0.500000
O O10 0.445496 0.500000 0.153576
O O11 0.372424 0.588635 0.149090
O O12 0.762231 0.553948 0.046181
O O13 0.500000 0.370562 0.000000
O O14 0.041044 0.383619 0.074702
#
# Coordination Sequence:
#
# PCOD9204662 Si02
#       6
#     8   8   8   8   8   4
#     4   9  18  29  44  64  85 113 151 190 229 273
#     4   9  18  29  49  68  86 107 140 190 248 292
#     4   9  16  28  45  64  85 108 141 188 235 277
#     4  10  21  33  45  62  90 127 168 207 236 264
#     4   9  20  32  45  63  87 114 157 201 241 284
#     4  10  21  32  46  60  88 124 170 208 239 268
#
# _framework density 17.228681999999999
#
# number of rings (size 3 to 8) (size 9 to 14) (size 15 to 20)
#    0.000    2.727    0.000    0.818   11.455    6.182 
#    0.000    0.000    0.000    0.000    0.000    0.000 
#    0.000    0.000    0.000    0.000    0.000   18.182 
#
# Total GULP energy -122510.118024 kJ/mol
# GULP energy per Si atom -5568.641728 kJ/mol
# Density = 1.718947 g / cm^3
# Si number density = 17.228682 Si / 1000 Ang^3
#
#
#
# Elastic Constant Matrix: (Units=GPa)
#
#
# Indices 1 2 3 4 5 6 
#
# 1 76.9883 33.1647 14.5392 0.0000 10.7439 0.0000
# 2 33.1647 98.9518 12.3465 0.0000 11.3929 0.0000
# 3 14.5392 12.3465 27.7578 0.0000 -0.0987 0.0000
# 4 0.0000 0.0000 0.0000 1.1540 0.0000 3.7626
# 5 10.7439 11.3929 -0.0987 0.0000 25.8499 0.0000
# 6 0.0000 0.0000 0.0000 3.7626 0.0000 14.9951
#
#
#
# Elastic Compliance Matrix: (Units=1/GPa)
#
#
# Indices 1 2 3 4 5 6 
#
# 1 0.016827 -0.004173 -0.006976 0.000000 -0.005181 0.000000
# 2 -0.004173 0.012347 -0.003319 0.000000 -0.003720 0.000000
# 3 -0.006976 -0.003319 0.041173 0.000000 0.004520 0.000000
# 4 0.000000 0.000000 0.000000 4.764925 0.000000 -1.195608
# 5 -0.005181 -0.003720 0.004520 0.000000 0.042495 0.000000
# 6 0.000000 0.000000 0.000000 -1.195608 0.000000 0.366689
#
#
# Mechanical properties :
#
#
# Convention : Reuss Voigt Hill
#
# Bulk Modulus (GPa) = 24.14892 35.97763 30.06328
# Shear Modulus (GPa) = 0.94568 17.97629 9.46098
#
# Velocity S-wave (km/s) = 0.74168 3.23366 2.34592
# Velocity P-wave (km/s) = 3.84455 5.90507 4.98249
#
# Compressibility (1/GPa) = 0.04140972
#
# Stress axis : x y z
#
# Youngs Moduli (GPa) = 59.42824 80.99156 24.28804
#
# Poissons Ratio (x) = 0.33796 0.16944
# Poissons Ratio (y) = 0.24798 0.08062
# Poissons Ratio (z) = 0.41458 0.26885
#
# Static dielectric constant tensor:
#      x y z
#    x 1.683770 0.000000 0.008410 
#    y 0.000000 1.576250 0.000000 
#    z 0.008410 0.000000 1.604480 
# 
# From -- ./inp_files/191897.got.cif
#   From: 2010.05.17/outbox.cif.g08.bks.cpg/sg12_96_cif.got.tgz:191897.got - 2010.06.03 13:09:07.
