data_PCOD9204004
_publ_section_title
;
Structure prediction by ZEFSAII (Michael W. Deem and Ramdas Pophale) SiO2 
 PCOD9204004
Probable space group: C 2/M
;
_chemical_formula_sum "Si O2"
_cell_formula_units_Z 58
_cell_length_a 19.344476
_cell_length_b 17.913706
_cell_length_c 8.623097
_cell_angle_alpha 90.000000
_cell_angle_beta 65.781246
_cell_angle_gamma 90.000000
_cell_volume 2725.171283
_symmetry_space_group_name_H-M "C 2/M"
_symmetry_group_IT_number 12
_symmetry_cell_setting 'monoclinic'
loop_
_space_group_symop_operation_xyz
x,y,z
-x,y,-z
-x,-y,-z
x,-y,z
1/2+x,1/2+y,z
1/2-x,1/2+y,-z
1/2-x,1/2-y,-z
1/2+x,1/2-y,z
loop_
_atom_site_type_symbol
_atom_site_label
_atom_site_fract_x
_atom_site_fract_y
_atom_site_fract_z
Si Si1 0.200532 0.682574 0.420241
Si Si2 0.078198 0.358823 0.977197
Si Si3 0.073825 0.303287 0.327508
Si Si4 0.000000 0.000000 0.500000
Si Si5 0.885921 0.871852 0.746578
Si Si6 0.235290 0.412739 0.695700
Si Si7 0.409523 0.582160 0.077473
Si Si8 0.861983 0.223532 0.266370
O O1 0.145475 0.654838 0.339747
O O2 0.225037 0.628330 0.538078
O O3 0.149285 0.744864 0.552902
O O4 0.275867 0.719691 0.282012
O O5 0.068195 0.337885 0.163718
O O6 0.155924 0.399878 0.859761
O O7 0.086818 0.280271 0.875565
O O8 0.000000 0.397514 0.000000
O O9 0.087944 0.214081 0.296564
O O10 0.000000 0.315098 0.500000
O O11 0.056063 0.066411 0.374880
O O12 0.805699 0.882704 0.732325
O O13 0.882212 0.888172 0.935624
O O14 0.247838 0.500000 0.657786
O O15 0.377478 0.500000 0.135058
O O16 0.390232 0.640166 0.229116
O O17 0.500000 0.577387 0.000000
#
# Coordination Sequence:
#
# PCOD9204004 Si02
#       8
#     8   8   8   2   8   8   8   8
#     4  10  24  41  62 101 124 171 228 276 334 401
#     4  11  24  42  70  99 130 176 227 280 336 399
#     4  12  24  39  69 100 133 173 220 286 332 389
#     4  12  24  44  62 104 146 176 226 246 330 418
#     4  12  24  41  67  97 136 184 222 263 324 412
#     4  11  25  47  70  93 133 177 227 278 342 405
#     4  11  24  38  58  94 134 177 224 263 311 390
#     4  10  20  40  63  87 136 168 220 269 325 385
#
# _framework density 21.283065000000001
#
# number of rings (size 3 to 8) (size 9 to 14) (size 15 to 20)
#    0.000    0.966    3.448    4.552    3.862    3.034 
#    0.000    0.690    0.000    1.655    0.000    0.000 
#    0.000    0.000    0.000    0.000    0.000    0.000 
#
# Total GULP energy -161775.233989 kJ/mol
# GULP energy per Si atom -5578.456344 kJ/mol
# Density = 2.123462 g / cm^3
# Si number density = 21.283065 Si / 1000 Ang^3
#
#
#
# Elastic Constant Matrix: (Units=GPa)
#
#
# Indices 1 2 3 4 5 6 
#
# 1 92.2813 -4.5077 22.0355 0.0000 13.2477 0.0000
# 2 -4.5077 57.4825 13.6222 0.0000 14.8640 0.0000
# 3 22.0355 13.6222 45.8850 0.0000 -11.6968 0.0000
# 4 0.0000 0.0000 0.0000 -1.4833 0.0000 3.5989
# 5 13.2477 14.8640 -11.6968 0.0000 32.8091 0.0000
# 6 0.0000 0.0000 0.0000 3.5989 0.0000 13.1063
#
#
#
# Elastic Compliance Matrix: (Units=1/GPa)
#
#
# Indices 1 2 3 4 5 6 
#
# 1 0.017360 0.009324 -0.015365 0.000000 -0.016711 0.000000
# 2 0.009324 0.028723 -0.019009 0.000000 -0.023555 0.000000
# 3 -0.015365 -0.019009 0.042450 0.000000 0.029950 0.000000
# 4 0.000000 0.000000 0.000000 -0.404605 0.000000 0.111101
# 5 -0.016711 -0.023555 0.029950 0.000000 0.058576 0.000000
# 6 0.000000 0.000000 0.000000 0.111101 0.000000 0.045792
#
#
# Mechanical properties :
#
#
# Convention : Reuss Voigt Hill
#
# Bulk Modulus (GPa) = 26.01932 28.66096 27.34014
# Shear Modulus (GPa) = -33.60392 19.85301 -6.87546
#
# Velocity S-wave (km/s) = -3.97785 3.05750 -1.79930
# Velocity P-wave (km/s) = 2.97420 5.09512 2.92527
#
# Compressibility (1/GPa) = 0.03843297
#
# Stress axis : x y z
#
# Youngs Moduli (GPa) = 57.60437 34.81474 23.55688
#
# Poissons Ratio (x) = -0.32460 0.36194
# Poissons Ratio (y) = -0.53709 0.44780
# Poissons Ratio (z) = 0.88507 0.66181
#
# Static dielectric constant tensor:
#      x y z
#    x 1.820760 0.000000 -0.009820 
#    y 0.000000 1.777630 0.000000 
#    z -0.009820 0.000000 1.742950 
# 
# From -- ./inp_files/77452.got.cif
#   From: 2010.05.17/outbox.cif.g08.bks.cpg/sg12_39_cif.got.tgz:77452.got - 2010.06.03 13:09:07.
