data_PCOD9204805
_publ_section_title
;
Structure prediction by ZEFSAII (Michael W. Deem and Ramdas Pophale) SiO2 
 PCOD9204805
Probable space group: C 2/M
;
_chemical_formula_sum "Si O2"
_cell_formula_units_Z 40
_cell_length_a 13.739502
_cell_length_b 14.503093
_cell_length_c 11.907956
_cell_angle_alpha 90.000000
_cell_angle_beta 117.872363
_cell_angle_gamma 90.000000
_cell_volume 2097.571648
_symmetry_space_group_name_H-M "C 2/M"
_symmetry_group_IT_number 12
_symmetry_cell_setting 'monoclinic'
loop_
_space_group_symop_operation_xyz
x,y,z
-x,y,-z
-x,-y,-z
x,-y,z
1/2+x,1/2+y,z
1/2-x,1/2+y,-z
1/2-x,1/2-y,-z
1/2+x,1/2-y,z
loop_
_atom_site_type_symbol
_atom_site_label
_atom_site_fract_x
_atom_site_fract_y
_atom_site_fract_z
Si Si1 0.058361 0.676622 0.702011
Si Si2 0.247945 0.796781 0.768328
Si Si3 0.821198 0.392219 0.580639
Si Si4 0.762217 0.101327 0.703364
Si Si5 0.394014 0.107652 0.023863
O O1 0.118806 0.772571 0.707291
O O2 0.133585 0.605228 0.672064
O O3 0.930632 0.665280 0.610379
O O4 0.079074 0.654597 0.843794
O O5 0.274238 0.855072 0.671991
O O6 0.304694 0.694967 0.784122
O O7 0.294918 0.845301 0.903297
O O8 0.852224 0.500000 0.610228
O O9 0.738723 0.385315 0.431224
O O10 0.807104 0.000000 0.756134
O O11 0.371041 0.000000 0.031456
O O12 0.500000 0.114089 0.000000
#
# Coordination Sequence:
#
# PCOD9204805 Si02
#       5
#     8   8   8   8   8
#     4  10  21  33  55  84 114 138 179 227 274 320
#     4  10  22  33  53  86 116 140 181 229 277 324
#     4  11  19  36  59  85 113 143 182 229 273 322
#     4   9  20  34  55  82 114 146 180 225 274 323
#     4  11  20  35  58  83 109 142 184 233 276 321
#
# _framework density 19.069671
#
# number of rings (size 3 to 8) (size 9 to 14) (size 15 to 20)
#    1.200    0.600    2.000    4.200    0.000    1.600 
#    0.000    0.000    0.000    3.000    0.000    8.400 
#    0.000    0.000    0.000    0.000    0.000    0.000 
#
# Total GULP energy -111430.205897 kJ/mol
# GULP energy per Si atom -5571.510295 kJ/mol
# Density = 1.902627 g / cm^3
# Si number density = 19.069671 Si / 1000 Ang^3
#
#
#
# Elastic Constant Matrix: (Units=GPa)
#
#
# Indices 1 2 3 4 5 6 
#
# 1 30.4373 15.6702 2.4516 0.0000 1.4824 0.0000
# 2 15.6702 25.5263 -6.1524 0.0000 7.0887 0.0000
# 3 2.4516 -6.1524 40.0832 0.0000 -18.3105 0.0000
# 4 0.0000 0.0000 0.0000 13.4367 0.0000 -0.6418
# 5 1.4824 7.0887 -18.3105 0.0000 19.8590 0.0000
# 6 0.0000 0.0000 0.0000 -0.6418 0.0000 25.8305
#
#
#
# Elastic Compliance Matrix: (Units=1/GPa)
#
#
# Indices 1 2 3 4 5 6 
#
# 1 0.050482 -0.033109 -0.007761 0.000000 0.000894 0.000000
# 2 -0.033109 0.065213 0.004371 0.000000 -0.016776 0.000000
# 3 -0.007761 0.004371 0.044308 0.000000 0.039872 0.000000
# 4 0.000000 0.000000 0.000000 0.074512 0.000000 0.001851
# 5 0.000894 -0.016776 0.039872 0.000000 0.093040 0.000000
# 6 0.000000 0.000000 0.000000 0.001851 0.000000 0.038760
#
#
# Mechanical properties :
#
#
# Convention : Reuss Voigt Hill
#
# Bulk Modulus (GPa) = 11.49371 13.33175 12.41273
# Shear Modulus (GPa) = 10.67665 17.43039 14.05352
#
# Velocity S-wave (km/s) = 2.36874 3.02659 2.71764
# Velocity P-wave (km/s) = 3.67716 4.38405 4.04607
#
# Compressibility (1/GPa) = 0.08700411
#
# Stress axis : x y z
#
# Youngs Moduli (GPa) = 19.80922 15.33447 22.56947
#
# Poissons Ratio (x) = 0.50771 0.17516
# Poissons Ratio (y) = 0.65586 -0.09865
# Poissons Ratio (z) = 0.15374 -0.06703
#
# Static dielectric constant tensor:
#      x y z
#    x 1.671920 0.000000 -0.009300 
#    y 0.000000 1.677810 0.000000 
#    z -0.009300 0.000000 1.658390 
# 
# From -- ./inp_files/142139.got.cif
#   From: 2010.05.17/outbox.cif.g08.bks.cpg/sg12_72_cif.got.tgz:142139.got - 2010.06.03 13:09:07.
