data_PCOD9204731
_publ_section_title
;
Structure prediction by ZEFSAII (Michael W. Deem and Ramdas Pophale) SiO2 
 PCOD9204731
Probable space group: C 2/M
;
_chemical_formula_sum "Si O2"
_cell_formula_units_Z 48
_cell_length_a 14.702722
_cell_length_b 14.404579
_cell_length_c 9.329178
_cell_angle_alpha 90.000000
_cell_angle_beta 109.705342
_cell_angle_gamma 90.000000
_cell_volume 1860.089887
_symmetry_space_group_name_H-M "C 2/M"
_symmetry_group_IT_number 12
_symmetry_cell_setting 'monoclinic'
loop_
_space_group_symop_operation_xyz
x,y,z
-x,y,-z
-x,-y,-z
x,-y,z
1/2+x,1/2+y,z
1/2-x,1/2+y,-z
1/2-x,1/2-y,-z
1/2+x,1/2-y,z
loop_
_atom_site_type_symbol
_atom_site_label
_atom_site_fract_x
_atom_site_fract_y
_atom_site_fract_z
Si Si1 0.988629 0.607032 0.820597
Si Si2 0.289277 0.194499 0.713906
Si Si3 0.706124 0.398949 0.278020
Si Si4 0.699709 0.891910 0.968474
Si Si5 0.097171 0.888988 0.621879
Si Si6 0.516040 0.393200 0.859166
O O1 0.966447 0.500000 0.771363
O O2 0.897991 0.668864 0.724597
O O3 0.098257 0.628123 0.832369
O O4 0.000000 0.611514 0.000000
O O5 0.258018 0.298390 0.658807
O O6 0.201072 0.131792 0.613556
O O7 0.292090 0.172882 0.888042
O O8 0.747958 0.500000 0.340518
O O9 0.719000 0.392052 0.110888
O O10 0.592940 0.400181 0.258078
O O11 0.694002 0.000000 0.018943
O O12 0.000000 0.851185 0.500000
O O13 0.087442 0.853907 0.780382
O O14 0.087785 0.000000 0.623427
O O15 0.547022 0.500000 0.903642
O O16 0.500000 0.341408 0.000000
#
# Coordination Sequence:
#
# PCOD9204731 Si02
#       6
#     8   8   8   8   8   8
#     4   8  15  27  45  71 101 133 171 219 276 334
#     4  11  19  30  52  77 106 146 183 224 278 337
#     4  10  21  33  47  73 107 144 185 227 271 324
#     4   9  17  31  51  78 113 144 177 228 285 336
#     4  10  21  37  58  85 114 143 182 234 284 330
#     4   9  18  34  55  79 112 151 185 222 274 334
#
# _framework density 25.805204
#
# number of rings (size 3 to 8) (size 9 to 14) (size 15 to 20)
#    0.000    2.500    0.000    4.000    0.000    6.000 
#    0.000    0.833    0.000    0.500    0.000    0.000 
#    0.000    0.000    0.000    0.000    0.000    0.000 
#
# Total GULP energy -134059.454200 kJ/mol
# GULP energy per Si atom -5585.810592 kJ/mol
# Density = 2.574647 g / cm^3
# Si number density = 25.805204 Si / 1000 Ang^3
#
#
#
# Elastic Constant Matrix: (Units=GPa)
#
#
# Indices 1 2 3 4 5 6 
#
# 1 129.8710 19.8587 25.0732 0.0000 17.6337 0.0000
# 2 19.8587 132.6181 19.0851 0.0000 3.3595 0.0000
# 3 25.0732 19.0851 59.4212 0.0000 11.8385 0.0000
# 4 0.0000 0.0000 0.0000 18.8141 0.0000 0.5478
# 5 17.6337 3.3595 11.8385 0.0000 42.6693 0.0000
# 6 0.0000 0.0000 0.0000 0.5478 0.0000 9.0362
#
#
#
# Elastic Compliance Matrix: (Units=1/GPa)
#
#
# Indices 1 2 3 4 5 6 
#
# 1 0.008757 -0.000827 -0.002881 0.000000 -0.002754 0.000000
# 2 -0.000827 0.007984 -0.002285 0.000000 0.000347 0.000000
# 3 -0.002881 -0.002285 0.019588 0.000000 -0.004064 0.000000
# 4 0.000000 0.000000 0.000000 0.053246 0.000000 -0.003228
# 5 -0.002754 0.000347 -0.004064 0.000000 0.025675 0.000000
# 6 0.000000 0.000000 0.000000 -0.003228 0.000000 0.110862
#
#
# Mechanical properties :
#
#
# Convention : Reuss Voigt Hill
#
# Bulk Modulus (GPa) = 41.07679 49.99383 45.53531
# Shear Modulus (GPa) = 20.30784 31.29680 25.80232
#
# Velocity S-wave (km/s) = 2.80834 3.48632 3.16553
# Velocity P-wave (km/s) = 5.14473 5.96838 5.57179
#
# Compressibility (1/GPa) = 0.02434465
#
# Stress axis : x y z
#
# Youngs Moduli (GPa) = 114.20080 125.24631 51.05169
#
# Poissons Ratio (x) = 0.10357 0.14706
# Poissons Ratio (y) = 0.09443 0.11663
# Poissons Ratio (z) = 0.32896 0.28614
#
# Static dielectric constant tensor:
#      x y z
#    x 2.018690 0.000000 -0.026920 
#    y 0.000000 2.009710 0.000000 
#    z -0.026920 0.000000 2.131970 
# 
# From -- ./inp_files/143912.got.cif
#   From: 2010.05.17/outbox.cif.g08.bks.cpg/sg12_72_cif.got.tgz:143912.got - 2010.06.03 13:09:07.
