data_PCOD9204504
_publ_section_title
;
Structure prediction by ZEFSAII (Michael W. Deem and Ramdas Pophale) SiO2 
 PCOD9204504
Probable space group: C 2/M
;
_chemical_formula_sum "Si O2"
_cell_formula_units_Z 40
_cell_length_a 11.590261
_cell_length_b 26.815730
_cell_length_c 9.678432
_cell_angle_alpha 90.000000
_cell_angle_beta 36.253762
_cell_angle_gamma 90.000000
_cell_volume 1778.859699
_symmetry_space_group_name_H-M "C 2/M"
_symmetry_group_IT_number 12
_symmetry_cell_setting 'monoclinic'
loop_
_space_group_symop_operation_xyz
x,y,z
-x,y,-z
-x,-y,-z
x,-y,z
1/2+x,1/2+y,z
1/2-x,1/2+y,-z
1/2-x,1/2-y,-z
1/2+x,1/2-y,z
loop_
_atom_site_type_symbol
_atom_site_label
_atom_site_fract_x
_atom_site_fract_y
_atom_site_fract_z
Si Si1 0.721251 0.227201 0.241062
Si Si2 0.602796 0.592811 0.254534
Si Si3 0.764928 0.500000 0.922683
Si Si4 0.267119 0.347726 0.424789
Si Si5 0.390103 0.177263 0.932147
Si Si6 0.000000 0.578283 0.500000
O O1 0.500000 0.240732 0.500000
O O2 0.816626 0.198598 0.277701
O O3 0.694441 0.188935 0.139585
O O4 0.825352 0.275752 0.083816
O O5 0.500000 0.582424 0.500000
O O6 0.450289 0.625209 0.312738
O O7 0.660216 0.543475 0.117984
O O8 0.793753 0.627438 0.084210
O O9 0.872792 0.456381 0.723603
O O10 0.119656 0.328687 0.685094
O O11 0.143071 0.386934 0.452498
#
# Coordination Sequence:
#
# PCOD9204504 Si02
#       6
#     8   8   4   8   8   4
#     4   9  18  38  70 100 137 183 239 288 356 421
#     4  12  27  46  68 104 147 195 239 294 359 432
#     4  11  25  47  75 107 144 181 246 307 362 429
#     4  11  22  45  73 102 146 188 238 301 357 424
#     4  10  20  42  65 101 143 181 236 294 351 426
#     4  11  22  46  78 110 134 182 244 305 374 418
#
# _framework density 22.486315000000001
#
# number of rings (size 3 to 8) (size 9 to 14) (size 15 to 20)
#    0.000    1.400    5.000    0.900    0.000    6.400 
#    0.000   25.000    0.000    0.000    0.000    0.000 
#    0.000    0.000    0.000    0.000    0.000    0.000 
#
# Total GULP energy -111553.871438 kJ/mol
# GULP energy per Si atom -5577.693572 kJ/mol
# Density = 2.243514 g / cm^3
# Si number density = 22.486315 Si / 1000 Ang^3
#
#
#
# Elastic Constant Matrix: (Units=GPa)
#
#
# Indices 1 2 3 4 5 6 
#
# 1 75.5239 23.1719 38.1787 0.0000 9.4460 0.0000
# 2 23.1719 160.6587 111.5101 0.0000 5.7574 0.0000
# 3 38.1787 111.5101 220.0420 0.0000 26.9333 0.0000
# 4 0.0000 0.0000 0.0000 69.3842 0.0000 18.0450
# 5 9.4460 5.7574 26.9333 0.0000 19.6264 0.0000
# 6 0.0000 0.0000 0.0000 18.0450 0.0000 -11.2387
#
#
#
# Elastic Compliance Matrix: (Units=1/GPa)
#
#
# Indices 1 2 3 4 5 6 
#
# 1 0.014896 -0.000910 -0.001537 0.000000 -0.004794 0.000000
# 2 -0.000910 0.010022 -0.005546 0.000000 0.005109 0.000000
# 3 -0.001537 -0.005546 0.008813 0.000000 -0.009727 0.000000
# 4 0.000000 0.000000 0.000000 0.010167 0.000000 0.016324
# 5 -0.004794 0.005109 -0.009727 0.000000 0.065108 0.000000
# 6 0.000000 0.000000 0.000000 0.016324 0.000000 -0.062768
#
#
# Mechanical properties :
#
#
# Convention : Reuss Voigt Hill
#
# Bulk Modulus (GPa) = 56.35468 89.10513 72.72991
# Shear Modulus (GPa) = 73.37825 34.44531 53.91178
#
# Velocity S-wave (km/s) = 5.71868 3.91811 4.90178
# Velocity P-wave (km/s) = 8.28978 7.75765 8.02813
#
# Compressibility (1/GPa) = 0.01774476
#
# Stress axis : x y z
#
# Youngs Moduli (GPa) = 67.13004 99.77845 113.47511
#
# Poissons Ratio (x) = 0.09082 0.17436
# Poissons Ratio (y) = 0.06110 0.62938
# Poissons Ratio (z) = 0.10315 0.55341
#
# Static dielectric constant tensor:
#      x y z
#    x 1.864330 0.000000 0.000360 
#    y 0.000000 1.764040 0.000000 
#    z 0.000360 0.000000 1.832260 
# 
# From -- ./inp_files/54030.got.cif
#   From: 2010.05.17/outbox.cif.g08.bks.cpg/sg12_28_cif.got.tgz:54030.got - 2010.06.03 13:09:07.
