data_PCOD9204974
_publ_section_title
;
Structure prediction by ZEFSAII (Michael W. Deem and Ramdas Pophale) SiO2 
 PCOD9204974
Probable space group: C 2/M
;
_chemical_formula_sum "Si O2"
_cell_formula_units_Z 40
_cell_length_a 12.851827
_cell_length_b 18.026488
_cell_length_c 14.281838
_cell_angle_alpha 90.000000
_cell_angle_beta 150.604039
_cell_angle_gamma 90.000000
_cell_volume 1624.060159
_symmetry_space_group_name_H-M "C 2/M"
_symmetry_group_IT_number 12
_symmetry_cell_setting 'monoclinic'
loop_
_space_group_symop_operation_xyz
x,y,z
-x,y,-z
-x,-y,-z
x,-y,z
1/2+x,1/2+y,z
1/2-x,1/2+y,-z
1/2-x,1/2-y,-z
1/2+x,1/2-y,z
loop_
_atom_site_type_symbol
_atom_site_label
_atom_site_fract_x
_atom_site_fract_y
_atom_site_fract_z
Si Si1 0.409078 0.813124 0.241564
Si Si2 0.190629 0.914587 0.771802
Si Si3 0.810440 0.413354 0.670198
Si Si4 0.793589 0.913622 0.769474
Si Si5 0.453713 0.668907 0.180547
O O1 0.549982 0.869545 0.292979
O O2 0.360864 0.853906 0.301529
O O3 0.512660 0.732992 0.301070
O O4 0.178154 0.801209 0.011613
O O5 0.309631 0.881269 0.775572
O O6 0.209250 0.880549 0.887908
O O7 0.937928 0.911365 0.553144
O O8 0.250345 0.000000 0.821665
O O9 0.870825 0.500000 0.718442
O O10 0.866356 0.881471 0.725876
O O11 0.722507 0.000000 0.707660
O O12 0.000000 0.916428 0.000000
#
# Coordination Sequence:
#
# PCOD9204974 Si02
#       5
#     8   8   8   8   8
#     4  10  21  34  54  81 109 141 181 226 271 324
#     4   9  19  36  56  78 107 142 179 222 271 322
#     4   9  19  36  56  78 107 142 179 222 271 322
#     4   9  18  34  53  75 108 145 176 216 275 327
#     4  10  21  34  54  81 109 141 181 226 271 324
#
# _framework density 24.629631
#
# number of rings (size 3 to 8) (size 9 to 14) (size 15 to 20)
#    0.000    2.600    0.000    2.400    2.800    4.000 
#    0.000    3.000    0.000    3.600    0.000    0.000 
#    0.000    0.000    0.000    0.000    0.000    0.000 
#
# Total GULP energy -111672.827542 kJ/mol
# GULP energy per Si atom -5583.641377 kJ/mol
# Density = 2.457357 g / cm^3
# Si number density = 24.629631 Si / 1000 Ang^3
#
#
#
# Elastic Constant Matrix: (Units=GPa)
#
#
# Indices 1 2 3 4 5 6 
#
# 1 193.6965 81.7750 9.2771 -0.0002 0.0266 -0.0001
# 2 81.7750 134.2718 4.0010 -0.0003 -5.6231 -0.0001
# 3 9.2771 4.0010 77.9092 -0.0011 5.9690 -0.0005
# 4 -0.0002 -0.0003 -0.0011 -3.5549 -0.0005 -2.1179
# 5 0.0266 -5.6231 5.9690 -0.0005 25.5695 -0.0002
# 6 -0.0001 -0.0001 -0.0005 -2.1179 -0.0002 39.4769
#
#
#
# Elastic Compliance Matrix: (Units=1/GPa)
#
#
# Indices 1 2 3 4 5 6 
#
# 1 0.006995 -0.004278 -0.000550 0.000000 -0.000820 0.000000
# 2 -0.004278 0.010154 -0.000187 -0.000001 0.002281 0.000000
# 3 -0.000550 -0.000187 0.013149 -0.000003 -0.003110 0.000000
# 4 0.000000 -0.000001 -0.000003 -0.272592 -0.000005 -0.014624
# 5 -0.000820 0.002281 -0.003110 -0.000005 0.040338 0.000000
# 6 0.000000 0.000000 0.000000 -0.014624 0.000000 0.024547
#
#
# Mechanical properties :
#
#
# Convention : Reuss Voigt Hill
#
# Bulk Modulus (GPa) = 49.34032 66.22041 57.78037
# Shear Modulus (GPa) = -31.12899 33.01992 0.94547
#
# Velocity S-wave (km/s) = -3.55897 3.66547 0.62025
# Velocity P-wave (km/s) = 1.78551 6.69769 4.90138
#
# Compressibility (1/GPa) = 0.02026740
#
# Stress axis : x y z
#
# Youngs Moduli (GPa) = 142.95071 98.48064 76.05213
#
# Poissons Ratio (x) = 0.42133 0.04186
# Poissons Ratio (y) = 0.61159 0.01421
# Poissons Ratio (z) = 0.07869 0.01840
#
# Static dielectric constant tensor:
#      x y z
#    x 1.926330 0.000000 -0.035760 
#    y 0.000000 1.988690 0.000000 
#    z -0.035760 0.000000 2.074230 
# 
# From -- ./inp_files/47045.got.cif
#   From: 2010.05.17/outbox.cif.g08.bks.cpg/sg12_24_cif.got.tgz:47045.got - 2010.06.03 13:09:07.
