data_PCOD9204596
_publ_section_title
;
Structure prediction by ZEFSAII (Michael W. Deem and Ramdas Pophale) SiO2 
 PCOD9204596
Probable space group: C 2/M
;
_chemical_formula_sum "Si O2"
_cell_formula_units_Z 44
_cell_length_a 9.777637
_cell_length_b 23.021278
_cell_length_c 14.755308
_cell_angle_alpha 90.000000
_cell_angle_beta 143.183318
_cell_angle_gamma 90.000000
_cell_volume 1990.327413
_symmetry_space_group_name_H-M "C 2/M"
_symmetry_group_IT_number 12
_symmetry_cell_setting 'monoclinic'
loop_
_space_group_symop_operation_xyz
x,y,z
-x,y,-z
-x,-y,-z
x,-y,z
1/2+x,1/2+y,z
1/2-x,1/2+y,-z
1/2-x,1/2-y,-z
1/2+x,1/2-y,z
loop_
_atom_site_type_symbol
_atom_site_label
_atom_site_fract_x
_atom_site_fract_y
_atom_site_fract_z
Si Si1 0.741702 0.214067 0.826743
Si Si2 0.500000 0.500000 0.000000
Si Si3 0.000643 0.063779 0.701294
Si Si4 0.500000 0.104004 0.000000
Si Si5 0.883678 0.687868 0.778101
Si Si6 0.500000 0.000000 0.500000
Si Si7 0.256133 0.407310 0.738403
Si Si8 0.500000 0.608996 0.500000
O O1 0.727796 0.267151 0.750108
O O2 0.568225 0.221081 0.816921
O O3 0.698122 0.151835 0.757916
O O4 0.000000 0.214050 0.000000
O O5 0.579255 0.448470 0.114472
O O6 0.882565 0.106382 0.709873
O O7 0.977919 0.074486 0.582705
O O8 0.896950 0.000000 0.670472
O O9 0.269654 0.067203 0.866757
O O10 0.493331 0.145632 0.084224
O O11 0.722564 0.648388 0.631000
O O12 0.545145 0.948106 0.601133
#
# Coordination Sequence:
#
# PCOD9204596 Si02
#       8
#     8   2   8   4   8   2   8   4
#     4  12  25  42  71 102 133 180 226 290 338 400
#     4  10  20  44  60 102 122 172 216 278 322 402
#     4  11  22  44  67  96 136 177 225 275 332 411
#     4  10  23  41  66  98 131 175 222 278 338 402
#     4  11  26  44  69  97 138 174 230 283 340 407
#     4  10  24  44  60 102 126 180 208 278 330 402
#     4  11  24  40  70  95 137 168 227 274 339 393
#     4  10  27  45  64  98 137 183 224 274 348 404
#
# _framework density 22.106915000000001
#
# number of rings (size 3 to 8) (size 9 to 14) (size 15 to 20)
#    0.000    1.091    3.636    2.182    7.636    1.455 
#    0.000    0.000    0.000    0.000    0.000    0.000 
#    0.000    0.000    0.000    0.000    0.000    0.000 
#
# Total GULP energy -122541.499053 kJ/mol
# GULP energy per Si atom -5570.068139 kJ/mol
# Density = 2.205660 g / cm^3
# Si number density = 22.106915 Si / 1000 Ang^3
#
#
#
# Elastic Constant Matrix: (Units=GPa)
#
#
# Indices 1 2 3 4 5 6 
#
# 1 86.1368 -8.5319 15.5218 -0.0001 -13.2425 0.0002
# 2 -8.5319 71.3900 15.5473 0.0000 -14.5955 0.0001
# 3 15.5218 15.5473 115.8768 -0.0002 -20.9063 0.0003
# 4 -0.0001 0.0000 -0.0002 26.1521 -0.0001 -22.5737
# 5 -13.2425 -14.5955 -20.9063 -0.0001 25.8376 0.0002
# 6 0.0002 0.0001 0.0003 -22.5737 0.0002 74.4020
#
#
#
# Elastic Compliance Matrix: (Units=1/GPa)
#
#
# Indices 1 2 3 4 5 6 
#
# 1 0.013342 0.003429 -0.000778 0.000000 0.008146 0.000000
# 2 0.003429 0.016753 -0.000799 0.000000 0.010575 0.000000
# 3 -0.000778 -0.000799 0.010173 0.000000 0.007381 0.000000
# 4 0.000000 0.000000 0.000000 0.051805 0.000000 0.015718
# 5 0.008146 0.010575 0.007381 0.000000 0.054824 0.000000
# 6 0.000000 0.000000 0.000000 0.015718 0.000000 0.018209
#
#
# Mechanical properties :
#
#
# Convention : Reuss Voigt Hill
#
# Bulk Modulus (GPa) = 22.74141 35.38645 29.06393
# Shear Modulus (GPa) = 28.39954 42.00278 35.20116
#
# Velocity S-wave (km/s) = 3.58808 4.36361 3.99471
# Velocity P-wave (km/s) = 5.24167 6.43660 5.86962
#
# Compressibility (1/GPa) = 0.04397264
#
# Stress axis : x y z
#
# Youngs Moduli (GPa) = 74.95386 59.68929 98.29961
#
# Poissons Ratio (x) = -0.20469 0.07643
# Poissons Ratio (y) = -0.25703 0.07857
# Poissons Ratio (z) = 0.05828 0.04771
#
# Static dielectric constant tensor:
#      x y z
#    x 1.723250 0.000000 -0.078530 
#    y 0.000000 1.773920 0.000000 
#    z -0.078530 0.000000 1.703830 
# 
# From -- ./inp_files/207845.got.cif
#   From: 2010.05.17/outbox.cif.g08.bks.cpg/sg12_104_cif.got.tgz:207845.got - 2010.06.03 13:09:07.
