data_PCOD9204134
_publ_section_title
;
Structure prediction by ZEFSAII (Michael W. Deem and Ramdas Pophale) SiO2 
 PCOD9204134
Probable space group: C 2/M
;
_chemical_formula_sum "Si O2"
_cell_formula_units_Z 56
_cell_length_a 19.323275
_cell_length_b 17.627104
_cell_length_c 14.425881
_cell_angle_alpha 90.000000
_cell_angle_beta 147.819091
_cell_angle_gamma 90.000000
_cell_volume 2616.980920
_symmetry_space_group_name_H-M "C 2/M"
_symmetry_group_IT_number 12
_symmetry_cell_setting 'monoclinic'
loop_
_space_group_symop_operation_xyz
x,y,z
-x,y,-z
-x,-y,-z
x,-y,z
1/2+x,1/2+y,z
1/2-x,1/2+y,-z
1/2-x,1/2-y,-z
1/2+x,1/2-y,z
loop_
_atom_site_type_symbol
_atom_site_label
_atom_site_fract_x
_atom_site_fract_y
_atom_site_fract_z
Si Si1 0.292503 0.587891 0.128771
Si Si2 0.373031 0.829911 0.794899
Si Si3 0.526870 0.173197 0.792657
Si Si4 0.411147 0.912671 0.490413
Si Si5 0.364117 0.654870 0.788655
Si Si6 0.138140 0.911896 0.588834
Si Si7 0.510579 0.350796 0.262995
O O1 0.255575 0.500000 0.094375
O O2 0.376959 0.605430 0.318288
O O3 0.381922 0.600946 0.139933
O O4 0.166118 0.639597 0.978340
O O5 0.417544 0.850166 0.742651
O O6 0.319356 0.743454 0.733045
O O7 0.290373 0.895333 0.748175
O O8 0.500000 0.821370 0.000000
O O9 0.479496 0.141551 0.641835
O O10 0.531648 0.264058 0.798610
O O11 0.500000 0.907196 0.500000
O O12 0.259267 0.889396 0.309610
O O13 0.416114 0.000000 0.528100
O O14 0.403745 0.628718 0.729431
O O15 0.500000 0.648898 0.000000
O O16 0.088781 0.861248 0.447262
O O17 0.104171 0.000000 0.534005
#
# Coordination Sequence:
#
# PCOD9204134 Si02
#       7
#     8   8   8   8   8   8   8
#     4  11  24  41  65  98 136 174 215 273 339 404
#     4  10  20  40  65  94 130 164 212 270 324 396
#     4  11  23  42  66  95 127 175 223 269 332 393
#     4  11  26  45  65  95 132 173 223 279 331 386
#     4  10  24  44  69  95 128 178 228 276 328 388
#     4  11  23  39  64  98 134 171 212 266 341 403
#     4  11  24  41  65  98 131 171 222 273 329 397
#
# _framework density 21.398703999999999
#
# number of rings (size 3 to 8) (size 9 to 14) (size 15 to 20)
#    0.000    1.286    1.429    3.429    2.000    9.714 
#    0.000    0.000    0.000    0.000    0.000    0.000 
#    0.000    0.000    0.000    0.000    0.000    0.000 
#
# Total GULP energy -156323.224413 kJ/mol
# GULP energy per Si atom -5582.972300 kJ/mol
# Density = 2.135000 g / cm^3
# Si number density = 21.398704 Si / 1000 Ang^3
#
#
#
# Elastic Constant Matrix: (Units=GPa)
#
#
# Indices 1 2 3 4 5 6 
#
# 1 112.2269 31.9545 16.4008 0.0000 0.4751 0.0000
# 2 31.9545 38.1203 17.3959 0.0000 6.1410 0.0000
# 3 16.4008 17.3959 69.9256 0.0000 0.4682 0.0000
# 4 0.0000 0.0000 0.0000 41.3158 0.0000 20.7185
# 5 0.4751 6.1410 0.4682 0.0000 24.4343 0.0000
# 6 0.0000 0.0000 0.0000 20.7185 0.0000 52.9796
#
#
#
# Elastic Compliance Matrix: (Units=1/GPa)
#
#
# Indices 1 2 3 4 5 6 
#
# 1 0.011837 -0.010180 -0.000259 0.000000 0.002333 0.000000
# 2 -0.010180 0.039708 -0.007426 0.000000 -0.009639 0.000000
# 3 -0.000259 -0.007426 0.016199 0.000000 0.001561 0.000000
# 4 0.000000 0.000000 0.000000 0.030108 0.000000 -0.011774
# 5 0.002333 -0.009639 0.001561 0.000000 0.043274 0.000000
# 6 0.000000 0.000000 0.000000 -0.011774 0.000000 0.023480
#
#
# Mechanical properties :
#
#
# Convention : Reuss Voigt Hill
#
# Bulk Modulus (GPa) = 31.23775 39.08613 35.16194
# Shear Modulus (GPa) = 23.69589 34.04739 28.87164
#
# Velocity S-wave (km/s) = 3.33130 3.99318 3.67716
# Velocity P-wave (km/s) = 5.42461 6.29015 5.87335
#
# Compressibility (1/GPa) = 0.03201255
#
# Stress axis : x y z
#
# Youngs Moduli (GPa) = 84.48013 25.18396 61.73312
#
# Poissons Ratio (x) = 0.25637 0.01602
# Poissons Ratio (y) = 0.86001 0.45844
# Poissons Ratio (z) = 0.02192 0.18702
#
# Static dielectric constant tensor:
#      x y z
#    x 2.051350 0.000000 -0.129300 
#    y 0.000000 1.749570 0.000000 
#    z -0.129300 0.000000 1.975760 
# 
# From -- ./inp_files/234748.got.cif
#   From: 2010.05.17/outbox.cif.g08.bks.cpg/sg12_118_cif.got.tgz:234748.got - 2010.06.03 13:09:07.
