data_PCOD9204734
_publ_section_title
;
Structure prediction by ZEFSAII (Michael W. Deem and Ramdas Pophale) SiO2 
 PCOD9204734
Probable space group: C 2/M
;
_chemical_formula_sum "Si O2"
_cell_formula_units_Z 64
_cell_length_a 8.669143
_cell_length_b 25.641822
_cell_length_c 15.250432
_cell_angle_alpha 90.000000
_cell_angle_beta 76.446883
_cell_angle_gamma 90.000000
_cell_volume 3295.655834
_symmetry_space_group_name_H-M "C 2/M"
_symmetry_group_IT_number 12
_symmetry_cell_setting 'monoclinic'
loop_
_space_group_symop_operation_xyz
x,y,z
-x,y,-z
-x,-y,-z
x,-y,z
1/2+x,1/2+y,z
1/2-x,1/2+y,-z
1/2-x,1/2-y,-z
1/2+x,1/2-y,z
loop_
_atom_site_type_symbol
_atom_site_label
_atom_site_fract_x
_atom_site_fract_y
_atom_site_fract_z
Si Si1 0.632226 0.390011 0.919116
Si Si2 0.114681 0.618186 0.247865
Si Si3 0.172944 0.154258 0.519179
Si Si4 0.339200 0.939811 0.578353
Si Si5 0.420368 0.664804 0.800591
Si Si6 0.207541 0.216997 0.691203
Si Si7 0.719618 0.839457 0.684129
Si Si8 0.691167 0.806662 0.978080
O O1 0.786137 0.408712 0.843890
O O2 0.522462 0.368602 0.854898
O O3 0.500000 0.417443 0.000000
O O4 0.716981 0.346081 0.968493
O O5 0.123617 0.580073 0.329295
O O6 0.189621 0.674128 0.269543
O O7 0.934787 0.634383 0.253635
O O8 0.204751 0.098589 0.559198
O O9 0.205169 0.197029 0.590459
O O10 0.287400 0.154845 0.419443
O O11 0.000000 0.161514 0.500000
O O12 0.500000 0.933944 0.500000
O O13 0.292095 0.000000 0.582768
O O14 0.534607 0.711445 0.757276
O O15 0.368859 0.636935 0.717342
O O16 0.264725 0.682631 0.872844
O O17 0.245913 0.277452 0.691726
O O18 0.500000 0.810752 0.000000
O O19 0.750000 0.750000 0.000000
#
# Coordination Sequence:
#
# PCOD9204734 Si02
#       8
#     8   8   8   8   8   8   8   8
#     4   9  20  38  52  76 111 147 185 239 287 323
#     4  10  21  35  58  82 109 150 197 229 282 339
#     4  11  22  38  53  80 112 149 185 237 283 338
#     4  10  21  41  63  85 112 141 184 242 294 342
#     4  10  21  33  48  71 101 147 189 237 271 318
#     4  10  22  34  49  73 113 152 192 233 272 324
#     4  12  21  33  52  78 113 155 197 226 271 333
#     4  11  22  33  48  69 102 143 194 238 277 325
#
# _framework density 19.419502999999999
#
# number of rings (size 3 to 8) (size 9 to 14) (size 15 to 20)
#    0.000    1.625    2.500    3.000    7.000    0.250 
#    0.000    0.000    0.000    0.375    0.000    0.000 
#    0.000    5.000    0.000    0.000    0.000    0.000 
#
# Total GULP energy -178231.929953 kJ/mol
# GULP energy per Si atom -5569.747811 kJ/mol
# Density = 1.937530 g / cm^3
# Si number density = 19.419503 Si / 1000 Ang^3
#
#
#
# Elastic Constant Matrix: (Units=GPa)
#
#
# Indices 1 2 3 4 5 6 
#
# 1 68.7460 0.5662 1.4843 0.0000 0.9166 0.0000
# 2 0.5662 27.9935 9.3570 0.0000 0.8939 0.0000
# 3 1.4843 9.3570 99.7549 0.0000 -7.9769 0.0000
# 4 0.0000 0.0000 0.0000 5.8951 0.0000 -1.5699
# 5 0.9166 0.8939 -7.9769 0.0000 41.2300 0.0000
# 6 0.0000 0.0000 0.0000 -1.5699 0.0000 11.3907
#
#
#
# Elastic Compliance Matrix: (Units=1/GPa)
#
#
# Indices 1 2 3 4 5 6 
#
# 1 0.014558 -0.000207 -0.000226 0.000000 -0.000363 0.000000
# 2 -0.000207 0.036972 -0.003584 0.000000 -0.001490 0.000000
# 3 -0.000226 -0.003584 0.010534 0.000000 0.002121 0.000000
# 4 0.000000 0.000000 0.000000 0.176095 0.000000 0.024269
# 5 -0.000363 -0.001490 0.002121 0.000000 0.024705 0.000000
# 6 0.000000 0.000000 0.000000 0.024269 0.000000 0.091136
#
#
# Mechanical properties :
#
#
# Convention : Reuss Voigt Hill
#
# Bulk Modulus (GPa) = 18.50869 24.36773 21.43821
# Shear Modulus (GPa) = 13.15635 24.04228 18.59931
#
# Velocity S-wave (km/s) = 2.60567 3.52241 3.09813
# Velocity P-wave (km/s) = 4.31328 5.39615 4.88481
#
# Compressibility (1/GPa) = 0.05402867
#
# Stress axis : x y z
#
# Youngs Moduli (GPa) = 68.69206 27.04722 94.93334
#
# Poissons Ratio (x) = 0.00561 0.02147
# Poissons Ratio (y) = 0.01424 0.34025
# Poissons Ratio (z) = 0.01554 0.09694
#
# Static dielectric constant tensor:
#      x y z
#    x 1.739050 0.000000 -0.017460 
#    y 0.000000 1.635080 0.000000 
#    z -0.017460 0.000000 1.785660 
# 
# From -- ./inp_files/199792.got.cif
#   From: 2010.05.17/outbox.cif.g08.bks.cpg/sg12_100_cif.got.tgz:199792.got - 2010.06.03 13:09:07.
