data_PCOD9204483
_publ_section_title
;
Structure prediction by ZEFSAII (Michael W. Deem and Ramdas Pophale) SiO2 
 PCOD9204483
Probable space group: C 2/M
;
_chemical_formula_sum "Si O2"
_cell_formula_units_Z 40
_cell_length_a 16.840708
_cell_length_b 12.644686
_cell_length_c 20.489863
_cell_angle_alpha 90.000000
_cell_angle_beta 29.529854
_cell_angle_gamma 90.000000
_cell_volume 2150.532426
_symmetry_space_group_name_H-M "C 2/M"
_symmetry_group_IT_number 12
_symmetry_cell_setting 'monoclinic'
loop_
_space_group_symop_operation_xyz
x,y,z
-x,y,-z
-x,-y,-z
x,-y,z
1/2+x,1/2+y,z
1/2-x,1/2+y,-z
1/2-x,1/2-y,-z
1/2+x,1/2-y,z
loop_
_atom_site_type_symbol
_atom_site_label
_atom_site_fract_x
_atom_site_fract_y
_atom_site_fract_z
Si Si1 0.812364 0.000000 0.612061
Si Si2 0.383979 0.623307 0.020432
Si Si3 0.185360 0.500000 0.846411
Si Si4 0.423003 0.625431 0.249744
Si Si5 0.121078 0.199635 0.233427
Si Si6 0.119623 0.775252 0.476670
O O1 0.795125 0.109198 0.585845
O O2 0.000000 0.000000 0.500000
O O3 0.706530 0.000000 0.753060
O O4 0.333572 0.500000 0.051540
O O5 0.236390 0.702468 0.134834
O O6 0.500000 0.633302 0.000000
O O7 0.485371 0.650661 0.883267
O O8 0.274844 0.603792 0.810108
O O9 0.000000 0.500000 0.000000
O O10 0.395502 0.500000 0.271108
O O11 0.534137 0.658777 0.230727
O O12 0.255828 0.687464 0.373737
O O13 0.987767 0.231842 0.382002
O O14 0.000000 0.768892 0.500000
#
# Coordination Sequence:
#
# PCOD9204483 Si02
#       6
#     4   8   4   8   8   8
#     4  10  20  42  62  94 128 154 208 262 303 357
#     4  10  23  43  64  87 124 167 210 260 308 372
#     4  12  24  38  70 100 122 168 207 256 315 372
#     4  11  25  42  61  91 128 165 205 263 317 362
#     4  12  22  42  63  93 131 158 207 262 310 374
#     4  11  22  40  67  89 123 167 205 256 309 373
#
# _framework density 18.600044
#
# number of rings (size 3 to 8) (size 9 to 14) (size 15 to 20)
#    0.000    1.000    5.000    3.000    2.800    1.200 
#    1.800    0.000    0.000    0.000    0.000    0.000 
#    0.000    0.000    0.000    0.000    0.000    0.000 
#
# Total GULP energy -111823.442371 kJ/mol
# GULP energy per Si atom -5591.172119 kJ/mol
# Density = 1.855771 g / cm^3
# Si number density = 18.600044 Si / 1000 Ang^3
#
#
#
# Elastic Constant Matrix: (Units=GPa)
#
#
# Indices 1 2 3 4 5 6 
#
# 1 76.0805 49.3421 70.6852 0.0003 19.4905 -0.0014
# 2 49.3421 130.2462 116.8913 0.0007 2.3605 -0.0025
# 3 70.6852 116.8913 207.2977 0.0008 25.2606 -0.0027
# 4 0.0003 0.0007 0.0008 30.7302 -0.0001 1.4133
# 5 19.4905 2.3605 25.2606 -0.0001 29.3189 -0.0001
# 6 -0.0014 -0.0025 -0.0027 1.4133 -0.0001 88.3488
#
#
#
# Elastic Compliance Matrix: (Units=1/GPa)
#
#
# Indices 1 2 3 4 5 6 
#
# 1 0.022755 -0.005562 -0.003166 0.000000 -0.011951 0.000000
# 2 -0.005562 0.018323 -0.009727 0.000000 0.010603 0.000000
# 3 -0.003166 -0.009727 0.012331 0.000000 -0.007736 0.000000
# 4 0.000000 0.000000 0.000000 0.032565 0.000000 -0.000521
# 5 -0.011951 0.010603 -0.007736 0.000000 0.047864 0.000000
# 6 0.000000 0.000000 0.000000 -0.000521 0.000000 0.011327
#
#
# Mechanical properties :
#
#
# Convention : Reuss Voigt Hill
#
# Bulk Modulus (GPa) = 60.61581 98.60684 79.61132
# Shear Modulus (GPa) = 26.65595 41.45999 34.05797
#
# Velocity S-wave (km/s) = 3.78975 4.72638 4.28374
# Velocity P-wave (km/s) = 7.19788 9.10573 8.20743
#
# Compressibility (1/GPa) = 0.01649735
#
# Stress axis : x y z
#
# Youngs Moduli (GPa) = 43.94707 54.57753 81.09379
#
# Poissons Ratio (x) = 0.30356 0.25677
# Poissons Ratio (y) = 0.24443 0.78882
# Poissons Ratio (z) = 0.13915 0.53089
#
# Static dielectric constant tensor:
#      x y z
#    x 1.618280 0.000000 0.006960 
#    y 0.000000 1.643410 0.000000 
#    z 0.006960 0.000000 1.597760 
# 
# From -- ./inp_files/59132.got.cif
#   From: 2010.05.17/outbox.cif.g08.bks.cpg/sg12_30_cif.got.tgz:59132.got - 2010.06.03 13:09:07.
