data_PCOD9204086
_publ_section_title
;
Structure prediction by ZEFSAII (Michael W. Deem and Ramdas Pophale) SiO2 
 PCOD9204086
Probable space group: C 2/M
;
_chemical_formula_sum "Si O2"
_cell_formula_units_Z 56
_cell_length_a 27.908045
_cell_length_b 9.225442
_cell_length_c 11.921385
_cell_angle_alpha 90.000000
_cell_angle_beta 74.429167
_cell_angle_gamma 90.000000
_cell_volume 2956.681699
_symmetry_space_group_name_H-M "C 2/M"
_symmetry_group_IT_number 12
_symmetry_cell_setting 'monoclinic'
loop_
_space_group_symop_operation_xyz
x,y,z
-x,y,-z
-x,-y,-z
x,-y,z
1/2+x,1/2+y,z
1/2-x,1/2+y,-z
1/2-x,1/2-y,-z
1/2+x,1/2-y,z
loop_
_atom_site_type_symbol
_atom_site_label
_atom_site_fract_x
_atom_site_fract_y
_atom_site_fract_z
Si Si1 0.786170 0.830941 0.392561
Si Si2 0.559562 0.830777 0.455184
Si Si3 0.488012 0.826846 0.137792
Si Si4 0.668629 0.169997 0.058508
Si Si5 0.764572 0.166517 0.149373
Si Si6 0.425087 0.327216 0.782025
Si Si7 0.108810 0.672274 0.666432
O O1 0.750000 0.750000 0.500000
O O2 0.763438 0.819253 0.282601
O O3 0.840628 0.760396 0.356094
O O4 0.789908 0.000000 0.419757
O O5 0.500000 0.814318 0.500000
O O6 0.578805 0.731518 0.342586
O O7 0.583427 0.799764 0.561183
O O8 0.569942 0.000000 0.421319
O O9 0.525402 0.739477 0.193495
O O10 0.431782 0.793215 0.211933
O O11 0.495278 0.000000 0.152163
O O12 0.500000 0.796918 0.000000
O O13 0.710982 0.191493 0.126958
O O14 0.620877 0.262993 0.119284
O O15 0.656125 0.000000 0.059600
O O16 0.695409 0.225996 0.929594
O O17 0.778759 0.000000 0.112025
O O18 0.425996 0.500000 0.784075
O O19 0.119280 0.500000 0.665931
#
# Coordination Sequence:
#
# PCOD9204086 Si02
#       7
#     8   8   8   8   8   8   8
#     4  11  25  43  63  90 126 164 208 255 309 371
#     4  10  20  40  65  86 117 159 204 249 299 359
#     4  10  22  42  66  93 125 165 213 251 298 371
#     4  10  21  39  65  90 118 159 205 250 304 367
#     4   9  21  42  63  88 120 156 201 257 312 361
#     4  12  25  38  59  93 129 159 200 251 306 363
#     4  10  22  41  65  92 122 161 208 259 311 363
#
# _framework density 18.940152999999999
#
# number of rings (size 3 to 8) (size 9 to 14) (size 15 to 20)
#    0.000    1.714    1.429    2.143    4.000    3.429 
#    0.000    0.000    0.000    0.000    0.000    0.000 
#    0.000    0.000    0.000    0.000    0.000    0.000 
#
# Total GULP energy -156491.105742 kJ/mol
# GULP energy per Si atom -5588.968062 kJ/mol
# Density = 1.889704 g / cm^3
# Si number density = 18.940153 Si / 1000 Ang^3
#
#
#
# Elastic Constant Matrix: (Units=GPa)
#
#
# Indices 1 2 3 4 5 6 
#
# 1 58.5122 48.0676 46.6446 0.0000 -20.9085 0.0000
# 2 48.0676 85.6723 66.7592 0.0000 -15.6882 0.0000
# 3 46.6446 66.7592 98.9630 0.0000 -15.9400 0.0000
# 4 0.0000 0.0000 0.0000 24.0205 0.0000 -8.3621
# 5 -20.9085 -15.6882 -15.9400 0.0000 26.6098 0.0000
# 6 0.0000 0.0000 0.0000 -8.3621 0.0000 24.1585
#
#
#
# Elastic Compliance Matrix: (Units=1/GPa)
#
#
# Indices 1 2 3 4 5 6 
#
# 1 0.041286 -0.014433 -0.006495 0.000000 0.020040 0.000000
# 2 -0.014433 0.030283 -0.013919 0.000000 -0.001825 0.000000
# 3 -0.006495 -0.013919 0.022592 0.000000 0.000223 0.000000
# 4 0.000000 0.000000 0.000000 0.047335 0.000000 0.016384
# 5 0.020040 -0.001825 0.000223 0.000000 0.052384 0.000000
# 6 0.000000 0.000000 0.000000 0.016384 0.000000 0.047064
#
#
# Mechanical properties :
#
#
# Convention : Reuss Voigt Hill
#
# Bulk Modulus (GPa) = 40.87441 62.89893 51.88667
# Shear Modulus (GPa) = 15.68408 20.40286 18.04347
#
# Velocity S-wave (km/s) = 2.88077 3.28568 3.08986
# Velocity P-wave (km/s) = 5.71776 6.90475 6.33910
#
# Compressibility (1/GPa) = 0.02446518
#
# Stress axis : x y z
#
# Youngs Moduli (GPa) = 24.22124 33.02231 44.26324
#
# Poissons Ratio (x) = 0.47661 0.28750
# Poissons Ratio (y) = 0.34958 0.61612
# Poissons Ratio (z) = 0.15733 0.45965
#
# Static dielectric constant tensor:
#      x y z
#    x 1.635400 0.000000 0.006630 
#    y 0.000000 1.634750 0.000000 
#    z 0.006630 0.000000 1.645220 
# 
# From -- ./inp_files/180858.got.cif
#   From: 2010.05.17/outbox.cif.g08.bks.cpg/sg12_91_cif.got.tgz:180858.got - 2010.06.03 13:09:07.
