data_PCOD9204571
_publ_section_title
;
Structure prediction by ZEFSAII (Michael W. Deem and Ramdas Pophale) SiO2 
 PCOD9204571
Probable space group: C 2/M
;
_chemical_formula_sum "Si O2"
_cell_formula_units_Z 52
_cell_length_a 24.728282
_cell_length_b 9.041515
_cell_length_c 13.899953
_cell_angle_alpha 90.000000
_cell_angle_beta 134.367076
_cell_angle_gamma 90.000000
_cell_volume 2221.663893
_symmetry_space_group_name_H-M "C 2/M"
_symmetry_group_IT_number 12
_symmetry_cell_setting 'monoclinic'
loop_
_space_group_symop_operation_xyz
x,y,z
-x,y,-z
-x,-y,-z
x,-y,z
1/2+x,1/2+y,z
1/2-x,1/2+y,-z
1/2-x,1/2-y,-z
1/2+x,1/2-y,z
loop_
_atom_site_type_symbol
_atom_site_label
_atom_site_fract_x
_atom_site_fract_y
_atom_site_fract_z
Si Si1 0.860126 0.828066 0.567609
Si Si2 0.779176 0.500000 0.994633
Si Si3 0.347967 0.000000 0.284723
Si Si4 0.806614 0.665106 0.684908
Si Si5 0.630139 0.806045 0.027940
Si Si6 0.819893 0.000000 0.952507
Si Si7 0.985132 0.664763 0.271949
Si Si8 0.584348 0.673297 0.646807
O O1 0.838083 0.782512 0.648752
O O2 0.782731 0.804449 0.411222
O O3 0.931674 0.731755 0.628147
O O4 0.880266 0.000000 0.584417
O O5 0.799246 0.364660 0.950134
O O6 0.839428 0.500000 0.156701
O O7 0.704275 0.500000 0.964887
O O8 0.379785 0.832462 0.346978
O O9 0.259815 0.000000 0.203794
O O10 0.810228 0.500000 0.644180
O O11 0.852099 0.658184 0.840535
O O12 0.632139 0.635227 0.019337
O O13 0.553222 0.852956 0.880456
O O14 0.991302 0.500000 0.324638
O O15 0.931585 0.779394 0.262756
O O16 0.500000 0.666779 0.500000
O O17 0.615144 0.500000 0.672509
#
# Coordination Sequence:
#
# PCOD9204571 Si02
#       8
#     8   4   4   8   8   4   8   8
#     4  10  24  43  68  98 132 170 214 273 336 402
#     4  10  20  43  62  94 131 173 218 272 336 393
#     4  10  21  44  60  93 133 176 226 274 339 392
#     4  10  22  45  69  95 131 169 217 272 330 401
#     4  12  22  42  67  96 129 172 224 274 326 401
#     4  10  26  37  60  95 129 175 214 273 342 376
#     4  12  23  43  68  96 134 177 220 273 338 396
#     4  11  23  40  65  94 134 185 227 278 334 399
#
# _framework density 23.405878999999999
#
# number of rings (size 3 to 8) (size 9 to 14) (size 15 to 20)
#    0.462    0.769    3.846    1.615    3.231    2.462 
#    1.385    3.846    0.000    0.000    0.000    0.000 
#    0.000    0.000    0.000    0.000    0.000    0.000 
#
# Total GULP energy -144907.765722 kJ/mol
# GULP energy per Si atom -5573.375605 kJ/mol
# Density = 2.335261 g / cm^3
# Si number density = 23.405879 Si / 1000 Ang^3
#
#
#
# Elastic Constant Matrix: (Units=GPa)
#
#
# Indices 1 2 3 4 5 6 
#
# 1 40.0155 26.2620 8.2695 0.0000 4.8484 0.0000
# 2 26.2620 187.7650 22.8851 0.0000 11.6640 0.0000
# 3 8.2695 22.8851 108.8362 0.0000 -11.2765 0.0000
# 4 0.0000 0.0000 0.0000 72.1061 0.0000 19.2305
# 5 4.8484 11.6640 -11.2765 0.0000 30.2288 0.0000
# 6 0.0000 0.0000 0.0000 19.2305 0.0000 30.5081
#
#
#
# Elastic Compliance Matrix: (Units=1/GPa)
#
#
# Indices 1 2 3 4 5 6 
#
# 1 0.028108 -0.003473 -0.001803 0.000000 -0.003841 0.000000
# 2 -0.003473 0.006105 -0.001255 0.000000 -0.002267 0.000000
# 3 -0.001803 -0.001255 0.010058 0.000000 0.004525 0.000000
# 4 0.000000 0.000000 0.000000 0.016671 0.000000 -0.010508
# 5 -0.003841 -0.002267 0.004525 0.000000 0.036260 0.000000
# 6 0.000000 0.000000 0.000000 -0.010508 0.000000 0.039402
#
#
# Mechanical properties :
#
#
# Convention : Reuss Voigt Hill
#
# Bulk Modulus (GPa) = 32.04231 50.16111 41.10171
# Shear Modulus (GPa) = 31.23657 45.18192 38.20925
#
# Velocity S-wave (km/s) = 3.65713 4.39836 4.04476
# Velocity P-wave (km/s) = 5.61715 6.87543 6.27790
#
# Compressibility (1/GPa) = 0.03120874
#
# Stress axis : x y z
#
# Youngs Moduli (GPa) = 35.57749 163.79213 99.42482
#
# Poissons Ratio (x) = 0.56884 0.17930
# Poissons Ratio (y) = 0.12356 0.12475
# Poissons Ratio (z) = 0.06416 0.20552
#
# Static dielectric constant tensor:
#      x y z
#    x 1.875920 0.000000 -0.012990 
#    y 0.000000 1.851640 0.000000 
#    z -0.012990 0.000000 1.927960 
# 
# From -- ./inp_files/250217.got.cif
#   From: 2010.05.17/outbox.cif.g08.bks.cpg/sg12_126_cif.got.tgz:250217.got - 2010.06.03 13:09:07.
