data_PCOD9204361
_publ_section_title
;
Structure prediction by ZEFSAII (Michael W. Deem and Ramdas Pophale) SiO2 
 PCOD9204361
Probable space group: C 2/M
;
_chemical_formula_sum "Si O2"
_cell_formula_units_Z 32
_cell_length_a 13.103572
_cell_length_b 18.265335
_cell_length_c 10.350412
_cell_angle_alpha 90.000000
_cell_angle_beta 32.857914
_cell_angle_gamma 90.000000
_cell_volume 1344.066651
_symmetry_space_group_name_H-M "C 2/M"
_symmetry_group_IT_number 12
_symmetry_cell_setting 'monoclinic'
loop_
_space_group_symop_operation_xyz
x,y,z
-x,y,-z
-x,-y,-z
x,-y,z
1/2+x,1/2+y,z
1/2-x,1/2+y,-z
1/2-x,1/2-y,-z
1/2+x,1/2-y,z
loop_
_atom_site_type_symbol
_atom_site_label
_atom_site_fract_x
_atom_site_fract_y
_atom_site_fract_z
Si Si1 0.000000 0.736704 0.000000
Si Si2 0.203024 0.660493 0.272567
Si Si3 0.948799 0.000000 0.717958
Si Si4 0.595130 0.000000 0.754802
Si Si5 0.184605 0.375655 0.000231
Si Si6 0.708934 0.500000 0.826986
O O1 0.843216 0.794403 0.212906
O O2 0.110240 0.686667 0.983806
O O3 0.248196 0.656931 0.070870
O O4 0.200021 0.575172 0.313656
O O5 0.000000 0.694590 0.500000
O O6 0.175818 0.000000 0.488567
O O7 0.853762 0.925953 0.762437
O O8 0.834155 0.000000 0.975316
O O9 0.498572 0.928972 0.792487
O O10 0.500000 0.000000 0.000000
O O11 0.500000 0.500000 0.000000
#
# Coordination Sequence:
#
# PCOD9204361 Si02
#       6
#     4   8   4   4   8   4
#     4  12  24  44  62  90 138 174 218 262 318 388
#     4  11  25  41  67  95 129 172 216 269 324 378
#     4   9  23  40  70  94 127 171 207 277 325 367
#     4  11  22  43  70  98 126 168 217 272 323 377
#     4  10  24  43  62 100 131 165 224 264 312 399
#     4  10  20  41  65  93 125 160 216 267 319 383
#
# _framework density 23.808343000000001
#
# number of rings (size 3 to 8) (size 9 to 14) (size 15 to 20)
#    0.000    1.500    2.500    1.875    3.500    5.000 
#    0.000    0.000    0.000    0.000    0.000    0.000 
#    0.000    0.000    0.000    0.000    0.000    0.000 
#
# Total GULP energy -89247.824409 kJ/mol
# GULP energy per Si atom -5577.989026 kJ/mol
# Density = 2.375415 g / cm^3
# Si number density = 23.808343 Si / 1000 Ang^3
#
#
#
# Elastic Constant Matrix: (Units=GPa)
#
#
# Indices 1 2 3 4 5 6 
#
# 1 91.0296 38.4768 33.0979 -0.0072 -23.0594 0.0092
# 2 38.4768 131.4022 27.1310 -0.0274 -21.8208 0.0213
# 3 33.0979 27.1310 128.9451 -0.0343 -40.6000 -0.0040
# 4 -0.0072 -0.0274 -0.0343 14.8308 0.0124 11.8186
# 5 -23.0594 -21.8208 -40.6000 0.0124 65.8021 -0.0041
# 6 0.0092 0.0213 -0.0040 11.8186 -0.0041 135.8652
#
#
#
# Elastic Compliance Matrix: (Units=1/GPa)
#
#
# Indices 1 2 3 4 5 6 
#
# 1 0.013707 -0.003175 -0.002072 -0.000006 0.002472 0.000000
# 2 -0.003175 0.008908 -0.000595 0.000014 0.001474 -0.000002
# 3 -0.002072 -0.000595 0.010080 0.000017 0.005296 -0.000001
# 4 -0.000006 0.000014 0.000017 0.072450 -0.000001 -0.006302
# 5 0.002472 0.001474 0.005296 -0.000001 0.019820 0.000000
# 6 0.000000 -0.000002 -0.000001 -0.006302 0.000000 0.007908
#
#
# Mechanical properties :
#
#
# Convention : Reuss Voigt Hill
#
# Bulk Modulus (GPa) = 47.59664 60.97650 54.28657
# Shear Modulus (GPa) = 32.99016 60.14435 46.56726
#
# Velocity S-wave (km/s) = 3.72648 5.03157 4.42738
# Velocity P-wave (km/s) = 6.20890 7.70861 6.99904
#
# Compressibility (1/GPa) = 0.02100989
#
# Stress axis : x y z
#
# Youngs Moduli (GPa) = 72.95448 112.26286 99.20906
#
# Poissons Ratio (x) = 0.35648 0.20555
# Poissons Ratio (y) = 0.23166 0.05904
# Poissons Ratio (z) = 0.15115 0.06681
#
# Static dielectric constant tensor:
#      x y z
#    x 1.952440 0.000010 -0.002070 
#    y 0.000010 1.984990 0.000020 
#    z -0.002070 0.000020 1.788780 
# 
# From -- ./inp_files/10204.got.cif
#   From: 2010.05.17/outbox.cif.g08.bks.cpg/sg12_6_cif.got.tgz:10204.got - 2010.06.03 13:09:07.
