data_PCOD9204254
_publ_section_title
;
Structure prediction by ZEFSAII (Michael W. Deem and Ramdas Pophale) SiO2 
 PCOD9204254
Probable space group: C 2/M
;
_chemical_formula_sum "Si O2"
_cell_formula_units_Z 64
_cell_length_a 8.390682
_cell_length_b 30.529436
_cell_length_c 13.789512
_cell_angle_alpha 90.000000
_cell_angle_beta 122.599361
_cell_angle_gamma 90.000000
_cell_volume 2975.866251
_symmetry_space_group_name_H-M "C 2/M"
_symmetry_group_IT_number 12
_symmetry_cell_setting 'monoclinic'
loop_
_space_group_symop_operation_xyz
x,y,z
-x,y,-z
-x,-y,-z
x,-y,z
1/2+x,1/2+y,z
1/2-x,1/2+y,-z
1/2-x,1/2-y,-z
1/2+x,1/2-y,z
loop_
_atom_site_type_symbol
_atom_site_label
_atom_site_fract_x
_atom_site_fract_y
_atom_site_fract_z
Si Si1 0.776957 0.050667 0.135572
Si Si2 0.215627 0.192234 0.853425
Si Si3 0.422706 0.453139 0.588191
Si Si4 0.100054 0.285001 0.410774
Si Si5 0.672190 0.260615 0.249946
Si Si6 0.302496 0.628220 0.987080
Si Si7 0.092677 0.385684 0.205775
Si Si8 0.789024 0.127491 0.466960
O O1 0.823253 0.085554 0.065181
O O2 0.603558 0.072995 0.136327
O O3 0.929620 0.049659 0.274580
O O4 0.751185 0.000000 0.096009
O O5 0.309815 0.237848 0.849527
O O6 0.258787 0.170748 0.970520
O O7 0.283957 0.152956 0.804935
O O8 0.991171 0.203905 0.784336
O O9 0.500000 0.452231 0.500000
O O10 0.324370 0.500000 0.565018
O O11 0.305299 0.409156 0.553328
O O12 0.250000 0.250000 0.500000
O O13 0.122212 0.280142 0.302626
O O14 0.171819 0.331753 0.464733
O O15 0.879506 0.275981 0.352604
O O16 0.500000 0.635627 0.000000
O O17 0.128575 0.623347 0.856904
O O18 0.186611 0.392754 0.339808
O O19 0.000000 0.141885 0.500000
#
# Coordination Sequence:
#
# PCOD9204254 Si02
#       8
#     8   8   8   8   8   8   8   8
#     4  10  20  40  69 101 135 169 216 269 326 395
#     4  10  22  42  65  89 127 165 214 275 331 381
#     4   9  17  32  60 101 133 164 211 264 320 393
#     4  11  22  35  56  90 130 173 223 271 320 382
#     4  10  22  38  60  89 126 168 221 272 320 391
#     4  11  27  44  66  94 134 175 218 276 332 393
#     4  11  22  42  65  97 132 169 223 273 327 397
#     4  11  20  34  64  90 130 171 212 267 327 382
#
# _framework density 21.506343000000001
#
# number of rings (size 3 to 8) (size 9 to 14) (size 15 to 20)
#    0.000    1.625    3.750    2.625    3.500    1.250 
#    0.000    4.375    0.000    0.000    0.000    1.750 
#    0.000    0.000    0.000    0.000    0.000    0.000 
#
# Total GULP energy -178363.750291 kJ/mol
# GULP energy per Si atom -5573.867197 kJ/mol
# Density = 2.145739 g / cm^3
# Si number density = 21.506343 Si / 1000 Ang^3
#
#
#
# Elastic Constant Matrix: (Units=GPa)
#
#
# Indices 1 2 3 4 5 6 
#
# 1 81.0429 22.0029 22.4463 0.0000 15.0637 0.0000
# 2 22.0029 115.8920 10.6554 0.0000 10.7847 0.0000
# 3 22.4463 10.6554 80.3001 0.0000 14.2015 0.0000
# 4 0.0000 0.0000 0.0000 21.0482 0.0000 4.1194
# 5 15.0637 10.7847 14.2015 0.0000 29.7367 0.0000
# 6 0.0000 0.0000 0.0000 4.1194 0.0000 16.5113
#
#
#
# Elastic Compliance Matrix: (Units=1/GPa)
#
#
# Indices 1 2 3 4 5 6 
#
# 1 0.014679 -0.002026 -0.002894 0.000000 -0.005319 0.000000
# 2 -0.002026 0.009243 -0.000272 0.000000 -0.002196 0.000000
# 3 -0.002894 -0.000272 0.014223 0.000000 -0.005228 0.000000
# 4 0.000000 0.000000 0.000000 0.049949 0.000000 -0.012462
# 5 -0.005319 -0.002196 -0.005228 0.000000 0.039616 0.000000
# 6 0.000000 0.000000 0.000000 -0.012462 0.000000 0.063674
#
#
# Mechanical properties :
#
#
# Convention : Reuss Voigt Hill
#
# Bulk Modulus (GPa) = 36.02034 43.04935 39.53485
# Shear Modulus (GPa) = 23.69436 28.26794 25.98115
#
# Velocity S-wave (km/s) = 3.32285 3.62940 3.47950
# Velocity P-wave (km/s) = 5.61309 6.13383 5.87923
#
# Compressibility (1/GPa) = 0.02776210
#
# Stress axis : x y z
#
# Youngs Moduli (GPa) = 68.12279 108.19349 70.30941
#
# Poissons Ratio (x) = 0.21919 0.20346
# Poissons Ratio (y) = 0.13801 0.01911
# Poissons Ratio (z) = 0.19713 0.02940
#
# Static dielectric constant tensor:
#      x y z
#    x 1.865310 0.000000 -0.008650 
#    y 0.000000 1.831610 0.000000 
#    z -0.008650 0.000000 1.836670 
# 
# From -- ./inp_files/201316.got.cif
#   From: 2010.05.17/outbox.cif.g08.bks.cpg/sg12_101_cif.got.tgz:201316.got - 2010.06.03 13:09:07.
