data_PCOD9204906
_publ_section_title
;
Structure prediction by ZEFSAII (Michael W. Deem and Ramdas Pophale) SiO2 
 PCOD9204906
Probable space group: C 2/M
;
_chemical_formula_sum "Si O2"
_cell_formula_units_Z 52
_cell_length_a 7.332510
_cell_length_b 20.044207
_cell_length_c 18.409469
_cell_angle_alpha 90.000000
_cell_angle_beta 63.543266
_cell_angle_gamma 90.000000
_cell_volume 2422.352512
_symmetry_space_group_name_H-M "C 2/M"
_symmetry_group_IT_number 12
_symmetry_cell_setting 'monoclinic'
loop_
_space_group_symop_operation_xyz
x,y,z
-x,y,-z
-x,-y,-z
x,-y,z
1/2+x,1/2+y,z
1/2-x,1/2+y,-z
1/2-x,1/2-y,-z
1/2+x,1/2-y,z
loop_
_atom_site_type_symbol
_atom_site_label
_atom_site_fract_x
_atom_site_fract_y
_atom_site_fract_z
Si Si1 0.940383 0.073671 0.427014
Si Si2 0.500000 0.139341 0.500000
Si Si3 0.377346 0.817238 0.673824
Si Si4 0.731110 0.580934 0.974117
Si Si5 0.159519 0.077080 0.144575
Si Si6 0.167001 0.577014 0.200629
Si Si7 0.912089 0.833253 0.712809
O O1 0.704806 0.095535 0.462720
O O2 0.087747 0.125496 0.361362
O O3 0.000000 0.071295 0.500000
O O4 0.963630 0.000000 0.389459
O O5 0.498512 0.180224 0.424115
O O6 0.433528 0.871917 0.724813
O O7 0.149217 0.835163 0.691955
O O8 0.364594 0.743642 0.709192
O O9 0.729303 0.500000 0.974752
O O10 0.855204 0.598550 0.879789
O O11 0.500000 0.604017 0.000000
O O12 0.771098 0.599098 0.050524
O O13 0.914095 0.076671 0.171210
O O14 0.196632 0.126759 0.204049
O O15 0.214853 0.000000 0.151028
O O16 0.099617 0.500000 0.222287
#
# Coordination Sequence:
#
# PCOD9204906 Si02
#       7
#     8   4   8   8   8   8   8
#     4  10  22  38  59  84 108 138 178 227 272 313
#     4  10  23  38  58  78 107 146 180 224 265 320
#     4  10  22  34  52  74 100 142 174 213 266 312
#     4   7  10  19  41  70  98 125 160 209 261 309
#     4   8  13  25  47  73  98 130 168 212 263 309
#     4   8  14  27  46  72 100 127 168 217 260 309
#     4  10  21  34  51  73 106 137 174 215 259 317
#
# _framework density 21.466733999999999
#
# number of rings (size 3 to 8) (size 9 to 14) (size 15 to 20)
#    0.000    3.077    0.000    2.538    3.231    5.538 
#    0.000    0.769    0.000    0.000    0.000    0.000 
#    0.000    3.692    0.000    0.000    0.000    0.000 
#
# Total GULP energy -145027.853435 kJ/mol
# GULP energy per Si atom -5577.994363 kJ/mol
# Density = 2.141788 g / cm^3
# Si number density = 21.466734 Si / 1000 Ang^3
#
#
#
# Elastic Constant Matrix: (Units=GPa)
#
#
# Indices 1 2 3 4 5 6 
#
# 1 51.4361 11.9430 22.1984 0.0000 -15.7605 0.0000
# 2 11.9430 123.6333 96.1272 0.0000 10.5938 0.0000
# 3 22.1984 96.1272 189.5763 0.0000 20.5791 0.0000
# 4 0.0000 0.0000 0.0000 -18.2442 0.0000 10.5727
# 5 -15.7605 10.5938 20.5791 0.0000 23.7031 0.0000
# 6 0.0000 0.0000 0.0000 10.5727 0.0000 23.6991
#
#
#
# Elastic Compliance Matrix: (Units=1/GPa)
#
#
# Indices 1 2 3 4 5 6 
#
# 1 0.029896 -0.000328 -0.006081 0.000000 0.025304 0.000000
# 2 -0.000328 0.013357 -0.006693 0.000000 -0.000376 0.000000
# 3 -0.006081 -0.006693 0.010483 0.000000 -0.010153 0.000000
# 4 0.000000 0.000000 0.000000 -0.043552 0.000000 0.019430
# 5 0.025304 -0.000376 -0.010153 0.000000 0.067997 0.000000
# 6 0.000000 0.000000 0.000000 0.019430 0.000000 0.033528
#
#
# Mechanical properties :
#
#
# Convention : Reuss Voigt Hill
#
# Bulk Modulus (GPa) = 36.32347 69.46477 52.89412
# Shear Modulus (GPa) = 33.99278 21.45674 27.72476
#
# Velocity S-wave (km/s) = 3.98365 3.16497 3.59767
# Velocity P-wave (km/s) = 6.17388 6.76650 6.47698
#
# Compressibility (1/GPa) = 0.02753041
#
# Stress axis : x y z
#
# Youngs Moduli (GPa) = 33.44960 74.86935 95.39114
#
# Poissons Ratio (x) = 0.02455 0.58009
# Poissons Ratio (y) = 0.01097 0.63849
# Poissons Ratio (z) = 0.20341 0.50113
#
# Static dielectric constant tensor:
#      x y z
#    x 1.843310 0.000000 0.016800 
#    y 0.000000 1.811950 0.000000 
#    z 0.016800 0.000000 1.817800 
# 
# From -- ./inp_files/257569.got.cif
#   From: 2010.05.17/outbox.cif.g08.bks.cpg/sg12_129_cif.got.tgz:257569.got - 2010.06.03 13:09:07.
