data_PCOD9204337
_publ_section_title
;
Structure prediction by ZEFSAII (Michael W. Deem and Ramdas Pophale) SiO2 
 PCOD9204337
Probable space group: C 2/M
;
_chemical_formula_sum "Si O2"
_cell_formula_units_Z 48
_cell_length_a 13.401335
_cell_length_b 32.758779
_cell_length_c 7.139086
_cell_angle_alpha 90.000000
_cell_angle_beta 49.339950
_cell_angle_gamma 90.000000
_cell_volume 2377.523558
_symmetry_space_group_name_H-M "C 2/M"
_symmetry_group_IT_number 12
_symmetry_cell_setting 'monoclinic'
loop_
_space_group_symop_operation_xyz
x,y,z
-x,y,-z
-x,-y,-z
x,-y,z
1/2+x,1/2+y,z
1/2-x,1/2+y,-z
1/2-x,1/2-y,-z
1/2+x,1/2-y,z
loop_
_atom_site_type_symbol
_atom_site_label
_atom_site_fract_x
_atom_site_fract_y
_atom_site_fract_z
Si Si1 0.724882 0.392750 0.971047
Si Si2 0.473412 0.842096 0.758373
Si Si3 0.411084 0.752381 0.799697
Si Si4 0.258602 0.882094 0.482125
Si Si5 0.342303 0.546739 0.665616
Si Si6 0.008603 0.836596 0.774056
O O1 0.741501 0.391393 0.726375
O O2 0.844046 0.369343 0.923982
O O3 0.715457 0.437678 0.066295
O O4 0.595009 0.367414 0.190312
O O5 0.500000 0.840194 0.500000
O O6 0.447286 0.795487 0.850386
O O7 0.595246 0.864003 0.708556
O O8 0.500000 0.753444 0.500000
O O9 0.460865 0.709626 0.820636
O O10 0.250000 0.750000 0.000000
O O11 0.215152 0.921831 0.418276
O O12 0.158005 0.846273 0.541309
O O13 0.500000 0.549424 0.500000
O O14 0.309090 0.500000 0.662593
O O15 0.000000 0.848197 0.000000
#
# Coordination Sequence:
#
# PCOD9204337 Si02
#       6
#     8   8   8   8   8   8
#     4  10  20  41  64  87 124 168 201 258 326 388
#     4   9  20  40  62  87 128 169 215 256 322 387
#     4  11  23  39  61  91 130 174 223 277 320 385
#     4  10  22  40  64  91 123 170 208 264 322 397
#     4  11  24  40  64  97 123 155 215 272 324 399
#     4  10  21  37  59  88 125 166 216 256 320 383
#
# _framework density 20.189073
#
# number of rings (size 3 to 8) (size 9 to 14) (size 15 to 20)
#    0.000    1.833    3.333    0.000    4.667    2.000 
#    3.000    3.333    0.000    3.000    0.000    0.000 
#    0.000    0.000    0.000    0.000    0.000    0.000 
#
# Total GULP energy -133773.426207 kJ/mol
# GULP energy per Si atom -5573.892759 kJ/mol
# Density = 2.014312 g / cm^3
# Si number density = 20.189073 Si / 1000 Ang^3
#
#
#
# Elastic Constant Matrix: (Units=GPa)
#
#
# Indices 1 2 3 4 5 6 
#
# 1 134.5363 71.0206 54.7661 0.0000 -27.3415 0.0000
# 2 71.0206 157.7856 30.5978 0.0000 -32.4295 0.0000
# 3 54.7661 30.5978 85.8882 0.0000 -21.6574 0.0000
# 4 0.0000 0.0000 0.0000 21.1856 0.0000 -5.6012
# 5 -27.3415 -32.4295 -21.6574 0.0000 36.9378 0.0000
# 6 0.0000 0.0000 0.0000 -5.6012 0.0000 22.2124
#
#
#
# Elastic Compliance Matrix: (Units=1/GPa)
#
#
# Indices 1 2 3 4 5 6 
#
# 1 0.012394 -0.003975 -0.005930 0.000000 0.002207 0.000000
# 2 -0.003975 0.009119 0.000660 0.000000 0.005451 0.000000
# 3 -0.005930 0.000660 0.016697 0.000000 0.005980 0.000000
# 4 0.000000 0.000000 0.000000 0.050574 0.000000 0.012753
# 5 0.002207 0.005451 0.005980 0.000000 0.036998 0.000000
# 6 0.000000 0.000000 0.000000 0.012753 0.000000 0.048236
#
#
# Mechanical properties :
#
#
# Convention : Reuss Voigt Hill
#
# Bulk Modulus (GPa) = 50.70845 76.77546 63.74195
# Shear Modulus (GPa) = 25.11541 30.85552 27.98547
#
# Velocity S-wave (km/s) = 3.53088 3.91362 3.72717
# Velocity P-wave (km/s) = 6.46484 7.65067 7.08261
#
# Compressibility (1/GPa) = 0.01972058
#
# Stress axis : x y z
#
# Youngs Moduli (GPa) = 80.68494 109.65915 59.89069
#
# Poissons Ratio (x) = 0.43589 0.35517
# Poissons Ratio (y) = 0.32072 -0.03955
# Poissons Ratio (z) = 0.47848 -0.07242
#
# Static dielectric constant tensor:
#      x y z
#    x 1.819040 0.000000 -0.028480 
#    y 0.000000 1.679570 0.000000 
#    z -0.028480 0.000000 1.859190 
# 
# From -- ./inp_files/68040.got.cif
#   From: 2010.05.17/outbox.cif.g08.bks.cpg/sg12_35_cif.got.tgz:68040.got - 2010.06.03 13:09:07.
