data_PCOD9204761
_publ_section_title
;
Structure prediction by ZEFSAII (Michael W. Deem and Ramdas Pophale) SiO2 
 PCOD9204761
Probable space group: C 2/M
;
_chemical_formula_sum "Si O2"
_cell_formula_units_Z 56
_cell_length_a 16.698923
_cell_length_b 25.976613
_cell_length_c 17.501290
_cell_angle_alpha 90.000000
_cell_angle_beta 155.298185
_cell_angle_gamma 90.000000
_cell_volume 3172.554630
_symmetry_space_group_name_H-M "C 2/M"
_symmetry_group_IT_number 12
_symmetry_cell_setting 'monoclinic'
loop_
_space_group_symop_operation_xyz
x,y,z
-x,y,-z
-x,-y,-z
x,-y,z
1/2+x,1/2+y,z
1/2-x,1/2+y,-z
1/2-x,1/2-y,-z
1/2+x,1/2-y,z
loop_
_atom_site_type_symbol
_atom_site_label
_atom_site_fract_x
_atom_site_fract_y
_atom_site_fract_z
Si Si1 0.781493 0.278672 0.278884
Si Si2 0.885499 0.358931 0.247441
Si Si3 0.645483 0.180798 0.071277
Si Si4 0.304990 0.358952 0.680448
Si Si5 0.035370 0.296783 0.247715
Si Si6 0.469074 0.683485 0.680169
Si Si7 0.222443 0.057468 0.209822
O O1 0.772255 0.317651 0.199610
O O2 0.705177 0.226218 0.180654
O O3 0.665439 0.307606 0.244181
O O4 0.000000 0.273824 0.500000
O O5 0.813598 0.413730 0.215600
O O6 0.100249 0.353511 0.463990
O O7 0.905561 0.339509 0.179158
O O8 0.855205 0.165252 0.220217
O O9 0.500000 0.148223 0.000000
O O10 0.531929 0.199634 0.897535
O O11 0.447691 0.355929 0.733099
O O12 0.274441 0.406020 0.712604
O O13 0.262702 0.309825 0.457582
O O14 0.997374 0.241226 0.255360
O O15 0.300349 0.000000 0.289213
O O16 0.000000 0.053296 0.000000
#
# Coordination Sequence:
#
# PCOD9204761 Si02
#       7
#     8   8   8   8   8   8   8
#     4   9  18  31  46  67  99 132 174 215 252 301
#     4   9  18  34  51  70  98 137 174 216 254 304
#     4  12  24  30  48  69  94 137 178 214 266 305
#     4   9  19  34  53  69  96 143 173 211 263 301
#     4  10  21  35  49  72  97 136 183 217 261 306
#     4  10  21  35  49  68 104 132 176 230 251 305
#     4  10  21  33  51  80 110 137 168 213 262 313
#
# _framework density 17.651389000000002
#
# number of rings (size 3 to 8) (size 9 to 14) (size 15 to 20)
#    0.000    2.143    1.429    2.571    6.000    4.571 
#    0.000    0.000    0.000    0.000    0.000    0.000 
#    0.000    2.286    0.000    6.286    0.000    0.571 
#
# Total GULP energy -155910.575182 kJ/mol
# GULP energy per Si atom -5568.234828 kJ/mol
# Density = 1.761121 g / cm^3
# Si number density = 17.651389 Si / 1000 Ang^3
#
#
#
# Elastic Constant Matrix: (Units=GPa)
#
#
# Indices 1 2 3 4 5 6 
#
# 1 129.8984 32.8208 23.9226 -0.0001 12.9536 -0.0001
# 2 32.8208 57.4198 -2.1282 0.0000 -5.5979 0.0000
# 3 23.9226 -2.1282 66.1314 0.0000 -0.7806 0.0000
# 4 -0.0001 0.0000 0.0000 12.5959 -0.0001 3.0266
# 5 12.9536 -5.5979 -0.7806 -0.0001 29.7154 0.0000
# 6 -0.0001 0.0000 0.0000 3.0266 0.0000 15.6261
#
#
#
# Elastic Compliance Matrix: (Units=1/GPa)
#
#
# Indices 1 2 3 4 5 6 
#
# 1 0.010846 -0.006955 -0.004220 0.000000 -0.006149 0.000000
# 2 -0.006955 0.022227 0.003318 0.000000 0.007306 0.000000
# 3 -0.004220 0.003318 0.016789 0.000000 0.002906 0.000000
# 4 0.000000 0.000000 0.000000 0.083266 0.000000 -0.016128
# 5 -0.006149 0.007306 0.002906 0.000000 0.037786 0.000000
# 6 0.000000 0.000000 0.000000 -0.016128 0.000000 0.067119
#
#
# Mechanical properties :
#
#
# Convention : Reuss Voigt Hill
#
# Bulk Modulus (GPa) = 29.28591 40.29778 34.79184
# Shear Modulus (GPa) = 18.85866 24.84311 21.85088
#
# Velocity S-wave (km/s) = 3.27218 3.75564 3.52222
# Velocity P-wave (km/s) = 5.55909 6.45646 6.02451
#
# Compressibility (1/GPa) = 0.03414611
#
# Stress axis : x y z
#
# Youngs Moduli (GPa) = 92.19920 44.99125 59.56279
#
# Poissons Ratio (x) = 0.31293 0.25135
# Poissons Ratio (y) = 0.64129 -0.19761
# Poissons Ratio (z) = 0.38907 -0.14926
#
# Static dielectric constant tensor:
#      x y z
#    x 2.138780 0.000000 -0.121290 
#    y 0.000000 1.621790 0.000000 
#    z -0.121290 0.000000 1.723060 
# 
# From -- ./inp_files/219162.got.cif
#   From: 2010.05.17/outbox.cif.g08.bks.cpg/sg12_110_cif.got.tgz:219162.got - 2010.06.03 13:09:07.
