data_PCOD9204938
_publ_section_title
;
Structure prediction by ZEFSAII (Michael W. Deem and Ramdas Pophale) SiO2 
 PCOD9204938
Probable space group: C 2/M
;
_chemical_formula_sum "Si O2"
_cell_formula_units_Z 48
_cell_length_a 12.829372
_cell_length_b 28.390839
_cell_length_c 5.214134
_cell_angle_alpha 90.000000
_cell_angle_beta 80.865734
_cell_angle_gamma 90.000000
_cell_volume 1875.095220
_symmetry_space_group_name_H-M "C 2/M"
_symmetry_group_IT_number 12
_symmetry_cell_setting 'monoclinic'
loop_
_space_group_symop_operation_xyz
x,y,z
-x,y,-z
-x,-y,-z
x,-y,z
1/2+x,1/2+y,z
1/2-x,1/2+y,-z
1/2-x,1/2-y,-z
1/2+x,1/2-y,z
loop_
_atom_site_type_symbol
_atom_site_label
_atom_site_fract_x
_atom_site_fract_y
_atom_site_fract_z
Si Si1 0.653234 0.947268 0.137660
Si Si2 0.884295 0.707205 0.102205
Si Si3 0.378630 0.644555 0.634685
Si Si4 0.343420 0.889082 0.388120
Si Si5 0.382061 0.450194 0.941286
Si Si6 0.127204 0.251473 0.391634
O O1 0.612041 0.910882 0.366807
O O2 0.607195 0.000000 0.170349
O O3 0.650693 0.927604 0.846520
O O4 0.778308 0.952034 0.157158
O O5 0.893899 0.656751 0.234146
O O6 0.831807 0.740057 0.335275
O O7 0.838634 0.710220 0.834331
O O8 0.000000 0.726540 0.000000
O O9 0.500000 0.643692 0.500000
O O10 0.276454 0.629711 0.507716
O O11 0.374729 0.601719 0.832197
O O12 0.359448 0.698500 0.719960
O O13 0.371612 0.500000 0.786661
O O14 0.500000 0.452281 0.000000
O O15 0.000000 0.257174 0.500000
#
# Coordination Sequence:
#
# PCOD9204938 Si02
#       6
#     8   8   8   8   8   8
#     4  10  21  37  56  82 114 145 181 225 275 329
#     4  10  21  39  59  82 109 142 186 229 275 331
#     4  10  21  34  52  81 116 148 186 228 272 324
#     4  11  22  36  60  84 108 148 185 224 276 323
#     4   9  18  32  52  78 111 152 192 228 267 318
#     4   9  20  36  56  80 112 148 180 226 279 323
#
# _framework density 25.598699
#
# number of rings (size 3 to 8) (size 9 to 14) (size 15 to 20)
#    0.000    2.167    0.000    2.500    0.000    8.333 
#    0.000    0.000    0.000    3.000    0.000    0.000 
#    0.000    0.000    0.000    0.000    0.000    0.000 
#
# Total GULP energy -133720.133278 kJ/mol
# GULP energy per Si atom -5571.672220 kJ/mol
# Density = 2.554044 g / cm^3
# Si number density = 25.598699 Si / 1000 Ang^3
#
#
#
# Elastic Constant Matrix: (Units=GPa)
#
#
# Indices 1 2 3 4 5 6 
#
# 1 43.8824 -4.9236 20.1545 0.0000 -15.5474 0.0000
# 2 -4.9236 173.5656 73.5154 0.0000 -3.5244 0.0000
# 3 20.1545 73.5154 115.5528 0.0000 -0.6753 0.0000
# 4 0.0000 0.0000 0.0000 48.3995 0.0000 -2.5367
# 5 -15.5474 -3.5244 -0.6753 0.0000 33.1427 0.0000
# 6 0.0000 0.0000 0.0000 -2.5367 0.0000 3.6427
#
#
#
# Elastic Compliance Matrix: (Units=1/GPa)
#
#
# Indices 1 2 3 4 5 6 
#
# 1 0.033033 0.005010 -0.008856 0.000000 0.015848 0.000000
# 2 0.005010 0.008665 -0.006368 0.000000 0.003142 0.000000
# 3 -0.008856 -0.006368 0.014224 0.000000 -0.004542 0.000000
# 4 0.000000 0.000000 0.000000 0.021444 0.000000 0.014933
# 5 0.015848 0.003142 -0.004542 0.000000 0.037849 0.000000
# 6 0.000000 0.000000 0.000000 0.014933 0.000000 0.284919
#
#
# Mechanical properties :
#
#
# Convention : Reuss Voigt Hill
#
# Bulk Modulus (GPa) = 28.17495 56.72149 42.44822
# Shear Modulus (GPa) = 11.56358 33.32061 22.44209
#
# Velocity S-wave (km/s) = 2.12769 3.61176 2.96411
# Velocity P-wave (km/s) = 4.13115 6.29278 5.32285
#
# Compressibility (1/GPa) = 0.03549252
#
# Stress axis : x y z
#
# Youngs Moduli (GPa) = 30.27293 115.41147 70.30589
#
# Poissons Ratio (x) = -0.57822 0.62265
# Poissons Ratio (y) = -0.15167 0.44771
# Poissons Ratio (z) = 0.26811 0.73494
#
# Static dielectric constant tensor:
#      x y z
#    x 2.219520 0.000000 0.020900 
#    y 0.000000 2.048490 0.000000 
#    z 0.020900 0.000000 2.038330 
# 
# From -- ./inp_files/16898.got.cif
#   From: 2010.05.17/outbox.cif.g08.bks.cpg/sg12_9_cif.got.tgz:16898.got - 2010.06.03 13:09:07.
