data_PCOD9204732
_publ_section_title
;
Structure prediction by ZEFSAII (Michael W. Deem and Ramdas Pophale) SiO2 
 PCOD9204732
Probable space group: C 2/M
;
_chemical_formula_sum "Si O2"
_cell_formula_units_Z 56
_cell_length_a 26.082471
_cell_length_b 8.962911
_cell_length_c 16.295095
_cell_angle_alpha 90.000000
_cell_angle_beta 55.431568
_cell_angle_gamma 90.000000
_cell_volume 3136.833564
_symmetry_space_group_name_H-M "C 2/M"
_symmetry_group_IT_number 12
_symmetry_cell_setting 'monoclinic'
loop_
_space_group_symop_operation_xyz
x,y,z
-x,y,-z
-x,-y,-z
x,-y,z
1/2+x,1/2+y,z
1/2-x,1/2+y,-z
1/2-x,1/2-y,-z
1/2+x,1/2-y,z
loop_
_atom_site_type_symbol
_atom_site_label
_atom_site_fract_x
_atom_site_fract_y
_atom_site_fract_z
Si Si1 0.487355 0.179626 0.261074
Si Si2 0.720997 0.321777 0.221167
Si Si3 0.754537 0.821853 0.363814
Si Si4 0.535769 0.678650 0.050315
Si Si5 0.660037 0.178878 0.991513
Si Si6 0.382791 0.178736 0.786323
Si Si7 0.845879 0.321325 0.405248
O O1 0.501689 0.254000 0.160708
O O2 0.544513 0.219901 0.269282
O O3 0.417956 0.218999 0.352093
O O4 0.490594 0.000000 0.247967
O O5 0.718731 0.500000 0.229677
O O6 0.742376 0.252449 0.287600
O O7 0.773050 0.281320 0.105591
O O8 0.655282 0.258551 0.250149
O O9 0.815406 0.759334 0.354723
O O10 0.697026 0.785846 0.477358
O O11 0.758761 0.000000 0.351638
O O12 0.537280 0.500000 0.054750
O O13 0.500000 0.721293 0.000000
O O14 0.605580 0.742353 0.989762
O O15 0.652151 0.000000 0.992209
O O16 0.648706 0.217801 0.097077
O O17 0.378405 0.000000 0.779703
O O18 0.842207 0.500000 0.395660
#
# Coordination Sequence:
#
# PCOD9204732 Si02
#       7
#     8   8   8   8   8   8   8
#     4   9  19  36  58  78 102 140 180 216 263 321
#     4  11  22  35  54  80 109 142 182 222 265 315
#     4  10  21  36  56  82 110 139 175 222 271 317
#     4  10  21  33  47  76 112 139 173 218 262 313
#     4   9  20  36  53  74 103 144 185 217 259 315
#     4   9  18  35  55  78 105 137 179 223 267 314
#     4   9  19  38  60  81 106 139 178 220 268 321
#
# _framework density 17.852398999999998
#
# number of rings (size 3 to 8) (size 9 to 14) (size 15 to 20)
#    0.000    2.429    0.000    2.571    2.000    5.714 
#    0.000    0.714    0.000    4.286    0.000    0.000 
#    0.000    0.000    0.000    0.000    0.000    0.000 
#
# Total GULP energy -156242.368443 kJ/mol
# GULP energy per Si atom -5580.084587 kJ/mol
# Density = 1.781177 g / cm^3
# Si number density = 17.852399 Si / 1000 Ang^3
#
#
#
# Elastic Constant Matrix: (Units=GPa)
#
#
# Indices 1 2 3 4 5 6 
#
# 1 120.0717 34.5518 48.3785 0.0000 -10.0675 0.0000
# 2 34.5518 17.4658 20.3473 0.0000 -0.8180 -0.0001
# 3 48.3785 20.3473 42.1907 0.0000 -10.1958 0.0000
# 4 0.0000 0.0000 0.0000 19.6309 0.0000 5.5166
# 5 -10.0675 -0.8180 -10.1958 0.0000 27.7499 0.0000
# 6 0.0000 -0.0001 0.0000 5.5166 0.0000 33.2911
#
#
#
# Elastic Compliance Matrix: (Units=1/GPa)
#
#
# Indices 1 2 3 4 5 6 
#
# 1 0.021135 -0.033138 -0.007284 0.000000 0.004015 0.000000
# 2 -0.033138 0.195050 -0.063196 0.000000 -0.029492 0.000000
# 3 -0.007284 -0.063196 0.067429 0.000000 0.020270 0.000000
# 4 0.000000 0.000000 0.000000 0.053428 0.000000 -0.008853
# 5 0.004015 -0.029492 0.020270 0.000000 0.044071 0.000000
# 6 0.000000 0.000000 0.000000 -0.008853 0.000000 0.031505
#
#
# Mechanical properties :
#
#
# Convention : Reuss Voigt Hill
#
# Bulk Modulus (GPa) = 13.09234 42.92036 28.00635
# Shear Modulus (GPa) = 7.74817 21.23111 14.48964
#
# Velocity S-wave (km/s) = 2.08556 3.45230 2.85201
# Velocity P-wave (km/s) = 3.62615 6.32338 5.15433
#
# Compressibility (1/GPa) = 0.07638056
#
# Stress axis : x y z
#
# Youngs Moduli (GPa) = 47.31422 5.12689 14.83031
#
# Poissons Ratio (x) = 0.16989 0.10802
# Poissons Ratio (y) = 1.56789 0.93722
# Poissons Ratio (z) = 0.34461 0.32400
#
# Static dielectric constant tensor:
#      x y z
#    x 1.602040 0.000000 -0.022630 
#    y 0.000000 1.595450 0.000000 
#    z -0.022630 0.000000 1.601760 
# 
# From -- ./inp_files/238426.got.cif
#   From: 2010.05.17/outbox.cif.g08.bks.cpg/sg12_120_cif.got.tgz:238426.got - 2010.06.03 13:09:07.
