data_PCOD9204587
_publ_section_title
;
Structure prediction by ZEFSAII (Michael W. Deem and Ramdas Pophale) SiO2 
 PCOD9204587
Probable space group: C 2/M
;
_chemical_formula_sum "Si O2"
_cell_formula_units_Z 44
_cell_length_a 8.773585
_cell_length_b 26.703541
_cell_length_c 8.297268
_cell_angle_alpha 90.000000
_cell_angle_beta 82.327388
_cell_angle_gamma 90.000000
_cell_volume 1926.528198
_symmetry_space_group_name_H-M "C 2/M"
_symmetry_group_IT_number 12
_symmetry_cell_setting 'monoclinic'
loop_
_space_group_symop_operation_xyz
x,y,z
-x,y,-z
-x,-y,-z
x,-y,z
1/2+x,1/2+y,z
1/2-x,1/2+y,-z
1/2-x,1/2-y,-z
1/2+x,1/2-y,z
loop_
_atom_site_type_symbol
_atom_site_label
_atom_site_fract_x
_atom_site_fract_y
_atom_site_fract_z
Si Si1 0.500000 0.250666 0.000000
Si Si2 0.827055 0.814055 0.550928
Si Si3 0.493002 0.500000 0.226511
Si Si4 0.000000 0.586002 0.000000
Si Si5 0.788472 0.500000 0.489762
Si Si6 0.226272 0.281155 0.235843
Si Si7 0.270255 0.413244 0.738161
Si Si8 0.333238 0.000000 0.832092
O O1 0.375007 0.285847 0.103109
O O2 0.584952 0.219394 0.130171
O O3 0.758270 0.773735 0.683883
O O4 0.736160 0.815804 0.393251
O O5 0.840379 0.867196 0.632838
O O6 0.000000 0.794429 0.500000
O O7 0.384804 0.500000 0.404433
O O8 0.598977 0.450234 0.207303
O O9 0.648833 0.500000 0.877310
O O10 0.136940 0.608920 0.873544
O O11 0.902798 0.548927 0.900893
O O12 0.805353 0.451197 0.379156
O O13 0.881353 0.500000 0.640059
#
# Coordination Sequence:
#
# PCOD9204587 Si02
#       8
#     4   8   4   4   4   8   8   4
#     4  10  20  43  68 101 132 170 208 279 332 409
#     4  11  22  41  69 100 126 179 223 274 317 411
#     4   9  19  37  68  97 118 175 219 269 307 394
#     4  11  24  39  56  95 132 180 204 281 322 384
#     4   9  19  37  64  93 116 175 213 265 304 390
#     4  10  22  41  71  98 134 171 220 264 345 385
#     4  11  22  39  66  92 134 162 228 265 327 379
#     4   9  20  39  64  88 132 171 224 252 340 371
#
# _framework density 22.839012
#
# number of rings (size 3 to 8) (size 9 to 14) (size 15 to 20)
#    0.545    1.273    1.818    4.364    0.000    3.636 
#    0.000    9.091    0.000    1.091    0.000    0.000 
#    0.000    0.000    0.000    0.000    0.000    0.000 
#
# Total GULP energy -122723.250404 kJ/mol
# GULP energy per Si atom -5578.329564 kJ/mol
# Density = 2.278703 g / cm^3
# Si number density = 22.839012 Si / 1000 Ang^3
#
#
#
# Elastic Constant Matrix: (Units=GPa)
#
#
# Indices 1 2 3 4 5 6 
#
# 1 134.4281 10.4963 47.3151 0.0000 6.5810 0.0000
# 2 10.4963 56.6076 14.5231 0.0000 -6.9241 0.0000
# 3 47.3151 14.5231 123.8365 0.0000 9.2201 0.0000
# 4 0.0000 0.0000 0.0000 -57.4578 0.0000 -116.0500
# 5 6.5810 -6.9241 9.2201 0.0000 58.4386 0.0000
# 6 0.0000 0.0000 0.0000 -116.0500 0.0000 -164.3825
#
#
#
# Elastic Compliance Matrix: (Units=1/GPa)
#
#
# Indices 1 2 3 4 5 6 
#
# 1 0.008647 -0.000863 -0.003159 0.000000 -0.000578 0.000000
# 2 -0.000863 0.018675 -0.002056 0.000000 0.002634 0.000000
# 3 -0.003159 -0.002056 0.009628 0.000000 -0.001407 0.000000
# 4 0.000000 0.000000 0.000000 0.040865 0.000000 -0.028850
# 5 -0.000578 0.002634 -0.001407 0.000000 0.017711 0.000000
# 6 0.000000 0.000000 0.000000 -0.028850 0.000000 0.014284
#
#
# Mechanical properties :
#
#
# Convention : Reuss Voigt Hill
#
# Bulk Modulus (GPa) = 40.33592 51.06013 45.69803
# Shear Modulus (GPa) = 38.39273 -16.51116 10.94078
#
# Velocity S-wave (km/s) = 4.10447 -2.69167 2.19107
# Velocity P-wave (km/s) = 6.33731 3.57001 5.14327
#
# Compressibility (1/GPa) = 0.02479180
#
# Stress axis : x y z
#
# Youngs Moduli (GPa) = 115.65183 53.54636 103.86114
#
# Poissons Ratio (x) = 0.04623 0.32814
# Poissons Ratio (y) = 0.09985 0.21359
# Poissons Ratio (z) = 0.36539 0.11012
#
# Static dielectric constant tensor:
#      x y z
#    x 1.947820 0.000000 -0.029560 
#    y 0.000000 1.797260 0.000000 
#    z -0.029560 0.000000 1.960930 
# 
# From -- ./inp_files/41659.got.cif
#   From: 2010.05.17/outbox.cif.g08.bks.cpg/sg12_21_cif.got.tgz:41659.got - 2010.06.03 13:09:07.
