data_PCOD9204615
_publ_section_title
;
Structure prediction by ZEFSAII (Michael W. Deem and Ramdas Pophale) SiO2 
 PCOD9204615
Probable space group: C 2/M
;
_chemical_formula_sum "Si O2"
_cell_formula_units_Z 38
_cell_length_a 22.876808
_cell_length_b 14.272770
_cell_length_c 7.220633
_cell_angle_alpha 90.000000
_cell_angle_beta 37.500511
_cell_angle_gamma 90.000000
_cell_volume 1435.261853
_symmetry_space_group_name_H-M "C 2/M"
_symmetry_group_IT_number 12
_symmetry_cell_setting 'monoclinic'
loop_
_space_group_symop_operation_xyz
x,y,z
-x,y,-z
-x,-y,-z
x,-y,z
1/2+x,1/2+y,z
1/2-x,1/2+y,-z
1/2-x,1/2-y,-z
1/2+x,1/2-y,z
loop_
_atom_site_type_symbol
_atom_site_label
_atom_site_fract_x
_atom_site_fract_y
_atom_site_fract_z
Si Si1 0.198161 0.104868 0.361863
Si Si2 0.766026 0.614650 0.570673
Si Si3 0.000000 0.835291 0.000000
Si Si4 0.500000 0.000000 0.000000
Si Si5 0.557188 0.170288 0.620321
Si Si6 0.108064 0.190818 0.227657
O O1 0.266201 0.141841 0.354234
O O2 0.174498 0.157718 0.234050
O O3 0.228914 0.000000 0.236963
O O4 0.094191 0.105139 0.725675
O O5 0.777700 0.500000 0.552679
O O6 0.849030 0.660371 0.484417
O O7 0.668252 0.650369 0.907602
O O8 0.997891 0.761213 0.835463
O O9 0.499873 0.080757 0.165834
O O10 0.592876 0.199042 0.324783
O O11 0.000000 0.147708 0.500000
#
# Coordination Sequence:
#
# PCOD9204615 Si02
#       6
#     8   8   4   2   8   8
#     4  10  21  38  63  96 128 169 219 268 329 394
#     4  11  22  39  66  97 133 172 214 272 332 386
#     4   9  19  33  57  88 118 166 209 255 315 375
#     4  10  20  44  72  92 128 176 224 266 318 392
#     4  10  21  40  65  92 129 169 220 273 319 386
#     4  11  24  41  65  98 133 174 216 270 331 394
#
# _framework density 26.476004
#
# number of rings (size 3 to 8) (size 9 to 14) (size 15 to 20)
#    0.000    1.684    1.053    4.105    0.000    6.737 
#    0.000    6.842    4.632    0.000    0.000    0.000 
#    0.000    0.000    0.000    0.000    0.000    0.000 
#
# Total GULP energy -105858.239274 kJ/mol
# GULP energy per Si atom -5571.486278 kJ/mol
# Density = 2.641574 g / cm^3
# Si number density = 26.476004 Si / 1000 Ang^3
#
#
#
# Elastic Constant Matrix: (Units=GPa)
#
#
# Indices 1 2 3 4 5 6 
#
# 1 115.9681 25.6570 18.3523 0.0000 0.3764 0.0000
# 2 25.6570 107.2709 -2.5547 0.0000 17.1986 0.0000
# 3 18.3523 -2.5547 73.6808 0.0000 8.6652 0.0000
# 4 0.0000 0.0000 0.0000 -157.6177 0.0000 208.7146
# 5 0.3764 17.1986 8.6652 0.0000 59.3331 0.0000
# 6 0.0000 0.0000 0.0000 208.7146 0.0000 -178.8694
#
#
#
# Elastic Compliance Matrix: (Units=1/GPa)
#
#
# Indices 1 2 3 4 5 6 
#
# 1 0.009589 -0.002524 -0.002600 0.000000 0.001050 0.000000
# 2 -0.002524 0.010475 0.001371 0.000000 -0.003220 0.000000
# 3 -0.002600 0.001371 0.014562 0.000000 -0.002507 0.000000
# 4 0.000000 0.000000 0.000000 0.011638 0.000000 0.013580
# 5 0.001050 -0.003220 -0.002507 0.000000 0.018147 0.000000
# 6 0.000000 0.000000 0.000000 0.013580 0.000000 0.010256
#
#
# Mechanical properties :
#
#
# Convention : Reuss Voigt Hill
#
# Bulk Modulus (GPa) = 36.87259 42.20324 39.53791
# Shear Modulus (GPa) = 54.81651 -38.39978 8.20836
#
# Velocity S-wave (km/s) = 4.55513 -3.81249 1.76268
# Velocity P-wave (km/s) = 6.45156 1.84536 4.37134
#
# Compressibility (1/GPa) = 0.02712042
#
# Stress axis : x y z
#
# Youngs Moduli (GPa) = 104.28143 95.46695 68.67200
#
# Poissons Ratio (x) = 0.24095 0.17852
# Poissons Ratio (y) = 0.26320 -0.09412
# Poissons Ratio (z) = 0.27109 -0.13084
#
# Static dielectric constant tensor:
#      x y z
#    x 2.250770 0.000000 0.002240 
#    y 0.000000 2.039030 0.000000 
#    z 0.002240 0.000000 2.189410 
# 
# From -- ./inp_files/96084.got.cif
#   From: 2010.05.17/outbox.cif.g08.bks.cpg/sg12_49_cif.got.tgz:96084.got - 2010.06.03 13:09:07.
