data_PCOD9204854
_publ_section_title
;
Structure prediction by ZEFSAII (Michael W. Deem and Ramdas Pophale) SiO2 
 PCOD9204854
Probable space group: C 2/M
;
_chemical_formula_sum "Si O2"
_cell_formula_units_Z 56
_cell_length_a 19.423526
_cell_length_b 8.678583
_cell_length_c 19.820580
_cell_angle_alpha 90.000000
_cell_angle_beta 121.366403
_cell_angle_gamma 90.000000
_cell_volume 2852.843625
_symmetry_space_group_name_H-M "C 2/M"
_symmetry_group_IT_number 12
_symmetry_cell_setting 'monoclinic'
loop_
_space_group_symop_operation_xyz
x,y,z
-x,y,-z
-x,-y,-z
x,-y,z
1/2+x,1/2+y,z
1/2-x,1/2+y,-z
1/2-x,1/2-y,-z
1/2+x,1/2-y,z
loop_
_atom_site_type_symbol
_atom_site_label
_atom_site_fract_x
_atom_site_fract_y
_atom_site_fract_z
Si Si1 0.817446 0.316323 0.583880
Si Si2 0.426617 0.184059 0.006177
Si Si3 0.009597 0.818404 0.328404
Si Si4 0.985920 0.818749 0.830661
Si Si5 0.306175 0.313483 0.728899
Si Si6 0.250290 0.314408 0.075943
Si Si7 0.660609 0.815462 0.753533
O O1 0.815541 0.500000 0.583078
O O2 0.750000 0.250000 0.500000
O O3 0.906632 0.259497 0.607647
O O4 0.801112 0.254412 0.651213
O O5 0.448374 0.227265 0.093677
O O6 0.426691 0.000000 0.999580
O O7 0.500000 0.250254 0.000000
O O8 0.337712 0.235865 0.941148
O O9 0.006602 0.798869 0.245520
O O10 0.926821 0.746145 0.312824
O O11 0.012662 0.000000 0.344404
O O12 0.894564 0.768047 0.802194
O O13 0.995215 0.000000 0.850454
O O14 0.307256 0.500000 0.723992
O O15 0.231780 0.267842 0.738222
O O16 0.256316 0.500000 0.076774
O O17 0.315987 0.250363 0.161033
O O18 0.250000 0.250000 0.000000
O O19 0.658986 0.000000 0.755879
#
# Coordination Sequence:
#
# PCOD9204854 Si02
#       7
#     8   8   8   8   8   8   8
#     4  11  22  39  65  93 120 150 186 227 275 334
#     4  10  21  34  48  70 100 135 180 234 284 329
#     4  10  21  38  59  84 115 148 185 229 278 335
#     4   9  18  33  53  75 101 139 183 228 279 333
#     4   9  20  38  58  84 118 152 188 234 287 341
#     4  11  23  37  53  75 108 150 194 243 297 347
#     4  11  22  37  58  84 115 151 193 240 290 343
#
# _framework density 19.629538
#
# number of rings (size 3 to 8) (size 9 to 14) (size 15 to 20)
#    0.000    1.857    0.000    5.143    0.000    7.714 
#    0.000    0.714    0.000    4.286    0.000    0.000 
#    0.000    0.000    0.000    0.000    0.000    0.000 
#
# Total GULP energy -156416.084848 kJ/mol
# GULP energy per Si atom -5586.288745 kJ/mol
# Density = 1.958486 g / cm^3
# Si number density = 19.629538 Si / 1000 Ang^3
#
#
#
# Elastic Constant Matrix: (Units=GPa)
#
#
# Indices 1 2 3 4 5 6 
#
# 1 114.1497 28.9723 27.3654 0.0000 26.0335 0.0000
# 2 28.9723 34.4241 14.6799 0.0000 10.4114 0.0000
# 3 27.3654 14.6799 83.7204 0.0000 27.0775 0.0000
# 4 0.0000 0.0000 0.0000 31.5275 0.0000 3.2062
# 5 26.0335 10.4114 27.0775 0.0000 32.0665 0.0000
# 6 0.0000 0.0000 0.0000 3.2062 0.0000 27.2946
#
#
#
# Elastic Compliance Matrix: (Units=1/GPa)
#
#
# Indices 1 2 3 4 5 6 
#
# 1 0.012592 -0.008264 -0.000314 0.000000 -0.007275 0.000000
# 2 -0.008264 0.038238 -0.002969 0.000000 -0.003199 0.000000
# 3 -0.000314 -0.002969 0.016747 0.000000 -0.012923 0.000000
# 4 0.000000 0.000000 0.000000 0.032102 0.000000 -0.003771
# 5 -0.007275 -0.003199 -0.012923 0.000000 0.049042 0.000000
# 6 0.000000 0.000000 0.000000 -0.003771 0.000000 0.037080
#
#
# Mechanical properties :
#
#
# Convention : Reuss Voigt Hill
#
# Bulk Modulus (GPa) = 22.48007 41.59215 32.03611
# Shear Modulus (GPa) = 22.34896 28.92949 25.63923
#
# Velocity S-wave (km/s) = 3.37788 3.84314 3.61800
# Velocity P-wave (km/s) = 5.16628 6.39746 5.81455
#
# Compressibility (1/GPa) = 0.04448384
#
# Stress axis : x y z
#
# Youngs Moduli (GPa) = 79.41353 26.15188 59.71088
#
# Poissons Ratio (x) = 0.21612 0.01875
# Poissons Ratio (y) = 0.65626 0.17729
# Poissons Ratio (z) = 0.02494 0.07765
#
# Static dielectric constant tensor:
#      x y z
#    x 1.748270 0.000000 0.000470 
#    y 0.000000 1.660990 0.000000 
#    z 0.000470 0.000000 1.653630 
# 
# From -- ./inp_files/314398.got.cif
#   From: 2010.05.17/outbox.cif.g08.bks.cpg/sg12_158_cif.got.tgz:314398.got - 2010.06.03 13:09:07.
