data_PCOD9204959
_publ_section_title
;
Structure prediction by ZEFSAII (Michael W. Deem and Ramdas Pophale) SiO2 
 PCOD9204959
Probable space group: C 2/M
;
_chemical_formula_sum "Si O2"
_cell_formula_units_Z 36
_cell_length_a 9.795993
_cell_length_b 22.697568
_cell_length_c 11.263605
_cell_angle_alpha 90.000000
_cell_angle_beta 40.664860
_cell_angle_gamma 90.000000
_cell_volume 1631.956133
_symmetry_space_group_name_H-M "C 2/M"
_symmetry_group_IT_number 12
_symmetry_cell_setting 'monoclinic'
loop_
_space_group_symop_operation_xyz
x,y,z
-x,y,-z
-x,-y,-z
x,-y,z
1/2+x,1/2+y,z
1/2-x,1/2+y,-z
1/2-x,1/2-y,-z
1/2+x,1/2-y,z
loop_
_atom_site_type_symbol
_atom_site_label
_atom_site_fract_x
_atom_site_fract_y
_atom_site_fract_z
Si Si1 0.713026 0.176646 0.089968
Si Si2 0.000000 0.850797 0.500000
Si Si3 0.750832 0.933400 0.201460
Si Si4 0.176489 0.250303 0.746865
Si Si5 0.623909 0.360847 0.667728
O O1 0.634874 0.114096 0.194696
O O2 0.790816 0.211206 0.156404
O O3 0.543475 0.217614 0.137891
O O4 0.904126 0.157259 0.877973
O O5 0.174879 0.805790 0.339506
O O6 0.916554 0.882374 0.438033
O O7 0.757737 0.907902 0.329818
O O8 0.675403 0.000000 0.242124
O O9 0.000000 0.932946 0.000000
O O10 0.236396 0.203072 0.603832
#
# Coordination Sequence:
#
# PCOD9204959 Si02
#       5
#     8   4   8   8   8
#     4  10  21  34  60  82 111 142 189 225 277 319
#     4  12  24  32  51  78 125 150 178 218 284 336
#     4   8  16  35  60  83 104 138 191 235 266 317
#     4  11  21  36  51  83 113 149 179 227 271 335
#     4  10  21  34  53  84 111 147 180 226 275 327
#
# _framework density 22.059415999999999
#
# number of rings (size 3 to 8) (size 9 to 14) (size 15 to 20)
#    0.000    2.000    2.222    3.333    3.111    0.000 
#    0.000    0.556    0.000    4.000    0.000    6.222 
#    0.000    0.000    0.000    0.000    0.000    0.000 
#
# Total GULP energy -100477.103827 kJ/mol
# GULP energy per Si atom -5582.061324 kJ/mol
# Density = 2.200921 g / cm^3
# Si number density = 22.059416 Si / 1000 Ang^3
#
#
#
# Elastic Constant Matrix: (Units=GPa)
#
#
# Indices 1 2 3 4 5 6 
#
# 1 96.1477 40.6328 30.8277 0.0000 21.4447 0.0000
# 2 40.6328 140.7427 11.2030 0.0000 15.7900 0.0000
# 3 30.8277 11.2030 36.7979 0.0000 14.3001 0.0000
# 4 0.0000 0.0000 0.0000 13.4823 0.0000 2.7449
# 5 21.4447 15.7900 14.3001 0.0000 46.4705 0.0000
# 6 0.0000 0.0000 0.0000 2.7449 0.0000 26.0199
#
#
#
# Elastic Compliance Matrix: (Units=1/GPa)
#
#
# Indices 1 2 3 4 5 6 
#
# 1 0.016120 -0.003437 -0.011383 0.000000 -0.002768 0.000000
# 2 -0.003437 0.008188 0.000967 0.000000 -0.001494 0.000000
# 3 -0.011383 0.000967 0.039190 0.000000 -0.007136 0.000000
# 4 0.000000 0.000000 0.000000 0.075799 0.000000 -0.007996
# 5 -0.002768 -0.001494 -0.007136 0.000000 0.025500 0.000000
# 6 0.000000 0.000000 0.000000 -0.007996 0.000000 0.039276
#
#
# Mechanical properties :
#
#
# Convention : Reuss Voigt Hill
#
# Bulk Modulus (GPa) = 27.93854 48.77948 38.35901
# Shear Modulus (GPa) = 20.51624 29.92954 25.22289
#
# Velocity S-wave (km/s) = 3.05297 3.68743 3.38510
# Velocity P-wave (km/s) = 5.01200 6.34746 5.71885
#
# Compressibility (1/GPa) = 0.03579285
#
# Stress axis : x y z
#
# Youngs Moduli (GPa) = 62.03330 122.12821 25.51681
#
# Poissons Ratio (x) = 0.41980 0.29045
# Poissons Ratio (y) = 0.21323 -0.02468
# Poissons Ratio (z) = 0.70610 -0.11813
#
# Static dielectric constant tensor:
#      x y z
#    x 1.835850 0.000000 -0.045510 
#    y 0.000000 1.788770 0.000000 
#    z -0.045510 0.000000 2.039610 
# 
# From -- ./inp_files/122922.got.cif
#   From: 2010.05.17/outbox.cif.g08.bks.cpg/sg12_62_cif.got.tgz:122922.got - 2010.06.03 13:09:07.
