data_PCOD9204791
_publ_section_title
;
Structure prediction by ZEFSAII (Michael W. Deem and Ramdas Pophale) SiO2 
 PCOD9204791
Probable space group: C 2/M
;
_chemical_formula_sum "Si O2"
_cell_formula_units_Z 58
_cell_length_a 17.993052
_cell_length_b 21.602643
_cell_length_c 13.499877
_cell_angle_alpha 90.000000
_cell_angle_beta 140.569152
_cell_angle_gamma 90.000000
_cell_volume 3332.847309
_symmetry_space_group_name_H-M "C 2/M"
_symmetry_group_IT_number 12
_symmetry_cell_setting 'monoclinic'
loop_
_space_group_symop_operation_xyz
x,y,z
-x,y,-z
-x,-y,-z
x,-y,z
1/2+x,1/2+y,z
1/2-x,1/2+y,-z
1/2-x,1/2-y,-z
1/2+x,1/2-y,z
loop_
_atom_site_type_symbol
_atom_site_label
_atom_site_fract_x
_atom_site_fract_y
_atom_site_fract_z
Si Si1 0.915831 0.700411 0.651867
Si Si2 0.440340 0.393772 0.097669
Si Si3 0.421614 0.860798 0.333238
Si Si4 0.334220 0.669798 0.631337
Si Si5 0.687660 0.292675 0.161658
Si Si6 0.500000 0.500000 0.000000
Si Si7 0.087086 0.661941 0.003279
Si Si8 0.788185 0.572866 0.020072
O O1 0.799743 0.657875 0.536014
O O2 0.875050 0.771130 0.610404
O O3 0.989897 0.684082 0.632419
O O4 0.999404 0.688886 0.830282
O O5 0.568908 0.383173 0.275487
O O6 0.448740 0.446153 0.022823
O O7 0.399904 0.330999 0.999900
O O8 0.342533 0.409358 0.078644
O O9 0.500000 0.891131 0.500000
O O10 0.314456 0.819738 0.263502
O O11 0.368530 0.907408 0.197277
O O12 0.331697 0.690393 0.743912
O O13 0.664057 0.220064 0.121002
O O14 0.166200 0.611892 0.027245
O O15 0.000000 0.638562 0.000000
O O16 0.796085 0.500000 0.010514
#
# Coordination Sequence:
#
# PCOD9204791 Si02
#       8
#     8   8   8   8   8   2   8   8
#     4  10  21  33  53  87 118 146 188 230 292 349
#     4  11  21  35  57  86 118 152 194 228 288 348
#     4  10  21  35  55  82 121 150 183 234 299 353
#     4  11  19  33  56  81 121 149 179 240 282 351
#     4  11  19  34  58  84 115 151 187 238 288 343
#     4  12  20  32  60  88 116 162 192 220 276 364
#     4  11  21  38  62  84 112 150 198 245 298 341
#     4  10  24  39  57  84 113 151 206 245 280 350
#
# _framework density 17.402536999999999
#
# number of rings (size 3 to 8) (size 9 to 14) (size 15 to 20)
#    0.000    1.379    6.207    0.000    1.931    2.207 
#    0.000    0.000    9.103    0.000    0.000    0.966 
#    0.000    0.000    0.000    0.000    0.000    0.000 
#
# Total GULP energy -161449.829896 kJ/mol
# GULP energy per Si atom -5567.235514 kJ/mol
# Density = 1.736293 g / cm^3
# Si number density = 17.402537 Si / 1000 Ang^3
#
#
#
# Elastic Constant Matrix: (Units=GPa)
#
#
# Indices 1 2 3 4 5 6 
#
# 1 87.0943 50.2631 -3.8939 0.0000 16.0789 0.0000
# 2 50.2631 87.6173 4.4339 0.0000 9.2111 0.0000
# 3 -3.8939 4.4339 45.1863 0.0000 14.6607 0.0000
# 4 0.0000 0.0000 0.0000 3.6985 0.0000 -2.0633
# 5 16.0789 9.2111 14.6607 0.0000 28.4478 0.0000
# 6 0.0000 0.0000 0.0000 -2.0633 0.0000 22.7136
#
#
#
# Elastic Compliance Matrix: (Units=1/GPa)
#
#
# Indices 1 2 3 4 5 6 
#
# 1 0.019927 -0.010585 0.006362 0.000000 -0.011114 0.000000
# 2 -0.010585 0.017438 -0.003281 0.000000 0.002027 0.000000
# 3 0.006362 -0.003281 0.028606 0.000000 -0.017275 0.000000
# 4 0.000000 0.000000 0.000000 0.284810 0.000000 0.025872
# 5 -0.011114 0.002027 -0.017275 0.000000 0.049680 0.000000
# 6 0.000000 0.000000 0.000000 0.025872 0.000000 0.046377
#
#
# Mechanical properties :
#
#
# Convention : Reuss Voigt Hill
#
# Bulk Modulus (GPa) = 19.62221 35.72267 27.67244
# Shear Modulus (GPa) = 10.44204 22.24497 16.34351
#
# Velocity S-wave (km/s) = 2.45221 3.57916 3.06787
# Velocity P-wave (km/s) = 4.39519 6.13615 5.33714
#
# Compressibility (1/GPa) = 0.05096267
#
# Stress axis : x y z
#
# Youngs Moduli (GPa) = 50.18421 57.34506 34.95803
#
# Poissons Ratio (x) = 0.60698 -0.22239
# Poissons Ratio (y) = 0.53119 0.11469
# Poissons Ratio (z) = -0.31926 0.18814
#
# Static dielectric constant tensor:
#      x y z
#    x 1.603030 0.000000 0.008560 
#    y 0.000000 1.567550 0.000000 
#    z 0.008560 0.000000 1.637690 
# 
# From -- ./inp_files/227282.got.cif
#   From: 2010.05.17/outbox.cif.g08.bks.cpg/sg12_114_cif.got.tgz:227282.got - 2010.06.03 13:09:07.
