data_PCOD9204538
_publ_section_title
;
Structure prediction by ZEFSAII (Michael W. Deem and Ramdas Pophale) SiO2 
 PCOD9204538
Probable space group: C 2/M
;
_chemical_formula_sum "Si O2"
_cell_formula_units_Z 64
_cell_length_a 30.358530
_cell_length_b 14.358512
_cell_length_c 8.741126
_cell_angle_alpha 90.000000
_cell_angle_beta 49.441630
_cell_angle_gamma 90.000000
_cell_volume 2894.841588
_symmetry_space_group_name_H-M "C 2/M"
_symmetry_group_IT_number 12
_symmetry_cell_setting 'monoclinic'
loop_
_space_group_symop_operation_xyz
x,y,z
-x,y,-z
-x,-y,-z
x,-y,z
1/2+x,1/2+y,z
1/2-x,1/2+y,-z
1/2-x,1/2-y,-z
1/2+x,1/2-y,z
loop_
_atom_site_type_symbol
_atom_site_label
_atom_site_fract_x
_atom_site_fract_y
_atom_site_fract_z
Si Si1 0.151501 0.394654 0.919738
Si Si2 0.132634 0.896075 0.171093
Si Si3 0.607050 0.395349 0.865582
Si Si4 0.019165 0.396451 0.630037
Si Si5 0.632257 0.202460 0.288857
Si Si6 0.232748 0.601641 0.204845
Si Si7 0.947142 0.297180 0.016992
Si Si8 0.760295 0.140343 0.488618
O O1 0.131814 0.500000 0.993327
O O2 0.218180 0.393897 0.717166
O O3 0.142765 0.335003 0.092506
O O4 0.113342 0.351841 0.866741
O O5 0.112748 0.809205 0.316591
O O6 0.116233 0.000000 0.260699
O O7 0.113558 0.887054 0.036236
O O8 0.202627 0.889439 0.007338
O O9 0.586514 0.500000 0.876956
O O10 0.671848 0.382794 0.651211
O O11 0.567962 0.308180 0.905982
O O12 0.013996 0.500000 0.713887
O O13 0.084209 0.358625 0.483356
O O14 0.000000 0.406912 0.500000
O O15 0.976711 0.316797 0.787918
O O16 0.691850 0.184275 0.243035
O O17 0.209071 0.500000 0.208271
O O18 0.239908 0.601341 0.371009
O O19 0.000000 0.334663 0.000000
O O20 0.750000 0.250000 0.500000
#
# Coordination Sequence:
#
# PCOD9204538 Si02
#       8
#     8   8   8   8   8   8   8   8
#     4  12  23  39  63  95 131 167 209 258 316 385
#     4   9  18  36  62  89 121 163 208 257 312 374
#     4  10  20  42  67  90 124 167 209 260 320 380
#     4  11  23  41  62  84 120 166 210 252 308 373
#     4  12  22  39  61  92 128 170 207 256 314 378
#     4  10  21  36  58  93 130 166 208 252 314 387
#     4  12  26  43  63  92 124 166 216 273 318 367
#     4  11  21  39  66  97 130 169 206 255 318 382
#
# _framework density 22.10829
#
# number of rings (size 3 to 8) (size 9 to 14) (size 15 to 20)
#    0.000    1.125    3.750    4.500    1.750    1.250 
#    0.000    0.625    0.000    6.750    0.000    0.000 
#    0.000    0.000    0.000    0.000    0.000    0.000 
#
# Total GULP energy -178753.531123 kJ/mol
# GULP energy per Si atom -5586.047848 kJ/mol
# Density = 2.205797 g / cm^3
# Si number density = 22.108290 Si / 1000 Ang^3
#
#
#
# Elastic Constant Matrix: (Units=GPa)
#
#
# Indices 1 2 3 4 5 6 
#
# 1 43.2601 -6.4884 5.0594 0.0000 -10.2366 0.0000
# 2 -6.4884 117.4375 14.5660 0.0000 -1.6341 0.0000
# 3 5.0594 14.5660 58.6424 0.0000 -13.9957 0.0000
# 4 0.0000 0.0000 0.0000 18.6868 0.0000 3.3424
# 5 -10.2366 -1.6341 -13.9957 0.0000 12.2476 0.0000
# 6 0.0000 0.0000 0.0000 3.3424 0.0000 12.8330
#
#
#
# Elastic Compliance Matrix: (Units=1/GPa)
#
#
# Indices 1 2 3 4 5 6 
#
# 1 0.029970 0.001553 0.004202 0.000000 0.030059 0.000000
# 2 0.001553 0.008896 -0.002407 0.000000 -0.000266 0.000000
# 3 0.004202 -0.002407 0.024818 0.000000 0.031552 0.000000
# 4 0.000000 0.000000 0.000000 0.056128 0.000000 -0.014619
# 5 0.030059 -0.000266 0.031552 0.000000 0.142791 0.000000
# 6 0.000000 0.000000 0.000000 -0.014619 0.000000 0.081731
#
#
# Mechanical properties :
#
#
# Convention : Reuss Voigt Hill
#
# Bulk Modulus (GPa) = 14.20846 27.29047 20.74946
# Shear Modulus (GPa) = 13.84662 22.50034 18.17348
#
# Velocity S-wave (km/s) = 2.50533 3.19365 2.87020
# Velocity P-wave (km/s) = 3.84833 5.09608 4.51551
#
# Compressibility (1/GPa) = 0.07038061
#
# Stress axis : x y z
#
# Youngs Moduli (GPa) = 33.36654 112.41247 40.29331
#
# Poissons Ratio (x) = -0.17456 -0.16933
# Poissons Ratio (y) = -0.05181 0.09699
# Poissons Ratio (z) = -0.14022 0.27058
#
# Static dielectric constant tensor:
#      x y z
#    x 2.219860 0.000000 0.238600 
#    y 0.000000 1.873870 0.000000 
#    z 0.238600 0.000000 1.973340 
# 
# From -- ./inp_files/111958.got.cif
#   From: 2010.05.17/outbox.cif.g08.bks.cpg/sg12_56_cif.got.tgz:111958.got - 2010.06.03 13:09:07.
