data_PCOD9204524
_publ_section_title
;
Structure prediction by ZEFSAII (Michael W. Deem and Ramdas Pophale) SiO2 
 PCOD9204524
Probable space group: C 2/M
;
_chemical_formula_sum "Si O2"
_cell_formula_units_Z 58
_cell_length_a 23.128867
_cell_length_b 8.687272
_cell_length_c 26.172416
_cell_angle_alpha 90.000000
_cell_angle_beta 29.012851
_cell_angle_gamma 90.000000
_cell_volume 2550.518664
_symmetry_space_group_name_H-M "C 2/M"
_symmetry_group_IT_number 12
_symmetry_cell_setting 'monoclinic'
loop_
_space_group_symop_operation_xyz
x,y,z
-x,y,-z
-x,-y,-z
x,-y,z
1/2+x,1/2+y,z
1/2-x,1/2+y,-z
1/2-x,1/2-y,-z
1/2+x,1/2-y,z
loop_
_atom_site_type_symbol
_atom_site_label
_atom_site_fract_x
_atom_site_fract_y
_atom_site_fract_z
Si Si1 0.750901 0.325243 0.554763
Si Si2 0.000000 0.000000 0.500000
Si Si3 0.007429 0.759039 0.581345
Si Si4 0.511527 0.682435 0.785675
Si Si5 0.656359 0.675916 0.909222
Si Si6 0.527346 0.180765 0.876071
Si Si7 0.771236 0.180724 0.726177
Si Si8 0.633303 0.327511 0.206299
O O1 0.714655 0.500000 0.573406
O O2 0.750000 0.250000 0.500000
O O3 0.643752 0.257131 0.670436
O O4 0.876116 0.324391 0.487738
O O5 0.950917 0.868119 0.496602
O O6 0.882013 0.706029 0.651502
O O7 0.952299 0.824940 0.677363
O O8 0.513362 0.500000 0.797713
O O9 0.468299 0.774810 0.868150
O O10 0.438013 0.699715 0.790459
O O11 0.653772 0.500000 0.892565
O O12 0.692871 0.800506 0.838071
O O13 0.765649 0.700679 0.863958
O O14 0.536520 0.720361 0.030910
O O15 0.669832 0.214450 0.763712
O O16 0.515896 0.000000 0.895907
O O17 0.819717 0.000000 0.682707
O O18 0.685972 0.500000 0.162996
#
# Coordination Sequence:
#
# PCOD9204524 Si02
#       8
#     8   2   8   8   8   8   8   8
#     4  11  25  43  68  97 133 177 226 278 333 399
#     4  12  24  36  74 100 138 184 222 282 326 418
#     4  11  22  39  65  99 131 168 225 267 331 389
#     4  10  23  42  63  90 128 172 210 272 332 381
#     4  11  23  39  65  94 127 168 213 268 336 404
#     4  11  24  41  64  96 126 165 222 273 328 398
#     4  10  22  42  64  90 128 172 216 272 327 392
#     4  10  20  42  66  89 127 171 215 268 324 391
#
# _framework density 22.740473999999999
#
# number of rings (size 3 to 8) (size 9 to 14) (size 15 to 20)
#    0.000    1.379    2.759    2.897    2.897    6.621 
#    0.000    0.345    0.000    0.000    0.000    0.000 
#    0.000    0.000    0.000    0.000    0.000    0.000 
#
# Total GULP energy -161448.322246 kJ/mol
# GULP energy per Si atom -5567.183526 kJ/mol
# Density = 2.268872 g / cm^3
# Si number density = 22.740474 Si / 1000 Ang^3
#
#
#
# Elastic Constant Matrix: (Units=GPa)
#
#
# Indices 1 2 3 4 5 6 
#
# 1 113.1032 23.1169 9.5330 0.0004 4.7385 -0.0001
# 2 23.1169 49.6335 3.4764 0.0008 0.1636 -0.0005
# 3 9.5330 3.4764 33.9454 0.0007 -9.9521 -0.0003
# 4 0.0004 0.0008 0.0007 27.8609 -0.0005 0.0658
# 5 4.7385 0.1636 -9.9521 -0.0005 39.1643 0.0002
# 6 -0.0001 -0.0005 -0.0003 0.0658 0.0002 32.1334
#
#
#
# Elastic Compliance Matrix: (Units=1/GPa)
#
#
# Indices 1 2 3 4 5 6 
#
# 1 0.010088 -0.004486 -0.002946 0.000000 -0.001950 0.000000
# 2 -0.004486 0.022304 -0.000964 -0.000001 0.000205 0.000000
# 3 -0.002946 -0.000964 0.032945 -0.000001 0.008732 0.000000
# 4 0.000000 -0.000001 -0.000001 0.035893 0.000000 -0.000073
# 5 -0.001950 0.000205 0.008732 0.000000 0.027988 0.000000
# 6 0.000000 0.000000 0.000000 -0.000073 0.000000 0.031120
#
#
# Mechanical properties :
#
#
# Convention : Reuss Voigt Hill
#
# Bulk Modulus (GPa) = 20.59916 29.88161 25.24039
# Shear Modulus (GPa) = 25.86496 30.53543 28.20019
#
# Velocity S-wave (km/s) = 3.37619 3.66837 3.52531
# Velocity P-wave (km/s) = 4.92709 5.57776 5.26249
#
# Compressibility (1/GPa) = 0.04854567
#
# Stress axis : x y z
#
# Youngs Moduli (GPa) = 99.12449 44.83520 30.35346
#
# Poissons Ratio (x) = 0.20113 0.08941
# Poissons Ratio (y) = 0.44466 0.02927
# Poissons Ratio (z) = 0.29197 0.04324
#
# Static dielectric constant tensor:
#      x y z
#    x 1.876730 0.000000 -0.049390 
#    y 0.000000 1.810230 0.000000 
#    z -0.049390 0.000000 1.683910 
# 
# From -- ./inp_files/367535.got.cif
#   From: 2010.05.17/outbox.cif.g08.bks.cpg/sg12_184_cif.got.tgz:367535.got - 2010.06.03 13:09:07.
