data_PCOD9204040
_publ_section_title
;
Structure prediction by ZEFSAII (Michael W. Deem and Ramdas Pophale) SiO2 
 PCOD9204040
Probable space group: C 2/M
;
_chemical_formula_sum "Si O2"
_cell_formula_units_Z 34
_cell_length_a 28.584895
_cell_length_b 12.582920
_cell_length_c 14.829570
_cell_angle_alpha 90.000000
_cell_angle_beta 14.121067
_cell_angle_gamma 90.000000
_cell_volume 1301.325321
_symmetry_space_group_name_H-M "C 2/M"
_symmetry_group_IT_number 12
_symmetry_cell_setting 'monoclinic'
loop_
_space_group_symop_operation_xyz
x,y,z
-x,y,-z
-x,-y,-z
x,-y,z
1/2+x,1/2+y,z
1/2-x,1/2+y,-z
1/2-x,1/2-y,-z
1/2+x,1/2-y,z
loop_
_atom_site_type_symbol
_atom_site_label
_atom_site_fract_x
_atom_site_fract_y
_atom_site_fract_z
Si Si1 0.184532 0.887719 0.545545
Si Si2 0.924361 0.343893 0.276355
Si Si3 0.783334 0.317954 0.026866
Si Si4 0.000000 0.000000 0.500000
Si Si5 0.303435 0.116052 0.703541
O O1 0.063828 0.783623 0.753168
O O2 0.281470 0.877493 0.462854
O O3 0.081896 0.000000 0.729463
O O4 0.364941 0.885454 0.140585
O O5 0.846592 0.380005 0.516976
O O6 0.618132 0.406002 0.336049
O O7 0.793821 0.226523 0.084216
O O8 0.750000 0.250000 0.000000
O O9 0.987196 0.375553 0.642294
O O10 0.217860 0.000000 0.889788
#
# Coordination Sequence:
#
# PCOD9204040 Si02
#       5
#     8   8   8   2   8
#     4  10  20  40  64  86 130 172 205 253 307 363
#     4  10  21  39  62  95 124 165 214 251 308 368
#     4  12  26  44  67  93 123 166 206 255 324 378
#     4  12  24  48  68  88 128 160 210 254 320 392
#     4  12  25  41  66  96 128 161 211 264 310 370
#
# _framework density 26.127210000000002
#
# number of rings (size 3 to 8) (size 9 to 14) (size 15 to 20)
#    0.000    0.941    3.529    4.235    1.647    0.941 
#    2.118   14.118    0.000    0.000    0.000    0.000 
#    0.000    0.000    0.000    0.000    0.000    0.000 
#
# Total GULP energy -95073.144771 kJ/mol
# GULP energy per Si atom -5592.537928 kJ/mol
# Density = 2.606774 g / cm^3
# Si number density = 26.127210 Si / 1000 Ang^3
#
#
#
# Elastic Constant Matrix: (Units=GPa)
#
#
# Indices 1 2 3 4 5 6 
#
# 1 90.5856 20.0603 18.0473 0.0000 14.3225 -0.0001
# 2 20.0603 279.6437 33.2014 0.0000 11.4872 0.0000
# 3 18.0473 33.2014 53.1030 0.0000 2.6989 -0.0004
# 4 0.0000 0.0000 0.0000 38.1573 -0.0001 3.1705
# 5 14.3225 11.4872 2.6989 -0.0001 40.5790 0.0001
# 6 -0.0001 0.0000 -0.0004 3.1705 0.0001 7.1133
#
#
#
# Elastic Compliance Matrix: (Units=1/GPa)
#
#
# Indices 1 2 3 4 5 6 
#
# 1 0.012517 -0.000270 -0.003878 0.000000 -0.004084 0.000000
# 2 -0.000270 0.003904 -0.002306 0.000000 -0.000857 0.000000
# 3 -0.003878 -0.002306 0.021561 0.000000 0.000587 0.000001
# 4 0.000000 0.000000 0.000000 0.027215 0.000000 -0.012130
# 5 -0.004084 -0.000857 0.000587 0.000000 0.026288 0.000000
# 6 0.000000 0.000000 0.000001 -0.012130 0.000000 0.145989
#
#
# Mechanical properties :
#
#
# Convention : Reuss Voigt Hill
#
# Bulk Modulus (GPa) = 39.87923 62.88338 51.38130
# Shear Modulus (GPa) = 19.32439 40.63813 29.98126
#
# Velocity S-wave (km/s) = 2.72256 3.94813 3.39117
# Velocity P-wave (km/s) = 5.01794 6.70105 5.91962
#
# Compressibility (1/GPa) = 0.02507571
#
# Stress axis : x y z
#
# Youngs Moduli (GPa) = 79.88952 256.12870 46.37991
#
# Poissons Ratio (x) = 0.06910 0.17985
# Poissons Ratio (y) = 0.02155 0.10694
# Poissons Ratio (z) = 0.30980 0.59059
#
# Static dielectric constant tensor:
#      x y z
#    x 2.033930 0.000000 0.030030 
#    y 0.000000 2.036890 0.000000 
#    z 0.030030 0.000000 2.060440 
# 
# From -- ./inp_files/250703.got.cif
#   From: 2010.05.17/outbox.cif.g08.bks.cpg/sg12_126_cif.got.tgz:250703.got - 2010.06.03 13:09:07.
