data_PCOD9204216
_publ_section_title
;
Structure prediction by ZEFSAII (Michael W. Deem and Ramdas Pophale) SiO2 
 PCOD9204216
Probable space group: C 2/M
;
_chemical_formula_sum "Si O2"
_cell_formula_units_Z 44
_cell_length_a 8.695917
_cell_length_b 30.312377
_cell_length_c 8.344316
_cell_angle_alpha 90.000000
_cell_angle_beta 90.778631
_cell_angle_gamma 90.000000
_cell_volume 2199.307819
_symmetry_space_group_name_H-M "C 2/M"
_symmetry_group_IT_number 12
_symmetry_cell_setting 'monoclinic'
loop_
_space_group_symop_operation_xyz
x,y,z
-x,y,-z
-x,-y,-z
x,-y,z
1/2+x,1/2+y,z
1/2-x,1/2+y,-z
1/2-x,1/2-y,-z
1/2+x,1/2-y,z
loop_
_atom_site_type_symbol
_atom_site_label
_atom_site_fract_x
_atom_site_fract_y
_atom_site_fract_z
Si Si1 0.928095 0.127966 0.829674
Si Si2 0.000000 0.750484 0.500000
Si Si3 0.055670 0.550594 0.183386
Si Si4 0.779931 0.111744 0.377285
Si Si5 0.270341 0.187145 0.379240
Si Si6 0.779450 0.949531 0.678342
O O1 0.788344 0.159111 0.772274
O O2 0.863643 0.078296 0.817472
O O3 0.065222 0.129628 0.701665
O O4 0.000000 0.139028 0.000000
O O5 0.129426 0.781026 0.424805
O O6 0.082586 0.718419 0.629233
O O7 0.117396 0.500000 0.196673
O O8 0.173205 0.587611 0.245467
O O9 0.903135 0.552711 0.291059
O O10 0.000000 0.557035 0.000000
O O11 0.706230 0.151919 0.476384
O O12 0.812945 0.074739 0.512096
O O13 0.827276 0.000000 0.677382
#
# Coordination Sequence:
#
# PCOD9204216 Si02
#       6
#     8   4   8   8   8   8
#     4  11  23  39  57  85 125 156 191 242 295 350
#     4  10  20  40  68  86 114 142 192 244 290 354
#     4  10  21  36  55  85 123 160 198 241 289 340
#     4  11  21  36  58  87 115 156 198 245 286 344
#     4  10  21  39  64  89 112 149 192 236 294 352
#     4  10  21  36  57  84 115 159 208 241 280 339
#
# _framework density 20.006291999999998
#
# number of rings (size 3 to 8) (size 9 to 14) (size 15 to 20)
#    0.000    1.636    1.818    3.818    5.091    4.000 
#    0.000    0.909    0.000    0.000    0.000    0.000 
#    0.000    0.000    0.000    0.000    0.000    0.000 
#
# Total GULP energy -122871.835896 kJ/mol
# GULP energy per Si atom -5585.083450 kJ/mol
# Density = 1.996076 g / cm^3
# Si number density = 20.006292 Si / 1000 Ang^3
#
#
#
# Elastic Constant Matrix: (Units=GPa)
#
#
# Indices 1 2 3 4 5 6 
#
# 1 32.8162 19.7955 16.9059 0.0000 14.0614 0.0000
# 2 19.7955 117.7254 39.3597 0.0000 22.1221 0.0000
# 3 16.9059 39.3597 83.7864 0.0000 18.3568 0.0000
# 4 0.0000 0.0000 0.0000 0.6330 0.0000 14.4643
# 5 14.0614 22.1221 18.3568 0.0000 27.6151 0.0000
# 6 0.0000 0.0000 0.0000 14.4643 0.0000 35.5829
#
#
#
# Elastic Compliance Matrix: (Units=1/GPa)
#
#
# Indices 1 2 3 4 5 6 
#
# 1 0.040859 -0.002647 -0.003403 0.000000 -0.016423 0.000000
# 2 -0.002647 0.011099 -0.003543 0.000000 -0.005188 0.000000
# 3 -0.003403 -0.003543 0.015549 0.000000 -0.005765 0.000000
# 4 0.000000 0.000000 0.000000 -0.190599 0.000000 0.077477
# 5 -0.016423 -0.005188 -0.005765 0.000000 0.052563 0.000000
# 6 0.000000 0.000000 0.000000 0.077477 0.000000 -0.003391
#
#
# Mechanical properties :
#
#
# Convention : Reuss Voigt Hill
#
# Bulk Modulus (GPa) = 20.69446 42.93893 31.81669
# Shear Modulus (GPa) = -129.44654 23.31734 -53.06460
#
# Velocity S-wave (km/s) = -8.05254 3.41765 -5.15573
# Velocity P-wave (km/s) = 8.72304 6.08958 4.41635
#
# Compressibility (1/GPa) = 0.04832211
#
# Stress axis : x y z
#
# Youngs Moduli (GPa) = 24.47412 90.09891 64.31180
#
# Poissons Ratio (x) = 0.23846 0.21885
# Poissons Ratio (y) = 0.06478 0.22787
# Poissons Ratio (z) = 0.08328 0.31923
#
# Static dielectric constant tensor:
#      x y z
#    x 1.736860 0.000000 0.008650 
#    y 0.000000 1.715940 0.000000 
#    z 0.008650 0.000000 1.705860 
# 
# From -- ./inp_files/41735.got.cif
#   From: 2010.05.17/outbox.cif.g08.bks.cpg/sg12_21_cif.got.tgz:41735.got - 2010.06.03 13:09:07.
