data_PCOD9204007
_publ_section_title
;
Structure prediction by ZEFSAII (Michael W. Deem and Ramdas Pophale) SiO2 
 PCOD9204007
Probable space group: C 2/M
;
_chemical_formula_sum "Si O2"
_cell_formula_units_Z 60
_cell_length_a 19.533417
_cell_length_b 13.259724
_cell_length_c 12.119744
_cell_angle_alpha 90.000000
_cell_angle_beta 133.064423
_cell_angle_gamma 90.000000
_cell_volume 2293.389072
_symmetry_space_group_name_H-M "C 2/M"
_symmetry_group_IT_number 12
_symmetry_cell_setting 'monoclinic'
loop_
_space_group_symop_operation_xyz
x,y,z
-x,y,-z
-x,-y,-z
x,-y,z
1/2+x,1/2+y,z
1/2-x,1/2+y,-z
1/2-x,1/2-y,-z
1/2+x,1/2-y,z
loop_
_atom_site_type_symbol
_atom_site_label
_atom_site_fract_x
_atom_site_fract_y
_atom_site_fract_z
Si Si1 0.015078 0.174919 0.170277
Si Si2 0.777339 0.114078 0.646615
Si Si3 0.374566 0.500000 0.004961
Si Si4 0.087157 0.384830 0.305691
Si Si5 0.746457 0.134655 0.025010
Si Si6 0.427074 0.890446 0.294777
Si Si7 0.813036 0.772833 0.306483
Si Si8 0.460417 0.383818 0.579755
O O1 0.117951 0.124898 0.281794
O O2 0.041812 0.293824 0.182549
O O3 0.982501 0.171462 0.262970
O O4 0.943180 0.094729 0.037201
O O5 0.695760 0.127659 0.464514
O O6 0.762206 0.197652 0.724262
O O7 0.769183 0.000000 0.687271
O O8 0.309662 0.582157 0.003714
O O9 0.077248 0.500000 0.251371
O O10 0.030405 0.381279 0.359688
O O11 0.780083 0.138085 0.187859
O O12 0.750000 0.250000 0.000000
O O13 0.639782 0.105582 0.886328
O O14 0.387008 0.802306 0.327436
O O15 0.415727 0.000000 0.337763
O O16 0.862082 0.829935 0.460329
O O17 0.500000 0.380219 0.500000
O O18 0.459545 0.500000 0.611543
#
# Coordination Sequence:
#
# PCOD9204007 Si02
#       8
#     8   8   4   8   8   8   8   8
#     4  12  22  41  62  97 135 178 222 268 330 408
#     4  11  23  41  61  94 135 179 224 263 329 415
#     4  12  22  40  75  97 130 175 223 284 337 401
#     4  10  22  38  65  91 127 176 220 268 331 397
#     4  10  22  40  64  95 126 165 216 279 351 390
#     4  10  20  40  63  89 119 160 223 275 330 390
#     4  11  23  35  60  91 131 172 206 275 343 403
#     4  11  22  34  54  91 138 168 208 277 334 401
#
# _framework density 26.162154999999998
#
# number of rings (size 3 to 8) (size 9 to 14) (size 15 to 20)
#    0.000    1.200    3.333    4.000    2.800    0.000 
#    0.000    2.000    0.000   10.400    0.000    1.867 
#    0.000    0.000    0.000    0.000    0.000    0.000 
#
# Total GULP energy -167119.316520 kJ/mol
# GULP energy per Si atom -5570.643884 kJ/mol
# Density = 2.610261 g / cm^3
# Si number density = 26.162155 Si / 1000 Ang^3
#
#
#
# Elastic Constant Matrix: (Units=GPa)
#
#
# Indices 1 2 3 4 5 6 
#
# 1 99.0853 13.0006 12.6701 0.0000 25.0070 0.0000
# 2 13.0006 182.5264 -6.9829 0.0000 16.8814 0.0000
# 3 12.6701 -6.9829 53.5552 0.0000 14.8624 0.0000
# 4 0.0000 0.0000 0.0000 44.3461 0.0000 5.0933
# 5 25.0070 16.8814 14.8624 0.0000 41.6818 0.0000
# 6 0.0000 0.0000 0.0000 5.0933 0.0000 35.3049
#
#
#
# Elastic Compliance Matrix: (Units=1/GPa)
#
#
# Indices 1 2 3 4 5 6 
#
# 1 0.011947 -0.000269 -0.001002 0.000000 -0.006701 0.000000
# 2 -0.000269 0.005814 0.001587 0.000000 -0.002759 0.000000
# 3 -0.001002 0.001587 0.021229 0.000000 -0.007611 0.000000
# 4 0.000000 0.000000 0.000000 0.022930 0.000000 -0.003308
# 5 -0.006701 -0.002759 -0.007611 0.000000 0.031843 0.000000
# 6 0.000000 0.000000 0.000000 -0.003308 0.000000 0.028802
#
#
# Mechanical properties :
#
#
# Convention : Reuss Voigt Hill
#
# Bulk Modulus (GPa) = 25.23878 41.39361 33.31619
# Shear Modulus (GPa) = 36.99891 45.36518 41.18204
#
# Velocity S-wave (km/s) = 3.76468 4.16865 3.97181
# Velocity P-wave (km/s) = 5.34464 6.24712 5.81342
#
# Compressibility (1/GPa) = 0.03962157
#
# Stress axis : x y z
#
# Youngs Moduli (GPa) = 83.70283 172.00591 47.10627
#
# Poissons Ratio (x) = 0.04635 0.04719
# Poissons Ratio (y) = 0.02256 -0.07478
# Poissons Ratio (z) = 0.08386 -0.27305
#
# Static dielectric constant tensor:
#      x y z
#    x 2.072050 0.000000 -0.083990 
#    y 0.000000 2.059120 0.000000 
#    z -0.083990 0.000000 2.360380 
# 
# From -- ./inp_files/233901.got.cif
#   From: 2010.05.17/outbox.cif.g08.bks.cpg/sg12_117_cif.got.tgz:233901.got - 2010.06.03 13:09:07.
