data_PCOD9204072
_publ_section_title
;
Structure prediction by ZEFSAII (Michael W. Deem and Ramdas Pophale) SiO2 
 PCOD9204072
Probable space group: C 2/M
;
_chemical_formula_sum "Si O2"
_cell_formula_units_Z 44
_cell_length_a 12.481560
_cell_length_b 23.161806
_cell_length_c 9.210896
_cell_angle_alpha 90.000000
_cell_angle_beta 123.293571
_cell_angle_gamma 90.000000
_cell_volume 2225.775540
_symmetry_space_group_name_H-M "C 2/M"
_symmetry_group_IT_number 12
_symmetry_cell_setting 'monoclinic'
loop_
_space_group_symop_operation_xyz
x,y,z
-x,y,-z
-x,-y,-z
x,-y,z
1/2+x,1/2+y,z
1/2-x,1/2+y,-z
1/2-x,1/2-y,-z
1/2+x,1/2-y,z
loop_
_atom_site_type_symbol
_atom_site_label
_atom_site_fract_x
_atom_site_fract_y
_atom_site_fract_z
Si Si1 0.500000 0.593365 0.500000
Si Si2 0.692040 0.500000 0.197553
Si Si3 0.558139 0.500000 0.785648
Si Si4 0.653445 0.219191 0.623556
Si Si5 0.255531 0.335392 0.397031
Si Si6 0.123414 0.397880 0.696209
Si Si7 0.440412 0.937782 0.799369
O O1 0.560587 0.553842 0.674379
O O2 0.607803 0.632811 0.504737
O O3 0.574169 0.500000 0.221162
O O4 0.772921 0.442104 0.287139
O O5 0.655266 0.500000 0.996520
O O6 0.500000 0.231185 0.500000
O O7 0.727388 0.279451 0.693745
O O8 0.707093 0.190055 0.514900
O O9 0.671952 0.167459 0.752137
O O10 0.154933 0.384419 0.280852
O O11 0.000000 0.393397 0.500000
O O12 0.062465 0.426435 0.790165
O O13 0.379491 0.000000 0.714947
O O14 0.500000 0.941100 0.000000
#
# Coordination Sequence:
#
# PCOD9204072 Si02
#       7
#     4   4   4   8   8   8   8
#     4  11  24  38  64  94 116 171 206 250 304 385
#     4  11  23  42  60  90 130 166 197 266 317 373
#     4  10  26  40  59  89 133 163 202 247 317 386
#     4  10  20  40  64  94 119 162 211 262 303 372
#     4  11  22  39  66  90 128 159 212 257 312 373
#     4  11  21  38  67  94 119 159 217 260 311 365
#     4  11  25  39  62  97 128 161 204 269 323 363
#
# _framework density 19.76839
#
# number of rings (size 3 to 8) (size 9 to 14) (size 15 to 20)
#    0.000    1.273    5.455    1.364    5.091    0.000 
#    0.000    0.909   12.000    0.000    0.000    0.000 
#    0.000    0.000    0.000    0.000    0.000    0.000 
#
# Total GULP energy -122653.905779 kJ/mol
# GULP energy per Si atom -5575.177535 kJ/mol
# Density = 1.972340 g / cm^3
# Si number density = 19.768390 Si / 1000 Ang^3
#
#
#
# Elastic Constant Matrix: (Units=GPa)
#
#
# Indices 1 2 3 4 5 6 
#
# 1 103.0036 36.4193 7.4381 0.0000 3.9263 0.0000
# 2 36.4193 177.0771 18.8707 0.0000 12.9444 0.0000
# 3 7.4381 18.8707 29.9369 0.0000 -13.2954 0.0000
# 4 0.0000 0.0000 0.0000 -71.0572 0.0000 5.2044
# 5 3.9263 12.9444 -13.2954 0.0000 28.9382 0.0000
# 6 0.0000 0.0000 0.0000 5.2044 0.0000 42.9804
#
#
#
# Elastic Compliance Matrix: (Units=1/GPa)
#
#
# Indices 1 2 3 4 5 6 
#
# 1 0.010573 -0.001820 -0.002205 0.000000 -0.001634 0.000000
# 2 -0.001820 0.007189 -0.006782 0.000000 -0.006085 0.000000
# 3 -0.002205 -0.006782 0.049885 0.000000 0.026252 0.000000
# 4 0.000000 0.000000 0.000000 -0.013949 0.000000 0.001689
# 5 -0.001634 -0.006085 0.026252 0.000000 0.049561 0.000000
# 6 0.000000 0.000000 0.000000 0.001689 0.000000 0.023062
#
#
# Mechanical properties :
#
#
# Convention : Reuss Voigt Hill
#
# Bulk Modulus (GPa) = 21.72319 48.38601 35.05460
# Shear Modulus (GPa) = 30.62218 16.65825 23.64022
#
# Velocity S-wave (km/s) = 3.94006 2.90603 3.46187
# Velocity P-wave (km/s) = 5.63130 5.98244 5.80952
#
# Compressibility (1/GPa) = 0.04603375
#
# Stress axis : x y z
#
# Youngs Moduli (GPa) = 94.57617 139.09910 20.04596
#
# Poissons Ratio (x) = 0.25319 0.04421
# Poissons Ratio (y) = 0.17215 0.13595
# Poissons Ratio (z) = 0.20856 0.94333
#
# Static dielectric constant tensor:
#      x y z
#    x 1.702580 0.000000 -0.001760 
#    y 0.000000 1.749970 0.000000 
#    z -0.001760 0.000000 1.674000 
# 
# From -- ./inp_files/51599.got.cif
#   From: 2010.05.17/outbox.cif.g08.bks.cpg/sg12_26_cif.got.tgz:51599.got - 2010.06.03 13:09:07.
