data_PCOD9204396
_publ_section_title
;
Structure prediction by ZEFSAII (Michael W. Deem and Ramdas Pophale) SiO2 
 PCOD9204396
Probable space group: C 2/M
;
_chemical_formula_sum "Si O2"
_cell_formula_units_Z 56
_cell_length_a 20.721633
_cell_length_b 8.818614
_cell_length_c 16.272928
_cell_angle_alpha 90.000000
_cell_angle_beta 81.804299
_cell_angle_gamma 90.000000
_cell_volume 2943.281012
_symmetry_space_group_name_H-M "C 2/M"
_symmetry_group_IT_number 12
_symmetry_cell_setting 'monoclinic'
loop_
_space_group_symop_operation_xyz
x,y,z
-x,y,-z
-x,-y,-z
x,-y,z
1/2+x,1/2+y,z
1/2-x,1/2+y,-z
1/2-x,1/2-y,-z
1/2+x,1/2-y,z
loop_
_atom_site_type_symbol
_atom_site_label
_atom_site_fract_x
_atom_site_fract_y
_atom_site_fract_z
Si Si1 0.090389 0.818287 0.692249
Si Si2 0.575487 0.318216 0.503426
Si Si3 0.717867 0.181738 0.749591
Si Si4 0.935006 0.317147 0.962667
Si Si5 0.445032 0.318235 0.780284
Si Si6 0.203703 0.682232 0.939208
Si Si7 0.348798 0.819535 0.661270
O O1 0.091356 0.783418 0.595006
O O2 0.148241 0.733433 0.727753
O O3 0.019034 0.779132 0.740415
O O4 0.098733 0.000000 0.700024
O O5 0.500000 0.278517 0.500000
O O6 0.581470 0.500000 0.490264
O O7 0.621291 0.235629 0.430235
O O8 0.722756 0.230850 0.844089
O O9 0.776576 0.255388 0.688490
O O10 0.723098 0.000000 0.745271
O O11 0.936177 0.500000 0.952088
O O12 0.932448 0.241169 0.874068
O O13 0.870790 0.276785 0.026127
O O14 0.000000 0.272465 0.000000
O O15 0.438203 0.500000 0.778134
O O16 0.394994 0.246228 0.724800
O O17 0.208442 0.500000 0.941174
O O18 0.250000 0.750000 0.000000
O O19 0.348234 0.000000 0.665479
#
# Coordination Sequence:
#
# PCOD9204396 Si02
#       7
#     8   8   8   8   8   8   8
#     4  10  22  40  64  91 123 161 200 249 305 359
#     4  10  20  41  67  91 123 161 200 248 304 358
#     4  11  24  42  63  89 123 163 205 250 306 365
#     4  10  21  38  59  86 120 156 200 255 308 358
#     4  11  22  39  62  90 122 160 206 252 304 364
#     4  10  22  39  60  85 116 157 201 248 301 357
#     4  12  25  40  62  92 124 158 203 253 302 362
#
# _framework density 19.026387
#
# number of rings (size 3 to 8) (size 9 to 14) (size 15 to 20)
#    0.000    1.429    1.429    3.857    0.000    8.000 
#    0.000    0.000    0.000    0.000    0.000    0.000 
#    0.000    0.000    0.000    0.000    0.000    0.000 
#
# Total GULP energy -156593.099782 kJ/mol
# GULP energy per Si atom -5592.610706 kJ/mol
# Density = 1.898308 g / cm^3
# Si number density = 19.026387 Si / 1000 Ang^3
#
#
#
# Elastic Constant Matrix: (Units=GPa)
#
#
# Indices 1 2 3 4 5 6 
#
# 1 61.0530 19.0638 -10.1661 0.0000 -6.9901 0.0000
# 2 19.0638 37.5042 20.1019 0.0000 -7.2362 0.0000
# 3 -10.1661 20.1019 63.6396 0.0000 -12.2725 0.0000
# 4 0.0000 0.0000 0.0000 32.4007 0.0000 2.3585
# 5 -6.9901 -7.2362 -12.2725 0.0000 34.7659 0.0000
# 6 0.0000 0.0000 0.0000 2.3585 0.0000 32.9595
#
#
#
# Elastic Compliance Matrix: (Units=1/GPa)
#
#
# Indices 1 2 3 4 5 6 
#
# 1 0.023717 -0.016434 0.009915 0.000000 0.004848 0.000000
# 2 -0.016434 0.043849 -0.016475 0.000000 0.000007 0.000000
# 3 0.009915 -0.016475 0.023848 0.000000 0.006983 0.000000
# 4 0.000000 0.000000 0.000000 0.031025 0.000000 -0.002220
# 5 0.004848 0.000007 0.006983 0.000000 0.032205 0.000000
# 6 0.000000 0.000000 0.000000 -0.002220 0.000000 0.030499
#
#
# Mechanical properties :
#
#
# Convention : Reuss Voigt Hill
#
# Bulk Modulus (GPa) = 22.01435 24.46622 23.24029
# Shear Modulus (GPa) = 20.30269 28.90502 24.60386
#
# Velocity S-wave (km/s) = 3.27016 3.90193 3.59993
# Velocity P-wave (km/s) = 5.08470 5.76082 5.43329
#
# Compressibility (1/GPa) = 0.04542492
#
# Stress axis : x y z
#
# Youngs Moduli (GPa) = 42.16434 22.80555 41.93274
#
# Poissons Ratio (x) = 0.37479 -0.41575
# Poissons Ratio (y) = 0.69294 0.69082
# Poissons Ratio (z) = -0.41804 0.37571
#
# Static dielectric constant tensor:
#      x y z
#    x 1.638120 0.000000 -0.004640 
#    y 0.000000 1.636560 0.000000 
#    z -0.004640 0.000000 1.630620 
# 
# From -- ./inp_files/230984.got.cif
#   From: 2010.05.17/outbox.cif.g08.bks.cpg/sg12_116_cif.got.tgz:230984.got - 2010.06.03 13:09:07.
