data_PCOD9204781
_publ_section_title
;
Structure prediction by ZEFSAII (Michael W. Deem and Ramdas Pophale) SiO2 
 PCOD9204781
Probable space group: C 2/M
;
_chemical_formula_sum "Si O2"
_cell_formula_units_Z 48
_cell_length_a 10.834978
_cell_length_b 22.483289
_cell_length_c 18.599275
_cell_angle_alpha 90.000000
_cell_angle_beta 148.769766
_cell_angle_gamma 90.000000
_cell_volume 2349.170159
_symmetry_space_group_name_H-M "C 2/M"
_symmetry_group_IT_number 12
_symmetry_cell_setting 'monoclinic'
loop_
_space_group_symop_operation_xyz
x,y,z
-x,y,-z
-x,-y,-z
x,-y,z
1/2+x,1/2+y,z
1/2-x,1/2+y,-z
1/2-x,1/2-y,-z
1/2+x,1/2-y,z
loop_
_atom_site_type_symbol
_atom_site_label
_atom_site_fract_x
_atom_site_fract_y
_atom_site_fract_z
Si Si1 0.003359 0.221904 0.899502
Si Si2 0.664520 0.673598 0.765333
Si Si3 0.702154 0.404861 0.049260
Si Si4 0.769916 0.236526 0.630058
Si Si5 0.765991 0.063583 0.101048
Si Si6 0.236386 0.626951 0.342915
O O1 0.844053 0.270325 0.863431
O O2 0.871336 0.216387 0.757660
O O3 0.250000 0.250000 0.000000
O O4 0.085604 0.160210 0.974980
O O5 0.410140 0.704863 0.636487
O O6 0.648563 0.624374 0.819589
O O7 0.735055 0.640346 0.727787
O O8 0.971868 0.402855 0.217232
O O9 0.500000 0.432973 0.000000
O O10 0.729232 0.431441 0.982687
O O11 0.500000 0.219777 0.500000
O O12 0.790893 0.307797 0.635448
O O13 0.883525 0.000000 0.179856
O O14 0.500000 0.060812 0.000000
O O15 0.500000 0.602657 0.500000
#
# Coordination Sequence:
#
# PCOD9204781 Si02
#       6
#     8   8   8   8   8   8
#     4  11  20  32  56  90 125 160 204 251 317 373
#     4  11  21  37  63  85 126 164 209 258 308 377
#     4  12  23  37  63  97 126 164 203 270 322 374
#     4  10  21  33  52  87 126 166 202 249 315 384
#     4  11  23  42  68  91 117 163 223 268 303 361
#     4  10  22  37  55  90 133 170 203 249 322 394
#
# _framework density 20.432746999999999
#
# number of rings (size 3 to 8) (size 9 to 14) (size 15 to 20)
#    0.000    1.167    6.667    1.000    0.000    7.667 
#    0.000    0.000    0.000    2.500    0.000    0.000 
#    0.000    0.000    0.000    0.000    0.000    0.000 
#
# Total GULP energy -133705.360039 kJ/mol
# GULP energy per Si atom -5571.056668 kJ/mol
# Density = 2.038624 g / cm^3
# Si number density = 20.432747 Si / 1000 Ang^3
#
#
#
# Elastic Constant Matrix: (Units=GPa)
#
#
# Indices 1 2 3 4 5 6 
#
# 1 126.2306 26.2413 33.6203 -0.0045 21.2653 -0.0032
# 2 26.2413 91.7450 20.5067 0.0104 5.8178 0.0113
# 3 33.6203 20.5067 127.3191 -0.0663 23.0216 -0.0382
# 4 -0.0045 0.0104 -0.0663 7.2286 -0.0012 -6.9557
# 5 21.2653 5.8178 23.0216 -0.0012 38.3757 0.0090
# 6 -0.0032 0.0113 -0.0382 -6.9557 0.0090 -30.4139
#
#
#
# Elastic Compliance Matrix: (Units=1/GPa)
#
#
# Indices 1 2 3 4 5 6 
#
# 1 0.009422 -0.002122 -0.001414 -0.000005 -0.004051 0.000000
# 2 -0.002122 0.011801 -0.001379 -0.000020 0.000214 0.000011
# 3 -0.001414 -0.001379 0.009277 0.000059 -0.004573 -0.000027
# 4 -0.000005 -0.000020 0.000059 0.113388 -0.000020 -0.025932
# 5 -0.004051 0.000214 -0.004573 -0.000020 0.031014 0.000020
# 6 0.000000 0.000011 -0.000027 -0.025932 0.000020 -0.026949
#
#
# Mechanical properties :
#
#
# Convention : Reuss Voigt Hill
#
# Bulk Modulus (GPa) = 48.37869 56.22570 52.30219
# Shear Modulus (GPa) = 30.36328 20.69983 25.53156
#
# Velocity S-wave (km/s) = 3.85906 3.18633 3.53872
# Velocity P-wave (km/s) = 6.60189 6.41203 6.50765
#
# Compressibility (1/GPa) = 0.02067026
#
# Stress axis : x y z
#
# Youngs Moduli (GPa) = 106.13248 84.73546 107.79875
#
# Poissons Ratio (x) = 0.17981 0.15240
# Poissons Ratio (y) = 0.22522 0.14867
# Poissons Ratio (z) = 0.15004 0.11687
#
# Static dielectric constant tensor:
#      x y z
#    x 1.763320 0.000000 -0.021780 
#    y 0.000000 1.758850 0.000010 
#    z -0.021780 0.000010 1.753100 
# 
# From -- ./inp_files/306838.got.cif
#   From: 2010.05.17/outbox.cif.g08.bks.cpg/sg12_154_cif.got.tgz:306838.got - 2010.06.03 13:09:07.
