data_PCOD9204721
_publ_section_title
;
Structure prediction by ZEFSAII (Michael W. Deem and Ramdas Pophale) SiO2 
 PCOD9204721
Probable space group: C 2/M
;
_chemical_formula_sum "Si O2"
_cell_formula_units_Z 56
_cell_length_a 19.565783
_cell_length_b 25.432801
_cell_length_c 9.096168
_cell_angle_alpha 90.000000
_cell_angle_beta 44.189934
_cell_angle_gamma 90.000000
_cell_volume 3155.055948
_symmetry_space_group_name_H-M "C 2/M"
_symmetry_group_IT_number 12
_symmetry_cell_setting 'monoclinic'
loop_
_space_group_symop_operation_xyz
x,y,z
-x,y,-z
-x,-y,-z
x,-y,z
1/2+x,1/2+y,z
1/2-x,1/2+y,-z
1/2-x,1/2-y,-z
1/2+x,1/2-y,z
loop_
_atom_site_type_symbol
_atom_site_label
_atom_site_fract_x
_atom_site_fract_y
_atom_site_fract_z
Si Si1 0.906608 0.558559 0.753351
Si Si2 0.382870 0.228273 0.679747
Si Si3 0.698820 0.119726 0.314829
Si Si4 0.983959 0.368834 0.193338
Si Si5 0.783458 0.208377 0.574291
Si Si6 0.607046 0.344111 0.843420
Si Si7 0.099592 0.731281 0.016313
O O1 0.893727 0.500000 0.834753
O O2 0.819985 0.575357 0.777551
O O3 0.935601 0.601631 0.829764
O O4 0.000000 0.558008 0.500000
O O5 0.500000 0.221720 0.500000
O O6 0.332235 0.173509 0.718347
O O7 0.347578 0.267199 0.606559
O O8 0.361622 0.243555 0.880463
O O9 0.621190 0.117321 0.571158
O O10 0.809244 0.125022 0.198674
O O11 0.003681 0.305664 0.171044
O O12 0.000000 0.384614 0.000000
O O13 0.750000 0.250000 0.500000
O O14 0.846507 0.166530 0.388407
O O15 0.679884 0.195290 0.809059
O O16 0.591302 0.286804 0.946370
O O17 0.500000 0.368958 0.000000
#
# Coordination Sequence:
#
# PCOD9204721 Si02
#       7
#     8   8   8   8   8   8   8
#     4   9  19  37  57  78 103 132 168 213 271 327
#     4  12  19  31  48  70 100 138 180 209 244 305
#     4  11  20  37  52  74 106 140 176 216 259 312
#     4  11  21  31  53  82 108 140 170 212 261 316
#     4  10  21  33  45  68 103 142 177 216 247 288
#     4  11  23  35  49  71 106 146 180 217 250 294
#     4  11  20  31  50  71 106 143 180 203 249 304
#
# _framework density 17.749289000000001
#
# number of rings (size 3 to 8) (size 9 to 14) (size 15 to 20)
#    0.000    1.286    5.714    3.000    2.000    0.286 
#    0.000    0.000    0.000    0.429    0.000    0.000 
#    0.000    4.571    0.000    0.000    0.000    0.000 
#
# Total GULP energy -156206.241248 kJ/mol
# GULP energy per Si atom -5578.794330 kJ/mol
# Density = 1.770889 g / cm^3
# Si number density = 17.749289 Si / 1000 Ang^3
#
#
#
# Elastic Constant Matrix: (Units=GPa)
#
#
# Indices 1 2 3 4 5 6 
#
# 1 128.5299 18.6738 48.8302 0.0000 -5.6504 0.0000
# 2 18.6738 35.9575 1.1051 0.0000 2.2308 0.0000
# 3 48.8302 1.1051 72.0899 0.0000 3.0691 0.0000
# 4 0.0000 0.0000 0.0000 8.2328 0.0000 -0.1436
# 5 -5.6504 2.2308 3.0691 0.0000 43.4977 0.0000
# 6 0.0000 0.0000 0.0000 -0.1436 0.0000 8.7752
#
#
#
# Elastic Compliance Matrix: (Units=1/GPa)
#
#
# Indices 1 2 3 4 5 6 
#
# 1 0.011804 -0.006034 -0.008006 0.000000 0.002408 0.000000
# 2 -0.006034 0.030993 0.003724 0.000000 -0.002636 0.000000
# 3 -0.008006 0.003724 0.019348 0.000000 -0.002596 0.000000
# 4 0.000000 0.000000 0.000000 0.121499 0.000000 0.001988
# 5 0.002408 -0.002636 -0.002596 0.000000 0.023621 0.000000
# 6 0.000000 0.000000 0.000000 0.001988 0.000000 0.113990
#
#
# Mechanical properties :
#
#
# Convention : Reuss Voigt Hill
#
# Bulk Modulus (GPa) = 24.08795 41.53282 32.81039
# Shear Modulus (GPa) = 14.05584 23.29902 18.67743
#
# Velocity S-wave (km/s) = 2.81714 3.62701 3.24742
# Velocity P-wave (km/s) = 4.91756 6.40241 5.70847
#
# Compressibility (1/GPa) = 0.04151453
#
# Stress axis : x y z
#
# Youngs Moduli (GPa) = 84.71586 32.26519 51.68602
#
# Poissons Ratio (x) = 0.19467 0.41378
# Poissons Ratio (y) = 0.51114 -0.19248
# Poissons Ratio (z) = 0.67820 -0.12015
#
# Static dielectric constant tensor:
#      x y z
#    x 1.657820 0.000000 -0.009930 
#    y 0.000000 1.597920 0.000000 
#    z -0.009930 0.000000 1.668370 
# 
# From -- ./inp_files/79649.got.cif
#   From: 2010.05.17/outbox.cif.g08.bks.cpg/sg12_40_cif.got.tgz:79649.got - 2010.06.03 13:09:07.
