data_PCOD9204329
_publ_section_title
;
Structure prediction by ZEFSAII (Michael W. Deem and Ramdas Pophale) SiO2 
 PCOD9204329
Probable space group: C 2/M
;
_chemical_formula_sum "Si O2"
_cell_formula_units_Z 42
_cell_length_a 14.320965
_cell_length_b 22.357499
_cell_length_c 5.215105
_cell_angle_alpha 90.000000
_cell_angle_beta 88.223496
_cell_angle_gamma 90.000000
_cell_volume 1668.974763
_symmetry_space_group_name_H-M "C 2/M"
_symmetry_group_IT_number 12
_symmetry_cell_setting 'monoclinic'
loop_
_space_group_symop_operation_xyz
x,y,z
-x,y,-z
-x,-y,-z
x,-y,z
1/2+x,1/2+y,z
1/2-x,1/2+y,-z
1/2-x,1/2-y,-z
1/2+x,1/2-y,z
loop_
_atom_site_type_symbol
_atom_site_label
_atom_site_fract_x
_atom_site_fract_y
_atom_site_fract_z
Si Si1 0.500000 0.000000 0.500000
Si Si2 0.602800 0.569628 0.482514
Si Si3 0.857093 0.567145 0.281761
Si Si4 0.795532 0.888824 0.027105
Si Si5 0.388709 0.188196 0.525733
Si Si6 0.112532 0.236874 0.975633
O O1 0.466006 0.051870 0.296826
O O2 0.500000 0.598029 0.500000
O O3 0.594194 0.500000 0.545973
O O4 0.645545 0.577237 0.198946
O O5 0.665491 0.596920 0.698448
O O6 0.822498 0.500000 0.377747
O O7 0.807706 0.585243 0.023019
O O8 0.841953 0.625394 0.456609
O O9 0.823208 0.820189 0.977066
O O10 0.500000 0.180851 0.500000
O O11 0.368480 0.214380 0.805744
O O12 0.366004 0.235961 0.304823
O O13 0.000000 0.222476 0.000000
#
# Coordination Sequence:
#
# PCOD9204329 Si02
#       6
#     2   8   8   8   8   8
#     4   8  20  44  72  98 122 186 212 278 334 386
#     4  11  23  40  63  92 133 176 218 264 327 388
#     4  10  21  41  71  94 133 166 230 274 332 378
#     4  12  24  40  65  99 133 170 217 271 318 390
#     4  10  20  41  63  92 127 172 218 266 323 391
#     4  10  22  37  63  92 130 172 212 259 326 392
#
# _framework density 25.165150000000001
#
# number of rings (size 3 to 8) (size 9 to 14) (size 15 to 20)
#    0.571    0.952    0.952    4.571    0.000    6.095 
#    0.000    2.857    0.000    8.000    0.000    0.000 
#    0.000    0.000    0.000    0.000    0.000    0.000 
#
# Total GULP energy -117151.683716 kJ/mol
# GULP energy per Si atom -5578.651606 kJ/mol
# Density = 2.510787 g / cm^3
# Si number density = 25.165150 Si / 1000 Ang^3
#
#
#
# Elastic Constant Matrix: (Units=GPa)
#
#
# Indices 1 2 3 4 5 6 
#
# 1 59.9978 -5.7592 29.2704 0.0000 7.4475 0.0000
# 2 -5.7592 122.1077 -4.6311 0.0000 18.8046 0.0000
# 3 29.2704 -4.6311 82.9485 0.0000 15.1068 0.0000
# 4 0.0000 0.0000 0.0000 51.3453 0.0000 19.2723
# 5 7.4475 18.8046 15.1068 0.0000 34.4556 0.0000
# 6 0.0000 0.0000 0.0000 19.2723 0.0000 24.8218
#
#
#
# Elastic Compliance Matrix: (Units=1/GPa)
#
#
# Indices 1 2 3 4 5 6 
#
# 1 0.020301 0.001006 -0.006747 0.000000 -0.001979 0.000000
# 2 0.001006 0.009168 0.001204 0.000000 -0.005749 0.000000
# 3 -0.006747 0.001204 0.015604 0.000000 -0.006040 0.000000
# 4 0.000000 0.000000 0.000000 0.027486 0.000000 -0.021341
# 5 -0.001979 -0.005749 -0.006040 0.000000 0.035236 0.000000
# 6 0.000000 0.000000 0.000000 -0.021341 0.000000 0.056857
#
#
# Mechanical properties :
#
#
# Convention : Reuss Voigt Hill
#
# Bulk Modulus (GPa) = 27.77872 33.64603 30.71238
# Shear Modulus (GPa) = 26.92139 38.53614 32.72876
#
# Velocity S-wave (km/s) = 3.27431 3.91747 3.61024
# Velocity P-wave (km/s) = 5.03561 5.81904 5.44144
#
# Compressibility (1/GPa) = 0.03599878
#
# Stress axis : x y z
#
# Youngs Moduli (GPa) = 49.25818 109.07594 64.08708
#
# Poissons Ratio (x) = -0.10977 0.43240
# Poissons Ratio (y) = -0.04957 -0.07714
# Poissons Ratio (z) = 0.33235 -0.13130
#
# Static dielectric constant tensor:
#      x y z
#    x 2.333810 0.000000 0.089360 
#    y 0.000000 1.953000 0.000000 
#    z 0.089360 0.000000 1.946800 
# 
# From -- ./inp_files/21068.got.cif
#   From: 2010.05.17/outbox.cif.g08.bks.cpg/sg12_11_cif.got.tgz:21068.got - 2010.06.03 13:09:07.
