data_PCOD9204269
_publ_section_title
;
Structure prediction by ZEFSAII (Michael W. Deem and Ramdas Pophale) SiO2 
 PCOD9204269
Probable space group: C 2/M
;
_chemical_formula_sum "Si O2"
_cell_formula_units_Z 44
_cell_length_a 19.473274
_cell_length_b 7.447040
_cell_length_c 12.101471
_cell_angle_alpha 90.000000
_cell_angle_beta 75.883661
_cell_angle_gamma 90.000000
_cell_volume 1701.939535
_symmetry_space_group_name_H-M "C 2/M"
_symmetry_group_IT_number 12
_symmetry_cell_setting 'monoclinic'
loop_
_space_group_symop_operation_xyz
x,y,z
-x,y,-z
-x,-y,-z
x,-y,z
1/2+x,1/2+y,z
1/2-x,1/2+y,-z
1/2-x,1/2-y,-z
1/2+x,1/2-y,z
loop_
_atom_site_type_symbol
_atom_site_label
_atom_site_fract_x
_atom_site_fract_y
_atom_site_fract_z
Si Si1 0.245679 0.500000 0.801457
Si Si2 0.667148 0.712527 0.524224
Si Si3 0.815410 0.703022 0.894513
Si Si4 0.937848 0.218416 0.609204
Si Si5 0.965252 0.783874 0.848243
Si Si6 0.376886 0.717720 0.210678
O O1 0.306624 0.346094 0.801930
O O2 0.185452 0.341407 0.810595
O O3 0.661167 0.500000 0.513852
O O4 0.750000 0.750000 0.500000
O O5 0.630798 0.788472 0.429440
O O6 0.628670 0.754037 0.654400
O O7 0.808106 0.500000 0.861476
O O8 0.890155 0.725710 0.928303
O O9 0.750000 0.750000 0.000000
O O10 0.954656 0.281118 0.725789
O O11 0.000000 0.266004 0.500000
O O12 0.938408 0.000000 0.615798
O O13 0.043347 0.731448 0.857343
O O14 0.966282 0.000000 0.851823
O O15 0.366710 0.500000 0.197858
#
# Coordination Sequence:
#
# PCOD9204269 Si02
#       6
#     4   8   8   8   8   8
#     4  12  26  46  75 103 138 184 219 290 353 414
#     4  10  21  34  55  88 136 185 231 287 336 402
#     4  12  26  49  77 107 136 175 231 291 359 431
#     4   9  16  32  59  91 129 183 234 273 332 396
#     4  10  20  40  70 103 143 188 235 294 349 416
#     4  10  23  42  66 103 145 184 233 284 351 418
#
# _framework density 25.85286
#
# number of rings (size 3 to 8) (size 9 to 14) (size 15 to 20)
#    0.000    1.636    3.636    0.545    5.091    0.000 
#    0.000    1.818    0.000    5.455    0.000    0.000 
#    0.000    0.000    0.000    0.000    0.000    0.000 
#
# Total GULP energy -122600.858971 kJ/mol
# GULP energy per Si atom -5572.766317 kJ/mol
# Density = 2.579402 g / cm^3
# Si number density = 25.852860 Si / 1000 Ang^3
#
#
#
# Elastic Constant Matrix: (Units=GPa)
#
#
# Indices 1 2 3 4 5 6 
#
# 1 192.5827 42.8735 23.4089 0.0000 6.1634 0.0000
# 2 42.8735 162.8183 14.2756 0.0000 9.7662 0.0000
# 3 23.4089 14.2756 57.0219 0.0000 -3.8079 0.0000
# 4 0.0000 0.0000 0.0000 53.1704 0.0000 -30.3080
# 5 6.1634 9.7662 -3.8079 0.0000 42.2055 0.0000
# 6 0.0000 0.0000 0.0000 -30.3080 0.0000 61.5371
#
#
#
# Elastic Compliance Matrix: (Units=1/GPa)
#
#
# Indices 1 2 3 4 5 6 
#
# 1 0.005757 -0.001289 -0.002089 0.000000 -0.000731 0.000000
# 2 -0.001289 0.006678 -0.001241 0.000000 -0.001469 0.000000
# 3 -0.002089 -0.001241 0.018859 0.000000 0.002294 0.000000
# 4 0.000000 0.000000 0.000000 0.026148 0.000000 0.012879
# 5 -0.000731 -0.001469 0.002294 0.000000 0.024347 0.000000
# 6 0.000000 0.000000 0.000000 0.012879 0.000000 0.022593
#
#
# Mechanical properties :
#
#
# Convention : Reuss Voigt Hill
#
# Bulk Modulus (GPa) = 45.34061 63.72655 54.53358
# Shear Modulus (GPa) = 41.33159 53.50693 47.41926
#
# Velocity S-wave (km/s) = 4.00274 4.55430 4.28740
# Velocity P-wave (km/s) = 6.24008 7.23593 6.75638
#
# Compressibility (1/GPa) = 0.02205528
#
# Stress axis : x y z
#
# Youngs Moduli (GPa) = 173.70513 149.74289 53.02580
#
# Poissons Ratio (x) = 0.19300 0.11080
# Poissons Ratio (y) = 0.22388 0.06580
# Poissons Ratio (z) = 0.36295 0.18581
#
# Static dielectric constant tensor:
#      x y z
#    x 2.025440 0.000000 -0.018370 
#    y 0.000000 1.988650 0.000000 
#    z -0.018370 0.000000 1.568440 
# 
# From -- ./inp_files/220843.got.cif
#   From: 2010.05.17/outbox.cif.g08.bks.cpg/sg12_111_cif.got.tgz:220843.got - 2010.06.03 13:09:07.
