data_PCOD9204709
_publ_section_title
;
Structure prediction by ZEFSAII (Michael W. Deem and Ramdas Pophale) SiO2 
 PCOD9204709
Probable space group: C 2/M
;
_chemical_formula_sum "Si O2"
_cell_formula_units_Z 32
_cell_length_a 9.482211
_cell_length_b 24.364495
_cell_length_c 6.949933
_cell_angle_alpha 90.000000
_cell_angle_beta 133.641597
_cell_angle_gamma 90.000000
_cell_volume 1161.953688
_symmetry_space_group_name_H-M "C 2/M"
_symmetry_group_IT_number 12
_symmetry_cell_setting 'monoclinic'
loop_
_space_group_symop_operation_xyz
x,y,z
-x,y,-z
-x,-y,-z
x,-y,z
1/2+x,1/2+y,z
1/2-x,1/2+y,-z
1/2-x,1/2-y,-z
1/2+x,1/2-y,z
loop_
_atom_site_type_symbol
_atom_site_label
_atom_site_fract_x
_atom_site_fract_y
_atom_site_fract_z
Si Si1 0.721677 0.940013 0.274812
Si Si2 0.289063 0.179172 0.108315
Si Si3 0.000000 0.741676 0.000000
Si Si4 0.294552 0.440639 0.910677
Si Si5 0.500000 0.352866 0.500000
O O1 0.830927 0.887486 0.456271
O O2 0.730346 0.000000 0.378404
O O3 0.500000 0.930336 0.000000
O O4 0.830061 0.944603 0.172432
O O5 0.123531 0.176346 0.782390
O O6 0.189674 0.218851 0.170242
O O7 0.470572 0.204120 0.162282
O O8 0.314577 0.117334 0.209525
O O9 0.202215 0.500000 0.775665
O O10 0.500000 0.437135 0.000000
#
# Coordination Sequence:
#
# PCOD9204709 Si02
#       5
#     8   8   4   8   4
#     4   9  18  33  56  86 121 159 194 236 293 360
#     4  10  21  38  59  87 113 157 199 249 297 355
#     4  10  22  40  62  78 118 160 208 242 298 358
#     4   9  17  31  55  85 116 149 186 232 299 359
#     4  10  21  32  58  90 118 146 199 250 302 342
#
# _framework density 27.539822000000001
#
# number of rings (size 3 to 8) (size 9 to 14) (size 15 to 20)
#    0.000    2.500    1.250    0.375    7.000    2.000 
#    0.000    0.000    0.000   12.000    0.000   29.750 
#    0.000    0.000    0.000    0.000    0.000    0.000 
#
# Total GULP energy -89314.302706 kJ/mol
# GULP energy per Si atom -5582.143919 kJ/mol
# Density = 2.747714 g / cm^3
# Si number density = 27.539822 Si / 1000 Ang^3
#
#
#
# Elastic Constant Matrix: (Units=GPa)
#
#
# Indices 1 2 3 4 5 6 
#
# 1 163.9671 71.3123 15.3616 0.0000 -7.0223 0.0000
# 2 71.3123 243.7726 11.2771 0.0000 21.8103 0.0000
# 3 15.3616 11.2771 119.9345 0.0000 3.7872 0.0000
# 4 0.0000 0.0000 0.0000 -6.7089 0.0000 4.4764
# 5 -7.0223 21.8103 3.7872 0.0000 23.1111 0.0000
# 6 0.0000 0.0000 0.0000 4.4764 0.0000 25.2974
#
#
#
# Elastic Compliance Matrix: (Units=1/GPa)
#
#
# Indices 1 2 3 4 5 6 
#
# 1 0.007518 -0.002595 -0.000873 0.000000 0.004877 0.000000
# 2 -0.002595 0.005386 0.000011 0.000000 -0.005874 0.000000
# 3 -0.000873 0.000011 0.008501 0.000000 -0.001669 0.000000
# 4 0.000000 0.000000 0.000000 -0.133315 0.000000 0.023590
# 5 0.004877 -0.005874 -0.001669 0.000000 0.050568 0.000000
# 6 0.000000 0.000000 0.000000 0.023590 0.000000 0.035355
#
#
# Mechanical properties :
#
#
# Convention : Reuss Voigt Hill
#
# Bulk Modulus (GPa) = 69.00197 80.39735 74.69966
# Shear Modulus (GPa) = -351.06948 36.98814 -157.04067
#
# Velocity S-wave (km/s) = -11.30282 3.66878 -7.55956
# Velocity P-wave (km/s) = 12.05108 6.87045 7.00091
#
# Compressibility (1/GPa) = 0.01449234
#
# Stress axis : x y z
#
# Youngs Moduli (GPa) = 133.01161 185.65355 117.62872
#
# Poissons Ratio (x) = 0.48182 0.10268
# Poissons Ratio (y) = 0.34520 -0.00134
# Poissons Ratio (z) = 0.11611 -0.00212
#
# Static dielectric constant tensor:
#      x y z
#    x 2.142350 0.000000 -0.021240 
#    y 0.000000 2.348130 0.000000 
#    z -0.021240 0.000000 2.137570 
# 
# From -- ./inp_files/52188.got.cif
#   From: 2010.05.17/outbox.cif.g08.bks.cpg/sg12_27_cif.got.tgz:52188.got - 2010.06.03 13:09:07.
