data_PCOD9204112
_publ_section_title
;
Structure prediction by ZEFSAII (Michael W. Deem and Ramdas Pophale) SiO2 
 PCOD9204112
Probable space group: C 2/M
;
_chemical_formula_sum "Si O2"
_cell_formula_units_Z 64
_cell_length_a 29.131314
_cell_length_b 8.387436
_cell_length_c 23.732321
_cell_angle_alpha 90.000000
_cell_angle_beta 31.793591
_cell_angle_gamma 90.000000
_cell_volume 3055.099313
_symmetry_space_group_name_H-M "C 2/M"
_symmetry_group_IT_number 12
_symmetry_cell_setting 'monoclinic'
loop_
_space_group_symop_operation_xyz
x,y,z
-x,y,-z
-x,-y,-z
x,-y,z
1/2+x,1/2+y,z
1/2-x,1/2+y,-z
1/2-x,1/2-y,-z
1/2+x,1/2-y,z
loop_
_atom_site_type_symbol
_atom_site_label
_atom_site_fract_x
_atom_site_fract_y
_atom_site_fract_z
Si Si1 0.151069 0.307267 0.608248
Si Si2 0.017357 0.310286 0.279761
Si Si3 0.670452 0.688643 0.045608
Si Si4 0.883216 0.316267 0.590683
Si Si5 0.865453 0.692702 0.034778
Si Si6 0.556880 0.316973 0.359869
Si Si7 0.697011 0.192770 0.775676
Si Si8 0.934412 0.305951 0.184926
O O1 0.151715 0.500000 0.606880
O O2 0.250000 0.250000 0.500000
O O3 0.080703 0.255843 0.634150
O O4 0.110654 0.254060 0.710168
O O5 0.015096 0.500000 0.289880
O O6 0.082190 0.269834 0.160877
O O7 0.055897 0.234458 0.296176
O O8 0.661974 0.500000 0.060246
O O9 0.750000 0.750000 0.000000
O O10 0.684497 0.735496 0.966136
O O11 0.904599 0.500000 0.557016
O O12 0.887238 0.283943 0.653704
O O13 0.789309 0.270419 0.665861
O O14 0.957936 0.208976 0.484842
O O15 0.862378 0.500000 0.033848
O O16 0.829724 0.737236 0.133090
O O17 0.966012 0.745831 0.924649
O O18 0.583726 0.500000 0.337230
O O19 0.623538 0.241552 0.807927
O O20 0.705408 0.000000 0.764747
O O21 0.936106 0.500000 0.183864
#
# Coordination Sequence:
#
# PCOD9204112 Si02
#       8
#     8   8   8   8   8   8   8   8
#     4  10  22  39  62  91 128 165 207 256 310 374
#     4  11  23  43  67  95 128 165 207 259 319 376
#     4  12  26  43  65  93 126 167 212 261 315 377
#     4  11  23  41  61  88 126 164 203 254 311 364
#     4  10  20  40  65  90 123 160 205 258 313 371
#     4  11  23  41  65  90 121 160 207 254 307 371
#     4  10  21  36  63  94 121 157 208 257 306 369
#     4   9  18  38  63  90 120 160 203 255 311 365
#
# _framework density 20.948582999999999
#
# number of rings (size 3 to 8) (size 9 to 14) (size 15 to 20)
#    0.000    1.500    1.250    4.875    3.500    3.000 
#    0.000    0.625    0.000    1.500    0.000    0.000 
#    0.000    0.000    0.000    0.000    0.000    0.000 
#
# Total GULP energy -178945.171772 kJ/mol
# GULP energy per Si atom -5592.036618 kJ/mol
# Density = 2.090090 g / cm^3
# Si number density = 20.948583 Si / 1000 Ang^3
#
#
#
# Elastic Constant Matrix: (Units=GPa)
#
#
# Indices 1 2 3 4 5 6 
#
# 1 90.6231 -0.6138 -8.5713 0.0038 -5.7288 -0.0009
# 2 -0.6138 26.9262 -6.8650 -0.0001 -0.5993 0.0039
# 3 -8.5713 -6.8650 33.2984 0.0121 -10.0180 -0.0039
# 4 0.0038 -0.0001 0.0121 25.3509 0.0000 0.6568
# 5 -5.7288 -0.5993 -10.0180 0.0000 39.8869 -0.0030
# 6 -0.0009 0.0039 -0.0039 0.6568 -0.0030 27.4609
#
#
#
# Elastic Compliance Matrix: (Units=1/GPa)
#
#
# Indices 1 2 3 4 5 6 
#
# 1 0.011602 0.001366 0.004084 -0.000004 0.002713 0.000001
# 2 0.001366 0.039658 0.009483 -0.000004 0.003174 -0.000004
# 3 0.004084 0.009483 0.035976 -0.000018 0.009765 0.000005
# 4 -0.000004 -0.000004 -0.000018 0.039471 -0.000005 -0.000944
# 5 0.002713 0.003174 0.009765 -0.000005 0.027961 0.000004
# 6 0.000001 -0.000004 0.000005 -0.000944 0.000004 0.036438
#
#
# Mechanical properties :
#
#
# Convention : Reuss Voigt Hill
#
# Bulk Modulus (GPa) = 8.53963 13.19416 10.86690
# Shear Modulus (GPa) = 24.96597 29.66627 27.31612
#
# Velocity S-wave (km/s) = 3.45595 3.76726 3.61496
# Velocity P-wave (km/s) = 4.47327 5.02344 4.75632
#
# Compressibility (1/GPa) = 0.11710113
#
# Stress axis : x y z
#
# Youngs Moduli (GPa) = 86.19402 25.21555 27.79669
#
# Poissons Ratio (x) = -0.03445 -0.11353
# Poissons Ratio (y) = -0.11775 -0.26359
# Poissons Ratio (z) = -0.35203 -0.23911
#
# Static dielectric constant tensor:
#      x y z
#    x 1.743920 0.000000 0.007530 
#    y 0.000000 1.725130 0.000010 
#    z 0.007530 0.000010 1.739770 
# 
# From -- ./inp_files/353421.got.cif
#   From: 2010.05.17/outbox.cif.g08.bks.cpg/sg12_177_cif.got.tgz:353421.got - 2010.06.03 13:09:07.
