data_PCOD9204790
_publ_section_title
;
Structure prediction by ZEFSAII (Michael W. Deem and Ramdas Pophale) SiO2 
 PCOD9204790
Probable space group: C 2/M
;
_chemical_formula_sum "Si O2"
_cell_formula_units_Z 64
_cell_length_a 13.788436
_cell_length_b 24.498364
_cell_length_c 8.294597
_cell_angle_alpha 90.000000
_cell_angle_beta 91.849718
_cell_angle_gamma 90.000000
_cell_volume 2800.406153
_symmetry_space_group_name_H-M "C 2/M"
_symmetry_group_IT_number 12
_symmetry_cell_setting 'monoclinic'
loop_
_space_group_symop_operation_xyz
x,y,z
-x,y,-z
-x,-y,-z
x,-y,z
1/2+x,1/2+y,z
1/2-x,1/2+y,-z
1/2-x,1/2-y,-z
1/2+x,1/2-y,z
loop_
_atom_site_type_symbol
_atom_site_label
_atom_site_fract_x
_atom_site_fract_y
_atom_site_fract_z
Si Si1 0.440239 0.824063 0.662554
Si Si2 0.068798 0.796091 0.342635
Si Si3 0.719430 0.061569 0.129641
Si Si4 0.031774 0.559586 0.313563
Si Si5 0.752133 0.853423 0.529644
Si Si6 0.380050 0.562532 0.359073
Si Si7 0.723600 0.936642 0.790016
Si Si8 0.051567 0.091216 0.171744
O O1 0.500000 0.819817 0.500000
O O2 0.446757 0.763702 0.734312
O O3 0.483789 0.878340 0.748569
O O4 0.327654 0.834880 0.604266
O O5 0.182527 0.804210 0.397956
O O6 0.047688 0.844781 0.217201
O O7 0.000000 0.801174 0.500000
O O8 0.646159 0.057863 0.275187
O O9 0.819550 0.084445 0.199449
O O10 0.852005 0.000000 0.394582
O O11 0.677091 0.081630 0.958951
O O12 0.997505 0.500000 0.243951
O O13 0.000000 0.558974 0.500000
O O14 0.838562 0.894716 0.481900
O O15 0.696533 0.892076 0.654824
O O16 0.205020 0.500000 0.742306
O O17 0.490619 0.563691 0.312740
O O18 0.838676 0.929428 0.824192
O O19 0.744085 0.000000 0.083145
O O20 0.000000 0.079078 0.000000
#
# Coordination Sequence:
#
# PCOD9204790 Si02
#       8
#     8   8   8   8   8   8   8   8
#     4  10  21  37  61  82 109 147 202 253 305 351
#     4  10  21  38  57  82 115 156 199 246 298 351
#     4   9  17  31  51  81 117 152 184 226 288 357
#     4   9  17  31  56  85 104 130 183 243 293 347
#     4  11  21  36  57  83 116 155 200 255 295 351
#     4  11  20  31  55  87 119 158 197 237 287 355
#     4  10  21  33  53  86 125 160 190 236 300 363
#     4  11  21  35  56  83 125 163 200 235 288 356
#
# _framework density 22.853826000000002
#
# number of rings (size 3 to 8) (size 9 to 14) (size 15 to 20)
#    0.000    1.875    3.750    1.125    0.000    1.000 
#    0.000    1.875    5.500    4.500    0.000   11.375 
#    0.000    0.000    0.000    0.000    0.000    0.000 
#
# Total GULP energy -178157.464107 kJ/mol
# GULP energy per Si atom -5567.420753 kJ/mol
# Density = 2.280181 g / cm^3
# Si number density = 22.853826 Si / 1000 Ang^3
#
#
#
# Elastic Constant Matrix: (Units=GPa)
#
#
# Indices 1 2 3 4 5 6 
#
# 1 113.5867 7.6644 7.6261 0.0000 -8.1255 0.0000
# 2 7.6644 152.7174 -5.3205 0.0000 -2.2661 0.0000
# 3 7.6261 -5.3205 45.8889 0.0000 -12.2717 0.0000
# 4 0.0000 0.0000 0.0000 1.3060 0.0000 -22.1123
# 5 -8.1255 -2.2661 -12.2717 0.0000 30.0714 0.0000
# 6 0.0000 0.0000 0.0000 -22.1123 0.0000 -12.1004
#
#
#
# Elastic Compliance Matrix: (Units=1/GPa)
#
#
# Indices 1 2 3 4 5 6 
#
# 1 0.009046 -0.000460 -0.001024 0.000000 0.001992 0.000000
# 2 -0.000460 0.006620 0.001060 0.000000 0.000807 0.000000
# 3 -0.001024 0.001060 0.024731 0.000000 0.009896 0.000000
# 4 0.000000 0.000000 0.000000 0.023973 0.000000 -0.043808
# 5 0.001992 0.000807 0.009896 0.000000 0.037892 0.000000
# 6 0.000000 0.000000 0.000000 -0.043808 0.000000 -0.002587
#
#
# Mechanical properties :
#
#
# Convention : Reuss Voigt Hill
#
# Bulk Modulus (GPa) = 25.28535 36.90368 31.09452
# Shear Modulus (GPa) = 43.97311 24.00359 33.98835
#
# Velocity S-wave (km/s) = 4.39122 3.24436 3.86061
# Velocity P-wave (km/s) = 6.06617 5.49703 5.78859
#
# Compressibility (1/GPa) = 0.03954859
#
# Stress axis : x y z
#
# Youngs Moduli (GPa) = 110.54451 151.05671 40.43489
#
# Poissons Ratio (x) = 0.06950 0.04141
# Poissons Ratio (y) = 0.05086 -0.04285
# Poissons Ratio (z) = 0.11320 -0.16009
#
# Static dielectric constant tensor:
#      x y z
#    x 1.914170 0.000000 0.013610 
#    y 0.000000 1.875010 0.000000 
#    z 0.013610 0.000000 2.013420 
# 
# From -- ./inp_files/65851.got.cif
#   From: 2010.05.17/outbox.cif.g08.bks.cpg/sg12_33_cif.got.tgz:65851.got - 2010.06.03 13:09:07.
