data_PCOD9204985
_publ_section_title
;
Structure prediction by ZEFSAII (Michael W. Deem and Ramdas Pophale) SiO2 
 PCOD9204985
Probable space group: C 2/M
;
_chemical_formula_sum "Si O2"
_cell_formula_units_Z 32
_cell_length_a 18.512953
_cell_length_b 8.658314
_cell_length_c 11.052986
_cell_angle_alpha 90.000000
_cell_angle_beta 143.299780
_cell_angle_gamma 90.000000
_cell_volume 1058.814185
_symmetry_space_group_name_H-M "C 2/M"
_symmetry_group_IT_number 12
_symmetry_cell_setting 'monoclinic'
loop_
_space_group_symop_operation_xyz
x,y,z
-x,y,-z
-x,-y,-z
x,-y,z
1/2+x,1/2+y,z
1/2-x,1/2+y,-z
1/2-x,1/2-y,-z
1/2+x,1/2-y,z
loop_
_atom_site_type_symbol
_atom_site_label
_atom_site_fract_x
_atom_site_fract_y
_atom_site_fract_z
Si Si1 0.102742 0.500000 0.242649
Si Si2 0.096895 0.828914 0.863990
Si Si3 0.093969 0.500000 0.511629
Si Si4 0.386787 0.332990 0.753662
Si Si5 0.312279 0.677365 0.277308
O O1 0.052672 0.500000 0.314045
O O2 0.171202 0.663575 0.314142
O O3 0.000000 0.500000 0.000000
O O4 0.962043 0.831942 0.730840
O O5 0.104529 0.810666 0.731697
O O6 0.149546 0.000000 0.961271
O O7 0.177948 0.703690 0.040537
O O8 0.163528 0.336994 0.620849
O O9 0.000000 0.500000 0.500000
O O10 0.325759 0.500000 0.684744
O O11 0.500000 0.335129 0.000000
O O12 0.324203 0.500000 0.336357
#
# Coordination Sequence:
#
# PCOD9204985 Si02
#       5
#     4   8   4   8   8
#     4  10  22  38  58  82 114 155 195 238 287 352
#     4   9  17  33  56  85 123 150 192 234 287 357
#     4  12  24  38  58  88 123 149 193 248 294 344
#     4   9  18  33  56  86 107 146 196 241 280 335
#     4  10  21  34  54  87 119 157 185 235 298 347
#
# _framework density 30.222488999999999
#
# number of rings (size 3 to 8) (size 9 to 14) (size 15 to 20)
#    0.000    2.250    1.250    1.500    3.500    1.500 
#    0.000    0.000    0.000    6.000    0.000    0.000 
#    0.000    0.000    0.000    0.000    0.000    0.000 
#
# Total GULP energy -89716.713038 kJ/mol
# GULP energy per Si atom -5607.294565 kJ/mol
# Density = 3.015370 g / cm^3
# Si number density = 30.222489 Si / 1000 Ang^3
#
#
#
# Elastic Constant Matrix: (Units=GPa)
#
#
# Indices 1 2 3 4 5 6 
#
# 1 162.2159 88.5136 44.3177 0.0000 -23.1339 0.0000
# 2 88.5136 397.2655 116.4779 0.0000 -10.3095 0.0000
# 3 44.3177 116.4779 159.2093 0.0000 -21.0483 0.0000
# 4 0.0000 0.0000 0.0000 81.1116 0.0000 4.3151
# 5 -23.1339 -10.3095 -21.0483 0.0000 32.2367 0.0000
# 6 0.0000 0.0000 0.0000 4.3151 0.0000 53.1581
#
#
#
# Elastic Compliance Matrix: (Units=1/GPa)
#
#
# Indices 1 2 3 4 5 6 
#
# 1 0.007780 -0.001477 -0.000448 0.000000 0.004818 0.000000
# 2 -0.001477 0.003494 -0.002339 0.000000 -0.001470 0.000000
# 3 -0.000448 -0.002339 0.008729 0.000000 0.004630 0.000000
# 4 0.000000 0.000000 0.000000 0.012382 0.000000 -0.001005
# 5 0.004818 -0.001470 0.004630 0.000000 0.037031 0.000000
# 6 0.000000 0.000000 0.000000 -0.001005 0.000000 0.018893
#
#
# Mechanical properties :
#
#
# Convention : Reuss Voigt Hill
#
# Bulk Modulus (GPa) = 87.14996 135.25657 111.20327
# Shear Modulus (GPa) = 49.66993 64.59339 57.13166
#
# Velocity S-wave (km/s) = 4.05838 4.62807 4.35255
# Velocity P-wave (km/s) = 7.13157 8.56793 7.88254
#
# Compressibility (1/GPa) = 0.01147447
#
# Stress axis : x y z
#
# Youngs Moduli (GPa) = 128.53226 286.19738 114.55483
#
# Poissons Ratio (x) = 0.42273 0.05133
# Poissons Ratio (y) = 0.18985 0.26800
# Poissons Ratio (z) = 0.05759 0.66955
#
# Static dielectric constant tensor:
#      x y z
#    x 2.355450 0.000000 -0.043260 
#    y 0.000000 2.254590 0.000000 
#    z -0.043260 0.000000 2.382610 
# 
# From -- ./inp_files/138654.got.cif
#   From: 2010.05.17/outbox.cif.g08.bks.cpg/sg12_70_cif.got.tgz:138654.got - 2010.06.03 13:09:07.
