data_PCOD9204353
_publ_section_title
;
Structure prediction by ZEFSAII (Michael W. Deem and Ramdas Pophale) SiO2 
 PCOD9204353
Probable space group: C 2/M
;
_chemical_formula_sum "Si O2"
_cell_formula_units_Z 50
_cell_length_a 8.758354
_cell_length_b 15.655976
_cell_length_c 19.138263
_cell_angle_alpha 90.000000
_cell_angle_beta 60.493269
_cell_angle_gamma 90.000000
_cell_volume 2283.878868
_symmetry_space_group_name_H-M "C 2/M"
_symmetry_group_IT_number 12
_symmetry_cell_setting 'monoclinic'
loop_
_space_group_symop_operation_xyz
x,y,z
-x,y,-z
-x,-y,-z
x,-y,z
1/2+x,1/2+y,z
1/2-x,1/2+y,-z
1/2-x,1/2-y,-z
1/2+x,1/2-y,z
loop_
_atom_site_type_symbol
_atom_site_label
_atom_site_fract_x
_atom_site_fract_y
_atom_site_fract_z
Si Si1 0.045909 0.346126 0.889429
Si Si2 0.177663 0.403338 0.427636
Si Si3 0.844952 0.843933 0.084950
Si Si4 0.966643 0.098710 0.589367
Si Si5 0.267596 0.862699 0.740947
Si Si6 0.364152 0.811529 0.278519
Si Si7 0.000000 0.500000 0.000000
O O1 0.838005 0.344443 0.916397
O O2 0.106794 0.254594 0.906286
O O3 0.139318 0.360580 0.794394
O O4 0.081603 0.423999 0.931968
O O5 0.182400 0.500000 0.456424
O O6 0.359577 0.364172 0.412986
O O7 0.187104 0.409694 0.341617
O O8 0.000000 0.363668 0.500000
O O9 0.817789 0.892377 0.165787
O O10 0.000000 0.877229 0.000000
O O11 0.800969 0.157641 0.641160
O O12 0.000000 0.095409 0.500000
O O13 0.934320 0.000000 0.620793
O O14 0.454912 0.828329 0.724145
O O15 0.146146 0.786345 0.741397
#
# Coordination Sequence:
#
# PCOD9204353 Si02
#       7
#     8   8   8   8   8   8   2
#     4  10  23  39  65  88 124 161 209 253 313 367
#     4  10  21  39  60  87 122 159 194 245 306 359
#     4  10  20  41  65  87 117 170 207 245 305 377
#     4  10  21  37  58  85 115 155 197 237 297 364
#     4  10  21  37  60  89 115 153 202 245 292 359
#     4  10  21  38  59  86 117 154 196 249 293 355
#     4  12  24  40  58 100 122 154 210 264 318 350
#
# _framework density 21.892579000000001
#
# number of rings (size 3 to 8) (size 9 to 14) (size 15 to 20)
#    0.000    1.920    0.800    2.400    1.120    3.840 
#    4.320    3.600    0.000    0.000    0.000    0.000 
#    0.000    0.000    0.000    0.000    0.000    0.000 
#
# Total GULP energy -139201.373911 kJ/mol
# GULP energy per Si atom -5568.054956 kJ/mol
# Density = 2.184275 g / cm^3
# Si number density = 21.892579 Si / 1000 Ang^3
#
#
#
# Elastic Constant Matrix: (Units=GPa)
#
#
# Indices 1 2 3 4 5 6 
#
# 1 60.0209 -6.5951 27.0382 0.0000 -4.1025 0.0000
# 2 -6.5951 27.6891 9.6787 0.0000 5.6907 0.0000
# 3 27.0382 9.6787 127.5896 0.0000 -7.4517 0.0000
# 4 0.0000 0.0000 0.0000 33.9574 0.0000 9.1278
# 5 -4.1025 5.6907 -7.4517 0.0000 32.9161 0.0000
# 6 0.0000 0.0000 0.0000 9.1278 0.0000 3.3205
#
#
#
# Elastic Compliance Matrix: (Units=1/GPa)
#
#
# Indices 1 2 3 4 5 6 
#
# 1 0.019414 0.006152 -0.004562 0.000000 0.000323 0.000000
# 2 0.006152 0.040785 -0.004828 0.000000 -0.007377 0.000000
# 3 -0.004562 -0.004828 0.009309 0.000000 0.002374 0.000000
# 4 0.000000 0.000000 0.000000 0.112792 0.000000 -0.310055
# 5 0.000323 -0.007377 0.002374 0.000000 0.032233 0.000000
# 6 0.000000 0.000000 0.000000 -0.310055 0.000000 1.153466
#
#
# Mechanical properties :
#
#
# Convention : Reuss Voigt Hill
#
# Bulk Modulus (GPa) = 15.86500 30.61589 23.24044
# Shear Modulus (GPa) = 3.58298 26.38400 14.98349
#
# Velocity S-wave (km/s) = 1.28069 3.47530 2.61896
# Velocity P-wave (km/s) = 3.07398 5.48804 4.44792
#
# Compressibility (1/GPa) = 0.06303184
#
# Stress axis : x y z
#
# Youngs Moduli (GPa) = 51.50912 24.51897 107.41956
#
# Poissons Ratio (x) = -0.15085 0.49004
# Poissons Ratio (y) = -0.31690 0.51867
# Poissons Ratio (z) = 0.23498 0.11839
#
# Static dielectric constant tensor:
#      x y z
#    x 1.791480 0.000000 0.005000 
#    y 0.000000 1.791520 0.000000 
#    z 0.005000 0.000000 1.854340 
# 
# From -- ./inp_files/256934.got.cif
#   From: 2010.05.17/outbox.cif.g08.bks.cpg/sg12_129_cif.got.tgz:256934.got - 2010.06.03 13:09:07.
