data_PCOD9204374
_publ_section_title
;
Structure prediction by ZEFSAII (Michael W. Deem and Ramdas Pophale) SiO2 
 PCOD9204374
Probable space group: C 2/M
;
_chemical_formula_sum "Si O2"
_cell_formula_units_Z 64
_cell_length_a 19.527390
_cell_length_b 8.713822
_cell_length_c 31.168207
_cell_angle_alpha 90.000000
_cell_angle_beta 141.635121
_cell_angle_gamma 90.000000
_cell_volume 3291.725055
_symmetry_space_group_name_H-M "C 2/M"
_symmetry_group_IT_number 12
_symmetry_cell_setting 'monoclinic'
loop_
_space_group_symop_operation_xyz
x,y,z
-x,y,-z
-x,-y,-z
x,-y,z
1/2+x,1/2+y,z
1/2-x,1/2+y,-z
1/2-x,1/2-y,-z
1/2+x,1/2-y,z
loop_
_atom_site_type_symbol
_atom_site_label
_atom_site_fract_x
_atom_site_fract_y
_atom_site_fract_z
Si Si1 0.217854 0.679715 0.789936
Si Si2 0.370571 0.814397 0.431134
Si Si3 0.972698 0.686018 0.795850
Si Si4 0.628924 0.183901 0.063638
Si Si5 0.279623 0.185350 0.061089
Si Si6 0.275366 0.681198 0.558621
Si Si7 0.238527 0.815704 0.709131
Si Si8 0.472450 0.180474 0.699916
O O1 0.245264 0.500000 0.800161
O O2 0.311945 0.764487 0.863307
O O3 0.194195 0.747540 0.731496
O O4 0.103053 0.694191 0.759013
O O5 0.500000 0.775094 0.500000
O O6 0.301708 0.762889 0.439528
O O7 0.320488 0.745526 0.362744
O O8 0.362354 0.000000 0.424354
O O9 0.977130 0.500000 0.797769
O O10 0.868262 0.730753 0.772719
O O11 0.943986 0.734359 0.733592
O O12 0.094633 0.737905 0.867805
O O13 0.697143 0.255883 0.057530
O O14 0.634116 0.000000 0.062524
O O15 0.500000 0.229761 0.000000
O O16 0.276970 0.000000 0.059658
O O17 0.250000 0.250000 0.000000
O O18 0.260320 0.500000 0.548973
O O19 0.250000 0.750000 0.500000
O O20 0.400342 0.724367 0.631712
O O21 0.231612 0.000000 0.705818
O O22 0.444428 0.000000 0.681384
#
# Coordination Sequence:
#
# PCOD9204374 Si02
#       8
#     8   8   8   8   8   8   8   8
#     4  11  24  42  65  92 124 163 206 254 310 373
#     4  10  23  43  62  85 122 165 204 248 305 363
#     4   9  19  39  64  87 120 159 198 249 309 362
#     4  11  25  44  64  90 127 168 209 260 317 371
#     4  11  23  42  65  94 127 166 211 255 312 374
#     4  11  24  40  62  92 123 160 205 254 303 363
#     4  11  23  40  64  93 124 160 202 252 308 368
#     4  10  20  41  66  87 118 161 202 252 310 363
#
# _framework density 19.442692000000001
#
# number of rings (size 3 to 8) (size 9 to 14) (size 15 to 20)
#    0.000    1.500    2.500    1.875    3.500    2.750 
#    0.000    1.875    0.000    0.000    0.000    0.000 
#    0.000    0.000    0.000    0.000    0.000    0.000 
#
# Total GULP energy -178718.388954 kJ/mol
# GULP energy per Si atom -5584.949655 kJ/mol
# Density = 1.939844 g / cm^3
# Si number density = 19.442692 Si / 1000 Ang^3
#
#
#
# Elastic Constant Matrix: (Units=GPa)
#
#
# Indices 1 2 3 4 5 6 
#
# 1 55.1709 21.5412 15.4154 0.0000 -8.9875 0.0001
# 2 21.5412 43.6407 22.5130 -0.0001 2.4028 0.0001
# 3 15.4154 22.5130 106.1886 0.0000 -4.1446 0.0000
# 4 0.0000 -0.0001 0.0000 34.7488 0.0000 -5.5197
# 5 -8.9875 2.4028 -4.1446 0.0000 34.7854 0.0000
# 6 0.0001 0.0001 0.0000 -5.5197 0.0000 29.0369
#
#
#
# Elastic Compliance Matrix: (Units=1/GPa)
#
#
# Indices 1 2 3 4 5 6 
#
# 1 0.024113 -0.011925 -0.000700 0.000000 0.006970 0.000000
# 2 -0.011925 0.031833 -0.005248 0.000000 -0.005905 0.000000
# 3 -0.000700 -0.005248 0.010688 0.000000 0.001455 0.000000
# 4 0.000000 0.000000 0.000000 0.029674 0.000000 0.005641
# 5 0.006970 -0.005905 0.001455 0.000000 0.031130 0.000000
# 6 0.000000 0.000000 0.000000 0.005641 0.000000 0.035511
#
#
# Mechanical properties :
#
#
# Convention : Reuss Voigt Hill
#
# Bulk Modulus (GPa) = 32.37541 35.99327 34.18434
# Shear Modulus (GPa) = 23.92446 29.41625 26.67035
#
# Velocity S-wave (km/s) = 3.51167 3.89391 3.70772
# Velocity P-wave (km/s) = 5.75589 6.22651 5.99582
#
# Compressibility (1/GPa) = 0.03088764
#
# Stress axis : x y z
#
# Youngs Moduli (GPa) = 41.47222 31.41391 93.55990
#
# Poissons Ratio (x) = 0.37460 0.06551
# Poissons Ratio (y) = 0.49454 0.49103
# Poissons Ratio (z) = 0.02904 0.16487
#
# Static dielectric constant tensor:
#      x y z
#    x 1.672640 0.000000 0.014220 
#    y 0.000000 1.671950 0.000000 
#    z 0.014220 0.000000 1.667220 
# 
# From -- ./inp_files/378487.got.cif
#   From: 2010.05.17/outbox.cif.g08.bks.cpg/sg12_190_cif.got.tgz:378487.got - 2010.06.03 13:09:07.
