data_PCOD9204864
_publ_section_title
;
Structure prediction by ZEFSAII (Michael W. Deem and Ramdas Pophale) SiO2 
 PCOD9204864
Probable space group: C 2/M
;
_chemical_formula_sum "Si O2"
_cell_formula_units_Z 64
_cell_length_a 12.900739
_cell_length_b 13.159441
_cell_length_c 35.624509
_cell_angle_alpha 90.000000
_cell_angle_beta 37.220241
_cell_angle_gamma 90.000000
_cell_volume 3658.225555
_symmetry_space_group_name_H-M "C 2/M"
_symmetry_group_IT_number 12
_symmetry_cell_setting 'monoclinic'
loop_
_space_group_symop_operation_xyz
x,y,z
-x,y,-z
-x,-y,-z
x,-y,z
1/2+x,1/2+y,z
1/2-x,1/2+y,-z
1/2-x,1/2-y,-z
1/2+x,1/2-y,z
loop_
_atom_site_type_symbol
_atom_site_label
_atom_site_fract_x
_atom_site_fract_y
_atom_site_fract_z
Si Si1 0.878042 0.122939 0.339215
Si Si2 0.672157 0.173081 0.469299
Si Si3 0.937980 0.118953 0.199382
Si Si4 0.742072 0.886336 0.532886
Si Si5 0.972417 0.750939 0.898601
Si Si6 0.311800 0.618611 0.800940
Si Si7 0.851333 0.378116 0.663901
Si Si8 0.124988 0.121982 0.999820
O O1 0.822048 0.161929 0.395685
O O2 0.738534 0.159284 0.348488
O O3 0.063591 0.150623 0.269237
O O4 0.872130 0.000000 0.342093
O O5 0.500000 0.130993 0.500000
O O6 0.718469 0.119014 0.494757
O O7 0.644307 0.291346 0.487785
O O8 0.003360 0.181848 0.145480
O O9 0.071104 0.125448 0.195566
O O10 0.757636 0.157547 0.268906
O O11 0.921324 0.000000 0.193839
O O12 0.553275 0.863773 0.604232
O O13 0.796101 0.000000 0.528183
O O14 0.808171 0.677200 0.941430
O O15 0.143160 0.684429 0.853673
O O16 0.948647 0.823735 0.941594
O O17 0.267490 0.500000 0.808436
O O18 0.824436 0.500000 0.671345
O O19 0.143378 0.000000 0.999536
O O20 0.000000 0.138632 0.000000
#
# Coordination Sequence:
#
# PCOD9204864 Si02
#       8
#     8   8   8   8   8   8   8   8
#     4   9  17  31  52  75 102 132 167 216 261 302
#     4  11  21  32  52  76  97 134 179 215 254 310
#     4   9  18  32  51  77 106 132 165 212 257 301
#     4  10  21  34  49  72 101 132 170 216 262 305
#     4  11  20  33  58  81  99 139 177 205 247 303
#     4   9  19  34  51  76 107 135 166 211 263 302
#     4   8  15  30  50  71  97 130 164 208 260 301
#     4  10  22  38  54  77 110 139 170 209 249 294
#
# _framework density 17.494821000000002
#
# number of rings (size 3 to 8) (size 9 to 14) (size 15 to 20)
#    0.000    2.375    1.250    3.375    1.750    0.750 
#    0.000    0.000    0.000    6.000    0.000    2.625 
#    0.000    0.000    0.000    0.000    0.000    0.000 
#
# Total GULP energy -178393.209835 kJ/mol
# GULP energy per Si atom -5574.787807 kJ/mol
# Density = 1.745500 g / cm^3
# Si number density = 17.494821 Si / 1000 Ang^3
#
#
#
# Elastic Constant Matrix: (Units=GPa)
#
#
# Indices 1 2 3 4 5 6 
#
# 1 48.3479 26.1761 28.8750 0.0001 11.0986 0.0001
# 2 26.1761 75.0376 33.0410 0.0002 9.2010 0.0000
# 3 28.8750 33.0410 112.6863 0.0004 25.2529 0.0002
# 4 0.0001 0.0002 0.0004 29.0298 -0.0001 1.5717
# 5 11.0986 9.2010 25.2529 -0.0001 12.4844 0.0000
# 6 0.0001 0.0000 0.0002 1.5717 0.0000 22.0307
#
#
#
# Elastic Compliance Matrix: (Units=1/GPa)
#
#
# Indices 1 2 3 4 5 6 
#
# 1 0.029745 -0.007561 -0.001331 0.000000 -0.018178 0.000000
# 2 -0.007561 0.017336 -0.003272 0.000000 0.000563 0.000000
# 3 -0.001331 -0.003272 0.017137 0.000000 -0.031070 0.000000
# 4 0.000000 0.000000 0.000000 0.034581 0.000001 -0.002467
# 5 -0.018178 0.000563 -0.031070 0.000001 0.158690 0.000000
# 6 0.000000 0.000000 0.000000 -0.002467 0.000000 0.045567
#
#
# Mechanical properties :
#
#
# Convention : Reuss Voigt Hill
#
# Bulk Modulus (GPa) = 25.06917 45.80619 35.43768
# Shear Modulus (GPa) = 14.67645 22.57431 18.62538
#
# Velocity S-wave (km/s) = 2.89952 3.59603 3.26640
# Velocity P-wave (km/s) = 5.05670 6.59405 5.87587
#
# Compressibility (1/GPa) = 0.03988963
#
# Stress axis : x y z
#
# Youngs Moduli (GPa) = 33.61912 57.68389 58.35200
#
# Poissons Ratio (x) = 0.43615 0.07769
# Poissons Ratio (y) = 0.25420 0.19092
# Poissons Ratio (z) = 0.04476 0.18873
#
# Static dielectric constant tensor:
#      x y z
#    x 1.578000 0.000000 -0.005070 
#    y 0.000000 1.589470 0.000000 
#    z -0.005070 0.000000 1.603750 
# 
# From -- ./inp_files/374089.got.cif
#   From: 2010.05.17/outbox.cif.g08.bks.cpg/sg12_188_cif.got.tgz:374089.got - 2010.06.03 13:09:07.
