data_PCOD9204986
_publ_section_title
;
Structure prediction by ZEFSAII (Michael W. Deem and Ramdas Pophale) SiO2 
 PCOD9204986
Probable space group: C 2/M
;
_chemical_formula_sum "Si O2"
_cell_formula_units_Z 60
_cell_length_a 24.227759
_cell_length_b 28.047100
_cell_length_c 14.881474
_cell_angle_alpha 90.000000
_cell_angle_beta 161.497864
_cell_angle_gamma 90.000000
_cell_volume 3209.016786
_symmetry_space_group_name_H-M "C 2/M"
_symmetry_group_IT_number 12
_symmetry_cell_setting 'monoclinic'
loop_
_space_group_symop_operation_xyz
x,y,z
-x,y,-z
-x,-y,-z
x,-y,z
1/2+x,1/2+y,z
1/2-x,1/2+y,-z
1/2-x,1/2-y,-z
1/2+x,1/2-y,z
loop_
_atom_site_type_symbol
_atom_site_label
_atom_site_fract_x
_atom_site_fract_y
_atom_site_fract_z
Si Si1 0.589278 0.895311 0.541132
Si Si2 0.535209 0.442576 0.893883
Si Si3 0.035592 0.234313 0.782723
Si Si4 0.245026 0.593276 0.088216
Si Si5 0.556563 0.556352 0.445935
Si Si6 0.500000 0.373669 0.000000
Si Si7 0.152521 0.801424 0.792867
Si Si8 0.260680 0.302591 0.735038
O O1 0.500000 0.900954 0.500000
O O2 0.641339 0.839705 0.607352
O O3 0.761692 0.927324 0.799030
O O4 0.448342 0.909714 0.248445
O O5 0.518614 0.500000 0.882132
O O6 0.452639 0.427665 0.671028
O O7 0.457723 0.409536 0.852910
O O8 0.073922 0.191828 0.771159
O O9 0.851616 0.260284 0.483594
O O10 0.174371 0.271604 0.955614
O O11 0.096074 0.219092 0.975014
O O12 0.379784 0.569352 0.226390
O O13 0.284481 0.573878 0.247717
O O14 0.302871 0.647908 0.178671
O O15 0.565069 0.500000 0.456104
O O16 0.651082 0.337851 0.200862
O O17 0.000000 0.776959 0.500000
#
# Coordination Sequence:
#
# PCOD9204986 Si02
#       8
#     8   8   8   8   8   4   8   8
#     4  11  21  34  56  93 127 156 192 242 296 356
#     4  10  22  41  64  86 114 156 201 247 302 359
#     4  11  23  36  57  87 123 155 194 242 294 353
#     4  11  19  32  55  86 131 158 185 226 291 362
#     4  10  21  34  54  87 123 160 190 230 293 365
#     4  10  25  44  64  84 110 154 216 264 297 332
#     4  11  20  31  55  91 122 160 191 222 289 368
#     4  11  24  40  60  84 119 157 203 253 293 345
#
# _framework density 18.697315
#
# number of rings (size 3 to 8) (size 9 to 14) (size 15 to 20)
#    0.000    1.333    5.333    1.800    3.733    1.867 
#    0.000    0.000    0.000    3.200    0.000    8.400 
#    0.000    0.000    0.000    0.000    0.000    0.000 
#
# Total GULP energy -167269.296581 kJ/mol
# GULP energy per Si atom -5575.643219 kJ/mol
# Density = 1.865476 g / cm^3
# Si number density = 18.697315 Si / 1000 Ang^3
#
#
#
# Elastic Constant Matrix: (Units=GPa)
#
#
# Indices 1 2 3 4 5 6 
#
# 1 87.4342 17.5929 10.5456 0.0000 -15.4872 0.0000
# 2 17.5929 26.5010 -23.4977 0.0000 -2.0773 0.0000
# 3 10.5456 -23.4977 29.8033 0.0000 -19.9084 0.0001
# 4 0.0000 0.0000 0.0000 19.9512 0.0000 -12.8731
# 5 -15.4872 -2.0773 -19.9084 0.0000 27.2958 0.0000
# 6 0.0000 0.0000 0.0001 -12.8731 0.0000 29.3019
#
#
#
# Elastic Compliance Matrix: (Units=1/GPa)
#
#
# Indices 1 2 3 4 5 6 
#
# 1 0.010592 0.011021 0.018558 0.000000 0.020384 0.000000
# 2 0.011021 -0.057050 -0.092831 0.000000 -0.065796 0.000001
# 3 0.018558 -0.092831 -0.085589 0.000000 -0.058960 0.000000
# 4 0.000000 0.000000 0.000000 0.069951 0.000000 0.030732
# 5 0.020384 -0.065796 -0.058960 0.000000 0.000191 0.000000
# 6 0.000000 0.000001 0.000000 0.030732 0.000000 0.047629
#
#
# Mechanical properties :
#
#
# Convention : Reuss Voigt Hill
#
# Bulk Modulus (GPa) = -3.86772 17.00224 6.56726
# Shear Modulus (GPa) = 191.99274 24.58296 108.28785
#
# Velocity S-wave (km/s) = 10.14434 3.62993 7.61853
# Velocity P-wave (km/s) = 11.62484 5.16543 8.99496
#
# Compressibility (1/GPa) = -0.25855030
#
# Stress axis : x y z
#
# Youngs Moduli (GPa) = 94.41265 -17.52835 -11.68376
#
# Poissons Ratio (x) = 0.19319 0.21683
# Poissons Ratio (y) = -1.04056 -1.08462
# Poissons Ratio (z) = -1.75213 -1.62717
#
# Static dielectric constant tensor:
#      x y z
#    x 1.626410 0.000000 0.000880 
#    y 0.000000 1.680310 0.000000 
#    z 0.000880 0.000000 1.668450 
# 
# From -- ./inp_files/242375.got.cif
#   From: 2010.05.17/outbox.cif.g08.bks.cpg/sg12_122_cif.got.tgz:242375.got - 2010.06.03 13:09:07.
