data_PCOD9204106
_publ_section_title
;
Structure prediction by ZEFSAII (Michael W. Deem and Ramdas Pophale) SiO2 
 PCOD9204106
Probable space group: C 2/M
;
_chemical_formula_sum "Si O2"
_cell_formula_units_Z 60
_cell_length_a 11.986742
_cell_length_b 18.530848
_cell_length_c 11.912113
_cell_angle_alpha 90.000000
_cell_angle_beta 93.280563
_cell_angle_gamma 90.000000
_cell_volume 2641.636084
_symmetry_space_group_name_H-M "C 2/M"
_symmetry_group_IT_number 12
_symmetry_cell_setting 'monoclinic'
loop_
_space_group_symop_operation_xyz
x,y,z
-x,y,-z
-x,-y,-z
x,-y,z
1/2+x,1/2+y,z
1/2-x,1/2+y,-z
1/2-x,1/2-y,-z
1/2+x,1/2-y,z
loop_
_atom_site_type_symbol
_atom_site_label
_atom_site_fract_x
_atom_site_fract_y
_atom_site_fract_z
Si Si1 0.266859 0.629010 0.870744
Si Si2 0.903284 0.219753 0.735202
Si Si3 0.596236 0.369734 0.717886
Si Si4 0.698208 0.331184 0.491929
Si Si5 0.204962 0.412691 0.114761
Si Si6 0.418252 0.861696 0.591943
Si Si7 0.528925 0.919012 0.801455
Si Si8 0.071232 0.000000 0.218107
O O1 0.326474 0.702685 0.836171
O O2 0.142466 0.625333 0.812382
O O3 0.344947 0.563899 0.828771
O O4 0.251799 0.618091 0.001903
O O5 0.857680 0.166754 0.632436
O O6 0.897496 0.297214 0.678543
O O7 0.030396 0.198184 0.766095
O O8 0.615594 0.349174 0.588853
O O9 0.715237 0.385395 0.781139
O O10 0.516991 0.437379 0.740451
O O11 0.750000 0.250000 0.500000
O O12 0.804388 0.382260 0.522440
O O13 0.211740 0.500000 0.113135
O O14 0.074866 0.394703 0.127459
O O15 0.500000 0.833987 0.500000
O O16 0.479216 0.919543 0.672645
O O17 0.559600 0.000000 0.839309
#
# Coordination Sequence:
#
# PCOD9204106 Si02
#       8
#     8   8   8   8   8   8   8   4
#     4  11  22  42  66  98 132 180 222 272 332 387
#     4  10  23  39  65  96 132 177 222 270 327 407
#     4  11  21  38  64  98 132 170 221 268 332 393
#     4  10  20  40  65  89 129 171 219 265 324 395
#     4  11  22  40  70  95 132 176 223 275 328 399
#     4  11  22  41  69  98 129 177 222 274 337 396
#     4  11  23  42  69  98 133 171 229 278 330 400
#     4  10  22  37  62  96 135 162 216 269 324 395
#
# _framework density 22.713197999999998
#
# number of rings (size 3 to 8) (size 9 to 14) (size 15 to 20)
#    0.000    1.333    3.333    3.200    0.000    5.067 
#    0.000    6.000    2.933    0.000    0.000    0.000 
#    0.000    0.000    0.000    0.000    0.000    0.000 
#
# Total GULP energy -167056.977787 kJ/mol
# GULP energy per Si atom -5568.565926 kJ/mol
# Density = 2.266150 g / cm^3
# Si number density = 22.713198 Si / 1000 Ang^3
#
#
#
# Elastic Constant Matrix: (Units=GPa)
#
#
# Indices 1 2 3 4 5 6 
#
# 1 100.0501 21.0317 18.8994 0.0000 -29.8447 0.0000
# 2 21.0317 58.1837 22.3574 0.0000 -15.7585 0.0000
# 3 18.8994 22.3574 78.5830 0.0000 -23.0190 0.0000
# 4 0.0000 0.0000 0.0000 17.4498 0.0000 -14.5248
# 5 -29.8447 -15.7585 -23.0190 0.0000 45.2956 0.0000
# 6 0.0000 0.0000 0.0000 -14.5248 0.0000 25.4102
#
#
#
# Elastic Compliance Matrix: (Units=1/GPa)
#
#
# Indices 1 2 3 4 5 6 
#
# 1 0.012784 -0.002537 -0.000169 0.000000 0.007455 0.000000
# 2 -0.002537 0.020655 -0.004290 0.000000 0.003334 0.000000
# 3 -0.000169 -0.004290 0.015881 0.000000 0.006467 0.000000
# 4 0.000000 0.000000 0.000000 0.109324 0.000000 0.062491
# 5 0.007455 0.003334 0.006467 0.000000 0.031435 0.000000
# 6 0.000000 0.000000 0.000000 0.062491 0.000000 0.075075
#
#
# Mechanical properties :
#
#
# Convention : Reuss Voigt Hill
#
# Bulk Modulus (GPa) = 28.30583 40.15488 34.23035
# Shear Modulus (GPa) = 17.18675 29.26635 23.22655
#
# Velocity S-wave (km/s) = 2.75378 3.59349 3.20128
# Velocity P-wave (km/s) = 4.75399 5.91058 5.36355
#
# Compressibility (1/GPa) = 0.03532842
#
# Stress axis : x y z
#
# Youngs Moduli (GPa) = 78.22322 48.41333 62.96923
#
# Poissons Ratio (x) = 0.12283 0.01065
# Poissons Ratio (y) = 0.19846 0.27012
# Poissons Ratio (z) = 0.01323 0.20768
#
# Static dielectric constant tensor:
#      x y z
#    x 1.877630 0.000000 0.018620 
#    y 0.000000 1.853630 0.000000 
#    z 0.018620 0.000000 1.853090 
# 
# From -- ./inp_files/133943.got.cif
#   From: 2010.05.17/outbox.cif.g08.bks.cpg/sg12_67_cif.got.tgz:133943.got - 2010.06.03 13:09:07.
