data_PCOD9204200
_publ_section_title
;
Structure prediction by ZEFSAII (Michael W. Deem and Ramdas Pophale) SiO2 
 PCOD9204200
Probable space group: C 2/M
;
_chemical_formula_sum "Si O2"
_cell_formula_units_Z 40
_cell_length_a 29.135780
_cell_length_b 14.009071
_cell_length_c 9.420023
_cell_angle_alpha 90.000000
_cell_angle_beta 150.265596
_cell_angle_gamma 90.000000
_cell_volume 1907.006851
_symmetry_space_group_name_H-M "C 2/M"
_symmetry_group_IT_number 12
_symmetry_cell_setting 'monoclinic'
loop_
_space_group_symop_operation_xyz
x,y,z
-x,y,-z
-x,-y,-z
x,-y,z
1/2+x,1/2+y,z
1/2-x,1/2+y,-z
1/2-x,1/2-y,-z
1/2+x,1/2-y,z
loop_
_atom_site_type_symbol
_atom_site_label
_atom_site_fract_x
_atom_site_fract_y
_atom_site_fract_z
Si Si1 0.033588 0.886882 0.823789
Si Si2 0.643469 0.769590 0.248443
Si Si3 0.840960 0.612379 0.424876
Si Si4 0.139152 0.885765 0.806665
Si Si5 0.979692 0.611169 0.289741
O O1 0.094038 0.873170 0.841508
O O2 0.931546 0.850259 0.503957
O O3 0.031402 0.000000 0.847807
O O4 0.083303 0.826950 0.078919
O O5 0.750000 0.750000 0.500000
O O6 0.636983 0.825812 0.377899
O O7 0.599008 0.833854 0.005519
O O8 0.828218 0.500000 0.431949
O O9 0.926245 0.615844 0.547254
O O10 0.744758 0.646920 0.096658
O O11 0.141180 0.000000 0.789264
O O12 0.952850 0.500000 0.232325
O O13 0.000000 0.650785 0.500000
#
# Coordination Sequence:
#
# PCOD9204200 Si02
#       5
#     8   8   8   8   8
#     4   9  18  33  55  88 128 164 202 246 299 367
#     4  12  23  34  60  94 128 164 201 248 309 374
#     4  10  20  40  67  94 122 158 208 257 313 373
#     4   8  15  31  58  87 116 159 206 247 296 358
#     4  10  24  45  66  89 121 162 211 265 311 362
#
# _framework density 20.975280000000001
#
# number of rings (size 3 to 8) (size 9 to 14) (size 15 to 20)
#    0.000    2.200    2.000    2.400    2.800    2.400 
#    0.000    6.000    0.000    2.400    0.000    0.000 
#    0.000    0.000    0.000    0.000    0.000    0.000 
#
# Total GULP energy -111795.194350 kJ/mol
# GULP energy per Si atom -5589.759717 kJ/mol
# Density = 2.092754 g / cm^3
# Si number density = 20.975280 Si / 1000 Ang^3
#
#
#
# Elastic Constant Matrix: (Units=GPa)
#
#
# Indices 1 2 3 4 5 6 
#
# 1 58.1046 24.2769 53.7375 0.0000 -9.8623 0.0000
# 2 24.2769 101.1360 63.7688 0.0000 -5.3296 0.0000
# 3 53.7375 63.7688 192.4157 0.0000 13.6636 0.0000
# 4 0.0000 0.0000 0.0000 41.9228 0.0000 -0.5379
# 5 -9.8623 -5.3296 13.6636 0.0000 18.1774 0.0000
# 6 0.0000 0.0000 0.0000 -0.5379 0.0000 17.4120
#
#
#
# Elastic Compliance Matrix: (Units=1/GPa)
#
#
# Indices 1 2 3 4 5 6 
#
# 1 0.031057 0.000572 -0.010639 0.000000 0.025016 0.000000
# 2 0.000572 0.013460 -0.005200 0.000000 0.008165 0.000000
# 3 -0.010639 -0.005200 0.010997 0.000000 -0.015564 0.000000
# 4 0.000000 0.000000 0.000000 0.023863 0.000000 0.000737
# 5 0.025016 0.008165 -0.015564 0.000000 0.082679 0.000000
# 6 0.000000 0.000000 0.000000 0.000737 0.000000 0.057454
#
#
# Mechanical properties :
#
#
# Convention : Reuss Voigt Hill
#
# Bulk Modulus (GPa) = 40.03521 70.58029 55.30775
# Shear Modulus (GPa) = 19.35196 29.49397 24.42297
#
# Velocity S-wave (km/s) = 3.04074 3.75391 3.41599
# Velocity P-wave (km/s) = 5.60860 7.24648 6.47950
#
# Compressibility (1/GPa) = 0.02497801
#
# Stress axis : x y z
#
# Youngs Moduli (GPa) = 32.19853 74.29656 90.93371
#
# Poissons Ratio (x) = -0.04247 0.96749
# Poissons Ratio (y) = -0.01841 0.47287
# Poissons Ratio (z) = 0.34258 0.38635
#
# Static dielectric constant tensor:
#      x y z
#    x 1.727830 0.000000 0.011240 
#    y 0.000000 1.808240 0.000000 
#    z 0.011240 0.000000 1.748600 
# 
# From -- ./inp_files/59217.got.cif
#   From: 2010.05.17/outbox.cif.g08.bks.cpg/sg12_30_cif.got.tgz:59217.got - 2010.06.03 13:09:07.
