data_PCOD9204762
_publ_section_title
;
Structure prediction by ZEFSAII (Michael W. Deem and Ramdas Pophale) SiO2 
 PCOD9204762
Probable space group: C 2/M
;
_chemical_formula_sum "Si O2"
_cell_formula_units_Z 58
_cell_length_a 24.573948
_cell_length_b 15.168104
_cell_length_c 7.121795
_cell_angle_alpha 90.000000
_cell_angle_beta 98.702238
_cell_angle_gamma 90.000000
_cell_volume 2624.019709
_symmetry_space_group_name_H-M "C 2/M"
_symmetry_group_IT_number 12
_symmetry_cell_setting 'monoclinic'
loop_
_space_group_symop_operation_xyz
x,y,z
-x,y,-z
-x,-y,-z
x,-y,z
1/2+x,1/2+y,z
1/2-x,1/2+y,-z
1/2-x,1/2-y,-z
1/2+x,1/2-y,z
loop_
_atom_site_type_symbol
_atom_site_label
_atom_site_fract_x
_atom_site_fract_y
_atom_site_fract_z
Si Si1 0.871513 0.248586 0.823407
Si Si2 0.589296 0.244279 0.745313
Si Si3 0.292342 0.600139 0.708480
Si Si4 0.704321 0.899325 0.162152
Si Si5 0.830346 0.600270 0.294833
Si Si6 0.500000 0.500000 0.500000
Si Si7 0.018042 0.833980 0.230805
Si Si8 0.671314 0.600064 0.700251
O O1 0.827977 0.170074 0.840260
O O2 0.834292 0.331758 0.745657
O O3 0.921001 0.207832 0.729382
O O4 0.900292 0.276714 0.030704
O O5 0.619657 0.166976 0.648752
O O6 0.525549 0.265638 0.703992
O O7 0.623150 0.333673 0.723969
O O8 0.292534 0.500000 0.785743
O O9 0.228837 0.627292 0.652132
O O10 0.319817 0.598326 0.518685
O O11 0.768407 0.872422 0.194021
O O12 0.702706 0.000000 0.233933
O O13 0.683996 0.900092 0.936316
O O14 0.843187 0.500000 0.356691
O O15 0.514088 0.422633 0.349151
O O16 0.000000 0.848588 0.000000
O O17 0.658315 0.500000 0.754946
#
# Coordination Sequence:
#
# PCOD9204762 Si02
#       8
#     8   8   8   8   8   2   8   8
#     4  10  21  37  56  80 113 149 190 241 289 344
#     4  10  21  37  56  80 113 149 190 241 289 344
#     4  10  21  33  51  81 114 147 188 233 288 352
#     4   9  18  35  57  81 110 148 190 234 291 351
#     4   9  18  35  57  81 110 148 190 234 291 351
#     4  12  26  44  68  86 118 164 198 244 292 344
#     4  10  25  43  62  90 121 154 200 244 289 349
#     4  10  21  33  51  81 114 147 188 233 288 352
#
# _framework density 22.103491999999999
#
# number of rings (size 3 to 8) (size 9 to 14) (size 15 to 20)
#    0.000    2.207    0.000    1.862    3.862    6.069 
#    0.000    0.690    0.000    4.138    0.000    0.966 
#    0.000    0.000    0.000    0.000    0.000    0.276 
#
# Total GULP energy -161806.470296 kJ/mol
# GULP energy per Si atom -5579.533458 kJ/mol
# Density = 2.205318 g / cm^3
# Si number density = 22.103492 Si / 1000 Ang^3
#
#
#
# Elastic Constant Matrix: (Units=GPa)
#
#
# Indices 1 2 3 4 5 6 
#
# 1 144.7946 86.6249 23.5492 0.0000 -25.5938 0.0000
# 2 86.6249 76.4788 6.9855 0.0000 -13.2440 0.0000
# 3 23.5492 6.9855 69.7531 0.0000 -3.3452 0.0000
# 4 0.0000 0.0000 0.0000 21.5118 0.0000 7.0215
# 5 -25.5938 -13.2440 -3.3452 0.0000 29.9907 0.0000
# 6 0.0000 0.0000 0.0000 7.0215 0.0000 -258.2504
#
#
#
# Elastic Compliance Matrix: (Units=1/GPa)
#
#
# Indices 1 2 3 4 5 6 
#
# 1 0.025354 -0.026614 -0.005450 0.000000 0.009277 0.000000
# 2 -0.026614 0.042182 0.004589 0.000000 -0.003572 0.000000
# 3 -0.005450 0.004589 0.015675 0.000000 -0.000876 0.000000
# 4 0.000000 0.000000 0.000000 0.046077 0.000000 0.001253
# 5 0.009277 -0.003572 -0.000876 0.000000 0.039585 0.000000
# 6 0.000000 0.000000 0.000000 0.001253 0.000000 -0.003838
#
#
# Mechanical properties :
#
#
# Convention : Reuss Voigt Hill
#
# Bulk Modulus (GPa) = 35.38210 58.37176 46.87693
# Shear Modulus (GPa) = 21.79551 -29.75846 -3.98148
#
# Velocity S-wave (km/s) = 3.14358 -3.67321 -1.34358
# Velocity P-wave (km/s) = 5.40540 2.91132 4.34132
#
# Compressibility (1/GPa) = 0.02826288
#
# Stress axis : x y z
#
# Youngs Moduli (GPa) = 39.44079 23.70655 63.79772
#
# Poissons Ratio (x) = 0.63092 0.34768
# Poissons Ratio (y) = 1.04967 -0.29279
# Poissons Ratio (z) = 0.21494 -0.10880
#
# Static dielectric constant tensor:
#      x y z
#    x 1.791070 0.000000 0.011570 
#    y 0.000000 1.798620 0.000000 
#    z 0.011570 0.000000 1.913130 
# 
# From -- ./inp_files/96333.got.cif
#   From: 2010.05.17/outbox.cif.g08.bks.cpg/sg12_49_cif.got.tgz:96333.got - 2010.06.03 13:09:07.
