data_PCOD9204321
_publ_section_title
;
Structure prediction by ZEFSAII (Michael W. Deem and Ramdas Pophale) SiO2 
 PCOD9204321
Probable space group: C 2/M
;
_chemical_formula_sum "Si O2"
_cell_formula_units_Z 36
_cell_length_a 22.289847
_cell_length_b 12.703911
_cell_length_c 6.370499
_cell_angle_alpha 90.000000
_cell_angle_beta 84.666960
_cell_angle_gamma 90.000000
_cell_volume 1796.114240
_symmetry_space_group_name_H-M "C 2/M"
_symmetry_group_IT_number 12
_symmetry_cell_setting 'monoclinic'
loop_
_space_group_symop_operation_xyz
x,y,z
-x,y,-z
-x,-y,-z
x,-y,z
1/2+x,1/2+y,z
1/2-x,1/2+y,-z
1/2-x,1/2-y,-z
1/2+x,1/2-y,z
loop_
_atom_site_type_symbol
_atom_site_label
_atom_site_fract_x
_atom_site_fract_y
_atom_site_fract_z
Si Si1 0.666959 0.805517 0.948828
Si Si2 0.500000 0.287989 0.500000
Si Si3 0.047892 0.385759 0.170954
Si Si4 0.720873 0.682009 0.324097
Si Si5 0.118860 0.118038 0.661339
O O1 0.720191 0.866040 0.808420
O O2 0.640967 0.709084 0.814510
O O3 0.611950 0.875597 0.039029
O O4 0.693636 0.755506 0.152102
O O5 0.464847 0.210476 0.670203
O O6 0.448229 0.354142 0.398618
O O7 0.043306 0.500000 0.278836
O O8 0.000000 0.380388 0.000000
O O9 0.750000 0.750000 0.500000
O O10 0.666417 0.620522 0.451689
O O11 0.120001 0.000000 0.752920
#
# Coordination Sequence:
#
# PCOD9204321 Si02
#       5
#     8   4   8   8   8
#     4  10  20  41  63  89 124 156 200 257 298 356
#     4  12  22  42  60  90 126 158 200 260 292 362
#     4  11  23  40  64  90 116 157 203 252 312 361
#     4   9  20  39  64  86 121 158 199 251 302 346
#     4  11  23  38  62  92 126 167 201 239 304 365
#
# _framework density 20.043268000000001
#
# number of rings (size 3 to 8) (size 9 to 14) (size 15 to 20)
#    0.000    1.556    4.444    0.667    0.000    1.778 
#    0.000   10.000    0.000    0.000    0.000    0.000 
#    0.000    0.000    0.000    0.000    0.000    0.000 
#
# Total GULP energy -100369.881688 kJ/mol
# GULP energy per Si atom -5576.104538 kJ/mol
# Density = 1.999765 g / cm^3
# Si number density = 20.043268 Si / 1000 Ang^3
#
#
#
# Elastic Constant Matrix: (Units=GPa)
#
#
# Indices 1 2 3 4 5 6 
#
# 1 129.8080 16.5598 31.7389 0.0000 -8.2695 0.0000
# 2 16.5598 78.6333 15.4244 0.0000 -1.2301 0.0000
# 3 31.7389 15.4244 75.7037 0.0000 -2.4643 0.0000
# 4 0.0000 0.0000 0.0000 -11.1891 0.0000 3.9333
# 5 -8.2695 -1.2301 -2.4643 0.0000 42.5516 0.0000
# 6 0.0000 0.0000 0.0000 3.9333 0.0000 -12.5859
#
#
#
# Elastic Compliance Matrix: (Units=1/GPa)
#
#
# Indices 1 2 3 4 5 6 
#
# 1 0.008776 -0.001159 -0.003395 0.000000 0.001475 0.000000
# 2 -0.001159 0.013402 -0.002244 0.000000 0.000032 0.000000
# 3 -0.003395 -0.002244 0.015095 0.000000 0.000150 0.000000
# 4 0.000000 0.000000 0.000000 -0.100403 0.000000 -0.031378
# 5 0.001475 0.000032 0.000150 0.000000 0.023797 0.000000
# 6 0.000000 0.000000 0.000000 -0.031378 0.000000 -0.089260
#
#
# Mechanical properties :
#
#
# Convention : Reuss Voigt Hill
#
# Bulk Modulus (GPa) = 42.23519 45.73236 43.98377
# Shear Modulus (GPa) = -46.68263 18.45012 -14.11625
#
# Velocity S-wave (km/s) = -4.83130 3.03729 -2.65672
# Velocity P-wave (km/s) = 3.16295 5.93014 3.54699
#
# Compressibility (1/GPa) = 0.02367694
#
# Stress axis : x y z
#
# Youngs Moduli (GPa) = 113.95173 74.61601 66.24814
#
# Poissons Ratio (x) = 0.08649 0.22491
# Poissons Ratio (y) = 0.13208 0.14863
# Poissons Ratio (z) = 0.38687 0.16741
#
# Static dielectric constant tensor:
#      x y z
#    x 1.754660 0.000000 -0.056690 
#    y 0.000000 1.682110 0.000000 
#    z -0.056690 0.000000 1.717980 
# 
# From -- ./inp_files/19673.got.cif
#   From: 2010.05.17/outbox.cif.g08.bks.cpg/sg12_10_cif.got.tgz:19673.got - 2010.06.03 13:09:07.
