data_PCOD9204065
_publ_section_title
;
Structure prediction by ZEFSAII (Michael W. Deem and Ramdas Pophale) SiO2 
 PCOD9204065
Probable space group: C 2/M
;
_chemical_formula_sum "Si O2"
_cell_formula_units_Z 30
_cell_length_a 21.547747
_cell_length_b 12.284000
_cell_length_c 4.732297
_cell_angle_alpha 90.000000
_cell_angle_beta 72.552294
_cell_angle_gamma 90.000000
_cell_volume 1194.972608
_symmetry_space_group_name_H-M "C 2/M"
_symmetry_group_IT_number 12
_symmetry_cell_setting 'monoclinic'
loop_
_space_group_symop_operation_xyz
x,y,z
-x,y,-z
-x,-y,-z
x,-y,z
1/2+x,1/2+y,z
1/2-x,1/2+y,-z
1/2-x,1/2-y,-z
1/2+x,1/2-y,z
loop_
_atom_site_type_symbol
_atom_site_label
_atom_site_fract_x
_atom_site_fract_y
_atom_site_fract_z
Si Si1 0.314953 0.339559 0.094932
Si Si2 0.000000 0.500000 0.000000
Si Si3 0.000000 0.317845 0.500000
Si Si4 0.271678 0.885072 0.275737
Si Si5 0.561402 0.619615 0.706656
O O1 0.316190 0.209993 0.104260
O O2 0.251859 0.369031 0.373345
O O3 0.377342 0.379766 0.168429
O O4 0.295009 0.379550 0.815321
O O5 0.987886 0.401030 0.775639
O O6 0.055685 0.227627 0.517908
O O7 0.304603 0.000000 0.197162
O O8 0.561749 0.500000 0.560282
O O9 0.500000 0.625283 0.000000
#
# Coordination Sequence:
#
# PCOD9204065 Si02
#       5
#     8   2   4   8   8
#     4  10  23  39  64  96 129 168 218 270 332 389
#     4  10  24  46  70  82 132 182 236 276 324 394
#     4  11  23  46  66  96 129 183 228 280 332 401
#     4  10  20  40  64  91 125 169 220 272 327 386
#     4  11  24  42  68 105 142 178 226 277 338 412
#
# _framework density 25.105177000000001
#
# number of rings (size 3 to 8) (size 9 to 14) (size 15 to 20)
#    0.000    1.600    1.333    2.800    3.733    0.000 
#    4.800    0.000    0.000    0.000    0.000    0.000 
#    0.000    0.000    0.000    0.000    0.000    0.000 
#
# Total GULP energy -83588.006311 kJ/mol
# GULP energy per Si atom -5572.533754 kJ/mol
# Density = 2.504804 g / cm^3
# Si number density = 25.105177 Si / 1000 Ang^3
#
#
#
# Elastic Constant Matrix: (Units=GPa)
#
#
# Indices 1 2 3 4 5 6 
#
# 1 66.9311 19.9529 12.3969 0.0000 18.9048 0.0000
# 2 19.9529 280.3754 37.2179 0.0000 13.0183 0.0000
# 3 12.3969 37.2179 115.9783 0.0000 21.2425 0.0000
# 4 0.0000 0.0000 0.0000 357.8146 0.0000 356.2360
# 5 18.9048 13.0183 21.2425 0.0000 33.7179 0.0000
# 6 0.0000 0.0000 0.0000 356.2360 0.0000 360.9628
#
#
#
# Elastic Compliance Matrix: (Units=1/GPa)
#
#
# Indices 1 2 3 4 5 6 
#
# 1 0.017939 -0.000841 0.000153 0.000000 -0.009830 0.000000
# 2 -0.000841 0.003783 -0.001066 0.000000 -0.000318 0.000000
# 3 0.000153 -0.001066 0.010048 0.000000 -0.006004 0.000000
# 4 0.000000 0.000000 0.000000 0.160165 0.000000 -0.158067
# 5 -0.009830 -0.000318 -0.006004 0.000000 0.039075 0.000000
# 6 0.000000 0.000000 0.000000 -0.158067 0.000000 0.158768
#
#
# Mechanical properties :
#
#
# Convention : Reuss Voigt Hill
#
# Bulk Modulus (GPa) = 35.38264 66.93557 51.15911
# Shear Modulus (GPa) = 12.41604 176.74688 94.58146
#
# Velocity S-wave (km/s) = 2.22629 8.39973 6.14458
# Velocity P-wave (km/s) = 4.55333 10.99062 8.41209
#
# Compressibility (1/GPa) = 0.02826245
#
# Stress axis : x y z
#
# Youngs Moduli (GPa) = 55.74298 264.36160 99.52472
#
# Poissons Ratio (x) = 0.22220 -0.01519
# Poissons Ratio (y) = 0.04685 0.10608
# Poissons Ratio (z) = -0.00851 0.28177
#
# Static dielectric constant tensor:
#      x y z
#    x 2.005520 0.000000 -0.005710 
#    y 0.000000 2.025890 0.000000 
#    z -0.005710 0.000000 1.963150 
# 
# From -- ./inp_files/23392.got.cif
#   From: 2010.05.17/outbox.cif.g08.bks.cpg/sg12_12_cif.got.tgz:23392.got - 2010.06.03 13:09:07.
