data_PCOD9204648
_publ_section_title
;
Structure prediction by ZEFSAII (Michael W. Deem and Ramdas Pophale) SiO2 
 PCOD9204648
Probable space group: C 2/M
;
_chemical_formula_sum "Si O2"
_cell_formula_units_Z 58
_cell_length_a 30.659742
_cell_length_b 9.246865
_cell_length_c 11.453501
_cell_angle_alpha 90.000000
_cell_angle_beta 86.914957
_cell_angle_gamma 90.000000
_cell_volume 3242.436017
_symmetry_space_group_name_H-M "C 2/M"
_symmetry_group_IT_number 12
_symmetry_cell_setting 'monoclinic'
loop_
_space_group_symop_operation_xyz
x,y,z
-x,y,-z
-x,-y,-z
x,-y,z
1/2+x,1/2+y,z
1/2-x,1/2+y,-z
1/2-x,1/2-y,-z
1/2+x,1/2-y,z
loop_
_atom_site_type_symbol
_atom_site_label
_atom_site_fract_x
_atom_site_fract_y
_atom_site_fract_z
Si Si1 0.910879 0.830234 0.572543
Si Si2 0.500000 0.000000 0.000000
Si Si3 0.418751 0.172246 0.326514
Si Si4 0.935719 0.748110 0.941190
Si Si5 0.138948 0.664938 0.228681
Si Si6 0.703328 0.173886 0.013812
Si Si7 0.005608 0.160710 0.273423
Si Si8 0.632763 0.665220 0.865218
O O1 0.911523 0.734737 0.456904
O O2 0.873752 0.773221 0.666312
O O3 0.957351 0.814751 0.633539
O O4 0.905338 0.000000 0.547709
O O5 0.537774 0.874887 0.997729
O O6 0.467826 0.221417 0.284569
O O7 0.385202 0.249771 0.243922
O O8 0.414894 0.000000 0.322252
O O9 0.901202 0.675963 0.856820
O O10 0.969130 0.832687 0.853023
O O11 0.907369 0.836650 0.036820
O O12 0.141804 0.500000 0.271496
O O13 0.181082 0.699520 0.144070
O O14 0.705578 0.000000 0.997111
O O15 0.750000 0.250000 0.000000
O O16 0.671336 0.246998 0.923380
O O17 0.986518 0.000000 0.293760
O O18 0.645409 0.500000 0.837025
#
# Coordination Sequence:
#
# PCOD9204648 Si02
#       8
#     8   2   8   8   8   8   8   8
#     4  10  21  37  56  77 106 147 195 241 283 331
#     4  12  20  28  46  76 110 152 186 236 272 334
#     4  12  25  36  52  76 108 150 194 239 289 337
#     4  10  21  31  53  76 109 147 190 233 285 334
#     4   9  18  35  56  82 113 143 183 229 275 327
#     4  10  21  38  64  95 123 147 180 225 283 350
#     4  10  21  36  53  75 106 144 195 247 287 332
#     4  11  23  39  58  80 115 152 191 237 292 350
#
# _framework density 17.887785000000001
#
# number of rings (size 3 to 8) (size 9 to 14) (size 15 to 20)
#    0.000    1.655    0.690    4.138    4.828    6.621 
#    0.000    2.069    0.000    0.828    0.000    0.000 
#    0.000    0.000    0.000    0.000    0.000    0.000 
#
# Total GULP energy -161704.161527 kJ/mol
# GULP energy per Si atom -5576.005570 kJ/mol
# Density = 1.784707 g / cm^3
# Si number density = 17.887785 Si / 1000 Ang^3
#
#
#
# Elastic Constant Matrix: (Units=GPa)
#
#
# Indices 1 2 3 4 5 6 
#
# 1 96.1998 61.1187 35.1176 0.0000 -8.7062 0.0000
# 2 61.1187 153.2058 61.5019 0.0000 3.6961 0.0000
# 3 35.1176 61.5019 85.8116 0.0000 4.5402 0.0000
# 4 0.0000 0.0000 0.0000 15.7197 0.0000 -2.0684
# 5 -8.7062 3.6961 4.5402 0.0000 18.1178 0.0000
# 6 0.0000 0.0000 0.0000 -2.0684 0.0000 17.2732
#
#
#
# Elastic Compliance Matrix: (Units=1/GPa)
#
#
# Indices 1 2 3 4 5 6 
#
# 1 0.015731 -0.005220 -0.003195 0.000000 0.009425 0.000000
# 2 -0.005220 0.010897 -0.005496 0.000000 -0.003354 0.000000
# 3 -0.003195 -0.005496 0.017149 0.000000 -0.004712 0.000000
# 4 0.000000 0.000000 0.000000 0.064633 0.000000 0.007740
# 5 0.009425 -0.003354 -0.004712 0.000000 0.061588 0.000000
# 6 0.000000 0.000000 0.000000 0.007740 0.000000 0.058820
#
#
# Mechanical properties :
#
#
# Convention : Reuss Voigt Hill
#
# Bulk Modulus (GPa) = 62.67839 72.29930 67.48884
# Shear Modulus (GPa) = 19.08692 22.05406 20.57049
#
# Velocity S-wave (km/s) = 3.27010 3.51509 3.39481
# Velocity P-wave (km/s) = 7.02665 7.54854 7.29227
#
# Compressibility (1/GPa) = 0.01595446
#
# Stress axis : x y z
#
# Youngs Moduli (GPa) = 63.56882 91.76828 58.31143
#
# Poissons Ratio (x) = 0.47907 0.18630
# Poissons Ratio (y) = 0.33186 0.32049
# Poissons Ratio (z) = 0.20309 0.50437
#
# Static dielectric constant tensor:
#      x y z
#    x 1.591630 0.000000 -0.010850 
#    y 0.000000 1.608150 0.000000 
#    z -0.010850 0.000000 1.631210 
# 
# From -- ./inp_files/180909.got.cif
#   From: 2010.05.17/outbox.cif.g08.bks.cpg/sg12_91_cif.got.tgz:180909.got - 2010.06.03 13:09:07.
