data_PCOD9204652
_publ_section_title
;
Structure prediction by ZEFSAII (Michael W. Deem and Ramdas Pophale) SiO2 
 PCOD9204652
Probable space group: C 2/M
;
_chemical_formula_sum "Si O2"
_cell_formula_units_Z 42
_cell_length_a 14.375300
_cell_length_b 9.884818
_cell_length_c 15.876267
_cell_angle_alpha 90.000000
_cell_angle_beta 56.622331
_cell_angle_gamma 90.000000
_cell_volume 1883.878507
_symmetry_space_group_name_H-M "C 2/M"
_symmetry_group_IT_number 12
_symmetry_cell_setting 'monoclinic'
loop_
_space_group_symop_operation_xyz
x,y,z
-x,y,-z
-x,-y,-z
x,-y,z
1/2+x,1/2+y,z
1/2-x,1/2+y,-z
1/2-x,1/2-y,-z
1/2+x,1/2-y,z
loop_
_atom_site_type_symbol
_atom_site_label
_atom_site_fract_x
_atom_site_fract_y
_atom_site_fract_z
Si Si1 0.482629 0.657836 0.261321
Si Si2 0.693517 0.708363 0.893318
Si Si3 0.888318 0.356328 0.921451
Si Si4 0.890044 0.664469 0.672005
Si Si5 0.768308 0.345818 0.569438
Si Si6 0.000000 0.000000 0.000000
O O1 0.519527 0.500000 0.248208
O O2 0.542111 0.733600 0.153851
O O3 0.516999 0.747913 0.326050
O O4 0.349602 0.656376 0.322550
O O5 0.772639 0.644807 0.926966
O O6 0.777961 0.716358 0.774718
O O7 0.590334 0.614696 0.926841
O O8 0.643686 0.837848 0.965495
O O9 0.945496 0.500000 0.877551
O O10 0.901340 0.500000 0.678474
O O11 0.866953 0.688866 0.585147
O O12 0.787394 0.500000 0.531248
O O13 0.750000 0.250000 0.500000
#
# Coordination Sequence:
#
# PCOD9204652 Si02
#       6
#     8   8   8   8   8   2
#     4  10  22  38  65  92 118 161 202 245 298 356
#     4  10  21  31  60  84 119 156 203 238 290 344
#     4  10  21  39  55  85 123 163 199 240 290 354
#     4  10  21  41  61  87 122 157 202 246 300 361
#     4  10  24  43  65  91 118 153 199 249 306 368
#     4  12  20  32  58  92 112 164 200 252 292 334
#
# _framework density 22.294429000000001
#
# number of rings (size 3 to 8) (size 9 to 14) (size 15 to 20)
#    0.000    1.905    1.905    1.714    4.000    7.619 
#    0.000    4.286    0.000    0.000    0.000    0.000 
#    0.000    0.000    0.000    0.000    0.000    0.000 
#
# Total GULP energy -116951.768866 kJ/mol
# GULP energy per Si atom -5569.131851 kJ/mol
# Density = 2.224369 g / cm^3
# Si number density = 22.294429 Si / 1000 Ang^3
#
#
#
# Elastic Constant Matrix: (Units=GPa)
#
#
# Indices 1 2 3 4 5 6 
#
# 1 87.5312 40.2446 20.6692 0.0000 11.1269 0.0000
# 2 40.2446 129.5516 37.0522 0.0000 27.2608 0.0000
# 3 20.6692 37.0522 44.1160 0.0000 8.0988 0.0000
# 4 0.0000 0.0000 0.0000-1158.6938 0.0000 105.5857
# 5 11.1269 27.2608 8.0988 0.0000 42.1406 0.0000
# 6 0.0000 0.0000 0.0000 105.5857 0.0000 5.3452
#
#
#
# Elastic Compliance Matrix: (Units=1/GPa)
#
#
# Indices 1 2 3 4 5 6 
#
# 1 0.013823 -0.003010 -0.003768 0.000000 -0.000978 0.000000
# 2 -0.003010 0.012002 -0.007660 0.000000 -0.005497 0.000000
# 3 -0.003768 -0.007660 0.030863 0.000000 0.000019 0.000000
# 4 0.000000 0.000000 0.000000 -0.000308 0.000000 0.006089
# 5 -0.000978 -0.005497 0.000019 0.000000 0.027541 0.000000
# 6 0.000000 0.000000 0.000000 0.006089 0.000000 0.066815
#
#
# Mechanical properties :
#
#
# Convention : Reuss Voigt Hill
#
# Bulk Modulus (GPa) = 35.95881 50.79229 43.37555
# Shear Modulus (GPa) = 26.47132 -211.35943 -92.44406
#
# Velocity S-wave (km/s) = 3.44953 -9.74728 -6.44633
# Velocity P-wave (km/s) = 5.65949 10.19055 5.99240
#
# Compressibility (1/GPa) = 0.02780960
#
# Stress axis : x y z
#
# Youngs Moduli (GPa) = 72.34437 83.32171 32.40081
#
# Poissons Ratio (x) = 0.25083 0.12210
# Poissons Ratio (y) = 0.21779 0.24820
# Poissons Ratio (z) = 0.27261 0.63828
#
# Static dielectric constant tensor:
#      x y z
#    x 1.839290 0.000000 0.028270 
#    y 0.000000 1.837780 0.000000 
#    z 0.028270 0.000000 1.863060 
# 
# From -- ./inp_files/267565.got.cif
#   From: 2010.05.17/outbox.cif.g08.bks.cpg/sg12_134_cif.got.tgz:267565.got - 2010.06.03 13:09:07.
