data_PCOD9204910
_publ_section_title
;
Structure prediction by ZEFSAII (Michael W. Deem and Ramdas Pophale) SiO2 
 PCOD9204910
Probable space group: C 2/M
;
_chemical_formula_sum "Si O2"
_cell_formula_units_Z 44
_cell_length_a 19.702138
_cell_length_b 13.220001
_cell_length_c 21.937986
_cell_angle_alpha 90.000000
_cell_angle_beta 22.046449
_cell_angle_gamma 90.000000
_cell_volume 2144.803072
_symmetry_space_group_name_H-M "C 2/M"
_symmetry_group_IT_number 12
_symmetry_cell_setting 'monoclinic'
loop_
_space_group_symop_operation_xyz
x,y,z
-x,y,-z
-x,-y,-z
x,-y,z
1/2+x,1/2+y,z
1/2-x,1/2+y,-z
1/2-x,1/2-y,-z
1/2+x,1/2-y,z
loop_
_atom_site_type_symbol
_atom_site_label
_atom_site_fract_x
_atom_site_fract_y
_atom_site_fract_z
Si Si1 0.500000 0.750577 0.500000
Si Si2 0.587347 0.109719 0.638258
Si Si3 0.506326 0.685264 0.160211
Si Si4 0.650143 0.385685 0.827411
Si Si5 0.322950 0.889015 0.974731
Si Si6 0.861155 0.783339 0.488548
O O1 0.328679 0.818974 0.664591
O O2 0.554100 0.689739 0.516597
O O3 0.446321 0.106770 0.811131
O O4 0.780424 0.132336 0.510560
O O5 0.531221 0.200658 0.640461
O O6 0.590753 0.000000 0.604790
O O7 0.460688 0.612706 0.143284
O O8 0.603226 0.788028 0.054572
O O9 0.318433 0.720663 0.344723
O O10 0.626468 0.635508 0.112302
O O11 0.702272 0.500000 0.802407
O O12 0.500000 0.345689 0.000000
O O13 0.333389 0.000000 0.995898
#
# Coordination Sequence:
#
# PCOD9204910 Si02
#       6
#     4   8   8   8   8   8
#     4  10  21  36  53  74 108 140 171 212 261 310
#     4   9  18  32  52  75 100 131 170 211 251 303
#     4   9  18  32  48  71 102 130 161 207 253 299
#     4  10  21  34  51  75 103 135 169 207 254 310
#     4   9  17  30  51  74  96 129 167 204 251 301
#     4   9  19  34  50  73 103 134 167 208 258 306
#
# _framework density 20.514704999999999
#
# number of rings (size 3 to 8) (size 9 to 14) (size 15 to 20)
#    0.000    2.727    0.000    0.818    2.545    4.364 
#    0.000    0.455    0.000    1.636    0.000    0.000 
#    0.000    0.000    0.000    0.000    0.000    0.000 
#
# Total GULP energy -122482.404679 kJ/mol
# GULP energy per Si atom -5567.382031 kJ/mol
# Density = 2.046801 g / cm^3
# Si number density = 20.514705 Si / 1000 Ang^3
#
#
#
# Elastic Constant Matrix: (Units=GPa)
#
#
# Indices 1 2 3 4 5 6 
#
# 1 60.1869 -8.7766 4.0944 -0.0020 -0.1620 0.0002
# 2 -8.7766 52.4907 4.5282 -0.0065 3.5738 0.0007
# 3 4.0944 4.5282 64.2386 0.0011 -1.3583 0.0000
# 4 -0.0020 -0.0065 0.0011 -2.6581 -0.0023 -3.2283
# 5 -0.1620 3.5738 -1.3583 -0.0023 13.6370 0.0003
# 6 0.0002 0.0007 0.0000 -3.2283 0.0003 14.3129
#
#
#
# Elastic Compliance Matrix: (Units=1/GPa)
#
#
# Indices 1 2 3 4 5 6 
#
# 1 0.017145 0.003030 -0.001322 -0.000015 -0.000722 -0.000004
# 2 0.003030 0.020074 -0.001722 -0.000036 -0.005396 -0.000009
# 3 -0.001322 -0.001722 0.015815 0.000008 0.002011 0.000002
# 4 -0.000015 -0.000036 0.000008 -0.295312 -0.000039 -0.066609
# 5 -0.000722 -0.005396 0.002011 -0.000039 0.074936 -0.000010
# 6 -0.000004 -0.000009 0.000002 -0.066609 -0.000010 0.054843
#
#
# Mechanical properties :
#
#
# Convention : Reuss Voigt Hill
#
# Bulk Modulus (GPa) = 18.86603 19.62314 19.24458
# Shear Modulus (GPa) = -52.74040 16.86306 -17.93867
#
# Velocity S-wave (km/s) = -5.07586 2.87016 -2.96028
# Velocity P-wave (km/s) = 5.01360 4.53541 1.51101
#
# Compressibility (1/GPa) = 0.05300534
#
# Stress axis : x y z
#
# Youngs Moduli (GPa) = 58.32715 49.81685 63.23061
#
# Poissons Ratio (x) = -0.15094 0.08357
# Poissons Ratio (y) = -0.17672 0.10890
# Poissons Ratio (z) = 0.07709 0.08579
#
# Static dielectric constant tensor:
#      x y z
#    x 1.761300 0.000000 0.019800 
#    y 0.000000 1.790480 0.000000 
#    z 0.019800 0.000000 1.790590 
# 
# From -- ./inp_files/85076.got.cif
#   From: 2010.05.17/outbox.cif.g08.bks.cpg/sg12_43_cif.got.tgz:85076.got - 2010.06.03 13:09:07.
