data_PCOD9204710
_publ_section_title
;
Structure prediction by ZEFSAII (Michael W. Deem and Ramdas Pophale) SiO2 
 PCOD9204710
Probable space group: C 2/M
;
_chemical_formula_sum "Si O2"
_cell_formula_units_Z 48
_cell_length_a 10.956967
_cell_length_b 27.370253
_cell_length_c 8.565950
_cell_angle_alpha 90.000000
_cell_angle_beta 63.338151
_cell_angle_gamma 90.000000
_cell_volume 2295.736618
_symmetry_space_group_name_H-M "C 2/M"
_symmetry_group_IT_number 12
_symmetry_cell_setting 'monoclinic'
loop_
_space_group_symop_operation_xyz
x,y,z
-x,y,-z
-x,-y,-z
x,-y,z
1/2+x,1/2+y,z
1/2-x,1/2+y,-z
1/2-x,1/2-y,-z
1/2+x,1/2-y,z
loop_
_atom_site_type_symbol
_atom_site_label
_atom_site_fract_x
_atom_site_fract_y
_atom_site_fract_z
Si Si1 0.709565 0.227453 0.695347
Si Si2 0.420082 0.648102 0.700103
Si Si3 0.144997 0.080448 0.992952
Si Si4 0.456870 0.946015 0.842538
Si Si5 0.826174 0.169211 0.256435
Si Si6 0.078615 0.350028 0.610897
O O1 0.750000 0.250000 0.500000
O O2 0.809857 0.188017 0.712893
O O3 0.709285 0.277662 0.789360
O O4 0.577085 0.194282 0.735096
O O5 0.500000 0.632841 0.500000
O O6 0.525624 0.674600 0.754172
O O7 0.374926 0.600177 0.820040
O O8 0.292139 0.054074 0.911033
O O9 0.172777 0.128618 0.874817
O O10 0.000000 0.060599 0.000000
O O11 0.522805 0.900554 0.711310
O O12 0.507260 0.000000 0.763724
O O13 0.500000 0.940058 0.000000
O O14 0.731228 0.148359 0.451461
O O15 0.000000 0.335560 0.500000
#
# Coordination Sequence:
#
# PCOD9204710 Si02
#       6
#     8   8   8   8   8   8
#     4  10  21  32  59  89 126 168 211 252 300 366
#     4  11  20  36  59  82 116 168 208 252 303 366
#     4  10  23  43  62  89 128 162 207 261 316 374
#     4  11  25  44  68  95 123 158 210 269 327 375
#     4  10  22  37  58  92 123 170 210 251 301 375
#     4  11  21  37  63  88 126 163 201 255 308 370
#
# _framework density 20.908322999999999
#
# number of rings (size 3 to 8) (size 9 to 14) (size 15 to 20)
#    0.000    1.500    5.000    1.000    4.667    1.333 
#    0.000    5.833    0.000    0.500    0.000    0.000 
#    0.000    0.000    0.000    0.000    0.000    0.000 
#
# Total GULP energy -133635.582352 kJ/mol
# GULP energy per Si atom -5568.149265 kJ/mol
# Density = 2.086073 g / cm^3
# Si number density = 20.908323 Si / 1000 Ang^3
#
#
#
# Elastic Constant Matrix: (Units=GPa)
#
#
# Indices 1 2 3 4 5 6 
#
# 1 113.7200 50.1368 11.7242 0.0000 16.4750 0.0000
# 2 50.1368 115.6477 34.1087 0.0000 -5.2878 0.0000
# 3 11.7242 34.1087 48.5809 0.0000 4.0282 0.0000
# 4 0.0000 0.0000 0.0000 5.2000 0.0000 -10.0607
# 5 16.4750 -5.2878 4.0282 0.0000 28.6840 0.0000
# 6 0.0000 0.0000 0.0000 -10.0607 0.0000 13.6987
#
#
#
# Elastic Compliance Matrix: (Units=1/GPa)
#
#
# Indices 1 2 3 4 5 6 
#
# 1 0.012758 -0.006615 0.002301 0.000000 -0.008870 0.000000
# 2 -0.006615 0.014619 -0.009314 0.000000 0.007802 0.000000
# 3 0.002301 -0.009314 0.027136 0.000000 -0.006850 0.000000
# 4 0.000000 0.000000 0.000000 -0.456858 0.000000 -0.335529
# 5 -0.008870 0.007802 -0.006850 0.000000 0.042358 0.000000
# 6 0.000000 0.000000 0.000000 -0.335529 0.000000 -0.173422
#
#
# Mechanical properties :
#
#
# Convention : Reuss Voigt Hill
#
# Bulk Modulus (GPa) = 36.68881 52.20977 44.44929
# Shear Modulus (GPa) = -10.05899 21.64849 5.79475
#
# Velocity S-wave (km/s) = -2.19578 3.22125 1.66659
# Velocity P-wave (km/s) = 3.34021 6.23381 5.00086
#
# Compressibility (1/GPa) = 0.02725627
#
# Stress axis : x y z
#
# Youngs Moduli (GPa) = 78.38311 68.40540 36.85086
#
# Poissons Ratio (x) = 0.45251 -0.08480
# Poissons Ratio (y) = 0.51852 0.34324
# Poissons Ratio (z) = -0.18037 0.63715
#
# Static dielectric constant tensor:
#      x y z
#    x 1.916900 0.000000 -0.032000 
#    y 0.000000 1.770850 0.000000 
#    z -0.032000 0.000000 1.871530 
# 
# From -- ./inp_files/50638.got.cif
#   From: 2010.05.17/outbox.cif.g08.bks.cpg/sg12_26_cif.got.tgz:50638.got - 2010.06.03 13:09:07.
