data_PCOD9204546
_publ_section_title
;
Structure prediction by ZEFSAII (Michael W. Deem and Ramdas Pophale) SiO2 
 PCOD9204546
Probable space group: C 2/M
;
_chemical_formula_sum "Si O2"
_cell_formula_units_Z 56
_cell_length_a 31.347419
_cell_length_b 8.540492
_cell_length_c 18.692508
_cell_angle_alpha 90.000000
_cell_angle_beta 144.079493
_cell_angle_gamma 90.000000
_cell_volume 2935.894153
_symmetry_space_group_name_H-M "C 2/M"
_symmetry_group_IT_number 12
_symmetry_cell_setting 'monoclinic'
loop_
_space_group_symop_operation_xyz
x,y,z
-x,y,-z
-x,-y,-z
x,-y,z
1/2+x,1/2+y,z
1/2-x,1/2+y,-z
1/2-x,1/2-y,-z
1/2+x,1/2-y,z
loop_
_atom_site_type_symbol
_atom_site_label
_atom_site_fract_x
_atom_site_fract_y
_atom_site_fract_z
Si Si1 0.671879 0.187921 0.869845
Si Si2 0.914759 0.689103 0.389512
Si Si3 0.735477 0.811746 0.560196
Si Si4 0.610232 0.315749 0.490386
Si Si5 0.966874 0.314692 0.228653
Si Si6 0.017198 0.189896 0.907433
Si Si7 0.884940 0.189659 0.828941
O O1 0.635423 0.242475 0.745260
O O2 0.612140 0.226942 0.848779
O O3 0.677409 0.000000 0.872432
O O4 0.750000 0.250000 0.000000
O O5 0.916650 0.500000 0.390126
O O6 0.881284 0.741948 0.419501
O O7 0.000000 0.741385 0.500000
O O8 0.750000 0.750000 0.500000
O O9 0.663410 0.753019 0.501886
O O10 0.804414 0.757904 0.701345
O O11 0.734046 0.000000 0.555653
O O12 0.621705 0.500000 0.509865
O O13 0.528535 0.276402 0.355418
O O14 0.978311 0.500000 0.255958
O O15 0.974269 0.271153 0.156262
O O16 0.941551 0.233419 0.843398
O O17 0.018163 0.000000 0.900537
O O18 0.080540 0.237256 0.048841
O O19 0.884773 0.000000 0.829637
#
# Coordination Sequence:
#
# PCOD9204546 Si02
#       7
#     8   8   8   8   8   8   8
#     4  10  23  41  63  89 122 159 195 246 311 373
#     4  10  20  42  68  88 119 161 204 253 311 371
#     4  11  22  38  59  87 124 163 202 249 303 359
#     4  12  25  39  60  91 120 157 207 257 305 362
#     4  11  22  39  59  85 117 153 194 244 304 366
#     4   9  17  34  59  85 111 148 195 243 289 352
#     4   8  17  34  56  80 113 153 194 238 293 351
#
# _framework density 19.074256999999999
#
# number of rings (size 3 to 8) (size 9 to 14) (size 15 to 20)
#    0.000    1.857    1.429    3.857    0.000    4.286 
#    0.000    7.857    0.000    0.000    0.000    0.000 
#    0.000    0.000    0.000    0.000    0.000    0.000 
#
# Total GULP energy -156340.447944 kJ/mol
# GULP energy per Si atom -5583.587427 kJ/mol
# Density = 1.903084 g / cm^3
# Si number density = 19.074257 Si / 1000 Ang^3
#
#
#
# Elastic Constant Matrix: (Units=GPa)
#
#
# Indices 1 2 3 4 5 6 
#
# 1 79.4149 14.4637 37.1961 0.0000 -14.4108 0.0000
# 2 14.4637 29.6171 17.5968 0.0000 1.9123 0.0000
# 3 37.1961 17.5968 112.4736 0.0000 6.1072 0.0000
# 4 0.0000 0.0000 0.0000 25.3325 0.0000 -4.1114
# 5 -14.4108 1.9123 6.1072 0.0000 33.3007 0.0000
# 6 0.0000 0.0000 0.0000 -4.1114 0.0000 31.7648
#
#
#
# Elastic Compliance Matrix: (Units=1/GPa)
#
#
# Indices 1 2 3 4 5 6 
#
# 1 0.017913 -0.006088 -0.005466 0.000000 0.009104 0.000000
# 2 -0.006088 0.039332 -0.003913 0.000000 -0.004176 0.000000
# 3 -0.005466 -0.003913 0.011542 0.000000 -0.004257 0.000000
# 4 0.000000 0.000000 0.000000 0.040322 0.000000 0.005219
# 5 0.009104 -0.004176 -0.004257 0.000000 0.034990 0.000000
# 6 0.000000 0.000000 0.000000 0.005219 0.000000 0.032157
#
#
# Mechanical properties :
#
#
# Convention : Reuss Voigt Hill
#
# Bulk Modulus (GPa) = 26.41853 40.00211 33.21032
# Shear Modulus (GPa) = 22.74709 28.22953 25.48831
#
# Velocity S-wave (km/s) = 3.45708 3.85122 3.65946
# Velocity P-wave (km/s) = 5.46037 6.38696 5.94175
#
# Compressibility (1/GPa) = 0.03785222
#
# Stress axis : x y z
#
# Youngs Moduli (GPa) = 55.82539 25.42442 86.63994
#
# Poissons Ratio (x) = 0.15479 0.47356
# Poissons Ratio (y) = 0.33988 0.33906
# Poissons Ratio (z) = 0.30513 0.09950
#
# Static dielectric constant tensor:
#      x y z
#    x 1.638650 0.000000 -0.003180 
#    y 0.000000 1.651810 0.000000 
#    z -0.003180 0.000000 1.667980 
# 
# From -- ./inp_files/292508.got.cif
#   From: 2010.05.17/outbox.cif.g08.bks.cpg/sg12_147_cif.got.tgz:292508.got - 2010.06.03 13:09:07.
