data_PCOD9204280
_publ_section_title
;
Structure prediction by ZEFSAII (Michael W. Deem and Ramdas Pophale) SiO2 
 PCOD9204280
Probable space group: C 2/M
;
_chemical_formula_sum "Si O2"
_cell_formula_units_Z 50
_cell_length_a 8.987228
_cell_length_b 24.629266
_cell_length_c 11.351973
_cell_angle_alpha 90.000000
_cell_angle_beta 75.863997
_cell_angle_gamma 90.000000
_cell_volume 2436.656826
_symmetry_space_group_name_H-M "C 2/M"
_symmetry_group_IT_number 12
_symmetry_cell_setting 'monoclinic'
loop_
_space_group_symop_operation_xyz
x,y,z
-x,y,-z
-x,-y,-z
x,-y,z
1/2+x,1/2+y,z
1/2-x,1/2+y,-z
1/2-x,1/2-y,-z
1/2+x,1/2-y,z
loop_
_atom_site_type_symbol
_atom_site_label
_atom_site_fract_x
_atom_site_fract_y
_atom_site_fract_z
Si Si1 0.344769 0.661483 0.457693
Si Si2 0.137837 0.324667 0.704278
Si Si3 0.681026 0.308405 0.973873
Si Si4 0.000000 0.500000 0.000000
Si Si5 0.001984 0.939120 0.645336
Si Si6 0.283160 0.903169 0.131553
Si Si7 0.184878 0.721883 0.287552
O O1 0.500000 0.677674 0.500000
O O2 0.220775 0.646049 0.579996
O O3 0.385909 0.611954 0.363469
O O4 0.260614 0.705964 0.396127
O O5 0.099163 0.368531 0.810041
O O6 0.264417 0.284216 0.736410
O O7 0.994314 0.289953 0.688074
O O8 0.742954 0.313937 0.829750
O O9 0.500000 0.301764 0.000000
O O10 0.750000 0.250000 0.000000
O O11 0.720625 0.359634 0.048423
O O12 0.128431 0.452576 0.943587
O O13 0.850845 0.923982 0.751603
O O14 0.000000 0.940280 0.500000
O O15 0.049638 0.000000 0.671177
#
# Coordination Sequence:
#
# PCOD9204280 Si02
#       7
#     8   8   8   2   8   8   8
#     4  11  22  41  69 101 137 180 228 283 354 417
#     4  12  24  41  68 101 144 182 231 289 351 427
#     4  12  26  43  71 105 145 191 240 295 359 439
#     4  12  28  44  72 104 146 192 242 302 356 436
#     4  10  20  40  71 100 124 176 240 287 334 415
#     4  12  24  46  70 102 141 191 240 289 361 423
#     4  12  25  41  65 103 144 182 228 285 351 427
#
# _framework density 20.519919000000002
#
# number of rings (size 3 to 8) (size 9 to 14) (size 15 to 20)
#    0.000    0.480    5.600    4.800    1.120    0.000 
#    0.000    0.400   10.560    0.960    0.000    0.000 
#    0.000    0.000    0.000    0.000    0.000    0.000 
#
# Total GULP energy -139194.249279 kJ/mol
# GULP energy per Si atom -5567.769971 kJ/mol
# Density = 2.047321 g / cm^3
# Si number density = 20.519919 Si / 1000 Ang^3
#
#
#
# Elastic Constant Matrix: (Units=GPa)
#
#
# Indices 1 2 3 4 5 6 
#
# 1 119.1012 59.6495 44.7535 0.0000 -17.4869 0.0000
# 2 59.6495 142.9585 48.4738 0.0000 -2.3557 0.0000
# 3 44.7535 48.4738 108.9560 0.0000 -11.5751 0.0000
# 4 0.0000 0.0000 0.0000 22.5845 0.0000 -12.5443
# 5 -17.4869 -2.3557 -11.5751 0.0000 37.3228 0.0000
# 6 0.0000 0.0000 0.0000 -12.5443 0.0000 23.8865
#
#
#
# Elastic Compliance Matrix: (Units=1/GPa)
#
#
# Indices 1 2 3 4 5 6 
#
# 1 0.012115 -0.004072 -0.002677 0.000000 0.004589 0.000000
# 2 -0.004072 0.009621 -0.002840 0.000000 -0.002181 0.000000
# 3 -0.002677 -0.002840 0.011777 0.000000 0.002219 0.000000
# 4 0.000000 0.000000 0.000000 0.062513 0.000000 0.032829
# 5 0.004589 -0.002181 0.002219 0.000000 0.029494 0.000000
# 6 0.000000 0.000000 0.000000 0.032829 0.000000 0.059105
#
#
# Mechanical properties :
#
#
# Convention : Reuss Voigt Hill
#
# Bulk Modulus (GPa) = 69.75569 75.19658 72.47614
# Shear Modulus (GPa) = 23.97158 31.30137 27.63647
#
# Velocity S-wave (km/s) = 3.42162 3.90989 3.67388
# Velocity P-wave (km/s) = 7.04825 7.55700 7.30705
#
# Compressibility (1/GPa) = 0.01433575
#
# Stress axis : x y z
#
# Youngs Moduli (GPa) = 82.54060 103.94142 84.91324
#
# Poissons Ratio (x) = 0.42321 0.22734
# Poissons Ratio (y) = 0.33608 0.24111
# Poissons Ratio (z) = 0.22099 0.29514
#
# Static dielectric constant tensor:
#      x y z
#    x -2.418240 0.000000 0.866720 
#    y 0.000000 1.750050 0.000000 
#    z 0.866720 0.000000 1.619850 
# 
# From -- ./inp_files/123578.got.cif
#   From: 2010.05.17/outbox.cif.g08.bks.cpg/sg12_62_cif.got.tgz:123578.got - 2010.06.03 13:09:07.
