data_PCOD9204501
_publ_section_title
;
Structure prediction by ZEFSAII (Michael W. Deem and Ramdas Pophale) SiO2 
 PCOD9204501
Probable space group: C 2/M
;
_chemical_formula_sum "Si O2"
_cell_formula_units_Z 36
_cell_length_a 11.454899
_cell_length_b 27.772790
_cell_length_c 4.948147
_cell_angle_alpha 90.000000
_cell_angle_beta 68.514419
_cell_angle_gamma 90.000000
_cell_volume 1464.786424
_symmetry_space_group_name_H-M "C 2/M"
_symmetry_group_IT_number 12
_symmetry_cell_setting 'monoclinic'
loop_
_space_group_symop_operation_xyz
x,y,z
-x,y,-z
-x,-y,-z
x,-y,z
1/2+x,1/2+y,z
1/2-x,1/2+y,-z
1/2-x,1/2-y,-z
1/2+x,1/2-y,z
loop_
_atom_site_type_symbol
_atom_site_label
_atom_site_fract_x
_atom_site_fract_y
_atom_site_fract_z
Si Si1 0.638037 0.201384 0.354369
Si Si2 0.299513 0.692167 0.732124
Si Si3 0.120752 0.443692 0.564595
Si Si4 0.711750 0.556585 0.087300
Si Si5 0.500000 0.617162 0.500000
O O1 0.500000 0.181152 0.500000
O O2 0.632456 0.257189 0.260910
O O3 0.692742 0.202468 0.606667
O O4 0.732259 0.175771 0.065519
O O5 0.391999 0.654835 0.509504
O O6 0.089482 0.500000 0.645565
O O7 0.179082 0.424821 0.796370
O O8 0.000000 0.425016 0.500000
O O9 0.234885 0.440433 0.257739
O O10 0.694062 0.500000 0.168063
O O11 0.580121 0.583431 0.235235
#
# Coordination Sequence:
#
# PCOD9204501 Si02
#       5
#     8   8   8   8   4
#     4  10  20  42  64  90 118 154 198 246 306 370
#     4  10  23  37  64  90 119 158 195 246 306 360
#     4   9  18  37  62  88 115 158 211 253 305 360
#     4  10  22  38  62  89 125 169 204 252 305 358
#     4  12  25  44  58  94 126 164 210 256 297 376
#
# _framework density 24.57696
#
# number of rings (size 3 to 8) (size 9 to 14) (size 15 to 20)
#    0.000    2.000    1.111    1.667    0.000    8.000 
#    0.000   10.000    0.000    0.000    0.000    0.000 
#    0.000    0.000    0.000    0.000    0.000    0.000 
#
# Total GULP energy -100535.920806 kJ/mol
# GULP energy per Si atom -5585.328934 kJ/mol
# Density = 2.452102 g / cm^3
# Si number density = 24.576960 Si / 1000 Ang^3
#
#
#
# Elastic Constant Matrix: (Units=GPa)
#
#
# Indices 1 2 3 4 5 6 
#
# 1 54.1942 16.6051 29.7315 0.0000 -9.6807 0.0000
# 2 16.6051 91.8324 1.5653 0.0000 -12.0190 0.0000
# 3 29.7315 1.5653 105.3260 0.0000 0.3847 0.0000
# 4 0.0000 0.0000 0.0000 1.6947 0.0000 -13.1817
# 5 -9.6807 -12.0190 0.3847 0.0000 47.7563 0.0000
# 6 0.0000 0.0000 0.0000 -13.1817 0.0000 14.0763
#
#
#
# Elastic Compliance Matrix: (Units=1/GPa)
#
#
# Indices 1 2 3 4 5 6 
#
# 1 0.023992 -0.003702 -0.006732 0.000000 0.003986 0.000000
# 2 -0.003702 0.011835 0.000861 0.000000 0.002221 0.000000
# 3 -0.006732 0.000861 0.011386 0.000000 -0.001240 0.000000
# 4 0.000000 0.000000 0.000000 -0.093904 0.000000 -0.087936
# 5 0.003986 0.002221 -0.001240 0.000000 0.022317 0.000000
# 6 0.000000 0.000000 0.000000 -0.087936 0.000000 -0.011306
#
#
# Mechanical properties :
#
#
# Convention : Reuss Voigt Hill
#
# Bulk Modulus (GPa) = 35.62865 38.57295 37.10080
# Shear Modulus (GPa) = -696.46452 26.26884 -335.09784
#
# Velocity S-wave (km/s) = -16.85219 3.27286 -11.68941
# Velocity P-wave (km/s) = 19.08228 5.47823 12.92522
#
# Compressibility (1/GPa) = 0.02806730
#
# Stress axis : x y z
#
# Youngs Moduli (GPa) = 41.68126 84.49668 87.82439
#
# Poissons Ratio (x) = 0.31278 0.59123
# Poissons Ratio (y) = 0.15429 -0.07561
# Poissons Ratio (z) = 0.28059 -0.07275
#
# Static dielectric constant tensor:
#      x y z
#    x 1.963170 0.000000 0.014580 
#    y 0.000000 2.052720 0.000000 
#    z 0.014580 0.000000 1.936210 
# 
# From -- ./inp_files/8062.got.cif
#   From: 2010.05.17/outbox.cif.g08.bks.cpg/sg12_5_cif.got.tgz:8062.got - 2010.06.03 13:09:07.
