data_PCOD9204181
_publ_section_title
;
Structure prediction by ZEFSAII (Michael W. Deem and Ramdas Pophale) SiO2 
 PCOD9204181
Probable space group: C 2/M
;
_chemical_formula_sum "Si O2"
_cell_formula_units_Z 56
_cell_length_a 20.199889
_cell_length_b 8.777608
_cell_length_c 25.408123
_cell_angle_alpha 90.000000
_cell_angle_beta 139.927854
_cell_angle_gamma 90.000000
_cell_volume 2900.121088
_symmetry_space_group_name_H-M "C 2/M"
_symmetry_group_IT_number 12
_symmetry_cell_setting 'monoclinic'
loop_
_space_group_symop_operation_xyz
x,y,z
-x,y,-z
-x,-y,-z
x,-y,z
1/2+x,1/2+y,z
1/2-x,1/2+y,-z
1/2-x,1/2-y,-z
1/2+x,1/2-y,z
loop_
_atom_site_type_symbol
_atom_site_label
_atom_site_fract_x
_atom_site_fract_y
_atom_site_fract_z
Si Si1 0.226820 0.180350 0.730733
Si Si2 0.009145 0.321363 0.568167
Si Si3 0.074270 0.180651 0.197737
Si Si4 0.497016 0.180760 0.259876
Si Si5 0.223332 0.180696 0.852437
Si Si6 0.863211 0.818110 0.562322
Si Si7 0.552117 0.816800 0.975550
O O1 0.310723 0.268486 0.747626
O O2 0.247048 0.204631 0.805072
O O3 0.113183 0.239815 0.649750
O O4 0.234632 0.000000 0.725196
O O5 0.012987 0.500000 0.584927
O O6 0.914396 0.243387 0.540031
O O7 0.000000 0.309096 0.500000
O O8 0.037748 0.263174 0.228401
O O9 0.003345 0.233233 0.105888
O O10 0.068896 0.000000 0.201600
O O11 0.377899 0.227884 0.193622
O O12 0.563020 0.261371 0.345739
O O13 0.508198 0.000000 0.271754
O O14 0.202331 0.000000 0.846389
O O15 0.326815 0.218910 0.946961
O O16 0.750000 0.750000 0.500000
O O17 0.859293 0.000000 0.559813
O O18 0.540343 0.000000 0.961588
O O19 0.500000 0.778560 0.000000
#
# Coordination Sequence:
#
# PCOD9204181 Si02
#       7
#     8   8   8   8   8   8   8
#     4  11  22  41  68  96 130 172 219 266 322 385
#     4  11  25  44  67  99 136 171 216 269 320 379
#     4  12  26  42  64  96 134 171 220 273 323 386
#     4  12  26  45  68  94 130 173 220 268 326 391
#     4  10  21  40  68  96 128 170 213 265 325 389
#     4  12  26  46  70  97 133 173 217 267 326 388
#     4  10  20  40  66  94 130 170 215 267 327 387
#
# _framework density 19.309538
#
# number of rings (size 3 to 8) (size 9 to 14) (size 15 to 20)
#    0.000    0.857    2.857    4.714    2.000    3.143 
#    0.000    0.000    0.000    0.000    0.000    0.000 
#    0.000    0.000    0.000    0.000    0.000    0.000 
#
# Total GULP energy -156703.459871 kJ/mol
# GULP energy per Si atom -5596.552138 kJ/mol
# Density = 1.926559 g / cm^3
# Si number density = 19.309538 Si / 1000 Ang^3
#
#
#
# Elastic Constant Matrix: (Units=GPa)
#
#
# Indices 1 2 3 4 5 6 
#
# 1 114.7950 46.5523 30.5734 0.0000 12.3835 0.0000
# 2 46.5523 75.5213 20.8211 0.0000 1.8362 0.0000
# 3 30.5734 20.8211 63.7979 0.0000 20.7851 0.0000
# 4 0.0000 0.0000 0.0000 35.0342 0.0000 3.0798
# 5 12.3835 1.8362 20.7851 0.0000 30.5605 0.0000
# 6 0.0000 0.0000 0.0000 3.0798 0.0000 34.9073
#
#
#
# Elastic Compliance Matrix: (Units=1/GPa)
#
#
# Indices 1 2 3 4 5 6 
#
# 1 0.012565 -0.006882 -0.002892 0.000000 -0.002711 0.000000
# 2 -0.006882 0.018541 -0.004238 0.000000 0.004557 0.000000
# 3 -0.002892 -0.004238 0.023097 0.000000 -0.014282 0.000000
# 4 0.000000 0.000000 0.000000 0.028767 0.000000 -0.002538
# 5 -0.002711 0.004557 -0.014282 0.000000 0.043260 0.000000
# 6 0.000000 0.000000 0.000000 -0.002538 0.000000 0.028871
#
#
# Mechanical properties :
#
#
# Convention : Reuss Voigt Hill
#
# Bulk Modulus (GPa) = 38.19873 50.00089 44.09981
# Shear Modulus (GPa) = 26.06211 30.51157 28.28684
#
# Velocity S-wave (km/s) = 3.67781 3.97940 3.83157
# Velocity P-wave (km/s) = 6.15308 6.86037 6.51633
#
# Compressibility (1/GPa) = 0.02617888
#
# Stress axis : x y z
#
# Youngs Moduli (GPa) = 79.58883 53.93512 43.29651
#
# Poissons Ratio (x) = 0.37117 0.12522
# Poissons Ratio (y) = 0.54771 0.18348
# Poissons Ratio (z) = 0.23018 0.22856
#
# Static dielectric constant tensor:
#      x y z
#    x 1.649660 0.000000 0.000000 
#    y 0.000000 1.647040 0.000000 
#    z 0.000000 0.000000 1.651790 
# 
# From -- ./inp_files/363243.got.cif
#   From: 2010.05.17/outbox.cif.g08.bks.cpg/sg12_182_cif.got.tgz:363243.got - 2010.06.03 13:09:07.
