data_PCOD9204469
_publ_section_title
;
Structure prediction by ZEFSAII (Michael W. Deem and Ramdas Pophale) SiO2 
 PCOD9204469
Probable space group: C 2/M
;
_chemical_formula_sum "Si O2"
_cell_formula_units_Z 52
_cell_length_a 26.789695
_cell_length_b 18.830345
_cell_length_c 4.894645
_cell_angle_alpha 90.000000
_cell_angle_beta 80.799624
_cell_angle_gamma 90.000000
_cell_volume 2437.383632
_symmetry_space_group_name_H-M "C 2/M"
_symmetry_group_IT_number 12
_symmetry_cell_setting 'monoclinic'
loop_
_space_group_symop_operation_xyz
x,y,z
-x,y,-z
-x,-y,-z
x,-y,z
1/2+x,1/2+y,z
1/2-x,1/2+y,-z
1/2-x,1/2-y,-z
1/2+x,1/2-y,z
loop_
_atom_site_type_symbol
_atom_site_label
_atom_site_fract_x
_atom_site_fract_y
_atom_site_fract_z
Si Si1 0.942700 0.882332 0.603134
Si Si2 0.843771 0.266242 0.970323
Si Si3 0.749853 0.500000 0.156760
Si Si4 0.443540 0.715166 0.101460
Si Si5 0.299147 0.385448 0.153045
Si Si6 0.182301 0.500000 0.403782
Si Si7 0.866355 0.000000 0.436881
Si Si8 0.809574 0.347907 0.495631
O O1 0.939628 0.855674 0.915960
O O2 0.900837 0.938648 0.561872
O O3 0.000000 0.909001 0.500000
O O4 0.937048 0.812660 0.414796
O O5 0.825898 0.186174 0.035067
O O6 0.811330 0.319546 0.187799
O O7 0.900690 0.267871 0.033516
O O8 0.835008 0.290111 0.669816
O O9 0.717765 0.432535 0.093041
O O10 0.799812 0.500000 0.924646
O O11 0.767189 0.500000 0.449959
O O12 0.500000 0.742860 0.000000
O O13 0.334615 0.437040 0.298252
O O14 0.247588 0.360898 0.350762
O O15 0.160901 0.422984 0.494366
#
# Coordination Sequence:
#
# PCOD9204469 Si02
#       8
#     8   8   4   8   8   4   4   8
#     4  10  21  40  61  87 122 166 217 260 295 336
#     4  12  23  40  63  88 120 156 208 250 316 356
#     4   9  20  36  55  77 117 170 194 245 273 339
#     4  10  22  42  63  88 123 157 204 265 309 360
#     4  10  22  39  56  89 126 165 213 249 292 349
#     4  10  20  42  58  82 114 147 201 231 310 356
#     4  11  21  40  61  89 126 179 213 252 293 345
#     4  11  24  40  61  87 118 163 197 257 300 376
#
# _framework density 21.334350000000001
#
# number of rings (size 3 to 8) (size 9 to 14) (size 15 to 20)
#    0.000    1.538    1.538    4.385    0.000    3.077 
#    5.538    2.308    0.000    0.000    0.000    3.231 
#    0.000    0.000    0.000    0.000    0.000    0.000 
#
# Total GULP energy -144964.409729 kJ/mol
# GULP energy per Si atom -5575.554220 kJ/mol
# Density = 2.128579 g / cm^3
# Si number density = 21.334350 Si / 1000 Ang^3
#
#
#
# Elastic Constant Matrix: (Units=GPa)
#
#
# Indices 1 2 3 4 5 6 
#
# 1 92.6180 22.9700 7.4927 0.0000 17.8330 0.0000
# 2 22.9700 93.6357 -1.8758 0.0000 -2.6718 0.0000
# 3 7.4927 -1.8758 53.7618 0.0000 6.2682 0.0000
# 4 0.0000 0.0000 0.0000 16.2092 0.0000 31.1405
# 5 17.8330 -2.6718 6.2682 0.0000 26.8056 0.0000
# 6 0.0000 0.0000 0.0000 31.1405 0.0000 18.6619
#
#
#
# Elastic Compliance Matrix: (Units=1/GPa)
#
#
# Indices 1 2 3 4 5 6 
#
# 1 0.013525 -0.003597 -0.000945 0.000000 -0.009135 0.000000
# 2 -0.003597 0.011670 0.000508 0.000000 0.003438 0.000000
# 3 -0.000945 0.000508 0.019194 0.000000 -0.003809 0.000000
# 4 0.000000 0.000000 0.000000 -0.027969 0.000000 0.046671
# 5 -0.009135 0.003438 -0.003809 0.000000 0.044616 0.000000
# 6 0.000000 0.000000 0.000000 0.046671 0.000000 -0.024293
#
#
# Mechanical properties :
#
#
# Convention : Reuss Voigt Hill
#
# Bulk Modulus (GPa) = 27.53363 33.02103 30.27733
# Shear Modulus (GPa) = 87.84343 26.43058 57.13700
#
# Velocity S-wave (km/s) = 6.42371 3.52358 5.18072
# Velocity P-wave (km/s) = 8.24333 5.66265 7.07171
#
# Compressibility (1/GPa) = 0.03631922
#
# Stress axis : x y z
#
# Youngs Moduli (GPa) = 73.93953 85.68665 52.09928
#
# Poissons Ratio (x) = 0.30824 0.04925
# Poissons Ratio (y) = 0.26599 -0.02645
# Poissons Ratio (z) = 0.06990 -0.04351
#
# Static dielectric constant tensor:
#      x y z
#    x 1.804260 0.000000 -0.047490 
#    y 0.000000 1.782490 0.000000 
#    z -0.047490 0.000000 1.786750 
# 
# From -- ./inp_files/28559.got.cif
#   From: 2010.05.17/outbox.cif.g08.bks.cpg/sg12_15_cif.got.tgz:28559.got - 2010.06.03 13:09:07.
