data_PCOD9204745
_publ_section_title
;
Structure prediction by ZEFSAII (Michael W. Deem and Ramdas Pophale) SiO2 
 PCOD9204745
Probable space group: C 2/M
;
_chemical_formula_sum "Si O2"
_cell_formula_units_Z 40
_cell_length_a 37.259284
_cell_length_b 14.225207
_cell_length_c 5.206852
_cell_angle_alpha 90.000000
_cell_angle_beta 129.602480
_cell_angle_gamma 90.000000
_cell_volume 2126.340879
_symmetry_space_group_name_H-M "C 2/M"
_symmetry_group_IT_number 12
_symmetry_cell_setting 'monoclinic'
loop_
_space_group_symop_operation_xyz
x,y,z
-x,y,-z
-x,-y,-z
x,-y,z
1/2+x,1/2+y,z
1/2-x,1/2+y,-z
1/2-x,1/2-y,-z
1/2+x,1/2-y,z
loop_
_atom_site_type_symbol
_atom_site_label
_atom_site_fract_x
_atom_site_fract_y
_atom_site_fract_z
Si Si1 0.969103 0.391730 0.102811
Si Si2 0.203263 0.809673 0.775198
Si Si3 0.470297 0.391793 0.121921
Si Si4 0.164390 0.107265 0.104467
Si Si5 0.390544 0.742501 0.832961
O O1 0.956926 0.500000 0.986139
O O2 0.000000 0.390290 0.500000
O O3 0.923543 0.331932 0.965772
O O4 0.000000 0.355754 0.000000
O O5 0.301932 0.623328 0.496537
O O6 0.158243 0.742143 0.531441
O O7 0.250000 0.750000 0.000000
O O8 0.192921 0.869100 0.980966
O O9 0.500000 0.352259 0.500000
O O10 0.460018 0.500000 0.137688
O O11 0.500000 0.387742 0.000000
O O12 0.422547 0.338196 0.855490
O O13 0.125281 0.188605 0.976128
O O14 0.146518 0.000000 0.018114
#
# Coordination Sequence:
#
# PCOD9204745 Si02
#       5
#     8   8   8   8   8
#     4  10  22  39  60  86 119 159 208 254 298 348
#     4  10  23  40  62  86 123 157 204 246 293 365
#     4  10  21  33  49  81 120 153 189 227 273 345
#     4  10  22  38  63  91 121 158 195 244 304 365
#     4  10  23  35  65  84 122 155 200 241 298 357
#
# _framework density 18.81166
#
# number of rings (size 3 to 8) (size 9 to 14) (size 15 to 20)
#    1.200    0.800    0.000    3.000    5.600    0.000 
#    0.000    2.000    0.000    0.000    0.000    0.000 
#    0.000    0.000    0.000    0.000    0.000    0.000 
#
# Total GULP energy -111334.274434 kJ/mol
# GULP energy per Si atom -5566.713722 kJ/mol
# Density = 1.876884 g / cm^3
# Si number density = 18.811660 Si / 1000 Ang^3
#
#
#
# Elastic Constant Matrix: (Units=GPa)
#
#
# Indices 1 2 3 4 5 6 
#
# 1 91.7853 38.9382 58.2271 0.0000 0.6750 0.0000
# 2 38.9382 91.1686 26.6136 0.0000 14.5299 0.0000
# 3 58.2271 26.6136 79.1291 0.0000 6.2415 0.0000
# 4 0.0000 0.0000 0.0000 12.9771 0.0000 9.6394
# 5 0.6750 14.5299 6.2415 0.0000 48.9178 0.0000
# 6 0.0000 0.0000 0.0000 9.6394 0.0000 31.1774
#
#
#
# Elastic Compliance Matrix: (Units=1/GPa)
#
#
# Indices 1 2 3 4 5 6 
#
# 1 0.023054 -0.005940 -0.015234 0.000000 0.003390 0.000000
# 2 -0.005940 0.014184 -0.000075 0.000000 -0.004122 0.000000
# 3 -0.015234 -0.000075 0.024097 0.000000 -0.002842 0.000000
# 4 0.000000 0.000000 0.000000 0.100032 0.000000 -0.030928
# 5 0.003390 -0.004122 -0.002842 0.000000 0.021983 0.000000
# 6 0.000000 0.000000 0.000000 -0.030928 0.000000 0.041637
#
#
# Mechanical properties :
#
#
# Convention : Reuss Voigt Hill
#
# Bulk Modulus (GPa) = 53.08362 56.62676 54.85519
# Shear Modulus (GPa) = 18.26402 27.83475 23.04939
#
# Velocity S-wave (km/s) = 3.11929 3.85080 3.50418
# Velocity P-wave (km/s) = 6.42285 7.06674 6.75248
#
# Compressibility (1/GPa) = 0.01883820
#
# Stress axis : x y z
#
# Youngs Moduli (GPa) = 43.37638 70.50090 41.49918
#
# Poissons Ratio (x) = 0.41875 0.63220
# Poissons Ratio (y) = 0.25764 0.00311
# Poissons Ratio (z) = 0.66080 0.00528
#
# Static dielectric constant tensor:
#      x y z
#    x 1.618960 0.000000 -0.061680 
#    y 0.000000 1.668770 0.000000 
#    z -0.061680 0.000000 1.652230 
# 
# From -- ./inp_files/28051.got.cif
#   From: 2010.05.17/outbox.cif.g08.bks.cpg/sg12_15_cif.got.tgz:28051.got - 2010.06.03 13:09:07.
