data_PCOD9204755
_publ_section_title
;
Structure prediction by ZEFSAII (Michael W. Deem and Ramdas Pophale) SiO2 
 PCOD9204755
Probable space group: C 2/M
;
_chemical_formula_sum "Si O2"
_cell_formula_units_Z 48
_cell_length_a 25.012757
_cell_length_b 19.972267
_cell_length_c 13.784520
_cell_angle_alpha 90.000000
_cell_angle_beta 160.202107
_cell_angle_gamma 90.000000
_cell_volume 2332.383867
_symmetry_space_group_name_H-M "C 2/M"
_symmetry_group_IT_number 12
_symmetry_cell_setting 'monoclinic'
loop_
_space_group_symop_operation_xyz
x,y,z
-x,y,-z
-x,-y,-z
x,-y,z
1/2+x,1/2+y,z
1/2-x,1/2+y,-z
1/2-x,1/2-y,-z
1/2+x,1/2-y,z
loop_
_atom_site_type_symbol
_atom_site_label
_atom_site_fract_x
_atom_site_fract_y
_atom_site_fract_z
Si Si1 0.657137 0.791829 0.708774
Si Si2 0.820028 0.424313 0.660288
Si Si3 0.980296 0.428784 0.739989
Si Si4 0.519767 0.340320 0.150539
Si Si5 0.730585 0.575347 0.152138
Si Si6 0.955231 0.284820 0.174989
O O1 0.500000 0.779339 0.500000
O O2 0.729906 0.865333 0.855466
O O3 0.600564 0.787360 0.499115
O O4 0.799011 0.740368 0.962315
O O5 0.774513 0.500000 0.613273
O O6 0.693415 0.369033 0.470549
O O7 0.838942 0.425575 0.576473
O O8 0.000000 0.412014 0.000000
O O9 0.064306 0.500000 0.899789
O O10 0.073268 0.360268 0.909431
O O11 0.895029 0.430482 0.491386
O O12 0.492744 0.268122 0.154141
O O13 0.500000 0.338078 0.000000
O O14 0.399535 0.392025 0.998119
O O15 0.687193 0.500000 0.046322
#
# Coordination Sequence:
#
# PCOD9204755 Si02
#       6
#     8   8   8   8   8   8
#     4  10  21  40  61  83 112 147 187 241 299 338
#     4  10  21  33  50  79 116 160 194 222 270 330
#     4   9  18  35  54  75 109 149 189 226 274 331
#     4  11  21  35  55  85 120 159 189 231 274 330
#     4   9  18  34  57  86 111 144 193 231 273 337
#     4  10  23  37  58  88 110 148 191 237 284 344
#
# _framework density 20.579802999999998
#
# number of rings (size 3 to 8) (size 9 to 14) (size 15 to 20)
#    0.000    2.167    1.667    1.000    2.333    2.333 
#    0.000    0.000    0.000    0.500    0.000    0.000 
#    0.000    0.000    0.000    0.000    0.000    0.000 
#
# Total GULP energy -133752.445899 kJ/mol
# GULP energy per Si atom -5573.018579 kJ/mol
# Density = 2.053296 g / cm^3
# Si number density = 20.579803 Si / 1000 Ang^3
#
#
#
# Elastic Constant Matrix: (Units=GPa)
#
#
# Indices 1 2 3 4 5 6 
#
# 1 23.1612 24.7891 14.2665 0.0000 8.6897 0.0000
# 2 24.7891 207.4089 62.3327 0.0000 26.8369 0.0000
# 3 14.2665 62.3327 72.2318 0.0000 11.7492 0.0000
# 4 0.0000 0.0000 0.0000 15.1109 0.0000 0.8668
# 5 8.6897 26.8369 11.7492 0.0000 27.6941 0.0000
# 6 0.0000 0.0000 0.0000 0.8668 0.0000 4.5500
#
#
#
# Elastic Compliance Matrix: (Units=1/GPa)
#
#
# Indices 1 2 3 4 5 6 
#
# 1 0.054700 -0.003200 -0.006182 0.000000 -0.011440 0.000000
# 2 -0.003200 0.007190 -0.004944 0.000000 -0.003866 0.000000
# 3 -0.006182 -0.004944 0.019588 0.000000 -0.001580 0.000000
# 4 0.000000 0.000000 0.000000 0.066909 0.000000 -0.012747
# 5 -0.011440 -0.003866 -0.001580 0.000000 0.044115 0.000000
# 6 0.000000 0.000000 0.000000 -0.012747 0.000000 0.222209
#
#
# Mechanical properties :
#
#
# Convention : Reuss Voigt Hill
#
# Bulk Modulus (GPa) = 18.92931 56.17542 37.55237
# Shear Modulus (GPa) = 10.84667 22.89856 16.87262
#
# Velocity S-wave (km/s) = 2.29826 3.33929 2.86643
# Velocity P-wave (km/s) = 4.03245 6.49796 5.40759
#
# Compressibility (1/GPa) = 0.05282811
#
# Stress axis : x y z
#
# Youngs Moduli (GPa) = 18.28149 139.08737 51.05050
#
# Poissons Ratio (x) = 0.44501 0.31559
# Poissons Ratio (y) = 0.05849 0.25237
# Poissons Ratio (z) = 0.11302 0.68760
#
# Static dielectric constant tensor:
#      x y z
#    x 1.815770 0.000000 -0.037990 
#    y 0.000000 1.796500 0.000000 
#    z -0.037990 0.000000 1.710670 
# 
# From -- ./inp_files/241898.got.cif
#   From: 2010.05.17/outbox.cif.g08.bks.cpg/sg12_121_cif.got.tgz:241898.got - 2010.06.03 13:09:07.
