data_PCOD9204558
_publ_section_title
;
Structure prediction by ZEFSAII (Michael W. Deem and Ramdas Pophale) SiO2 
 PCOD9204558
Probable space group: C 2/M
;
_chemical_formula_sum "Si O2"
_cell_formula_units_Z 52
_cell_length_a 16.459263
_cell_length_b 12.135694
_cell_length_c 19.095138
_cell_angle_alpha 90.000000
_cell_angle_beta 137.880010
_cell_angle_gamma 90.000000
_cell_volume 2558.095103
_symmetry_space_group_name_H-M "C 2/M"
_symmetry_group_IT_number 12
_symmetry_cell_setting 'monoclinic'
loop_
_space_group_symop_operation_xyz
x,y,z
-x,y,-z
-x,-y,-z
x,-y,z
1/2+x,1/2+y,z
1/2-x,1/2+y,-z
1/2-x,1/2-y,-z
1/2+x,1/2-y,z
loop_
_atom_site_type_symbol
_atom_site_label
_atom_site_fract_x
_atom_site_fract_y
_atom_site_fract_z
Si Si1 0.909394 0.500000 0.878451
Si Si2 0.764873 0.127337 0.923694
Si Si3 0.432873 0.256909 0.382440
Si Si4 0.507678 0.192407 0.281517
Si Si5 0.638372 0.000000 0.296527
Si Si6 0.669522 0.749045 0.173705
Si Si7 0.393690 0.500000 0.376685
Si Si8 0.982767 0.869752 0.155652
O O1 0.956873 0.500000 0.829227
O O2 0.843978 0.381217 0.840409
O O3 0.000000 0.500000 0.000000
O O4 0.621270 0.146847 0.829779
O O5 0.818926 0.202476 0.896799
O O6 0.786846 0.000000 0.918304
O O7 0.841249 0.145210 0.043506
O O8 0.500000 0.246193 0.500000
O O9 0.499511 0.200388 0.359943
O O10 0.293505 0.217472 0.293653
O O11 0.415582 0.385926 0.351348
O O12 0.516746 0.310275 0.249643
O O13 0.612049 0.109367 0.323384
O O14 0.768757 0.000000 0.341747
O O15 0.560019 0.693972 0.145814
O O16 0.500000 0.500000 0.500000
O O17 0.008285 0.000000 0.172220
#
# Coordination Sequence:
#
# PCOD9204558 Si02
#       8
#     4   8   8   8   4   8   4   8
#     4  12  22  36  62  97 127 172 213 252 301 389
#     4  10  21  38  58  88 124 174 206 247 317 387
#     4  10  22  42  67  90 118 167 216 267 320 383
#     4  11  23  39  64  90 131 159 209 265 319 377
#     4  12  22  44  65  96 131 169 206 263 324 371
#     4  11  21  38  62  88 126 166 218 261 309 379
#     4  10  20  42  70  91 121 163 210 260 319 377
#     4  11  22  37  58  90 128 165 205 259 313 382
#
# _framework density 20.327627
#
# number of rings (size 3 to 8) (size 9 to 14) (size 15 to 20)
#    0.000    1.231    3.846    2.308    1.077    1.231 
#    1.385    7.308    0.000    0.000    0.000    0.000 
#    0.000    0.000    0.000    0.000    0.000    0.000 
#
# Total GULP energy -145005.373270 kJ/mol
# GULP energy per Si atom -5577.129741 kJ/mol
# Density = 2.028136 g / cm^3
# Si number density = 20.327627 Si / 1000 Ang^3
#
#
#
# Elastic Constant Matrix: (Units=GPa)
#
#
# Indices 1 2 3 4 5 6 
#
# 1 66.1338 34.6955 21.9731 0.0000 -2.4191 0.0000
# 2 34.6955 121.6980 23.5994 0.0000 -5.9915 0.0000
# 3 21.9731 23.5994 94.3150 0.0000 -10.1939 0.0000
# 4 0.0000 0.0000 0.0000 15.1551 0.0000 -5.2031
# 5 -2.4191 -5.9915 -10.1939 0.0000 19.5993 0.0000
# 6 0.0000 0.0000 0.0000 -5.2031 0.0000 39.1679
#
#
#
# Elastic Compliance Matrix: (Units=1/GPa)
#
#
# Indices 1 2 3 4 5 6 
#
# 1 0.018651 -0.004728 -0.003253 0.000000 -0.000835 0.000000
# 2 -0.004728 0.009883 -0.001174 0.000000 0.001827 0.000000
# 3 -0.003253 -0.001174 0.012261 0.000000 0.005617 0.000000
# 4 0.000000 0.000000 0.000000 0.069138 0.000000 0.009184
# 5 -0.000835 0.001827 0.005617 0.000000 0.054399 0.000000
# 6 0.000000 0.000000 0.000000 0.009184 0.000000 0.026751
#
#
# Mechanical properties :
#
#
# Convention : Reuss Voigt Hill
#
# Bulk Modulus (GPa) = 44.47059 49.18698 46.82878
# Shear Modulus (GPa) = 23.05348 28.24305 25.64827
#
# Velocity S-wave (km/s) = 3.37129 3.73150 3.55596
# Velocity P-wave (km/s) = 6.08921 6.54332 6.32035
#
# Compressibility (1/GPa) = 0.02248677
#
# Stress axis : x y z
#
# Youngs Moduli (GPa) = 53.61556 101.18889 81.55696
#
# Poissons Ratio (x) = 0.47840 0.26527
# Poissons Ratio (y) = 0.25348 0.09574
# Poissons Ratio (z) = 0.17439 0.11878
#
# Static dielectric constant tensor:
#      x y z
#    x 1.717780 0.000000 0.026180 
#    y 0.000000 1.748490 0.000000 
#    z 0.026180 0.000000 1.754780 
# 
# From -- ./inp_files/315817.got.cif
#   From: 2010.05.17/outbox.cif.g08.bks.cpg/sg12_158_cif.got.tgz:315817.got - 2010.06.03 13:09:07.
