data_PCOD9204793
_publ_section_title
;
Structure prediction by ZEFSAII (Michael W. Deem and Ramdas Pophale) SiO2 
 PCOD9204793
Probable space group: C 2/M
;
_chemical_formula_sum "Si O2"
_cell_formula_units_Z 48
_cell_length_a 13.273219
_cell_length_b 28.657743
_cell_length_c 5.332821
_cell_angle_alpha 90.000000
_cell_angle_beta 102.037619
_cell_angle_gamma 90.000000
_cell_volume 1983.896158
_symmetry_space_group_name_H-M "C 2/M"
_symmetry_group_IT_number 12
_symmetry_cell_setting 'monoclinic'
loop_
_space_group_symop_operation_xyz
x,y,z
-x,y,-z
-x,-y,-z
x,-y,z
1/2+x,1/2+y,z
1/2-x,1/2+y,-z
1/2-x,1/2-y,-z
1/2+x,1/2-y,z
loop_
_atom_site_type_symbol
_atom_site_label
_atom_site_fract_x
_atom_site_fract_y
_atom_site_fract_z
Si Si1 0.161234 0.054627 0.242660
Si Si2 0.644117 0.855973 0.169971
Si Si3 0.121985 0.892050 0.724524
Si Si4 0.896785 0.589788 0.355164
Si Si5 0.124371 0.248575 0.277061
Si Si6 0.102157 0.790347 0.779003
O O1 0.112546 0.082154 0.453448
O O2 0.286352 0.063255 0.302077
O O3 0.142426 0.000000 0.260878
O O4 0.116703 0.073772 0.958099
O O5 0.762257 0.871397 0.215287
O O6 0.609018 0.873067 0.423997
O O7 0.633962 0.800698 0.178880
O O8 0.595683 0.883153 0.906438
O O9 0.064362 0.843487 0.736011
O O10 0.000000 0.562078 0.500000
O O11 0.161874 0.230416 0.569430
O O12 0.001710 0.239476 0.248272
O O13 0.160897 0.214703 0.072514
#
# Coordination Sequence:
#
# PCOD9204793 Si02
#       6
#     8   8   8   8   8   8
#     4  10  21  39  60  83 107 139 185 231 284 344
#     4  10  21  34  52  79 115 148 193 222 264 315
#     4  10  21  38  56  83 113 144 180 233 281 324
#     4  10  21  33  54  80 111 149 179 231 271 317
#     4  10  21  34  52  81 108 154 190 222 258 325
#     4  10  21  34  53  80 112 148 189 224 271 313
#
# _framework density 24.194814999999998
#
# number of rings (size 3 to 8) (size 9 to 14) (size 15 to 20)
#    0.000    2.000    0.000    3.000    7.000    1.667 
#    0.000    0.000    0.000    6.000    0.000   46.667 
#    0.000    0.000    0.000    0.000    0.000    0.000 
#
# Total GULP energy -134108.654325 kJ/mol
# GULP energy per Si atom -5587.860597 kJ/mol
# Density = 2.413975 g / cm^3
# Si number density = 24.194815 Si / 1000 Ang^3
#
#
#
# Elastic Constant Matrix: (Units=GPa)
#
#
# Indices 1 2 3 4 5 6 
#
# 1 52.5868 0.9681 13.7770 0.0000 -5.9666 0.0000
# 2 0.9681 158.2071 65.5878 0.0000 -25.6952 0.0000
# 3 13.7770 65.5878 214.8419 0.0000 -27.9240 0.0000
# 4 0.0000 0.0000 0.0000 23.3198 0.0000 -11.4344
# 5 -5.9666 -25.6952 -27.9240 0.0000 44.4106 0.0000
# 6 0.0000 0.0000 0.0000 -11.4344 0.0000 -3.5130
#
#
#
# Elastic Compliance Matrix: (Units=1/GPa)
#
#
# Indices 1 2 3 4 5 6 
#
# 1 0.019575 0.000747 -0.001182 0.000000 0.002319 0.000000
# 2 0.000747 0.007665 -0.001958 0.000000 0.003304 0.000000
# 3 -0.001182 -0.001958 0.005620 0.000000 0.002242 0.000000
# 4 0.000000 0.000000 0.000000 0.016519 0.000000 -0.053766
# 5 0.002319 0.003304 0.002242 0.000000 0.026150 0.000000
# 6 0.000000 0.000000 0.000000 -0.053766 0.000000 -0.109653
#
#
# Mechanical properties :
#
#
# Convention : Reuss Voigt Hill
#
# Bulk Modulus (GPa) = 35.62204 65.14462 50.38333
# Shear Modulus (GPa) = -250.23517 35.86367 -107.18575
#
# Velocity S-wave (km/s) = -10.18085 3.85423 -6.66313
# Velocity P-wave (km/s) = 11.11056 6.84034 6.19089
#
# Compressibility (1/GPa) = 0.02807251
#
# Stress axis : x y z
#
# Youngs Moduli (GPa) = 51.08513 130.46794 177.94893
#
# Poissons Ratio (x) = -0.09743 0.21031
# Poissons Ratio (y) = -0.03815 0.34850
# Poissons Ratio (z) = 0.06038 0.25551
#
# Static dielectric constant tensor:
#      x y z
#    x 2.226290 0.000000 0.065730 
#    y 0.000000 1.874470 0.000000 
#    z 0.065730 0.000000 1.982120 
# 
# From -- ./inp_files/16677.got.cif
#   From: 2010.05.17/outbox.cif.g08.bks.cpg/sg12_9_cif.got.tgz:16677.got - 2010.06.03 13:09:07.
