data_PCOD9204415
_publ_section_title
;
Structure prediction by ZEFSAII (Michael W. Deem and Ramdas Pophale) SiO2 
 PCOD9204415
Probable space group: C 2/M
;
_chemical_formula_sum "Si O2"
_cell_formula_units_Z 56
_cell_length_a 12.340374
_cell_length_b 14.346542
_cell_length_c 14.025014
_cell_angle_alpha 90.000000
_cell_angle_beta 89.379889
_cell_angle_gamma 90.000000
_cell_volume 2482.866811
_symmetry_space_group_name_H-M "C 2/M"
_symmetry_group_IT_number 12
_symmetry_cell_setting 'monoclinic'
loop_
_space_group_symop_operation_xyz
x,y,z
-x,y,-z
-x,-y,-z
x,-y,z
1/2+x,1/2+y,z
1/2-x,1/2+y,-z
1/2-x,1/2-y,-z
1/2+x,1/2-y,z
loop_
_atom_site_type_symbol
_atom_site_label
_atom_site_fract_x
_atom_site_fract_y
_atom_site_fract_z
Si Si1 0.804267 0.197574 0.195429
Si Si2 0.936821 0.745400 0.359793
Si Si3 0.874989 0.799732 0.999950
Si Si4 0.821553 0.396443 0.500238
Si Si5 0.896825 0.101455 0.607693
Si Si6 0.709722 0.394525 0.180386
Si Si7 0.897868 0.392168 0.717655
O O1 0.863148 0.188806 0.295423
O O2 0.865924 0.155586 0.104994
O O3 0.794073 0.309517 0.182877
O O4 0.686054 0.153148 0.208016
O O5 0.876621 0.683595 0.438040
O O6 0.026049 0.812306 0.401583
O O7 0.997495 0.671843 0.290727
O O8 0.750000 0.750000 0.000000
O O9 0.867225 0.865531 0.907357
O O10 0.000000 0.756537 0.000000
O O11 0.862856 0.500000 0.470249
O O12 0.696821 0.393885 0.470472
O O13 0.846589 0.387120 0.611245
O O14 0.844715 0.107996 0.714348
O O15 0.950388 0.000000 0.601408
O O16 0.750800 0.500000 0.165940
O O17 0.919233 0.500000 0.738764
#
# Coordination Sequence:
#
# PCOD9204415 Si02
#       7
#     8   8   8   8   8   8   8
#     4  11  24  41  67  96 137 172 218 282 350 406
#     4  12  21  37  66  94 128 175 227 274 336 405
#     4  10  23  42  71 102 137 180 225 285 351 418
#     4  10  22  41  63  90 131 178 225 278 340 408
#     4  10  21  39  63  91 129 171 223 276 332 404
#     4  10  20  41  67  96 130 177 229 273 338 419
#     4  11  25  42  62  95 134 174 225 285 341 403
#
# _framework density 22.554572
#
# number of rings (size 3 to 8) (size 9 to 14) (size 15 to 20)
#    0.000    1.429    2.857    1.714    2.000    6.571 
#    0.000    0.000    0.000    6.857    0.000    0.000 
#    0.000    0.000    0.000    0.000    0.000    0.000 
#
# Total GULP energy -156236.741030 kJ/mol
# GULP energy per Si atom -5579.883608 kJ/mol
# Density = 2.250324 g / cm^3
# Si number density = 22.554572 Si / 1000 Ang^3
#
#
#
# Elastic Constant Matrix: (Units=GPa)
#
#
# Indices 1 2 3 4 5 6 
#
# 1 81.1447 33.3900 7.0150 0.0000 1.6787 0.0000
# 2 33.3900 64.3815 -3.6216 0.0000 11.3449 0.0000
# 3 7.0150 -3.6216 73.7898 0.0000 -5.7737 0.0000
# 4 0.0000 0.0000 0.0000 34.5911 0.0000 -12.1492
# 5 1.6787 11.3449 -5.7737 0.0000 23.6027 0.0000
# 6 0.0000 0.0000 0.0000 -12.1492 0.0000 5.0733
#
#
#
# Elastic Compliance Matrix: (Units=1/GPa)
#
#
# Indices 1 2 3 4 5 6 
#
# 1 0.016091 -0.008922 -0.001755 0.000000 0.002715 0.000000
# 2 -0.008922 0.021920 0.001172 0.000000 -0.009615 0.000000
# 3 -0.001755 0.001172 0.014010 0.000000 0.002989 0.000000
# 4 0.000000 0.000000 0.000000 0.181920 0.000000 0.435652
# 5 0.002715 -0.009615 0.002989 0.000000 0.047528 0.000000
# 6 0.000000 0.000000 0.000000 0.435652 0.000000 1.240387
#
#
# Mechanical properties :
#
#
# Convention : Reuss Voigt Hill
#
# Bulk Modulus (GPa) = 30.29430 32.54253 31.41842
# Shear Modulus (GPa) = 3.22192 24.82224 14.02208
#
# Velocity S-wave (km/s) = 1.19650 3.32104 2.49609
# Velocity P-wave (km/s) = 3.92040 5.40050 4.71884
#
# Compressibility (1/GPa) = 0.03300951
#
# Stress axis : x y z
#
# Youngs Moduli (GPa) = 62.14823 45.62071 71.37636
#
# Poissons Ratio (x) = 0.40703 0.12528
# Poissons Ratio (y) = 0.55449 -0.08363
# Poissons Ratio (z) = 0.10908 -0.05345
#
# Static dielectric constant tensor:
#      x y z
#    x 1.882060 0.000000 0.028660 
#    y 0.000000 1.848760 0.000000 
#    z 0.028660 0.000000 2.011050 
# 
# From -- ./inp_files/205003.got.cif
#   From: 2010.05.17/outbox.cif.g08.bks.cpg/sg12_103_cif.got.tgz:205003.got - 2010.06.03 13:09:07.
