data_PCOD9204110
_publ_section_title
;
Structure prediction by ZEFSAII (Michael W. Deem and Ramdas Pophale) SiO2 
 PCOD9204110
Probable space group: C 2/M
;
_chemical_formula_sum "Si O2"
_cell_formula_units_Z 48
_cell_length_a 25.471389
_cell_length_b 8.740409
_cell_length_c 12.611028
_cell_angle_alpha 90.000000
_cell_angle_beta 109.478866
_cell_angle_gamma 90.000000
_cell_volume 2646.903570
_symmetry_space_group_name_H-M "C 2/M"
_symmetry_group_IT_number 12
_symmetry_cell_setting 'monoclinic'
loop_
_space_group_symop_operation_xyz
x,y,z
-x,y,-z
-x,-y,-z
x,-y,z
1/2+x,1/2+y,z
1/2-x,1/2+y,-z
1/2-x,1/2-y,-z
1/2+x,1/2-y,z
loop_
_atom_site_type_symbol
_atom_site_label
_atom_site_fract_x
_atom_site_fract_y
_atom_site_fract_z
Si Si1 0.690107 0.316847 0.618739
Si Si2 0.379576 0.682351 0.213630
Si Si3 0.805905 0.318299 0.985587
Si Si4 0.997108 0.816422 0.622705
Si Si5 0.309397 0.317275 0.753632
Si Si6 0.617405 0.182068 0.377755
O O1 0.693803 0.500000 0.608016
O O2 0.657806 0.286188 0.707351
O O3 0.751263 0.245724 0.667355
O O4 0.654823 0.246917 0.499260
O O5 0.375051 0.500000 0.189399
O O6 0.443410 0.717497 0.284659
O O7 0.355441 0.774281 0.098651
O O8 0.799957 0.500000 0.971133
O O9 0.814088 0.244942 0.876035
O O10 0.750000 0.250000 0.000000
O O11 0.945703 0.732268 0.642030
O O12 0.000000 0.776328 0.500000
O O13 0.987764 0.000000 0.622152
O O14 0.308607 0.500000 0.752814
O O15 0.358645 0.254904 0.713256
O O16 0.622285 0.000000 0.377024
#
# Coordination Sequence:
#
# PCOD9204110 Si02
#       6
#     8   8   8   8   8   8
#     4  11  21  38  63  92 127 163 202 251 307 367
#     4  10  21  38  64  93 124 160 205 254 303 358
#     4  12  24  40  63  91 126 162 204 253 305 363
#     4  10  20  40  65  90 122 163 206 251 302 361
#     4  12  25  42  63  89 123 164 209 255 310 368
#     4  12  25  40  60  91 129 165 205 253 309 367
#
# _framework density 18.134397
#
# number of rings (size 3 to 8) (size 9 to 14) (size 15 to 20)
#    0.000    0.833    3.333    5.500    0.000    1.667 
#    0.000    0.833    0.000    5.000    0.000    0.000 
#    0.000    0.000    0.000    0.000    0.000    0.000 
#
# Total GULP energy -134293.315718 kJ/mol
# GULP energy per Si atom -5595.554822 kJ/mol
# Density = 1.809312 g / cm^3
# Si number density = 18.134397 Si / 1000 Ang^3
#
#
#
# Elastic Constant Matrix: (Units=GPa)
#
#
# Indices 1 2 3 4 5 6 
#
# 1 131.1830 68.8136 47.8962 0.0000 -9.5328 0.0000
# 2 68.8136 116.2807 38.3311 0.0000 -1.3304 0.0000
# 3 47.8962 38.3311 59.3956 0.0000 3.0662 0.0000
# 4 0.0000 0.0000 0.0000 33.1157 0.0000 2.1201
# 5 -9.5328 -1.3304 3.0662 0.0000 27.4840 0.0000
# 6 0.0000 0.0000 0.0000 2.1201 0.0000 33.6157
#
#
#
# Elastic Compliance Matrix: (Units=1/GPa)
#
#
# Indices 1 2 3 4 5 6 
#
# 1 0.013754 -0.005500 -0.007819 0.000000 0.005376 0.000000
# 2 -0.005500 0.013171 -0.004022 0.000000 -0.000821 0.000000
# 3 -0.007819 -0.004022 0.026037 0.000000 -0.005811 0.000000
# 4 0.000000 0.000000 0.000000 0.030320 0.000000 -0.001912
# 5 0.005376 -0.000821 -0.005811 0.000000 0.038858 0.000000
# 6 0.000000 0.000000 0.000000 -0.001912 0.000000 0.029869
#
#
# Mechanical properties :
#
#
# Convention : Reuss Voigt Hill
#
# Bulk Modulus (GPa) = 54.70676 68.54901 61.62789
# Shear Modulus (GPa) = 25.93571 28.96432 27.45002
#
# Velocity S-wave (km/s) = 3.78589 4.00084 3.89485
# Velocity P-wave (km/s) = 7.02450 7.69577 7.36778
#
# Compressibility (1/GPa) = 0.01827927
#
# Stress axis : x y z
#
# Youngs Moduli (GPa) = 72.70839 75.92175 38.40676
#
# Poissons Ratio (x) = 0.41759 0.30029
# Poissons Ratio (y) = 0.39992 0.15449
# Poissons Ratio (z) = 0.56848 0.30539
#
# Static dielectric constant tensor:
#      x y z
#    x 1.598890 0.000000 0.000710 
#    y 0.000000 1.606150 0.000000 
#    z 0.000710 0.000000 1.599350 
# 
# From -- ./inp_files/172870.got.cif
#   From: 2010.05.17/outbox.cif.g08.bks.cpg/sg12_87_cif.got.tgz:172870.got - 2010.06.03 13:09:07.
