data_PCOD9204851
_publ_section_title
;
Structure prediction by ZEFSAII (Michael W. Deem and Ramdas Pophale) SiO2 
 PCOD9204851
Probable space group: C 2/M
;
_chemical_formula_sum "Si O2"
_cell_formula_units_Z 64
_cell_length_a 22.375049
_cell_length_b 9.632531
_cell_length_c 17.527602
_cell_angle_alpha 90.000000
_cell_angle_beta 87.648909
_cell_angle_gamma 90.000000
_cell_volume 3774.515175
_symmetry_space_group_name_H-M "C 2/M"
_symmetry_group_IT_number 12
_symmetry_cell_setting 'monoclinic'
loop_
_space_group_symop_operation_xyz
x,y,z
-x,y,-z
-x,-y,-z
x,-y,z
1/2+x,1/2+y,z
1/2-x,1/2+y,-z
1/2-x,1/2-y,-z
1/2+x,1/2-y,z
loop_
_atom_site_type_symbol
_atom_site_label
_atom_site_fract_x
_atom_site_fract_y
_atom_site_fract_z
Si Si1 0.415929 0.654885 0.199344
Si Si2 0.504808 0.245227 0.669963
Si Si3 0.505644 0.834277 0.912145
Si Si4 0.304380 0.666127 0.310832
Si Si5 0.619249 0.158377 0.575793
Si Si6 0.594948 0.345852 0.433876
Si Si7 0.592412 0.842678 0.206604
Si Si8 0.814826 0.838670 0.713180
O O1 0.416132 0.500000 0.167531
O O2 0.461271 0.661482 0.269237
O O3 0.440907 0.760787 0.136066
O O4 0.351377 0.685524 0.238867
O O5 0.557405 0.160600 0.626811
O O6 0.467365 0.324921 0.607591
O O7 0.456282 0.161385 0.722017
O O8 0.445193 0.806841 0.867062
O O9 0.514838 0.000000 0.909722
O O10 0.500000 0.789829 0.000000
O O11 0.297684 0.500000 0.323675
O O12 0.334501 0.743508 0.381374
O O13 0.243016 0.743594 0.295296
O O14 0.605190 0.228014 0.495589
O O15 0.640779 0.000000 0.568242
O O16 0.596330 0.500000 0.469018
O O17 0.646182 0.337554 0.366714
O O18 0.642718 0.731993 0.225684
O O19 0.616016 0.000000 0.199473
O O20 0.800668 0.000000 0.730738
#
# Coordination Sequence:
#
# PCOD9204851 Si02
#       8
#     8   8   8   8   8   8   8   8
#     4   9  18  32  52  78 102 128 164 204 245 290
#     4   9  18  31  50  72  98 128 165 205 248 299
#     4   9  18  32  52  81 114 142 163 188 231 286
#     4  10  21  37  55  72  94 127 168 210 252 297
#     4  11  22  33  48  71  98 128 165 209 255 303
#     4  10  21  34  48  68  96 130 165 206 257 306
#     4   9  17  31  52  75 101 132 164 199 239 286
#     4  10  21  36  53  72  95 126 168 212 251 293
#
# _framework density 16.955819999999999
#
# number of rings (size 3 to 8) (size 9 to 14) (size 15 to 20)
#    0.000    2.375    0.000    2.250    0.000   12.750 
#    0.000    0.000    0.000    0.750    0.000    0.000 
#    0.000    0.000    0.000    0.000    0.000    0.000 
#
# Total GULP energy -178418.725315 kJ/mol
# GULP energy per Si atom -5575.585166 kJ/mol
# Density = 1.691723 g / cm^3
# Si number density = 16.955820 Si / 1000 Ang^3
#
#
#
# Elastic Constant Matrix: (Units=GPa)
#
#
# Indices 1 2 3 4 5 6 
#
# 1 82.4003 50.5737 20.4653 0.0000 11.4900 0.0000
# 2 50.5737 113.5527 45.6563 0.0000 7.3937 0.0000
# 3 20.4653 45.6563 82.1986 0.0000 12.8487 0.0000
# 4 0.0000 0.0000 0.0000 16.1958 0.0000 1.0928
# 5 11.4900 7.3937 12.8487 0.0000 9.8363 0.0000
# 6 0.0000 0.0000 0.0000 1.0928 0.0000 15.9268
#
#
#
# Elastic Compliance Matrix: (Units=1/GPa)
#
#
# Indices 1 2 3 4 5 6 
#
# 1 0.019480 -0.008601 0.003108 0.000000 -0.020350 0.000000
# 2 -0.008601 0.015137 -0.007613 0.000000 0.008612 0.000000
# 3 0.003108 -0.007613 0.019217 0.000000 -0.023011 0.000000
# 4 0.000000 0.000000 0.000000 0.062032 0.000000 -0.004256
# 5 -0.020350 0.008612 -0.023011 0.000000 0.149019 0.000000
# 6 0.000000 0.000000 0.000000 -0.004256 0.000000 0.063079
#
#
# Mechanical properties :
#
#
# Convention : Reuss Voigt Hill
#
# Bulk Modulus (GPa) = 36.20042 56.83803 46.51923
# Shear Modulus (GPa) = 13.75959 19.15555 16.45757
#
# Velocity S-wave (km/s) = 2.85177 3.36480 3.11885
# Velocity P-wave (km/s) = 5.67800 6.97781 6.36119
#
# Compressibility (1/GPa) = 0.02762399
#
# Stress axis : x y z
#
# Youngs Moduli (GPa) = 51.33380 66.06305 52.03731
#
# Poissons Ratio (x) = 0.56819 -0.16174
# Poissons Ratio (y) = 0.44151 0.39614
# Poissons Ratio (z) = -0.15955 0.50291
#
# Static dielectric constant tensor:
#      x y z
#    x 1.568640 0.000000 0.000130 
#    y 0.000000 1.582260 0.000000 
#    z 0.000130 0.000000 1.556950 
# 
# From -- ./inp_files/281352.got.cif
#   From: 2010.05.17/outbox.cif.g08.bks.cpg/sg12_141_cif.got.tgz:281352.got - 2010.06.03 13:09:07.
