data_PCOD9204692
_publ_section_title
;
Structure prediction by ZEFSAII (Michael W. Deem and Ramdas Pophale) SiO2 
 PCOD9204692
Probable space group: C 2/M
;
_chemical_formula_sum "Si O2"
_cell_formula_units_Z 48
_cell_length_a 15.517976
_cell_length_b 19.149061
_cell_length_c 8.982758
_cell_angle_alpha 90.000000
_cell_angle_beta 109.959491
_cell_angle_gamma 90.000000
_cell_volume 2508.936732
_symmetry_space_group_name_H-M "C 2/M"
_symmetry_group_IT_number 12
_symmetry_cell_setting 'monoclinic'
loop_
_space_group_symop_operation_xyz
x,y,z
-x,y,-z
-x,-y,-z
x,-y,z
1/2+x,1/2+y,z
1/2-x,1/2+y,-z
1/2-x,1/2-y,-z
1/2+x,1/2-y,z
loop_
_atom_site_type_symbol
_atom_site_label
_atom_site_fract_x
_atom_site_fract_y
_atom_site_fract_z
Si Si1 0.088282 0.268313 0.643655
Si Si2 0.929989 0.921698 0.150554
Si Si3 0.273771 0.169120 0.475488
Si Si4 0.091040 0.697778 0.987776
Si Si5 0.104225 0.848019 0.168457
Si Si6 0.229437 0.140972 0.767678
O O1 0.133424 0.327300 0.564360
O O2 0.071467 0.292080 0.802063
O O3 0.165516 0.209366 0.711750
O O4 0.000000 0.242669 0.500000
O O5 0.844622 0.912306 0.210419
O O6 0.013505 0.866059 0.211799
O O7 0.966207 0.000000 0.182459
O O8 0.894375 0.903639 0.964188
O O9 0.250000 0.250000 0.500000
O O10 0.191891 0.145537 0.321816
O O11 0.271958 0.128190 0.629802
O O12 0.100763 0.771904 0.085400
O O13 0.186349 0.658212 0.073190
O O14 0.000000 0.662770 0.000000
#
# Coordination Sequence:
#
# PCOD9204692 Si02
#       6
#     8   8   8   8   8   8
#     4  11  21  31  53  84 119 152 186 237 309 370
#     4  11  24  39  58  81 119 173 214 239 282 349
#     4  10  21  32  52  83 118 150 190 242 316 356
#     4  12  20  34  57  88 115 155 187 249 319 358
#     4  11  19  36  56  82 118 156 196 247 292 364
#     4  11  22  35  56  80 121 152 201 248 298 361
#
# _framework density 19.131612000000001
#
# number of rings (size 3 to 8) (size 9 to 14) (size 15 to 20)
#    0.000    1.000    6.667    3.500    7.000    0.000 
#    0.000    2.500    0.000    0.500    0.000    0.000 
#    0.000    8.000    0.000    0.000    0.000    0.000 
#
# Total GULP energy -133817.684322 kJ/mol
# GULP energy per Si atom -5575.736847 kJ/mol
# Density = 1.908807 g / cm^3
# Si number density = 19.131612 Si / 1000 Ang^3
#
#
#
# Elastic Constant Matrix: (Units=GPa)
#
#
# Indices 1 2 3 4 5 6 
#
# 1 88.4701 10.0768 24.5846 0.0000 -11.1766 0.0000
# 2 10.0768 21.0354 -10.1379 0.0000 -8.0765 0.0000
# 3 24.5846 -10.1379 90.9301 0.0000 -2.4073 0.0000
# 4 0.0000 0.0000 0.0000 -2.3934 0.0000 20.3895
# 5 -11.1766 -8.0765 -2.4073 0.0000 39.6533 0.0000
# 6 0.0000 0.0000 0.0000 20.3895 0.0000 -44.5144
#
#
#
# Elastic Compliance Matrix: (Units=1/GPa)
#
#
# Indices 1 2 3 4 5 6 
#
# 1 0.013730 -0.008020 -0.004554 0.000000 0.001960 0.000000
# 2 -0.008020 0.059792 0.009112 0.000000 0.010471 0.000000
# 3 -0.004554 0.009112 0.013281 0.000000 0.001378 0.000000
# 4 0.000000 0.000000 0.000000 0.143971 0.000000 0.065945
# 5 0.001960 0.010471 0.001378 0.000000 0.027987 0.000000
# 6 0.000000 0.000000 0.000000 0.065945 0.000000 0.007741
#
#
# Mechanical properties :
#
#
# Convention : Reuss Voigt Hill
#
# Bulk Modulus (GPa) = 12.51895 27.72029 20.11962
# Shear Modulus (GPa) = 16.66372 10.27655 13.47013
#
# Velocity S-wave (km/s) = 2.95448 2.32016 2.65632
# Velocity P-wave (km/s) = 4.26572 4.65814 4.46624
#
# Compressibility (1/GPa) = 0.07987888
#
# Stress axis : x y z
#
# Youngs Moduli (GPa) = 72.83384 16.72461 75.29450
#
# Poissons Ratio (x) = 0.13412 0.34292
# Poissons Ratio (y) = 0.58409 -0.68606
# Poissons Ratio (z) = 0.33171 -0.15239
#
# Static dielectric constant tensor:
#      x y z
#    x 1.746020 0.000000 -0.049750 
#    y 0.000000 1.661430 0.000000 
#    z -0.049750 0.000000 1.684890 
# 
# From -- ./inp_files/63598.got.cif
#   From: 2010.05.17/outbox.cif.g08.bks.cpg/sg12_32_cif.got.tgz:63598.got - 2010.06.03 13:09:07.
