data_PCOD9204663
_publ_section_title
;
Structure prediction by ZEFSAII (Michael W. Deem and Ramdas Pophale) SiO2 
 PCOD9204663
Probable space group: C 2/M
;
_chemical_formula_sum "Si O2"
_cell_formula_units_Z 42
_cell_length_a 5.215625
_cell_length_b 22.808837
_cell_length_c 18.655204
_cell_angle_alpha 90.000000
_cell_angle_beta 84.019161
_cell_angle_gamma 90.000000
_cell_volume 2207.186809
_symmetry_space_group_name_H-M "C 2/M"
_symmetry_group_IT_number 12
_symmetry_cell_setting 'monoclinic'
loop_
_space_group_symop_operation_xyz
x,y,z
-x,y,-z
-x,-y,-z
x,-y,z
1/2+x,1/2+y,z
1/2-x,1/2+y,-z
1/2-x,1/2-y,-z
1/2+x,1/2-y,z
loop_
_atom_site_type_symbol
_atom_site_label
_atom_site_fract_x
_atom_site_fract_y
_atom_site_fract_z
Si Si1 0.500000 0.000000 0.000000
Si Si2 0.267773 0.928538 0.455975
Si Si3 0.736340 0.928570 0.708535
Si Si4 0.707953 0.570862 0.793288
Si Si5 0.552055 0.780019 0.913415
Si Si6 0.859626 0.892655 0.932762
O O1 0.308404 0.948673 0.039376
O O2 0.500000 0.909193 0.500000
O O3 0.287706 0.909247 0.373002
O O4 0.000000 0.911157 0.500000
O O5 0.273492 0.000000 0.454328
O O6 0.492392 0.909336 0.762965
O O7 0.004250 0.911854 0.737630
O O8 0.732474 0.000000 0.708161
O O9 0.716858 0.500000 0.796469
O O10 0.585441 0.590664 0.871333
O O11 0.281007 0.764682 0.885056
O O12 0.673151 0.844279 0.904083
O O13 0.500000 0.773338 0.000000
O O14 0.000000 0.868810 0.000000
#
# Coordination Sequence:
#
# PCOD9204663 Si02
#       6
#     2   8   8   8   8   8
#     4  12  26  36  52  78 104 132 174 228 266 308
#     4   9  15  24  41  60  82 112 157 203 233 266
#     4   9  18  30  42  62  89 124 160 197 240 294
#     4  10  21  32  46  63  95 128 161 198 250 305
#     4  10  21  38  58  76  94 123 167 221 271 313
#     4  12  25  37  54  74 103 133 178 224 268 306
#
# _framework density 19.028748
#
# number of rings (size 3 to 8) (size 9 to 14) (size 15 to 20)
#    0.000    1.905    1.905    3.143    2.667    4.571 
#    0.000    0.000    0.000    0.000    0.000    0.000 
#    0.000    0.000    0.000    0.000    0.000   66.667 
#
# Total GULP energy -117042.069207 kJ/mol
# GULP energy per Si atom -5573.431867 kJ/mol
# Density = 1.898544 g / cm^3
# Si number density = 19.028748 Si / 1000 Ang^3
#
#
#
# Elastic Constant Matrix: (Units=GPa)
#
#
# Indices 1 2 3 4 5 6 
#
# 1 90.4240 18.6242 21.3812 0.0000 -12.9115 0.0000
# 2 18.6242 55.1213 6.6041 0.0000 -9.5360 0.0000
# 3 21.3812 6.6041 88.9207 0.0000 -2.0348 0.0000
# 4 0.0000 0.0000 0.0000 -0.6189 0.0000 3.2144
# 5 -12.9115 -9.5360 -2.0348 0.0000 33.1314 0.0000
# 6 0.0000 0.0000 0.0000 3.2144 0.0000 1.2078
#
#
#
# Elastic Compliance Matrix: (Units=1/GPa)
#
#
# Indices 1 2 3 4 5 6 
#
# 1 0.012969 -0.003372 -0.002779 0.000000 0.003913 0.000000
# 2 -0.003372 0.020119 -0.000582 0.000000 0.004441 0.000000
# 3 -0.002779 -0.000582 0.011945 0.000000 -0.000517 0.000000
# 4 0.000000 0.000000 0.000000 -0.109009 0.000000 0.290111
# 5 0.003913 0.004441 -0.000517 0.000000 0.032954 0.000000
# 6 0.000000 0.000000 0.000000 0.290111 0.000000 0.055855
#
#
# Mechanical properties :
#
#
# Convention : Reuss Voigt Hill
#
# Bulk Modulus (GPa) = 31.67665 36.40944 34.04305
# Shear Modulus (GPa) = 102.41200 19.26783 60.83992
#
# Velocity S-wave (km/s) = 7.34414 3.18553 5.66057
# Velocity P-wave (km/s) = 9.41266 5.71888 7.78793
#
# Compressibility (1/GPa) = 0.03156899
#
# Stress axis : x y z
#
# Youngs Moduli (GPa) = 77.10526 49.70385 83.71378
#
# Poissons Ratio (x) = 0.16761 0.23260
# Poissons Ratio (y) = 0.26001 0.04870
# Poissons Ratio (z) = 0.21424 0.02892
#
# Static dielectric constant tensor:
#      x y z
#    x 1.671480 0.000000 0.013290 
#    y 0.000000 1.665070 0.000000 
#    z 0.013290 0.000000 1.666270 
# 
# From -- ./inp_files/252885.got.cif
#   From: 2010.05.17/outbox.cif.g08.bks.cpg/sg12_127_cif.got.tgz:252885.got - 2010.06.03 13:09:07.
