data_PCOD9204160
_publ_section_title
;
Structure prediction by ZEFSAII (Michael W. Deem and Ramdas Pophale) SiO2 
 PCOD9204160
Probable space group: C 2/M
;
_chemical_formula_sum "Si O2"
_cell_formula_units_Z 30
_cell_length_a 12.866870
_cell_length_b 14.544787
_cell_length_c 10.029708
_cell_angle_alpha 90.000000
_cell_angle_beta 145.192944
_cell_angle_gamma 90.000000
_cell_volume 1071.429767
_symmetry_space_group_name_H-M "C 2/M"
_symmetry_group_IT_number 12
_symmetry_cell_setting 'monoclinic'
loop_
_space_group_symop_operation_xyz
x,y,z
-x,y,-z
-x,-y,-z
x,-y,z
1/2+x,1/2+y,z
1/2-x,1/2+y,-z
1/2-x,1/2-y,-z
1/2+x,1/2-y,z
loop_
_atom_site_type_symbol
_atom_site_label
_atom_site_fract_x
_atom_site_fract_y
_atom_site_fract_z
Si Si1 0.255704 0.831955 0.645849
Si Si2 0.505378 0.111465 0.345315
Si Si3 0.500000 0.674450 0.000000
Si Si4 0.891929 0.105647 0.163048
Si Si5 0.000000 0.500000 0.000000
O O1 0.332780 0.743927 0.802630
O O2 0.154569 0.658462 0.407760
O O3 0.038911 0.838339 0.401749
O O4 0.343842 0.919628 0.811673
O O5 0.500000 0.124403 0.500000
O O6 0.524946 0.000000 0.345709
O O7 0.314634 0.137740 0.074221
O O8 0.532527 0.611952 0.907598
O O9 0.893442 0.000000 0.207373
#
# Coordination Sequence:
#
# PCOD9204160 Si02
#       5
#     8   8   4   8   2
#     4  11  22  43  65  93 134 167 211 262 325 374
#     4  10  21  38  66  98 127 166 217 266 311 376
#     4  11  25  39  65  98 134 168 207 271 321 369
#     4  11  22  41  66  93 126 172 219 255 313 386
#     4  10  20  40  66  90 124 168 198 260 318 380
#
# _framework density 27.999969
#
# number of rings (size 3 to 8) (size 9 to 14) (size 15 to 20)
#    0.000    1.333    2.667    2.800    0.000    3.200 
#    0.000    9.333    0.000    0.000    0.000    0.000 
#    0.000    0.000    0.000    0.000    0.000    0.000 
#
# Total GULP energy -83961.067180 kJ/mol
# GULP energy per Si atom -5597.404479 kJ/mol
# Density = 2.793624 g / cm^3
# Si number density = 27.999969 Si / 1000 Ang^3
#
#
#
# Elastic Constant Matrix: (Units=GPa)
#
#
# Indices 1 2 3 4 5 6 
#
# 1 152.9618 25.5963 46.5047 0.0000 -20.6112 0.0000
# 2 25.5963 112.0720 42.3361 0.0000 3.3491 0.0000
# 3 46.5047 42.3361 236.8380 0.0000 26.3101 0.0000
# 4 0.0000 0.0000 0.0000 43.5383 0.0000 -2.9111
# 5 -20.6112 3.3491 26.3101 0.0000 40.9710 0.0000
# 6 0.0000 0.0000 0.0000 -2.9111 0.0000 32.3280
#
#
#
# Elastic Compliance Matrix: (Units=1/GPa)
#
#
# Indices 1 2 3 4 5 6 
#
# 1 0.008077 -0.001266 -0.001963 0.000000 0.005427 0.000000
# 2 -0.001266 0.009772 -0.001442 0.000000 -0.000510 0.000000
# 3 -0.001963 -0.001442 0.005343 0.000000 -0.004301 0.000000
# 4 0.000000 0.000000 0.000000 0.023107 0.000000 0.002081
# 5 0.005427 -0.000510 -0.004301 0.000000 0.029941 0.000000
# 6 0.000000 0.000000 0.000000 0.002081 0.000000 0.031120
#
#
# Mechanical properties :
#
#
# Convention : Reuss Voigt Hill
#
# Bulk Modulus (GPa) = 72.18962 81.19399 76.69180
# Shear Modulus (GPa) = 41.21381 49.19644 45.20513
#
# Velocity S-wave (km/s) = 3.84073 4.19623 4.02241
# Velocity P-wave (km/s) = 6.74583 7.24835 7.00160
#
# Compressibility (1/GPa) = 0.01385241
#
# Stress axis : x y z
#
# Youngs Moduli (GPa) = 123.80211 102.33637 187.15529
#
# Poissons Ratio (x) = 0.12951 0.36734
# Poissons Ratio (y) = 0.15668 0.26981
# Poissons Ratio (z) = 0.24299 0.14753
#
# Static dielectric constant tensor:
#      x y z
#    x 2.261160 0.000000 -0.021840 
#    y 0.000000 2.165320 0.000000 
#    z -0.021840 0.000000 2.170370 
# 
# From -- ./inp_files/94036.got.cif
#   From: 2010.05.17/outbox.cif.g08.bks.cpg/sg12_48_cif.got.tgz:94036.got - 2010.06.03 13:09:07.
