data_PCOD9204411
_publ_section_title
;
Structure prediction by ZEFSAII (Michael W. Deem and Ramdas Pophale) SiO2 
 PCOD9204411
Probable space group: C 2/M
;
_chemical_formula_sum "Si O2"
_cell_formula_units_Z 52
_cell_length_a 23.697044
_cell_length_b 20.339878
_cell_length_c 13.535705
_cell_angle_alpha 90.000000
_cell_angle_beta 24.399183
_cell_angle_gamma 90.000000
_cell_volume 2695.067204
_symmetry_space_group_name_H-M "C 2/M"
_symmetry_group_IT_number 12
_symmetry_cell_setting 'monoclinic'
loop_
_space_group_symop_operation_xyz
x,y,z
-x,y,-z
-x,-y,-z
x,-y,z
1/2+x,1/2+y,z
1/2-x,1/2+y,-z
1/2-x,1/2-y,-z
1/2+x,1/2-y,z
loop_
_atom_site_type_symbol
_atom_site_label
_atom_site_fract_x
_atom_site_fract_y
_atom_site_fract_z
Si Si1 0.832385 0.380991 0.444623
Si Si2 0.164752 0.000000 0.812571
Si Si3 0.951677 0.881150 0.865736
Si Si4 0.860558 0.226060 0.160027
Si Si5 0.383027 0.075724 0.947279
Si Si6 0.126583 0.079701 0.227462
Si Si7 0.225477 0.627209 0.682893
O O1 0.741651 0.442117 0.625250
O O2 0.751642 0.314657 0.599172
O O3 0.852877 0.385242 0.294626
O O4 0.976665 0.384505 0.270431
O O5 0.089555 0.942167 0.998964
O O6 0.892010 0.892238 0.851871
O O7 0.114809 0.877856 0.596859
O O8 0.892965 0.815744 0.010538
O O9 0.809663 0.299494 0.224630
O O10 0.000000 0.227844 0.000000
O O11 0.418492 0.000000 0.867674
O O12 0.269387 0.098698 0.050730
O O13 0.314202 0.079578 0.164865
O O14 0.000000 0.098722 0.500000
O O15 0.124891 0.000000 0.223494
#
# Coordination Sequence:
#
# PCOD9204411 Si02
#       7
#     8   4   8   8   8   8   8
#     4  11  23  42  63  94 136 164 213 264 325 392
#     4  10  24  41  61  98 132 163 208 269 330 376
#     4  11  23  42  68  97 124 170 223 268 315 388
#     4  11  24  44  64  92 127 184 214 256 319 388
#     4  11  24  40  64  98 128 168 210 270 329 377
#     4  10  20  41  67  94 129 169 217 260 324 394
#     4  12  25  38  69  92 132 171 218 266 316 385
#
# _framework density 19.294509999999999
#
# number of rings (size 3 to 8) (size 9 to 14) (size 15 to 20)
#    0.000    1.077    4.615    1.846    4.308    1.231 
#    0.000    4.615    3.385    0.000    0.000    0.000 
#    0.000    0.000    0.000    0.000    0.000    0.000 
#
# Total GULP energy -144844.394889 kJ/mol
# GULP energy per Si atom -5570.938265 kJ/mol
# Density = 1.925059 g / cm^3
# Si number density = 19.294510 Si / 1000 Ang^3
#
#
#
# Elastic Constant Matrix: (Units=GPa)
#
#
# Indices 1 2 3 4 5 6 
#
# 1 77.1853 19.1950 34.2208 -0.0002 -25.2109 0.0001
# 2 19.1950 82.8878 23.6821 0.0000 -0.0286 0.0001
# 3 34.2208 23.6821 70.4193 -0.0007 3.6090 0.0005
# 4 -0.0002 0.0000 -0.0007 17.2502 0.0007 -1.4954
# 5 -25.2109 -0.0286 3.6090 0.0007 25.7559 -0.0004
# 6 0.0001 0.0001 0.0005 -1.4954 -0.0004 13.3128
#
#
#
# Elastic Compliance Matrix: (Units=1/GPa)
#
#
# Indices 1 2 3 4 5 6 
#
# 1 0.031668 -0.002697 -0.016187 -0.000002 0.033263 0.000001
# 2 -0.002697 0.013587 -0.003147 0.000000 -0.002184 0.000000
# 3 -0.016187 -0.003147 0.024110 0.000002 -0.019226 -0.000001
# 4 -0.000002 0.000000 0.000002 0.058540 -0.000003 0.006576
# 5 0.033263 -0.002184 -0.019226 -0.000003 0.074076 0.000002
# 6 0.000001 0.000000 -0.000001 0.006576 0.000002 0.075855
#
#
# Mechanical properties :
#
#
# Convention : Reuss Voigt Hill
#
# Bulk Modulus (GPa) = 39.51974 42.74314 41.13144
# Shear Modulus (GPa) = 15.13623 21.49008 18.31315
#
# Velocity S-wave (km/s) = 2.80390 3.34097 3.08415
# Velocity P-wave (km/s) = 5.56860 6.08966 5.83495
#
# Compressibility (1/GPa) = 0.02530381
#
# Stress axis : x y z
#
# Youngs Moduli (GPa) = 31.57791 73.59732 41.47593
#
# Poissons Ratio (x) = 0.19851 0.67136
# Poissons Ratio (y) = 0.08517 0.13052
# Poissons Ratio (z) = 0.51115 0.23159
#
# Static dielectric constant tensor:
#      x y z
#    x 1.670390 0.000000 -0.020210 
#    y 0.000000 1.645290 0.000000 
#    z -0.020210 0.000000 1.677830 
# 
# From -- ./inp_files/169830.got.cif
#   From: 2010.05.17/outbox.cif.g08.bks.cpg/sg12_85_cif.got.tgz:169830.got - 2010.06.03 13:09:07.
