data_PCOD9204513
_publ_section_title
;
Structure prediction by ZEFSAII (Michael W. Deem and Ramdas Pophale) SiO2 
 PCOD9204513
Probable space group: C 2/M
;
_chemical_formula_sum "Si O2"
_cell_formula_units_Z 48
_cell_length_a 13.306935
_cell_length_b 25.900470
_cell_length_c 11.179439
_cell_angle_alpha 90.000000
_cell_angle_beta 144.544067
_cell_angle_gamma 90.000000
_cell_volume 2235.069668
_symmetry_space_group_name_H-M "C 2/M"
_symmetry_group_IT_number 12
_symmetry_cell_setting 'monoclinic'
loop_
_space_group_symop_operation_xyz
x,y,z
-x,y,-z
-x,-y,-z
x,-y,z
1/2+x,1/2+y,z
1/2-x,1/2+y,-z
1/2-x,1/2-y,-z
1/2+x,1/2-y,z
loop_
_atom_site_type_symbol
_atom_site_label
_atom_site_fract_x
_atom_site_fract_y
_atom_site_fract_z
Si Si1 0.589071 0.560814 0.204407
Si Si2 0.700226 0.131263 0.228364
Si Si3 0.183322 0.783357 0.046583
Si Si4 0.402033 0.937903 0.656805
Si Si5 0.211648 0.893537 0.949878
Si Si6 0.210118 0.255790 0.321348
O O1 0.614734 0.500000 0.208264
O O2 0.776267 0.580703 0.427426
O O3 0.500000 0.583698 0.000000
O O4 0.445841 0.569558 0.167039
O O5 0.687672 0.085196 0.311239
O O6 0.757831 0.184773 0.341300
O O7 0.500000 0.141465 0.000000
O O8 0.796062 0.118763 0.198494
O O9 0.191684 0.841845 0.008839
O O10 0.276410 0.774264 0.265593
O O11 0.250000 0.750000 0.000000
O O12 0.990161 0.761463 0.873196
O O13 0.598449 0.917585 0.840844
O O14 0.404600 0.000000 0.662919
O O15 0.250000 0.250000 0.500000
#
# Coordination Sequence:
#
# PCOD9204513 Si02
#       6
#     8   8   8   8   8   8
#     4  10  24  44  65  96 136 173 220 279 335 401
#     4  10  20  42  65  95 133 172 218 276 336 399
#     4  11  22  44  64  94 135 173 223 275 332 399
#     4  10  23  43  70 100 134 174 222 278 341 405
#     4  11  23  40  71  96 133 179 223 272 339 405
#     4  11  24  41  67  95 135 176 222 278 335 398
#
# _framework density 21.475840999999999
#
# number of rings (size 3 to 8) (size 9 to 14) (size 15 to 20)
#    0.000    1.500    3.333    1.500    4.667    5.667 
#    0.000    7.500    0.000    0.000    0.000    0.000 
#    0.000    0.000    0.000    0.000    0.000    0.000 
#
# Total GULP energy -133846.502795 kJ/mol
# GULP energy per Si atom -5576.937616 kJ/mol
# Density = 2.142696 g / cm^3
# Si number density = 21.475841 Si / 1000 Ang^3
#
#
#
# Elastic Constant Matrix: (Units=GPa)
#
#
# Indices 1 2 3 4 5 6 
#
# 1 75.0369 5.1604 31.2775 0.0000 -12.5474 0.0000
# 2 5.1604 62.0723 25.2004 0.0000 -6.4308 0.0000
# 3 31.2775 25.2004 118.6951 0.0000 -17.7629 0.0000
# 4 0.0000 0.0000 0.0000 2.0297 0.0000 8.5341
# 5 -12.5474 -6.4308 -17.7629 0.0000 33.6850 0.0000
# 6 0.0000 0.0000 0.0000 8.5341 0.0000 3.8666
#
#
#
# Elastic Compliance Matrix: (Units=1/GPa)
#
#
# Indices 1 2 3 4 5 6 
#
# 1 0.015452 0.000589 -0.003603 0.000000 0.003968 0.000000
# 2 0.000589 0.017723 -0.003668 0.000000 0.001669 0.000000
# 3 -0.003603 -0.003668 0.010691 0.000000 0.003595 0.000000
# 4 0.000000 0.000000 0.000000 -0.059503 0.000000 0.131329
# 5 0.003968 0.001669 0.003595 0.000000 0.033379 0.000000
# 6 0.000000 0.000000 0.000000 0.131329 0.000000 -0.031235
#
#
# Mechanical properties :
#
#
# Convention : Reuss Voigt Hill
#
# Bulk Modulus (GPa) = 32.78466 42.12010 37.45238
# Shear Modulus (GPa) = 498.01084 20.86066 259.43575
#
# Velocity S-wave (km/s) = 15.24457 3.12004 11.00299
# Velocity P-wave (km/s) = 18.03224 5.71269 13.37528
#
# Compressibility (1/GPa) = 0.03050207
#
# Stress axis : x y z
#
# Youngs Moduli (GPa) = 64.71817 56.42238 93.53424
#
# Poissons Ratio (x) = -0.03325 0.33700
# Poissons Ratio (y) = -0.03814 0.34313
# Poissons Ratio (z) = 0.23318 0.20698
#
# Static dielectric constant tensor:
#      x y z
#    x 1.830260 0.000000 -0.054700 
#    y 0.000000 1.767900 0.000000 
#    z -0.054700 0.000000 1.844680 
# 
# From -- ./inp_files/149857.got.cif
#   From: 2010.05.17/outbox.cif.g08.bks.cpg/sg12_75_cif.got.tgz:149857.got - 2010.06.03 13:09:07.
