data_PCOD9204957
_publ_section_title
;
Structure prediction by ZEFSAII (Michael W. Deem and Ramdas Pophale) SiO2 
 PCOD9204957
Probable space group: C 2/M
;
_chemical_formula_sum "Si O2"
_cell_formula_units_Z 48
_cell_length_a 19.410633
_cell_length_b 18.490722
_cell_length_c 15.180533
_cell_angle_alpha 90.000000
_cell_angle_beta 26.599276
_cell_angle_gamma 90.000000
_cell_volume 2439.574234
_symmetry_space_group_name_H-M "C 2/M"
_symmetry_group_IT_number 12
_symmetry_cell_setting 'monoclinic'
loop_
_space_group_symop_operation_xyz
x,y,z
-x,y,-z
-x,-y,-z
x,-y,z
1/2+x,1/2+y,z
1/2-x,1/2+y,-z
1/2-x,1/2-y,-z
1/2+x,1/2-y,z
loop_
_atom_site_type_symbol
_atom_site_label
_atom_site_fract_x
_atom_site_fract_y
_atom_site_fract_z
Si Si1 0.845831 0.166401 0.725272
Si Si2 0.840652 0.812114 0.063576
Si Si3 0.761639 0.420078 0.484481
Si Si4 0.100037 0.083187 0.155475
Si Si5 0.834916 0.645560 0.227843
Si Si6 0.204350 0.803776 0.686293
O O1 0.738645 0.235654 0.867538
O O2 0.879446 0.122265 0.774581
O O3 0.762016 0.119438 0.744984
O O4 0.000000 0.192436 0.500000
O O5 0.784911 0.832112 0.225813
O O6 0.814851 0.871125 0.017822
O O7 0.025109 0.804063 0.862383
O O8 0.792384 0.500000 0.485902
O O9 0.581294 0.417241 0.662935
O O10 0.850211 0.407146 0.292117
O O11 0.791276 0.355591 0.519291
O O12 0.150922 0.000000 0.100935
O O13 0.754179 0.718975 0.356958
O O14 0.000000 0.666216 0.000000
#
# Coordination Sequence:
#
# PCOD9204957 Si02
#       6
#     8   8   8   8   8   8
#     4  11  20  35  57  82 108 144 187 224 266 320
#     4   9  18  35  56  83 105 140 187 226 270 314
#     4  10  21  34  53  83 113 146 180 219 274 327
#     4  10  21  35  54  81 114 145 179 223 270 328
#     4  11  20  37  58  80 112 144 181 228 271 317
#     4   9  17  35  57  80 108 141 183 229 269 316
#
# _framework density 19.675564999999999
#
# number of rings (size 3 to 8) (size 9 to 14) (size 15 to 20)
#    0.000    2.000    5.000    1.000    0.000    2.000 
#    0.000    3.333    0.000    0.500    0.000    0.000 
#    0.000    0.000    0.000    0.000    0.000    0.000 
#
# Total GULP energy -133837.783760 kJ/mol
# GULP energy per Si atom -5576.574323 kJ/mol
# Density = 1.963078 g / cm^3
# Si number density = 19.675565 Si / 1000 Ang^3
#
#
#
# Elastic Constant Matrix: (Units=GPa)
#
#
# Indices 1 2 3 4 5 6 
#
# 1 75.4632 38.3208 2.6992 -0.0012 15.8970 0.0011
# 2 38.3208 72.2794 16.5188 -0.0038 18.6716 0.0026
# 3 2.6992 16.5188 23.5114 -0.0015 11.9271 0.0011
# 4 -0.0012 -0.0038 -0.0015 15.5668 0.0010 -0.5137
# 5 15.8970 18.6716 11.9271 0.0010 20.2382 -0.0003
# 6 0.0011 0.0026 0.0011 -0.5137 -0.0003 8.4719
#
#
#
# Elastic Compliance Matrix: (Units=1/GPa)
#
#
# Indices 1 2 3 4 5 6 
#
# 1 0.020971 -0.010203 0.011900 0.000001 -0.014073 -0.000001
# 2 -0.010203 0.023758 -0.012078 0.000004 -0.006787 -0.000004
# 3 0.011900 -0.012078 0.069527 0.000007 -0.039179 -0.000008
# 4 0.000001 0.000004 0.000007 0.064368 -0.000012 0.003903
# 5 -0.014073 -0.006787 -0.039179 -0.000012 0.089817 0.000011
# 6 -0.000001 -0.000004 -0.000008 0.003903 0.000011 0.118273
#
#
# Mechanical properties :
#
#
# Convention : Reuss Voigt Hill
#
# Bulk Modulus (GPa) = 10.69579 31.81461 21.25520
# Shear Modulus (GPa) = 11.39885 16.43642 13.91763
#
# Velocity S-wave (km/s) = 2.40956 2.89342 2.66250
# Velocity P-wave (km/s) = 3.63169 5.23137 4.50313
#
# Compressibility (1/GPa) = 0.09349472
#
# Stress axis : x y z
#
# Youngs Moduli (GPa) = 47.68382 42.09122 14.38293
#
# Poissons Ratio (x) = 0.42945 -0.17115
# Poissons Ratio (y) = 0.48651 0.17371
# Poissons Ratio (z) = -0.56742 0.50837
#
# Static dielectric constant tensor:
#      x y z
#    x 1.711840 0.000000 -0.010050 
#    y 0.000000 1.688820 0.000000 
#    z -0.010050 0.000000 1.704230 
# 
# From -- ./inp_files/112734.got.cif
#   From: 2010.05.17/outbox.cif.g08.bks.cpg/sg12_57_cif.got.tgz:112734.got - 2010.06.03 13:09:07.
