data_PCOD9204575
_publ_section_title
;
Structure prediction by ZEFSAII (Michael W. Deem and Ramdas Pophale) SiO2 
 PCOD9204575
Probable space group: C 2/M
;
_chemical_formula_sum "Si O2"
_cell_formula_units_Z 42
_cell_length_a 10.246763
_cell_length_b 30.851794
_cell_length_c 9.106032
_cell_angle_alpha 90.000000
_cell_angle_beta 57.773111
_cell_angle_gamma 90.000000
_cell_volume 2435.215414
_symmetry_space_group_name_H-M "C 2/M"
_symmetry_group_IT_number 12
_symmetry_cell_setting 'monoclinic'
loop_
_space_group_symop_operation_xyz
x,y,z
-x,y,-z
-x,-y,-z
x,-y,z
1/2+x,1/2+y,z
1/2-x,1/2+y,-z
1/2-x,1/2-y,-z
1/2+x,1/2-y,z
loop_
_atom_site_type_symbol
_atom_site_label
_atom_site_fract_x
_atom_site_fract_y
_atom_site_fract_z
Si Si1 0.885893 0.146098 0.697014
Si Si2 0.084983 0.204051 0.790115
Si Si3 0.500000 0.500000 0.000000
Si Si4 0.854231 0.910579 0.998401
Si Si5 0.125480 0.646052 0.307528
Si Si6 0.915526 0.696656 0.207561
O O1 0.854197 0.108348 0.834489
O O2 0.732425 0.165935 0.718492
O O3 0.000000 0.131387 0.500000
O O4 0.968407 0.184227 0.740896
O O5 0.236509 0.174112 0.704459
O O6 0.126296 0.253800 0.731264
O O7 0.000000 0.204415 0.000000
O O8 0.609727 0.461215 0.006374
O O9 0.703873 0.893194 0.171899
O O10 0.000000 0.890103 0.000000
O O11 0.000000 0.630725 0.500000
O O12 0.035685 0.677603 0.251086
O O13 0.000000 0.696618 0.000000
#
# Coordination Sequence:
#
# PCOD9204575 Si02
#       6
#     8   8   2   8   8   8
#     4  12  22  36  59  85 118 156 196 246 287 336
#     4  11  20  39  54  75 119 172 215 232 266 340
#     4   8  20  40  80  82 104 154 192 214 304 380
#     4  10  20  43  64  88 108 146 195 231 284 378
#     4  12  22  36  59  85 118 156 196 246 287 336
#     4  11  23  33  54  84 120 160 200 254 289 310
#
# _framework density 17.246936000000002
#
# number of rings (size 3 to 8) (size 9 to 14) (size 15 to 20)
#    0.571    0.381    5.714    2.286    0.000    7.619 
#    0.000    0.952    0.000    2.286    0.000    0.000 
#    0.000    0.000    0.000    0.000    0.000    0.000 
#
# Total GULP energy -116943.298505 kJ/mol
# GULP energy per Si atom -5568.728500 kJ/mol
# Density = 1.720768 g / cm^3
# Si number density = 17.246936 Si / 1000 Ang^3
#
#
#
# Elastic Constant Matrix: (Units=GPa)
#
#
# Indices 1 2 3 4 5 6 
#
# 1 54.0460 11.7534 -8.0014 0.0000 -12.0241 0.0000
# 2 11.7534 136.2652 32.4296 0.0000 -10.5803 0.0000
# 3 -8.0014 32.4296 112.0641 0.0000 -14.9249 0.0000
# 4 0.0000 0.0000 0.0000 3.1706 0.0000 -6.2075
# 5 -12.0241 -10.5803 -14.9249 0.0000 26.3733 0.0000
# 6 0.0000 0.0000 0.0000 -6.2075 0.0000 19.0991
#
#
#
# Elastic Compliance Matrix: (Units=1/GPa)
#
#
# Indices 1 2 3 4 5 6 
#
# 1 0.021962 -0.001877 0.003617 0.000000 0.011307 0.000000
# 2 -0.001877 0.008143 -0.002346 0.000000 0.001083 0.000000
# 3 0.003617 -0.002346 0.010766 0.000000 0.006801 0.000000
# 4 0.000000 0.000000 0.000000 0.867275 0.000000 0.281881
# 5 0.011307 0.001083 0.006801 0.000000 0.047355 0.000000
# 6 0.000000 0.000000 0.000000 0.281881 0.000000 0.143975
#
#
# Mechanical properties :
#
#
# Convention : Reuss Voigt Hill
#
# Bulk Modulus (GPa) = 25.21500 41.63762 33.42631
# Shear Modulus (GPa) = 4.48870 27.47484 15.98177
#
# Velocity S-wave (km/s) = 1.61501 3.99560 3.04739
# Velocity P-wave (km/s) = 4.25786 6.74396 5.63961
#
# Compressibility (1/GPa) = 0.03965893
#
# Stress axis : x y z
#
# Youngs Moduli (GPa) = 45.53307 122.80444 92.88131
#
# Poissons Ratio (x) = 0.23053 -0.33597
# Poissons Ratio (y) = 0.08548 0.21792
# Poissons Ratio (z) = -0.16470 0.28813
#
# Static dielectric constant tensor:
#      x y z
#    x 1.584730 0.000000 0.001760 
#    y 0.000000 1.549110 0.000000 
#    z 0.001760 0.000000 1.624890 
# 
# From -- ./inp_files/42049.got.cif
#   From: 2010.05.17/outbox.cif.g08.bks.cpg/sg12_22_cif.got.tgz:42049.got - 2010.06.03 13:09:07.
