data_PCOD9204556
_publ_section_title
;
Structure prediction by ZEFSAII (Michael W. Deem and Ramdas Pophale) SiO2 
 PCOD9204556
Probable space group: C 2/M
;
_chemical_formula_sum "Si O2"
_cell_formula_units_Z 48
_cell_length_a 8.884021
_cell_length_b 14.225106
_cell_length_c 14.182451
_cell_angle_alpha 90.000000
_cell_angle_beta 74.487742
_cell_angle_gamma 90.000000
_cell_volume 1727.034916
_symmetry_space_group_name_H-M "C 2/M"
_symmetry_group_IT_number 12
_symmetry_cell_setting 'monoclinic'
loop_
_space_group_symop_operation_xyz
x,y,z
-x,y,-z
-x,-y,-z
x,-y,z
1/2+x,1/2+y,z
1/2-x,1/2+y,-z
1/2-x,1/2-y,-z
1/2+x,1/2-y,z
loop_
_atom_site_type_symbol
_atom_site_label
_atom_site_fract_x
_atom_site_fract_y
_atom_site_fract_z
Si Si1 0.641012 0.101549 0.317724
Si Si2 0.069256 0.161543 0.794074
Si Si3 0.000000 0.703072 0.500000
Si Si4 0.763371 0.642348 0.238902
Si Si5 0.822706 0.107763 0.533747
Si Si6 0.000000 0.228314 0.000000
Si Si7 0.421465 0.899201 0.894012
O O1 0.827618 0.097251 0.291389
O O2 0.556827 0.188153 0.380361
O O3 0.625642 0.109341 0.207406
O O4 0.572066 0.000000 0.360327
O O5 0.151411 0.259617 0.758357
O O6 0.071984 0.161692 0.907700
O O7 0.893545 0.151929 0.792453
O O8 0.815996 0.657366 0.499677
O O9 0.722693 0.603910 0.349127
O O10 0.891142 0.594150 0.151373
O O11 0.000000 0.166444 0.500000
O O12 0.846284 0.000000 0.497672
O O13 0.896065 0.305016 0.958599
O O14 0.362371 0.000000 0.940316
#
# Coordination Sequence:
#
# PCOD9204556 Si02
#       7
#     8   8   4   8   8   4   8
#     4  11  24  45  69  99 143 187 235 286 346 413
#     4  11  23  42  65 103 132 183 225 289 347 417
#     4  10  20  42  70 100 140 184 232 280 350 414
#     4  11  22  39  67  92 140 175 228 276 350 411
#     4   9  19  36  61  96 129 166 218 281 337 400
#     4  10  23  38  71  96 136 176 236 284 358 418
#     4  10  23  42  66  98 137 183 232 289 344 415
#
# _framework density 27.793299000000001
#
# number of rings (size 3 to 8) (size 9 to 14) (size 15 to 20)
#    0.500    1.167    1.667    3.000    0.000    7.333 
#    3.000    2.917    0.000    0.000    0.000    0.000 
#    0.000    0.000    0.000    0.000    0.000    0.000 
#
# Total GULP energy -133896.707344 kJ/mol
# GULP energy per Si atom -5579.029473 kJ/mol
# Density = 2.773004 g / cm^3
# Si number density = 27.793299 Si / 1000 Ang^3
#
#
#
# Elastic Constant Matrix: (Units=GPa)
#
#
# Indices 1 2 3 4 5 6 
#
# 1 170.2516 27.9120 28.1558 0.0000 -9.9275 0.0000
# 2 27.9120 169.8700 29.4583 0.0000 -21.1701 0.0000
# 3 28.1558 29.4583 157.0593 0.0000 -9.2222 0.0000
# 4 0.0000 0.0000 0.0000 15.5146 0.0000 -2.6611
# 5 -9.9275 -21.1701 -9.2222 0.0000 42.0715 0.0000
# 6 0.0000 0.0000 0.0000 -2.6611 0.0000 19.0528
#
#
#
# Elastic Compliance Matrix: (Units=1/GPa)
#
#
# Indices 1 2 3 4 5 6 
#
# 1 0.006200 -0.000749 -0.000919 0.000000 0.000885 0.000000
# 2 -0.000749 0.006532 -0.000920 0.000000 0.002908 0.000000
# 3 -0.000919 -0.000920 0.006751 0.000000 0.000800 0.000000
# 4 0.000000 0.000000 0.000000 0.066037 0.000000 0.009224
# 5 0.000885 0.002908 0.000800 0.000000 0.025617 0.000000
# 6 0.000000 0.000000 0.000000 0.009224 0.000000 0.053774
#
#
# Mechanical properties :
#
#
# Convention : Reuss Voigt Hill
#
# Bulk Modulus (GPa) = 69.89654 74.24813 72.07234
# Shear Modulus (GPa) = 28.59483 42.77144 35.68313
#
# Velocity S-wave (km/s) = 3.21103 3.92715 3.58701
# Velocity P-wave (km/s) = 6.24107 6.88010 6.56836
#
# Compressibility (1/GPa) = 0.01430686
#
# Stress axis : x y z
#
# Youngs Moduli (GPa) = 161.28915 153.09334 148.11907
#
# Poissons Ratio (x) = 0.11469 0.13612
# Poissons Ratio (y) = 0.12083 0.13628
# Poissons Ratio (z) = 0.14823 0.14086
#
# Static dielectric constant tensor:
#      x y z
#    x 2.346650 0.000000 0.035730 
#    y 0.000000 2.390030 0.000000 
#    z 0.035730 0.000000 2.180900 
# 
# From -- ./inp_files/196037.got.cif
#   From: 2010.05.17/outbox.cif.g08.bks.cpg/sg12_99_cif.got.tgz:196037.got - 2010.06.03 13:09:07.
