data_PCOD9204187
_publ_section_title
;
Structure prediction by ZEFSAII (Michael W. Deem and Ramdas Pophale) SiO2 
 PCOD9204187
Probable space group: C 2/M
;
_chemical_formula_sum "Si O2"
_cell_formula_units_Z 64
_cell_length_a 20.943485
_cell_length_b 18.531639
_cell_length_c 23.687266
_cell_angle_alpha 90.000000
_cell_angle_beta 160.984495
_cell_angle_gamma 90.000000
_cell_volume 2995.441250
_symmetry_space_group_name_H-M "C 2/M"
_symmetry_group_IT_number 12
_symmetry_cell_setting 'monoclinic'
loop_
_space_group_symop_operation_xyz
x,y,z
-x,y,-z
-x,-y,-z
x,-y,z
1/2+x,1/2+y,z
1/2-x,1/2+y,-z
1/2-x,1/2-y,-z
1/2+x,1/2-y,z
loop_
_atom_site_type_symbol
_atom_site_label
_atom_site_fract_x
_atom_site_fract_y
_atom_site_fract_z
Si Si1 0.642015 0.365042 0.882888
Si Si2 0.492577 0.202263 0.755519
Si Si3 0.735436 0.163204 0.323815
Si Si4 0.922267 0.084072 0.998318
Si Si5 0.845117 0.815605 0.295747
Si Si6 0.296279 0.416393 0.669322
Si Si7 0.525890 0.827192 0.661364
Si Si8 0.125738 0.417359 0.028666
O O1 0.572758 0.282988 0.814530
O O2 0.467614 0.407894 0.766223
O O3 0.715909 0.402613 0.888205
O O4 0.830159 0.352254 0.080505
O O5 0.356381 0.200494 0.697313
O O6 0.415348 0.180701 0.629251
O O7 0.766140 0.208454 0.291450
O O8 0.953714 0.140333 0.524234
O O9 0.581304 0.103793 0.173292
O O10 0.724980 0.128994 0.838584
O O11 0.884158 0.000000 0.981080
O O12 0.000000 0.087738 0.000000
O O13 0.095940 0.109988 0.184153
O O14 0.908097 0.748269 0.310318
O O15 0.692158 0.864475 0.134259
O O16 0.238557 0.500000 0.627274
O O17 0.113310 0.369197 0.497840
O O18 0.126096 0.500000 0.046750
#
# Coordination Sequence:
#
# PCOD9204187 Si02
#       8
#     8   8   8   8   8   8   8   8
#     4  10  20  40  66  96 131 169 214 275 336 395
#     4  10  21  40  68  97 133 169 216 278 342 387
#     4  10  25  44  63  98 136 170 214 277 336 404
#     4  10  24  45  66  94 136 181 222 272 334 399
#     4  11  25  43  67  98 133 172 223 274 340 400
#     4  11  24  41  66  97 135 178 221 270 330 403
#     4  12  24  41  70 102 131 174 223 282 331 400
#     4  11  24  44  69  95 129 176 228 276 332 400
#
# _framework density 21.3658
#
# number of rings (size 3 to 8) (size 9 to 14) (size 15 to 20)
#    0.000    1.375    2.500    1.875    1.750    8.000 
#    0.000    3.750    0.000    0.000    0.000    0.000 
#    0.000    0.000    0.000    0.000    0.000    0.000 
#
# Total GULP energy -178809.824082 kJ/mol
# GULP energy per Si atom -5587.807003 kJ/mol
# Density = 2.131717 g / cm^3
# Si number density = 21.365800 Si / 1000 Ang^3
#
#
#
# Elastic Constant Matrix: (Units=GPa)
#
#
# Indices 1 2 3 4 5 6 
#
# 1 123.3353 43.6940 51.9403 -0.0329 -12.5455 -0.0449
# 2 43.6940 84.1879 67.5358 -0.0208 -8.1754 -0.0422
# 3 51.9403 67.5358 131.6575 0.0204 -26.8035 0.0249
# 4 -0.0329 -0.0208 0.0204 27.8765 -0.0183 -7.2769
# 5 -12.5455 -8.1754 -26.8035 -0.0183 31.5402 0.0239
# 6 -0.0449 -0.0422 0.0249 -7.2769 0.0239 -19.4093
#
#
#
# Elastic Compliance Matrix: (Units=1/GPa)
#
#
# Indices 1 2 3 4 5 6 
#
# 1 0.010375 -0.003749 -0.001847 0.000007 0.001585 -0.000019
# 2 -0.003749 0.022036 -0.010841 0.000001 -0.004992 -0.000060
# 3 -0.001847 -0.010841 0.015917 0.000000 0.009982 0.000060
# 4 0.000007 0.000001 0.000000 0.032675 0.000032 -0.012250
# 5 0.001585 -0.004992 0.009982 0.000032 0.039525 0.000057
# 6 -0.000019 -0.000060 0.000060 -0.012250 0.000057 -0.046928
#
#
# Mechanical properties :
#
#
# Convention : Reuss Voigt Hill
#
# Bulk Modulus (GPa) = 64.70773 73.94679 69.32726
# Shear Modulus (GPa) = 44.79252 19.73552 32.26402
#
# Velocity S-wave (km/s) = 4.58368 3.04253 3.89019
# Velocity P-wave (km/s) = 7.63969 6.85768 7.25922
#
# Compressibility (1/GPa) = 0.01545410
#
# Stress axis : x y z
#
# Youngs Moduli (GPa) = 96.38228 45.38086 62.82398
#
# Poissons Ratio (x) = 0.17013 0.11606
# Poissons Ratio (y) = 0.36134 0.68107
# Poissons Ratio (z) = 0.17805 0.49197
#
# Static dielectric constant tensor:
#      x y z
#    x 1.803300 0.000000 -0.002930 
#    y 0.000000 1.743690 -0.000010 
#    z -0.002930 -0.000010 1.773370 
# 
# From -- ./inp_files/347917.got.cif
#   From: 2010.05.17/outbox.cif.g08.bks.cpg/sg12_174_cif.got.tgz:347917.got - 2010.06.03 13:09:07.
