data_PCOD9204939
_publ_section_title
;
Structure prediction by ZEFSAII (Michael W. Deem and Ramdas Pophale) SiO2 
 PCOD9204939
Probable space group: C 2/M
;
_chemical_formula_sum "Si O2"
_cell_formula_units_Z 56
_cell_length_a 28.059576
_cell_length_b 8.958782
_cell_length_c 11.841180
_cell_angle_alpha 90.000000
_cell_angle_beta 77.154180
_cell_angle_gamma 90.000000
_cell_volume 2902.131858
_symmetry_space_group_name_H-M "C 2/M"
_symmetry_group_IT_number 12
_symmetry_cell_setting 'monoclinic'
loop_
_space_group_symop_operation_xyz
x,y,z
-x,y,-z
-x,-y,-z
x,-y,z
1/2+x,1/2+y,z
1/2-x,1/2+y,-z
1/2-x,1/2-y,-z
1/2+x,1/2-y,z
loop_
_atom_site_type_symbol
_atom_site_label
_atom_site_fract_x
_atom_site_fract_y
_atom_site_fract_z
Si Si1 0.894169 0.836545 0.011364
Si Si2 0.037811 0.329167 0.889072
Si Si3 0.189182 0.168700 0.778666
Si Si4 0.057412 0.321240 0.465711
Si Si5 0.379745 0.672804 0.760079
Si Si6 0.403911 0.322105 0.329646
Si Si7 0.731215 0.678420 0.128109
O O1 0.900578 0.827118 0.875887
O O2 0.915009 0.000000 0.039315
O O3 0.914138 0.689476 0.060517
O O4 0.839463 0.842655 0.086555
O O5 0.025430 0.500000 0.868752
O O6 0.051398 0.236466 0.772119
O O7 0.000000 0.264940 0.000000
O O8 0.147490 0.213098 0.708400
O O9 0.233580 0.275392 0.786267
O O10 0.205538 0.000000 0.740769
O O11 0.057974 0.500000 0.471500
O O12 0.085621 0.265956 0.339696
O O13 0.087364 0.254306 0.555425
O O14 0.000000 0.273531 0.500000
O O15 0.378393 0.500000 0.721028
O O16 0.323845 0.725660 0.807595
O O17 0.405818 0.500000 0.338342
O O18 0.730836 0.500000 0.113602
O O19 0.750000 0.750000 0.000000
#
# Coordination Sequence:
#
# PCOD9204939 Si02
#       7
#     8   8   8   8   8   8   8
#     4   9  18  34  54  81 118 155 194 241 287 352
#     4  10  21  34  52  82 118 150 189 246 305 357
#     4   9  18  36  59  88 122 154 192 240 295 350
#     4  11  26  45  64  88 119 155 202 259 309 356
#     4  10  22  40  60  87 122 159 206 249 291 358
#     4  10  22  41  63  84 114 157 203 247 294 359
#     4  11  21  35  59  92 128 162 198 243 297 359
#
# _framework density 19.296158999999999
#
# number of rings (size 3 to 8) (size 9 to 14) (size 15 to 20)
#    0.000    2.000    1.429    2.571    2.000    6.857 
#    0.000    0.714    0.000    0.000    0.000    0.000 
#    0.000    0.000    0.000    0.000    0.000    0.000 
#
# Total GULP energy -155889.008673 kJ/mol
# GULP energy per Si atom -5567.464595 kJ/mol
# Density = 1.925224 g / cm^3
# Si number density = 19.296159 Si / 1000 Ang^3
#
#
#
# Elastic Constant Matrix: (Units=GPa)
#
#
# Indices 1 2 3 4 5 6 
#
# 1 51.2118 22.4423 28.9873 0.0000 -2.2417 0.0000
# 2 22.4423 44.9921 28.5243 0.0000 -1.2330 0.0000
# 3 28.9873 28.5243 90.1823 0.0000 3.4338 0.0000
# 4 0.0000 0.0000 0.0000 22.8054 0.0000 -1.5942
# 5 -2.2417 -1.2330 3.4338 0.0000 27.9663 0.0000
# 6 0.0000 0.0000 0.0000 -1.5942 0.0000 25.2974
#
#
#
# Elastic Compliance Matrix: (Units=1/GPa)
#
#
# Indices 1 2 3 4 5 6 
#
# 1 0.027194 -0.009878 -0.005710 0.000000 0.002445 0.000000
# 2 -0.009878 0.031539 -0.006856 0.000000 0.001440 0.000000
# 3 -0.005710 -0.006856 0.015192 0.000000 -0.002625 0.000000
# 4 0.000000 0.000000 0.000000 0.044043 0.000000 0.002776
# 5 0.002445 0.001440 -0.002625 0.000000 0.036339 0.000000
# 6 0.000000 0.000000 0.000000 0.002776 0.000000 0.039705
#
#
# Mechanical properties :
#
#
# Convention : Reuss Voigt Hill
#
# Bulk Modulus (GPa) = 34.43594 38.47710 36.45652
# Shear Modulus (GPa) = 20.11435 22.30933 21.21184
#
# Velocity S-wave (km/s) = 3.23213 3.40392 3.31913
# Velocity P-wave (km/s) = 5.64036 5.95251 5.79854
#
# Compressibility (1/GPa) = 0.02903943
#
# Stress axis : x y z
#
# Youngs Moduli (GPa) = 36.77230 31.70684 65.82277
#
# Poissons Ratio (x) = 0.31319 0.37584
# Poissons Ratio (y) = 0.36322 0.45125
# Poissons Ratio (z) = 0.20997 0.21737
#
# Static dielectric constant tensor:
#      x y z
#    x 1.798760 0.000000 -0.014830 
#    y 0.000000 1.691610 0.000000 
#    z -0.014830 0.000000 1.673340 
# 
# From -- ./inp_files/180635.got.cif
#   From: 2010.05.17/outbox.cif.g08.bks.cpg/sg12_91_cif.got.tgz:180635.got - 2010.06.03 13:09:07.
