data_PCOD9204621
_publ_section_title
;
Structure prediction by ZEFSAII (Michael W. Deem and Ramdas Pophale) SiO2 
 PCOD9204621
Probable space group: C 2/M
;
_chemical_formula_sum "Si O2"
_cell_formula_units_Z 36
_cell_length_a 9.819407
_cell_length_b 21.600117
_cell_length_c 6.622705
_cell_angle_alpha 90.000000
_cell_angle_beta 98.042278
_cell_angle_gamma 90.000000
_cell_volume 1390.863122
_symmetry_space_group_name_H-M "C 2/M"
_symmetry_group_IT_number 12
_symmetry_cell_setting 'monoclinic'
loop_
_space_group_symop_operation_xyz
x,y,z
-x,y,-z
-x,-y,-z
x,-y,z
1/2+x,1/2+y,z
1/2-x,1/2+y,-z
1/2-x,1/2-y,-z
1/2+x,1/2-y,z
loop_
_atom_site_type_symbol
_atom_site_label
_atom_site_fract_x
_atom_site_fract_y
_atom_site_fract_z
Si Si1 0.960947 0.870881 0.756560
Si Si2 0.266398 0.866646 0.740797
Si Si3 0.000000 0.672545 0.500000
Si Si4 0.235683 0.734472 0.734978
Si Si5 0.336717 0.000000 0.951356
Si Si6 0.112262 0.000000 0.208304
O O1 0.844615 0.820217 0.764508
O O2 0.103059 0.857945 0.668910
O O3 0.905978 0.937243 0.675919
O O4 0.000000 0.879910 0.000000
O O5 0.379538 0.865242 0.586743
O O6 0.282034 0.798368 0.856372
O O7 0.287115 0.933917 0.846621
O O8 0.922598 0.711333 0.306138
O O9 0.250000 0.750000 0.500000
O O10 0.500000 0.000000 0.000000
O O11 0.264236 0.000000 0.151533
O O12 0.000000 0.000000 0.000000
#
# Coordination Sequence:
#
# PCOD9204621 Si02
#       6
#     8   8   4   8   4   4
#     4  11  22  41  73  98 131 180 228 279 328 407
#     4  11  22  42  63  95 134 172 227 269 337 395
#     4  10  24  41  66  99 136 182 214 286 338 401
#     4  10  23  44  68  96 139 180 225 279 331 403
#     4  12  26  41  67  94 140 179 212 294 339 398
#     4  10  20  46  63  96 129 175 226 269 342 400
#
# _framework density 25.883209999999998
#
# number of rings (size 3 to 8) (size 9 to 14) (size 15 to 20)
#    0.000    1.333    4.444    2.667    3.111    4.889 
#    0.000    4.444    0.000   11.333    0.000    0.000 
#    0.000    0.000    0.000    0.000    0.000    0.000 
#
# Total GULP energy -100398.443199 kJ/mol
# GULP energy per Si atom -5577.691289 kJ/mol
# Density = 2.582430 g / cm^3
# Si number density = 25.883210 Si / 1000 Ang^3
#
#
#
# Elastic Constant Matrix: (Units=GPa)
#
#
# Indices 1 2 3 4 5 6 
#
# 1 226.1343 82.3991 34.0092 0.0000 -20.6791 0.0000
# 2 82.3991 253.7687 28.0214 0.0000 8.8290 0.0000
# 3 34.0092 28.0214 38.1748 0.0000 -4.4482 0.0000
# 4 0.0000 0.0000 0.0000 28.8791 0.0000 -13.4642
# 5 -20.6791 8.8290 -4.4482 0.0000 55.2455 0.0000
# 6 0.0000 0.0000 0.0000 -13.4642 0.0000 39.6020
#
#
#
# Elastic Compliance Matrix: (Units=1/GPa)
#
#
# Indices 1 2 3 4 5 6 
#
# 1 0.005730 -0.001519 -0.003746 0.000000 0.002086 0.000000
# 2 -0.001519 0.004741 -0.002302 0.000000 -0.001512 0.000000
# 3 -0.003746 -0.002302 0.031397 0.000000 0.001494 0.000000
# 4 0.000000 0.000000 0.000000 0.041150 0.000000 0.013990
# 5 0.002086 -0.001512 0.001494 0.000000 0.019244 0.000000
# 6 0.000000 0.000000 0.000000 0.013990 0.000000 0.030008
#
#
# Mechanical properties :
#
#
# Convention : Reuss Voigt Hill
#
# Bulk Modulus (GPa) = 37.40935 89.65970 63.53452
# Shear Modulus (GPa) = 31.98651 49.65518 40.82084
#
# Velocity S-wave (km/s) = 3.51921 4.38474 3.97560
# Velocity P-wave (km/s) = 5.56755 7.76852 6.75824
#
# Compressibility (1/GPa) = 0.02673129
#
# Stress axis : x y z
#
# Youngs Moduli (GPa) = 174.52033 210.93542 31.85027
#
# Poissons Ratio (x) = 0.32050 0.11932
# Poissons Ratio (y) = 0.26517 0.07333
# Poissons Ratio (z) = 0.65382 0.48566
#
# Static dielectric constant tensor:
#      x y z
#    x 2.050700 0.000000 0.106980 
#    y 0.000000 2.146490 0.000000 
#    z 0.106980 0.000000 2.269760 
# 
# From -- ./inp_files/38051.got.cif
#   From: 2010.05.17/outbox.cif.g08.bks.cpg/sg12_20_cif.got.tgz:38051.got - 2010.06.03 13:09:07.
