data_PCOD9204394
_publ_section_title
;
Structure prediction by ZEFSAII (Michael W. Deem and Ramdas Pophale) SiO2 
 PCOD9204394
Probable space group: C 2/M
;
_chemical_formula_sum "Si O2"
_cell_formula_units_Z 32
_cell_length_a 16.276979
_cell_length_b 14.872873
_cell_length_c 11.229417
_cell_angle_alpha 90.000000
_cell_angle_beta 144.529238
_cell_angle_gamma 90.000000
_cell_volume 1577.498848
_symmetry_space_group_name_H-M "C 2/M"
_symmetry_group_IT_number 12
_symmetry_cell_setting 'monoclinic'
loop_
_space_group_symop_operation_xyz
x,y,z
-x,y,-z
-x,-y,-z
x,-y,z
1/2+x,1/2+y,z
1/2-x,1/2+y,-z
1/2-x,1/2-y,-z
1/2+x,1/2-y,z
loop_
_atom_site_type_symbol
_atom_site_label
_atom_site_fract_x
_atom_site_fract_y
_atom_site_fract_z
Si Si1 0.089703 0.500000 0.482591
Si Si2 0.593093 0.000000 0.227493
Si Si3 0.061504 0.107391 0.939754
Si Si4 0.698858 0.668770 0.522692
Si Si5 0.834894 0.317563 0.336721
O O1 0.015827 0.500000 0.266318
O O2 0.177692 0.407124 0.593201
O O3 0.000000 0.500000 0.500000
O O4 0.692318 0.087447 0.342658
O O5 0.500000 0.000000 0.000000
O O6 0.948283 0.134901 0.706666
O O7 0.083001 0.000000 0.962018
O O8 0.210342 0.159001 0.097816
O O9 0.000000 0.130782 0.000000
O O10 0.750000 0.750000 0.500000
O O11 0.689378 0.720456 0.636268
O O12 0.000000 0.318170 0.500000
#
# Coordination Sequence:
#
# PCOD9204394 Si02
#       5
#     4   4   8   8   8
#     4  10  20  41  67 102 135 174 229 288 327 401
#     4  12  26  43  66 108 144 178 226 292 356 407
#     4  11  21  38  66  96 129 170 225 282 328 400
#     4  12  24  41  66  98 136 177 229 279 346 416
#     4  11  24  41  68  99 133 175 231 286 337 403
#
# _framework density 20.285274999999999
#
# number of rings (size 3 to 8) (size 9 to 14) (size 15 to 20)
#    0.000    0.750    7.500    0.000    3.500    1.000 
#    0.000    3.125    0.000    0.000    0.000    0.000 
#    0.000    0.000    0.000    0.000    0.000    0.000 
#
# Total GULP energy -89196.625597 kJ/mol
# GULP energy per Si atom -5574.789100 kJ/mol
# Density = 2.023910 g / cm^3
# Si number density = 20.285275 Si / 1000 Ang^3
#
#
#
# Elastic Constant Matrix: (Units=GPa)
#
#
# Indices 1 2 3 4 5 6 
#
# 1 48.6209 39.1797 46.5878 0.0000 6.7978 0.0000
# 2 39.1797 141.7527 54.4082 0.0000 3.0351 0.0000
# 3 46.5878 54.4082 187.1398 0.0000 3.8291 0.0000
# 4 0.0000 0.0000 0.0000 36.0824 0.0000 -2.8755
# 5 6.7978 3.0351 3.8291 0.0000 31.7300 0.0000
# 6 0.0000 0.0000 0.0000 -2.8755 0.0000 20.0045
#
#
#
# Elastic Compliance Matrix: (Units=1/GPa)
#
#
# Indices 1 2 3 4 5 6 
#
# 1 0.032400 -0.006510 -0.006059 0.000000 -0.005587 0.000000
# 2 -0.006510 0.009256 -0.001084 0.000000 0.000640 0.000000
# 3 -0.006059 -0.001084 0.007156 0.000000 0.000538 0.000000
# 4 0.000000 0.000000 0.000000 0.028035 0.000000 0.004030
# 5 -0.005587 0.000640 0.000538 0.000000 0.032587 0.000000
# 6 0.000000 0.000000 0.000000 0.004030 0.000000 0.050568
#
#
# Mechanical properties :
#
#
# Convention : Reuss Voigt Hill
#
# Bulk Modulus (GPa) = 46.49617 73.09608 59.79612
# Shear Modulus (GPa) = 25.71018 33.38592 29.54805
#
# Velocity S-wave (km/s) = 3.56396 4.06127 3.82072
# Velocity P-wave (km/s) = 6.31717 7.62261 7.00039
#
# Compressibility (1/GPa) = 0.02150715
#
# Stress axis : x y z
#
# Youngs Moduli (GPa) = 30.86440 108.03760 139.74429
#
# Poissons Ratio (x) = 0.70332 0.84668
# Poissons Ratio (y) = 0.20093 0.15142
# Poissons Ratio (z) = 0.18700 0.11706
#
# Static dielectric constant tensor:
#      x y z
#    x 1.819140 0.000000 -0.015690 
#    y 0.000000 1.731530 0.000000 
#    z -0.015690 0.000000 1.724200 
# 
# From -- ./inp_files/45447.got.cif
#   From: 2010.05.17/outbox.cif.g08.bks.cpg/sg12_23_cif.got.tgz:45447.got - 2010.06.03 13:09:07.
