data_PCOD9204176
_publ_section_title
;
Structure prediction by ZEFSAII (Michael W. Deem and Ramdas Pophale) SiO2 
 PCOD9204176
Probable space group: C 2/M
;
_chemical_formula_sum "Si O2"
_cell_formula_units_Z 64
_cell_length_a 29.508186
_cell_length_b 8.910406
_cell_length_c 19.386612
_cell_angle_alpha 90.000000
_cell_angle_beta 40.440875
_cell_angle_gamma 90.000000
_cell_volume 3306.443177
_symmetry_space_group_name_H-M "C 2/M"
_symmetry_group_IT_number 12
_symmetry_cell_setting 'monoclinic'
loop_
_space_group_symop_operation_xyz
x,y,z
-x,y,-z
-x,-y,-z
x,-y,z
1/2+x,1/2+y,z
1/2-x,1/2+y,-z
1/2-x,1/2-y,-z
1/2+x,1/2-y,z
loop_
_atom_site_type_symbol
_atom_site_label
_atom_site_fract_x
_atom_site_fract_y
_atom_site_fract_z
Si Si1 0.424760 0.675507 0.663229
Si Si2 0.643069 0.822569 0.387082
Si Si3 0.888628 0.678057 0.950859
Si Si4 0.207907 0.321151 0.814869
Si Si5 0.572697 0.819624 0.877316
Si Si6 0.823887 0.176307 0.899884
Si Si7 0.966705 0.178201 0.213873
Si Si8 0.042763 0.678501 0.623897
O O1 0.442428 0.500000 0.636532
O O2 0.409518 0.746795 0.606995
O O3 0.351859 0.687097 0.790019
O O4 0.482053 0.754641 0.645079
O O5 0.720990 0.761137 0.286484
O O6 0.613198 0.795391 0.498192
O O7 0.641882 0.000000 0.375679
O O8 0.901544 0.500000 0.941062
O O9 0.875775 0.731422 0.888489
O O10 0.955740 0.768028 0.897517
O O11 0.820860 0.713169 0.075200
O O12 0.220595 0.500000 0.796598
O O13 0.141224 0.286573 0.843542
O O14 0.579302 0.743024 0.795089
O O15 0.568729 0.000000 0.873170
O O16 0.500000 0.774912 0.000000
O O17 0.824065 0.000000 0.918324
O O18 0.750000 0.250000 0.000000
O O19 0.954159 0.247494 0.304237
O O20 0.962428 0.000000 0.222848
O O21 0.031732 0.500000 0.644502
#
# Coordination Sequence:
#
# PCOD9204176 Si02
#       8
#     8   8   8   8   8   8   8   8
#     4  11  23  39  61  90 122 159 208 258 304 360
#     4  11  25  42  62  90 123 162 209 257 307 362
#     4  11  21  37  60  86 120 162 201 245 301 365
#     4  10  22  40  64  92 123 162 205 248 304 368
#     4  10  20  40  66  93 125 163 203 244 301 370
#     4  11  23  36  52  83 122 162 205 247 301 364
#     4  12  24  38  61  95 125 155 199 252 308 361
#     4  11  24  43  65  88 120 165 212 256 305 363
#
# _framework density 19.356147
#
# number of rings (size 3 to 8) (size 9 to 14) (size 15 to 20)
#    0.000    1.125    2.500    4.125    0.000    9.750 
#    0.000    0.625    0.000    0.000    0.000    0.000 
#    0.000    0.000    0.000    0.000    0.000    0.000 
#
# Total GULP energy -178828.384484 kJ/mol
# GULP energy per Si atom -5588.387015 kJ/mol
# Density = 1.931209 g / cm^3
# Si number density = 19.356147 Si / 1000 Ang^3
#
#
#
# Elastic Constant Matrix: (Units=GPa)
#
#
# Indices 1 2 3 4 5 6 
#
# 1 77.5784 44.0790 40.8538 0.0033 21.1161 -0.0015
# 2 44.0790 89.4046 57.9796 0.0063 14.0907 -0.0041
# 3 40.8538 57.9796 116.0012 0.0002 14.1495 -0.0017
# 4 0.0033 0.0063 0.0002 29.7191 0.0000 -2.1290
# 5 21.1161 14.0907 14.1495 0.0000 28.6090 0.0001
# 6 -0.0015 -0.0041 -0.0017 -2.1290 0.0001 31.6241
#
#
#
# Elastic Compliance Matrix: (Units=1/GPa)
#
#
# Indices 1 2 3 4 5 6 
#
# 1 0.021252 -0.007054 -0.002628 -0.000001 -0.010912 0.000000
# 2 -0.007054 0.019408 -0.007115 -0.000003 -0.000834 0.000002
# 3 -0.002628 -0.007115 0.013237 0.000002 -0.001103 0.000000
# 4 -0.000001 -0.000003 0.000002 0.033811 0.000001 0.002276
# 5 -0.010912 -0.000834 -0.001103 0.000001 0.043964 -0.000001
# 6 0.000000 0.000002 0.000000 0.002276 -0.000001 0.031775
#
#
# Mechanical properties :
#
#
# Convention : Reuss Voigt Hill
#
# Bulk Modulus (GPa) = 49.25105 63.20098 56.22602
# Shear Modulus (GPa) = 24.53285 27.32857 25.93071
#
# Velocity S-wave (km/s) = 3.56398 3.76158 3.66411
# Velocity P-wave (km/s) = 6.51428 7.18251 6.85654
#
# Compressibility (1/GPa) = 0.02030413
#
# Stress axis : x y z
#
# Youngs Moduli (GPa) = 47.05387 51.52476 75.54769
#
# Poissons Ratio (x) = 0.36345 0.19854
# Poissons Ratio (y) = 0.33191 0.53749
# Poissons Ratio (z) = 0.12366 0.36658
#
# Static dielectric constant tensor:
#      x y z
#    x 1.670420 0.000000 -0.002540 
#    y 0.000000 1.646540 0.000000 
#    z -0.002540 0.000000 1.688030 
# 
# From -- ./inp_files/295646.got.cif
#   From: 2010.05.17/outbox.cif.g08.bks.cpg/sg12_148_cif.got.tgz:295646.got - 2010.06.03 13:09:07.
