data_PCOD9204001
_publ_section_title
;
Structure prediction by ZEFSAII (Michael W. Deem and Ramdas Pophale) SiO2 
 PCOD9204001
Probable space group: C 2/M
;
_chemical_formula_sum "Si O2"
_cell_formula_units_Z 42
_cell_length_a 16.606161
_cell_length_b 10.065313
_cell_length_c 15.574256
_cell_angle_alpha 90.000000
_cell_angle_beta 51.996634
_cell_angle_gamma 90.000000
_cell_volume 2051.237971
_symmetry_space_group_name_H-M "C 2/M"
_symmetry_group_IT_number 12
_symmetry_cell_setting 'monoclinic'
loop_
_space_group_symop_operation_xyz
x,y,z
-x,y,-z
-x,-y,-z
x,-y,z
1/2+x,1/2+y,z
1/2-x,1/2+y,-z
1/2-x,1/2-y,-z
1/2+x,1/2-y,z
loop_
_atom_site_type_symbol
_atom_site_label
_atom_site_fract_x
_atom_site_fract_y
_atom_site_fract_z
Si Si1 0.500000 0.500000 0.000000
Si Si2 0.871446 0.344296 0.849118
Si Si3 0.713247 0.154135 0.733070
Si Si4 0.144884 0.750562 0.953497
Si Si5 0.121371 0.344613 0.435748
Si Si6 0.086264 0.338884 0.648272
O O1 0.420033 0.383098 0.018987
O O2 0.862558 0.500000 0.836380
O O3 0.764215 0.279923 0.895265
O O4 0.969970 0.290093 0.734088
O O5 0.892945 0.323731 0.936324
O O6 0.647813 0.171455 0.862290
O O7 0.810896 0.250834 0.668065
O O8 0.647693 0.197389 0.693079
O O9 0.742464 0.000000 0.704123
O O10 0.150856 0.500000 0.405646
O O11 0.135373 0.300271 0.525682
O O12 0.000000 0.336726 0.500000
O O13 0.081643 0.500000 0.649335
#
# Coordination Sequence:
#
# PCOD9204001 Si02
#       6
#     2   8   8   8   8   8
#     4  12  24  40  58 100 130 162 212 276 318 378
#     4  10  20  40  63  87 121 172 210 259 319 388
#     4  11  23  39  61  91 127 168 211 269 323 381
#     4  11  23  37  62  90 130 163 211 265 325 383
#     4  10  21  38  63  90 121 165 216 265 322 383
#     4   9  19  36  59  85 118 159 211 256 315 376
#
# _framework density 20.475439000000001
#
# number of rings (size 3 to 8) (size 9 to 14) (size 15 to 20)
#    0.000    1.714    0.952    3.429    1.333    1.905 
#    0.000    3.810    2.095    0.000    0.000    0.000 
#    0.000    0.000    0.000    0.000    0.000    0.000 
#
# Total GULP energy -117000.449283 kJ/mol
# GULP energy per Si atom -5571.449966 kJ/mol
# Density = 2.042884 g / cm^3
# Si number density = 20.475439 Si / 1000 Ang^3
#
#
#
# Elastic Constant Matrix: (Units=GPa)
#
#
# Indices 1 2 3 4 5 6 
#
# 1 72.3897 6.4988 5.2757 0.0000 7.8459 0.0000
# 2 6.4988 38.1676 -7.2886 0.0000 -4.3655 0.0000
# 3 5.2757 -7.2886 70.3284 0.0000 14.6698 0.0000
# 4 0.0000 0.0000 0.0000 32.0747 0.0000 -18.7869
# 5 7.8459 -4.3655 14.6698 0.0000 35.7755 0.0000
# 6 0.0000 0.0000 0.0000 -18.7869 0.0000 37.3427
#
#
#
# Elastic Compliance Matrix: (Units=1/GPa)
#
#
# Indices 1 2 3 4 5 6 
#
# 1 0.014485 -0.002975 -0.000718 0.000000 -0.003245 0.000000
# 2 -0.002975 0.027518 0.002448 0.000000 0.003006 0.000000
# 3 -0.000718 0.002448 0.015781 0.000000 -0.006015 0.000000
# 4 0.000000 0.000000 0.000000 0.044203 0.000000 0.022238
# 5 -0.003245 0.003006 -0.006015 0.000000 0.031497 0.000000
# 6 0.000000 0.000000 0.000000 0.022238 0.000000 0.037967
#
#
# Mechanical properties :
#
#
# Convention : Reuss Voigt Hill
#
# Bulk Modulus (GPa) = 18.08478 21.09524 19.59001
# Shear Modulus (GPa) = 25.99128 32.79856 29.39492
#
# Velocity S-wave (km/s) = 3.56671 4.00665 3.79307
# Velocity P-wave (km/s) = 5.08070 5.63289 5.36390
#
# Compressibility (1/GPa) = 0.05529512
#
# Stress axis : x y z
#
# Youngs Moduli (GPa) = 69.03577 36.33972 63.36645
#
# Poissons Ratio (x) = 0.10810 0.04549
# Poissons Ratio (y) = 0.20536 -0.15512
# Poissons Ratio (z) = 0.04956 -0.08896
#
# Static dielectric constant tensor:
#      x y z
#    x 1.765750 0.000000 0.029350 
#    y 0.000000 1.678100 0.000000 
#    z 0.029350 0.000000 1.761170 
# 
# From -- ./inp_files/221464.got.cif
#   From: 2010.05.17/outbox.cif.g08.bks.cpg/sg12_111_cif.got.tgz:221464.got - 2010.06.03 13:09:07.
