data_PCOD9204010
_publ_section_title
;
Structure prediction by ZEFSAII (Michael W. Deem and Ramdas Pophale) SiO2 
 PCOD9204010
Probable space group: C 2/M
;
_chemical_formula_sum "Si O2"
_cell_formula_units_Z 48
_cell_length_a 20.455887
_cell_length_b 27.999391
_cell_length_c 9.201891
_cell_angle_alpha 90.000000
_cell_angle_beta 152.364535
_cell_angle_gamma 90.000000
_cell_volume 2444.648296
_symmetry_space_group_name_H-M "C 2/M"
_symmetry_group_IT_number 12
_symmetry_cell_setting 'monoclinic'
loop_
_space_group_symop_operation_xyz
x,y,z
-x,y,-z
-x,-y,-z
x,-y,z
1/2+x,1/2+y,z
1/2-x,1/2+y,-z
1/2-x,1/2-y,-z
1/2+x,1/2-y,z
loop_
_atom_site_type_symbol
_atom_site_label
_atom_site_fract_x
_atom_site_fract_y
_atom_site_fract_z
Si Si1 0.177595 0.054945 0.092613
Si Si2 0.344097 0.378347 0.212826
Si Si3 0.651731 0.210141 0.376632
Si Si4 0.655748 0.791165 0.739024
Si Si5 0.836838 0.398289 0.639679
Si Si6 0.358220 0.555682 0.511803
O O1 0.301234 0.084716 0.408594
O O2 0.214747 0.000000 0.164158
O O3 0.153040 0.075969 0.886317
O O4 0.025541 0.060474 0.871261
O O5 0.500000 0.355578 0.500000
O O6 0.323261 0.402292 0.328102
O O7 0.229250 0.340607 0.934076
O O8 0.750000 0.250000 0.500000
O O9 0.649073 0.212928 0.548681
O O10 0.704146 0.157287 0.434381
O O11 0.500000 0.215450 0.000000
O O12 0.500000 0.788731 0.500000
O O13 0.750000 0.750000 0.000000
O O14 0.741955 0.432496 0.551622
O O15 0.000000 0.402627 0.000000
O O16 0.338191 0.500000 0.425219
#
# Coordination Sequence:
#
# PCOD9204010 Si02
#       6
#     8   8   8   8   8   8
#     4  10  20  40  63  90 126 167 215 267 316 379
#     4  10  22  40  65  95 128 166 216 265 325 380
#     4  11  26  46  68  96 130 171 214 267 329 392
#     4  12  26  45  71  99 131 169 217 271 328 393
#     4  11  24  40  61  92 130 167 214 260 324 384
#     4  10  22  38  63  94 127 172 218 267 318 378
#
# _framework density 19.634725
#
# number of rings (size 3 to 8) (size 9 to 14) (size 15 to 20)
#    0.000    1.333    1.667    3.000    7.000    6.000 
#    0.000    0.000    0.000    3.000    0.000    0.000 
#    0.000    0.000    0.000    0.000    0.000    0.000 
#
# Total GULP energy -133934.847159 kJ/mol
# GULP energy per Si atom -5580.618632 kJ/mol
# Density = 1.959004 g / cm^3
# Si number density = 19.634725 Si / 1000 Ang^3
#
#
#
# Elastic Constant Matrix: (Units=GPa)
#
#
# Indices 1 2 3 4 5 6 
#
# 1 64.2584 22.2537 28.7114 0.0000 -7.0435 0.0000
# 2 22.2537 126.5445 60.9578 0.0000 10.7552 0.0000
# 3 28.7114 60.9578 111.5192 0.0000 -9.3049 0.0000
# 4 0.0000 0.0000 0.0000 29.4623 0.0000 -1.5116
# 5 -7.0435 10.7552 -9.3049 0.0000 28.5429 0.0000
# 6 0.0000 0.0000 0.0000 -1.5116 0.0000 20.1391
#
#
#
# Elastic Compliance Matrix: (Units=1/GPa)
#
#
# Indices 1 2 3 4 5 6 
#
# 1 0.018155 -0.001986 -0.003240 0.000000 0.004172 0.000000
# 2 -0.001986 0.012096 -0.006704 0.000000 -0.007233 0.000000
# 3 -0.003240 -0.006704 0.013990 0.000000 0.006287 0.000000
# 4 0.000000 0.000000 0.000000 0.034073 0.000000 0.002557
# 5 0.004172 -0.007233 0.006287 0.000000 0.040840 0.000000
# 6 0.000000 0.000000 0.000000 0.002557 0.000000 0.049847
#
#
# Mechanical properties :
#
#
# Convention : Reuss Voigt Hill
#
# Bulk Modulus (GPa) = 49.06716 58.46310 53.76513
# Shear Modulus (GPa) = 25.04320 28.32214 26.68267
#
# Velocity S-wave (km/s) = 3.57523 3.80208 3.69040
# Velocity P-wave (km/s) = 6.48747 7.00817 6.75284
#
# Compressibility (1/GPa) = 0.02038023
#
# Stress axis : x y z
#
# Youngs Moduli (GPa) = 55.08055 82.67365 71.47841
#
# Poissons Ratio (x) = 0.16423 0.23161
# Poissons Ratio (y) = 0.10942 0.47918
# Poissons Ratio (z) = 0.17847 0.55423
#
# Static dielectric constant tensor:
#      x y z
#    x 1.787270 0.000000 -0.036330 
#    y 0.000000 1.658440 0.000000 
#    z -0.036330 0.000000 1.689890 
# 
# From -- ./inp_files/91265.got.cif
#   From: 2010.05.17/outbox.cif.g08.bks.cpg/sg12_46_cif.got.tgz:91265.got - 2010.06.03 13:09:07.
