data_PCOD9204966
_publ_section_title
;
Structure prediction by ZEFSAII (Michael W. Deem and Ramdas Pophale) SiO2 
 PCOD9204966
Probable space group: C 2/M
;
_chemical_formula_sum "Si O2"
_cell_formula_units_Z 48
_cell_length_a 22.790647
_cell_length_b 21.253124
_cell_length_c 9.320338
_cell_angle_alpha 90.000000
_cell_angle_beta 143.430722
_cell_angle_gamma 90.000000
_cell_volume 2689.722341
_symmetry_space_group_name_H-M "C 2/M"
_symmetry_group_IT_number 12
_symmetry_cell_setting 'monoclinic'
loop_
_space_group_symop_operation_xyz
x,y,z
-x,y,-z
-x,-y,-z
x,-y,z
1/2+x,1/2+y,z
1/2-x,1/2+y,-z
1/2-x,1/2-y,-z
1/2+x,1/2-y,z
loop_
_atom_site_type_symbol
_atom_site_label
_atom_site_fract_x
_atom_site_fract_y
_atom_site_fract_z
Si Si1 0.965280 0.572499 0.678066
Si Si2 0.024439 0.760814 0.396979
Si Si3 0.662258 0.259076 0.158492
Si Si4 0.149542 0.573283 0.851316
Si Si5 0.779469 0.189419 0.156217
Si Si6 0.640414 0.180666 0.394206
O O1 0.971709 0.500000 0.734853
O O2 0.902420 0.575309 0.406408
O O3 0.910864 0.613123 0.693214
O O4 0.073086 0.591917 0.829252
O O5 0.103221 0.813842 0.594613
O O6 0.087255 0.714649 0.422521
O O7 0.000000 0.728259 0.500000
O O8 0.926862 0.779218 0.119502
O O9 0.727675 0.207382 0.203922
O O10 0.621178 0.223292 0.216961
O O11 0.741204 0.313566 0.351826
O O12 0.177346 0.500000 0.930010
O O13 0.234701 0.624723 0.014449
O O14 0.750000 0.250000 0.000000
#
# Coordination Sequence:
#
# PCOD9204966 Si02
#       6
#     8   8   8   8   8   8
#     4   9  18  31  53  80 106 143 180 221 271 327
#     4  11  21  31  51  79 104 137 176 225 265 325
#     4  10  21  35  49  81 108 140 178 220 284 314
#     4   9  18  32  51  79 112 141 182 227 273 325
#     4  11  20  32  54  78 103 143 181 225 270 323
#     4  10  21  34  54  74 112 144 172 227 271 332
#
# _framework density 17.845707000000001
#
# number of rings (size 3 to 8) (size 9 to 14) (size 15 to 20)
#    0.000    2.000    1.667    4.500    2.333    0.000 
#    0.000    0.833    0.000    5.500    0.000    0.000 
#    0.000    8.000    0.000    0.000    0.000    0.000 
#
# Total GULP energy -133774.436445 kJ/mol
# GULP energy per Si atom -5573.934852 kJ/mol
# Density = 1.780509 g / cm^3
# Si number density = 17.845707 Si / 1000 Ang^3
#
#
#
# Elastic Constant Matrix: (Units=GPa)
#
#
# Indices 1 2 3 4 5 6 
#
# 1 107.2488 29.0310 23.8651 0.0000 -6.4752 0.0000
# 2 29.0310 77.9360 33.0803 0.0000 9.3646 0.0000
# 3 23.8651 33.0803 118.0428 0.0000 18.3558 0.0000
# 4 0.0000 0.0000 0.0000 22.7075 0.0000 3.7497
# 5 -6.4752 9.3646 18.3558 0.0000 25.4884 0.0000
# 6 0.0000 0.0000 0.0000 3.7497 0.0000 28.2306
#
#
#
# Elastic Compliance Matrix: (Units=1/GPa)
#
#
# Indices 1 2 3 4 5 6 
#
# 1 0.011213 -0.004005 -0.002046 0.000000 0.005793 0.000000
# 2 -0.004005 0.016162 -0.002971 0.000000 -0.004816 0.000000
# 3 -0.002046 -0.002971 0.010843 0.000000 -0.007237 0.000000
# 4 0.000000 0.000000 0.000000 0.045026 0.000000 -0.005980
# 5 0.005793 -0.004816 -0.007237 0.000000 0.047686 0.000000
# 6 0.000000 0.000000 0.000000 -0.005980 0.000000 0.036217
#
#
# Mechanical properties :
#
#
# Convention : Reuss Voigt Hill
#
# Bulk Modulus (GPa) = 49.56294 52.79782 51.18038
# Shear Modulus (GPa) = 26.05319 29.76872 27.91095
#
# Velocity S-wave (km/s) = 3.82503 4.08869 3.95905
# Velocity P-wave (km/s) = 6.88049 7.20693 7.04560
#
# Compressibility (1/GPa) = 0.02017636
#
# Stress axis : x y z
#
# Youngs Moduli (GPa) = 89.18169 61.87183 92.22601
#
# Poissons Ratio (x) = 0.24778 0.18865
# Poissons Ratio (y) = 0.35714 0.27399
# Poissons Ratio (z) = 0.18242 0.18381
#
# Static dielectric constant tensor:
#      x y z
#    x 1.668590 0.000000 -0.005750 
#    y 0.000000 1.637940 0.000000 
#    z -0.005750 0.000000 1.688070 
# 
# From -- ./inp_files/89415.got.cif
#   From: 2010.05.17/outbox.cif.g08.bks.cpg/sg12_45_cif.got.tgz:89415.got - 2010.06.03 13:09:07.
