data_PCOD9204135
_publ_section_title
;
Structure prediction by ZEFSAII (Michael W. Deem and Ramdas Pophale) SiO2 
 PCOD9204135
Probable space group: C 2/M
;
_chemical_formula_sum "Si O2"
_cell_formula_units_Z 48
_cell_length_a 7.249108
_cell_length_b 23.904217
_cell_length_c 10.503726
_cell_angle_alpha 90.000000
_cell_angle_beta 92.128134
_cell_angle_gamma 90.000000
_cell_volume 1818.874909
_symmetry_space_group_name_H-M "C 2/M"
_symmetry_group_IT_number 12
_symmetry_cell_setting 'monoclinic'
loop_
_space_group_symop_operation_xyz
x,y,z
-x,y,-z
-x,-y,-z
x,-y,z
1/2+x,1/2+y,z
1/2-x,1/2+y,-z
1/2-x,1/2-y,-z
1/2+x,1/2-y,z
loop_
_atom_site_type_symbol
_atom_site_label
_atom_site_fract_x
_atom_site_fract_y
_atom_site_fract_z
Si Si1 0.206144 0.103325 0.710251
Si Si2 0.719989 0.817156 0.966211
Si Si3 0.715195 0.938718 0.551932
Si Si4 0.722577 0.058609 0.017284
Si Si5 0.560893 0.831755 0.647358
Si Si6 0.026043 0.212417 0.787122
O O1 0.180721 0.070284 0.579209
O O2 0.204878 0.065977 0.836276
O O3 0.409629 0.131580 0.718328
O O4 0.082105 0.158520 0.708753
O O5 0.768501 0.882639 0.957345
O O6 0.838543 0.792295 0.085970
O O7 0.824139 0.796662 0.841455
O O8 0.000000 0.687724 0.000000
O O9 0.500000 0.941863 0.500000
O O10 0.717953 0.880663 0.631778
O O11 0.757765 0.000000 0.611014
O O12 0.790788 0.000000 0.964111
O O13 0.500000 0.056663 0.000000
O O14 0.500000 0.821380 0.500000
O O15 0.539625 0.769652 0.708412
#
# Coordination Sequence:
#
# PCOD9204135 Si02
#       6
#     8   8   8   8   8   8
#     4   9  18  34  56  92 132 171 224 271 340 406
#     4   9  20  41  66  97 139 181 229 278 343 414
#     4   8  15  30  57  92 130 171 220 280 339 404
#     4   9  17  33  58  87 127 170 216 276 334 396
#     4   9  20  37  61  95 134 178 227 278 348 408
#     4  10  20  40  65  94 141 181 224 281 339 409
#
# _framework density 26.389942000000001
#
# number of rings (size 3 to 8) (size 9 to 14) (size 15 to 20)
#    0.000    3.333    0.000    0.500    0.000    3.333 
#   12.000   11.667    0.000    0.000    0.000    0.000 
#    0.000   28.667    0.000    0.333    0.000    0.000 
#
# Total GULP energy -133849.313183 kJ/mol
# GULP energy per Si atom -5577.054716 kJ/mol
# Density = 2.632988 g / cm^3
# Si number density = 26.389942 Si / 1000 Ang^3
#
#
#
# Elastic Constant Matrix: (Units=GPa)
#
#
# Indices 1 2 3 4 5 6 
#
# 1 73.8829 43.2655 28.3249 0.0000 -7.1151 0.0000
# 2 43.2655 254.2595 79.8930 0.0000 -27.1080 0.0000
# 3 28.3249 79.8930 92.6571 0.0000 -13.5923 0.0000
# 4 0.0000 0.0000 0.0000 -28.1609 0.0000 -29.3640
# 5 -7.1151 -27.1080 -13.5923 0.0000 19.7675 0.0000
# 6 0.0000 0.0000 0.0000 -29.3640 0.0000 72.0457
#
#
#
# Elastic Compliance Matrix: (Units=1/GPa)
#
#
# Indices 1 2 3 4 5 6 
#
# 1 0.015825 -0.001497 -0.003350 0.000000 0.001339 0.000000
# 2 -0.001497 0.005954 -0.003956 0.000000 0.004906 0.000000
# 3 -0.003350 -0.003956 0.015854 0.000000 0.004270 0.000000
# 4 0.000000 0.000000 0.000000 -0.024920 0.000000 -0.010157
# 5 0.001339 0.004906 0.004270 0.000000 0.060734 0.000000
# 6 0.000000 0.000000 0.000000 -0.010157 0.000000 0.009740
#
#
# Mechanical properties :
#
#
# Convention : Reuss Voigt Hill
#
# Bulk Modulus (GPa) = 49.93598 80.41848 65.17723
# Shear Modulus (GPa) = 46.52421 30.68485 38.60453
#
# Velocity S-wave (km/s) = 4.20331 3.41361 3.82887
# Velocity P-wave (km/s) = 6.52077 6.78795 6.65570
#
# Compressibility (1/GPa) = 0.02002564
#
# Stress axis : x y z
#
# Youngs Moduli (GPa) = 63.19068 167.95498 63.07393
#
# Poissons Ratio (x) = 0.25150 0.21130
# Poissons Ratio (y) = 0.09462 0.24955
# Poissons Ratio (z) = 0.21169 0.66450
#
# Static dielectric constant tensor:
#      x y z
#    x 2.231680 0.000000 0.097640 
#    y 0.000000 2.195500 0.000000 
#    z 0.097640 0.000000 2.228470 
# 
# From -- ./inp_files/132613.got.cif
#   From: 2010.05.17/outbox.cif.g08.bks.cpg/sg12_67_cif.got.tgz:132613.got - 2010.06.03 13:09:07.
