data_PCOD9204759
_publ_section_title
;
Structure prediction by ZEFSAII (Michael W. Deem and Ramdas Pophale) SiO2 
 PCOD9204759
Probable space group: C 2/M
;
_chemical_formula_sum "Si O2"
_cell_formula_units_Z 56
_cell_length_a 13.649189
_cell_length_b 31.847128
_cell_length_c 8.100620
_cell_angle_alpha 90.000000
_cell_angle_beta 71.158035
_cell_angle_gamma 90.000000
_cell_volume 3332.545320
_symmetry_space_group_name_H-M "C 2/M"
_symmetry_group_IT_number 12
_symmetry_cell_setting 'monoclinic'
loop_
_space_group_symop_operation_xyz
x,y,z
-x,y,-z
-x,-y,-z
x,-y,z
1/2+x,1/2+y,z
1/2-x,1/2+y,-z
1/2-x,1/2-y,-z
1/2+x,1/2-y,z
loop_
_atom_site_type_symbol
_atom_site_label
_atom_site_fract_x
_atom_site_fract_y
_atom_site_fract_z
Si Si1 0.082211 0.764561 0.581434
Si Si2 0.876876 0.605219 0.758530
Si Si3 0.218681 0.309404 0.064842
Si Si4 0.922017 0.233631 0.911461
Si Si5 0.374908 0.895786 0.384752
Si Si6 0.625651 0.951977 0.929050
Si Si7 0.280338 0.808462 0.332239
O O1 0.166155 0.794243 0.450446
O O2 0.144719 0.728521 0.643377
O O3 0.000000 0.744454 0.500000
O O4 0.002579 0.788513 0.745845
O O5 0.821503 0.649520 0.823448
O O6 0.856530 0.589678 0.583134
O O7 0.001282 0.611586 0.702411
O O8 0.844624 0.573620 0.922385
O O9 0.145289 0.269542 0.141183
O O10 0.336402 0.296231 0.039291
O O11 0.213908 0.313486 0.868461
O O12 0.000000 0.254159 0.000000
O O13 0.344295 0.927686 0.255143
O O14 0.316796 0.851946 0.390459
O O15 0.662435 0.000000 0.910904
O O16 0.500000 0.953026 0.000000
#
# Coordination Sequence:
#
# PCOD9204759 Si02
#       7
#     8   8   8   8   8   8   8
#     4  11  23  35  47  69  99 138 180 226 261 297
#     4  10  21  33  51  77 107 137 173 213 255 310
#     4  11  22  35  51  72 100 141 183 217 263 311
#     4  11  23  35  48  70 100 140 179 225 264 300
#     4  10  21  33  51  77 105 140 171 212 255 310
#     4   9  18  34  54  76 104 137 170 208 259 314
#     4  11  22  34  51  70  99 139 182 219 260 307
#
# _framework density 16.803972999999999
#
# number of rings (size 3 to 8) (size 9 to 14) (size 15 to 20)
#    0.000    1.571    4.286    0.857    6.000    0.571 
#    0.000    2.857    0.000    0.000    0.000    0.000 
#    0.000    5.714    0.000    0.000    0.000    0.000 
#
# Total GULP energy -156126.093766 kJ/mol
# GULP energy per Si atom -5575.931920 kJ/mol
# Density = 1.676573 g / cm^3
# Si number density = 16.803973 Si / 1000 Ang^3
#
#
#
# Elastic Constant Matrix: (Units=GPa)
#
#
# Indices 1 2 3 4 5 6 
#
# 1 77.5666 23.6985 40.6299 0.0000 -3.5451 0.0000
# 2 23.6985 94.9463 52.2470 0.0000 1.7533 0.0000
# 3 40.6299 52.2470 125.3528 0.0000 -1.4986 0.0000
# 4 0.0000 0.0000 0.0000 17.4157 0.0000 -0.5399
# 5 -3.5451 1.7533 -1.4986 0.0000 22.7629 0.0000
# 6 0.0000 0.0000 0.0000 -0.5399 0.0000 15.1784
#
#
#
# Elastic Compliance Matrix: (Units=1/GPa)
#
#
# Indices 1 2 3 4 5 6 
#
# 1 0.015798 -0.001535 -0.004454 0.000000 0.002285 0.000000
# 2 -0.001535 0.013863 -0.005300 0.000000 -0.001656 0.000000
# 3 -0.004454 -0.005300 0.011636 0.000000 0.000481 0.000000
# 4 0.000000 0.000000 0.000000 0.057483 0.000000 0.002045
# 5 0.002285 -0.001656 0.000481 0.000000 0.044446 0.000000
# 6 0.000000 0.000000 0.000000 0.002045 0.000000 0.065956
#
#
# Mechanical properties :
#
#
# Convention : Reuss Voigt Hill
#
# Bulk Modulus (GPa) = 53.42003 59.00183 56.21093
# Shear Modulus (GPa) = 21.00851 23.15742 22.08297
#
# Velocity S-wave (km/s) = 3.53967 3.71629 3.62906
# Velocity P-wave (km/s) = 6.96884 7.32137 7.14728
#
# Compressibility (1/GPa) = 0.01871957
#
# Stress axis : x y z
#
# Youngs Moduli (GPa) = 63.29780 72.13694 85.94088
#
# Poissons Ratio (x) = 0.11071 0.38275
# Poissons Ratio (y) = 0.09714 0.45551
# Poissons Ratio (z) = 0.28191 0.38234
#
# Static dielectric constant tensor:
#      x y z
#    x 1.569030 0.000000 0.043020 
#    y 0.000000 1.534370 0.000000 
#    z 0.043020 0.000000 1.667810 
# 
# From -- ./inp_files/54157.got.cif
#   From: 2010.05.17/outbox.cif.g08.bks.cpg/sg12_28_cif.got.tgz:54157.got - 2010.06.03 13:09:07.
