data_PCOD9204052
_publ_section_title
;
Structure prediction by ZEFSAII (Michael W. Deem and Ramdas Pophale) SiO2 
 PCOD9204052
Probable space group: C 2/M
;
_chemical_formula_sum "Si O2"
_cell_formula_units_Z 40
_cell_length_a 9.975576
_cell_length_b 30.899102
_cell_length_c 9.324898
_cell_angle_alpha 90.000000
_cell_angle_beta 136.944141
_cell_angle_gamma 90.000000
_cell_volume 1962.297550
_symmetry_space_group_name_H-M "C 2/M"
_symmetry_group_IT_number 12
_symmetry_cell_setting 'monoclinic'
loop_
_space_group_symop_operation_xyz
x,y,z
-x,y,-z
-x,-y,-z
x,-y,z
1/2+x,1/2+y,z
1/2-x,1/2+y,-z
1/2-x,1/2-y,-z
1/2+x,1/2-y,z
loop_
_atom_site_type_symbol
_atom_site_label
_atom_site_fract_x
_atom_site_fract_y
_atom_site_fract_z
Si Si1 0.868099 0.791119 0.534008
Si Si2 0.593818 0.643752 0.915683
Si Si3 0.589729 0.547185 0.911450
Si Si4 0.456802 0.860738 0.796947
Si Si5 0.959551 0.545759 0.797183
O O1 0.750000 0.750000 0.500000
O O2 0.700779 0.824976 0.359488
O O3 0.000000 0.779237 0.500000
O O4 0.005671 0.817262 0.753312
O O5 0.548556 0.595233 0.816683
O O6 0.500000 0.645610 0.000000
O O7 0.830701 0.646723 0.108893
O O8 0.536728 0.500000 0.802479
O O9 0.500000 0.547326 0.000000
O O10 0.825667 0.546198 0.105583
O O11 0.371033 0.908101 0.690374
O O12 0.500000 0.860798 0.000000
O O13 0.860824 0.500000 0.684253
O O14 0.000000 0.545692 0.000000
#
# Coordination Sequence:
#
# PCOD9204052 Si02
#       5
#     8   8   8   8   8
#     4  12  28  45  64  90 118 154 206 259 308 365
#     4  10  22  40  65  94 124 161 201 245 301 359
#     4   8  14  28  53  85 120 157 194 232 281 346
#     4  10  20  40  64  87 125 163 194 246 303 355
#     4   8  14  26  51  84 116 155 193 228 284 349
#
# _framework density 20.384270000000001
#
# number of rings (size 3 to 8) (size 9 to 14) (size 15 to 20)
#    0.000    2.400    2.000    0.000    2.800    1.600 
#    0.000    1.000    0.000    1.200    0.000   14.000 
#    0.000    0.000    0.000    0.000    0.000    0.000 
#
# Total GULP energy -111391.297420 kJ/mol
# GULP energy per Si atom -5569.564871 kJ/mol
# Density = 2.033787 g / cm^3
# Si number density = 20.384270 Si / 1000 Ang^3
#
#
#
# Elastic Constant Matrix: (Units=GPa)
#
#
# Indices 1 2 3 4 5 6 
#
# 1 130.4326 43.5729 9.5363 0.0000 2.6883 0.0000
# 2 43.5729 207.5993 34.9607 0.0000 8.2184 0.0000
# 3 9.5363 34.9607 35.8767 0.0000 14.3928 0.0000
# 4 0.0000 0.0000 0.0000 30.2732 0.0000 10.6968
# 5 2.6883 8.2184 14.3928 0.0000 16.8409 0.0000
# 6 0.0000 0.0000 0.0000 10.6968 0.0000 34.5902
#
#
#
# Elastic Compliance Matrix: (Units=1/GPa)
#
#
# Indices 1 2 3 4 5 6 
#
# 1 0.008256 -0.001631 -0.000602 0.000000 -0.000007 0.000000
# 2 -0.001631 0.006188 -0.006832 0.000000 0.003079 0.000000
# 3 -0.000602 -0.006832 0.050696 0.000000 -0.039896 0.000000
# 4 0.000000 0.000000 0.000000 0.037085 0.000000 -0.011468
# 5 -0.000007 0.003079 -0.039896 0.000000 0.091975 0.000000
# 6 0.000000 0.000000 0.000000 -0.011468 0.000000 0.032456
#
#
# Mechanical properties :
#
#
# Convention : Reuss Voigt Hill
#
# Bulk Modulus (GPa) = 21.27205 61.11646 41.19426
# Shear Modulus (GPa) = 19.19717 35.39677 27.29697
#
# Velocity S-wave (km/s) = 3.07215 4.17162 3.66337
# Velocity P-wave (km/s) = 4.80024 7.29730 6.17628
#
# Compressibility (1/GPa) = 0.04701004
#
# Stress axis : x y z
#
# Youngs Moduli (GPa) = 121.12590 161.60538 19.72548
#
# Poissons Ratio (x) = 0.26360 0.01187
# Poissons Ratio (y) = 0.19757 0.13476
# Poissons Ratio (z) = 0.07292 1.10403
#
# Static dielectric constant tensor:
#      x y z
#    x 1.683740 0.000000 0.051470 
#    y 0.000000 1.795220 0.000000 
#    z 0.051470 0.000000 1.655000 
# 
# From -- ./inp_files/41905.got.cif
#   From: 2010.05.17/outbox.cif.g08.bks.cpg/sg12_21_cif.got.tgz:41905.got - 2010.06.03 13:09:07.
