data_PCOD9204987
_publ_section_title
;
Structure prediction by ZEFSAII (Michael W. Deem and Ramdas Pophale) SiO2 
 PCOD9204987
Probable space group: C 2/M
;
_chemical_formula_sum "Si O2"
_cell_formula_units_Z 64
_cell_length_a 21.671336
_cell_length_b 21.250990
_cell_length_c 9.009284
_cell_angle_alpha 90.000000
_cell_angle_beta 63.656334
_cell_angle_gamma 90.000000
_cell_volume 3718.220248
_symmetry_space_group_name_H-M "C 2/M"
_symmetry_group_IT_number 12
_symmetry_cell_setting 'monoclinic'
loop_
_space_group_symop_operation_xyz
x,y,z
-x,y,-z
-x,-y,-z
x,-y,z
1/2+x,1/2+y,z
1/2-x,1/2+y,-z
1/2-x,1/2-y,-z
1/2+x,1/2-y,z
loop_
_atom_site_type_symbol
_atom_site_label
_atom_site_fract_x
_atom_site_fract_y
_atom_site_fract_z
Si Si1 0.203799 0.204238 0.860384
Si Si2 0.692676 0.073646 0.931273
Si Si3 0.660446 0.133971 0.276197
Si Si4 0.429977 0.738991 0.152523
Si Si5 0.442978 0.071001 0.442817
Si Si6 0.300170 0.677318 0.789375
Si Si7 0.572155 0.883913 0.862605
Si Si8 0.423542 0.743466 0.516489
O O1 0.262603 0.153341 0.762648
O O2 0.136619 0.201871 0.832659
O O3 0.242565 0.271342 0.801302
O O4 0.185735 0.194718 0.053123
O O5 0.763791 0.109605 0.818029
O O6 0.637612 0.080462 0.857773
O O7 0.701391 0.000000 0.958873
O O8 0.661657 0.113987 0.102806
O O9 0.629323 0.075767 0.397240
O O10 0.612328 0.193432 0.374488
O O11 0.421512 0.810685 0.102419
O O12 0.430332 0.742701 0.330633
O O13 0.500000 0.715213 0.000000
O O14 0.500000 0.092718 0.500000
O O15 0.435889 0.111499 0.304448
O O16 0.461181 0.000000 0.380905
O O17 0.369655 0.689447 0.624394
O O18 0.500000 0.909647 0.000000
O O19 0.500000 0.736809 0.500000
#
# Coordination Sequence:
#
# PCOD9204987 Si02
#       8
#     8   8   8   8   8   8   8   8
#     4   9  18  35  53  76 106 136 172 217 270 316
#     4  11  22  37  56  77 107 145 185 221 263 313
#     4  10  21  34  55  77 105 141 177 218 264 319
#     4  11  22  33  54  80 109 142 176 215 268 326
#     4  11  22  36  50  70 105 146 188 224 257 304
#     4   9  19  35  55  76 107 138 176 221 267 319
#     4  11  23  34  50  73 105 142 184 225 261 310
#     4  11  22  34  56  82 110 141 174 221 271 321
#
# _framework density 17.212534999999999
#
# number of rings (size 3 to 8) (size 9 to 14) (size 15 to 20)
#    0.000    1.625    2.500    3.375    3.500    5.000 
#    0.000    0.000    0.000    0.375    0.000    0.000 
#    0.000   17.000    0.000    0.000    0.000    0.000 
#
# Total GULP energy -178445.685287 kJ/mol
# GULP energy per Si atom -5576.427665 kJ/mol
# Density = 1.717336 g / cm^3
# Si number density = 17.212535 Si / 1000 Ang^3
#
#
#
# Elastic Constant Matrix: (Units=GPa)
#
#
# Indices 1 2 3 4 5 6 
#
# 1 133.4490 37.5937 58.3383 0.0000 -2.5074 0.0000
# 2 37.5937 51.7502 28.9704 0.0000 -3.7203 0.0000
# 3 58.3383 28.9704 96.4638 0.0000 -15.0510 0.0000
# 4 0.0000 0.0000 0.0000 14.5103 0.0000 -1.2073
# 5 -2.5074 -3.7203 -15.0510 0.0000 22.3554 0.0000
# 6 0.0000 0.0000 0.0000 -1.2073 0.0000 15.7345
#
#
#
# Elastic Compliance Matrix: (Units=1/GPa)
#
#
# Indices 1 2 3 4 5 6 
#
# 1 0.011511 -0.005301 -0.005929 0.000000 -0.003583 0.000000
# 2 -0.005301 0.025687 -0.004396 0.000000 0.000720 0.000000
# 3 -0.005929 -0.004396 0.016821 0.000000 0.009929 0.000000
# 4 0.000000 0.000000 0.000000 0.069359 0.000000 0.005322
# 5 -0.003583 0.000720 0.009929 0.000000 0.051134 0.000000
# 6 0.000000 0.000000 0.000000 0.005322 0.000000 0.063963
#
#
# Mechanical properties :
#
#
# Convention : Reuss Voigt Hill
#
# Bulk Modulus (GPa) = 43.92059 59.05200 51.48629
# Shear Modulus (GPa) = 18.02986 20.97076 19.50031
#
# Velocity S-wave (km/s) = 3.24000 3.49426 3.36953
# Velocity P-wave (km/s) = 6.29037 7.11771 6.71679
#
# Compressibility (1/GPa) = 0.02276837
#
# Stress axis : x y z
#
# Youngs Moduli (GPa) = 86.87156 38.92974 59.44784
#
# Poissons Ratio (x) = 0.20636 0.35244
# Poissons Ratio (y) = 0.46050 0.26135
# Poissons Ratio (z) = 0.51503 0.17115
#
# Static dielectric constant tensor:
#      x y z
#    x 1.577090 0.000000 0.004900 
#    y 0.000000 1.599450 0.000000 
#    z 0.004900 0.000000 1.643890 
# 
# From -- ./inp_files/89603.got.cif
#   From: 2010.05.17/outbox.cif.g08.bks.cpg/sg12_45_cif.got.tgz:89603.got - 2010.06.03 13:09:07.
