data_PCOD9204881
_publ_section_title
;
Structure prediction by ZEFSAII (Michael W. Deem and Ramdas Pophale) SiO2 
 PCOD9204881
Probable space group: C 2/M
;
_chemical_formula_sum "Si O2"
_cell_formula_units_Z 60
_cell_length_a 24.585145
_cell_length_b 9.651959
_cell_length_c 16.230296
_cell_angle_alpha 90.000000
_cell_angle_beta 59.312261
_cell_angle_gamma 90.000000
_cell_volume 3312.025670
_symmetry_space_group_name_H-M "C 2/M"
_symmetry_group_IT_number 12
_symmetry_cell_setting 'monoclinic'
loop_
_space_group_symop_operation_xyz
x,y,z
-x,y,-z
-x,-y,-z
x,-y,z
1/2+x,1/2+y,z
1/2-x,1/2+y,-z
1/2-x,1/2-y,-z
1/2+x,1/2-y,z
loop_
_atom_site_type_symbol
_atom_site_label
_atom_site_fract_x
_atom_site_fract_y
_atom_site_fract_z
Si Si1 0.055141 0.333758 0.697759
Si Si2 0.433103 0.336121 0.801920
Si Si3 0.305727 0.769247 0.350177
Si Si4 0.780618 0.660546 0.179810
Si Si5 0.805093 0.165418 0.004861
Si Si6 0.066197 0.663199 0.495703
Si Si7 0.244553 0.000000 0.519583
Si Si8 0.867293 0.839833 0.683483
O O1 0.049288 0.500000 0.710219
O O2 0.119676 0.283605 0.688706
O O3 0.061196 0.301133 0.595314
O O4 0.993210 0.255872 0.778185
O O5 0.448878 0.500000 0.790214
O O6 0.411593 0.298243 0.725526
O O7 0.371618 0.316655 0.906225
O O8 0.295549 0.801646 0.262123
O O9 0.270132 0.881383 0.434205
O O10 0.279884 0.621486 0.398085
O O11 0.798630 0.500000 0.149163
O O12 0.809190 0.766321 0.091828
O O13 0.704496 0.669489 0.231202
O O14 0.791053 0.000000 0.017679
O O15 0.750000 0.250000 0.000000
O O16 0.080365 0.500000 0.479126
O O17 0.118968 0.748458 0.406714
O O18 0.000000 0.689023 0.500000
O O19 0.880493 0.000000 0.652815
#
# Coordination Sequence:
#
# PCOD9204881 Si02
#       8
#     8   8   8   8   8   8   4   8
#     4  11  23  39  60  87 126 166 210 254 310 383
#     4  10  22  41  59  86 121 161 203 253 314 379
#     4  11  24  42  63  97 127 172 214 264 313 374
#     4  11  23  41  64  93 128 159 207 269 321 378
#     4  11  23  42  67  95 126 163 212 268 325 381
#     4  10  21  34  49  80 120 157 196 244 298 362
#     4  10  24  42  64  88 132 170 220 256 306 368
#     4  10  21  35  56  85 118 155 200 246 304 373
#
# _framework density 18.115801000000001
#
# number of rings (size 3 to 8) (size 9 to 14) (size 15 to 20)
#    0.000    1.467    4.000    0.400    5.600    2.400 
#    0.000    0.667    0.000    3.200    0.000    0.000 
#    0.000    0.000    0.000    0.000    0.000    0.000 
#
# Total GULP energy -167015.430931 kJ/mol
# GULP energy per Si atom -5567.181031 kJ/mol
# Density = 1.807457 g / cm^3
# Si number density = 18.115801 Si / 1000 Ang^3
#
#
#
# Elastic Constant Matrix: (Units=GPa)
#
#
# Indices 1 2 3 4 5 6 
#
# 1 52.4655 25.0882 20.7715 0.0000 18.0602 0.0000
# 2 25.0882 108.5871 48.6510 0.0000 -8.8113 0.0000
# 3 20.7715 48.6510 79.3543 0.0000 -8.2195 0.0000
# 4 0.0000 0.0000 0.0000 37.5535 0.0000 1.1664
# 5 18.0602 -8.8113 -8.2195 0.0000 -4.3314 0.0000
# 6 0.0000 0.0000 0.0000 1.1664 0.0000 -12.1906
#
#
#
# Elastic Compliance Matrix: (Units=1/GPa)
#
#
# Indices 1 2 3 4 5 6 
#
# 1 0.007950 0.000230 0.000972 0.000000 0.030837 0.000000
# 2 0.000230 0.012276 -0.008419 0.000000 -0.008038 0.000000
# 3 0.000972 -0.008419 0.016466 0.000000 -0.010067 0.000000
# 4 0.000000 0.000000 0.000000 0.026550 0.000000 0.002540
# 5 0.030837 -0.008038 -0.010067 0.000000 -0.066839 0.000000
# 6 0.000000 0.000000 0.000000 0.002540 0.000000 -0.081787
#
#
# Mechanical properties :
#
#
# Convention : Reuss Voigt Hill
#
# Bulk Modulus (GPa) = 44.92691 47.71425 46.32058
# Shear Modulus (GPa) = -78.70201 13.93272 -32.38465
#
# Velocity S-wave (km/s) = -6.59835 2.77626 -4.23264
# Velocity P-wave (km/s) = 5.76170 6.05578 1.31819
#
# Compressibility (1/GPa) = 0.02225837
#
# Stress axis : x y z
#
# Youngs Moduli (GPa) = 125.78170 81.46115 60.73120
#
# Poissons Ratio (x) = -0.01873 -0.05904
# Poissons Ratio (y) = -0.02892 0.51129
# Poissons Ratio (z) = -0.12227 0.68581
#
# Static dielectric constant tensor:
#      x y z
#    x 1.653370 0.000000 -0.003220 
#    y 0.000000 1.607560 0.000000 
#    z -0.003220 0.000000 1.598590 
# 
# From -- ./inp_files/292218.got.cif
#   From: 2010.05.17/outbox.cif.g08.bks.cpg/sg12_147_cif.got.tgz:292218.got - 2010.06.03 13:09:07.
