data_PCOD9204585
_publ_section_title
;
Structure prediction by ZEFSAII (Michael W. Deem and Ramdas Pophale) SiO2 
 PCOD9204585
Probable space group: C 2/M
;
_chemical_formula_sum "Si O2"
_cell_formula_units_Z 40
_cell_length_a 17.766832
_cell_length_b 19.306426
_cell_length_c 11.271674
_cell_angle_alpha 90.000000
_cell_angle_beta 29.704181
_cell_angle_gamma 90.000000
_cell_volume 1915.857871
_symmetry_space_group_name_H-M "C 2/M"
_symmetry_group_IT_number 12
_symmetry_cell_setting 'monoclinic'
loop_
_space_group_symop_operation_xyz
x,y,z
-x,y,-z
-x,-y,-z
x,-y,z
1/2+x,1/2+y,z
1/2-x,1/2+y,-z
1/2-x,1/2-y,-z
1/2+x,1/2-y,z
loop_
_atom_site_type_symbol
_atom_site_label
_atom_site_fract_x
_atom_site_fract_y
_atom_site_fract_z
Si Si1 0.000000 0.883339 0.500000
Si Si2 0.981480 0.500000 0.224038
Si Si3 0.307241 0.500000 0.883776
Si Si4 0.399840 0.849758 0.279760
Si Si5 0.212103 0.294417 0.820490
Si Si6 0.831151 0.151642 0.190671
Si Si7 0.741170 0.000000 0.245886
O O1 0.083978 0.934113 0.290697
O O2 0.134522 0.835232 0.364373
O O3 0.925786 0.431874 0.232436
O O4 0.900373 0.500000 0.466754
O O5 0.163464 0.500000 0.991039
O O6 0.230200 0.500000 0.118594
O O7 0.337571 0.814019 0.246430
O O8 0.278681 0.840626 0.547656
O O9 0.563733 0.820383 0.094072
O O10 0.222867 0.212022 0.823612
O O11 0.825014 0.072440 0.157613
O O12 0.000000 0.168734 0.000000
#
# Coordination Sequence:
#
# PCOD9204585 Si02
#       7
#     4   4   4   8   8   8   4
#     4  11  26  42  64  99 128 170 214 255 324 380
#     4  10  20  43  66  95 124 166 223 255 313 383
#     4  11  23  43  64  88 141 164 211 263 310 384
#     4  10  22  40  68  93 127 168 211 265 315 372
#     4  11  23  42  66  94 131 169 207 270 319 372
#     4  11  23  42  67  97 126 164 221 263 313 380
#     4  10  25  41  65  92 126 174 207 265 321 374
#
# _framework density 20.878375999999999
#
# number of rings (size 3 to 8) (size 9 to 14) (size 15 to 20)
#    0.000    1.400    4.000    1.200    2.800    3.200 
#    7.200    2.000    0.000    0.000    0.000    0.000 
#    0.000    0.000    0.000    0.000    0.000    0.000 
#
# Total GULP energy -111626.438842 kJ/mol
# GULP energy per Si atom -5581.321942 kJ/mol
# Density = 2.083086 g / cm^3
# Si number density = 20.878376 Si / 1000 Ang^3
#
#
#
# Elastic Constant Matrix: (Units=GPa)
#
#
# Indices 1 2 3 4 5 6 
#
# 1 47.4336 34.5119 23.5084 0.0006 -21.4921 0.0009
# 2 34.5119 176.3538 53.8821 0.0005 -18.7354 -0.0004
# 3 23.5084 53.8821 85.3690 0.0004 -24.6152 -0.0008
# 4 0.0006 0.0005 0.0004 64.7761 -0.0004 -39.3967
# 5 -21.4921 -18.7354 -24.6152 -0.0004 38.7552 0.0003
# 6 0.0009 -0.0004 -0.0008 -39.3967 0.0003 -6.3119
#
#
#
# Elastic Compliance Matrix: (Units=1/GPa)
#
#
# Indices 1 2 3 4 5 6 
#
# 1 0.031454 -0.004028 -0.002021 0.000001 0.014212 0.000001
# 2 -0.004028 0.007557 -0.003980 0.000000 -0.001108 0.000000
# 3 -0.002021 -0.003980 0.017022 0.000000 0.007766 0.000000
# 4 0.000001 0.000000 0.000000 0.003219 0.000000 -0.020091
# 5 0.014212 -0.001108 0.007766 0.000000 0.038081 0.000001
# 6 0.000001 0.000000 0.000000 -0.020091 0.000001 -0.033033
#
#
# Mechanical properties :
#
#
# Convention : Reuss Voigt Hill
#
# Bulk Modulus (GPa) = 27.79786 59.21791 43.50788
# Shear Modulus (GPa) = 51.89376 32.59415 42.24396
#
# Velocity S-wave (km/s) = 4.99091 3.95542 4.50303
# Velocity P-wave (km/s) = 6.82315 7.02035 6.92245
#
# Compressibility (1/GPa) = 0.03597400
#
# Stress axis : x y z
#
# Youngs Moduli (GPa) = 31.79230 132.32770 58.74769
#
# Poissons Ratio (x) = 0.53302 0.11875
# Poissons Ratio (y) = 0.12806 0.23382
# Poissons Ratio (z) = 0.06426 0.52668
#
# Static dielectric constant tensor:
#      x y z
#    x 1.729690 0.000000 0.024570 
#    y 0.000000 1.786060 0.000000 
#    z 0.024570 0.000000 1.744350 
# 
# From -- ./inp_files/130929.got.cif
#   From: 2010.05.17/outbox.cif.g08.bks.cpg/sg12_66_cif.got.tgz:130929.got - 2010.06.03 13:09:07.
