data_PCOD9204192
_publ_section_title
;
Structure prediction by ZEFSAII (Michael W. Deem and Ramdas Pophale) SiO2 
 PCOD9204192
Probable space group: C 2/M
;
_chemical_formula_sum "Si O2"
_cell_formula_units_Z 48
_cell_length_a 9.436451
_cell_length_b 29.204646
_cell_length_c 19.576725
_cell_angle_alpha 90.000000
_cell_angle_beta 26.415009
_cell_angle_gamma 90.000000
_cell_volume 2400.123569
_symmetry_space_group_name_H-M "C 2/M"
_symmetry_group_IT_number 12
_symmetry_cell_setting 'monoclinic'
loop_
_space_group_symop_operation_xyz
x,y,z
-x,y,-z
-x,-y,-z
x,-y,z
1/2+x,1/2+y,z
1/2-x,1/2+y,-z
1/2-x,1/2-y,-z
1/2+x,1/2-y,z
loop_
_atom_site_type_symbol
_atom_site_label
_atom_site_fract_x
_atom_site_fract_y
_atom_site_fract_z
Si Si1 0.752589 0.053331 0.450994
Si Si2 0.146168 0.368198 0.134905
Si Si3 0.873541 0.804511 0.335557
Si Si4 0.618011 0.947052 0.655706
Si Si5 0.185026 0.217293 0.347833
Si Si6 0.825082 0.609526 0.141090
O O1 0.500000 0.056673 0.500000
O O2 0.586073 0.070598 0.591878
O O3 0.072999 0.078167 0.290164
O O4 0.827320 0.000000 0.431767
O O5 0.047149 0.412786 0.221063
O O6 0.908242 0.326745 0.251731
O O7 0.101604 0.378786 0.074815
O O8 0.500000 0.354637 0.000000
O O9 0.500000 0.819918 0.500000
O O10 0.874602 0.764867 0.277442
O O11 0.981781 0.785933 0.364737
O O12 0.116774 0.845295 0.213552
O O13 0.000000 0.946440 0.500000
O O14 0.509470 0.000000 0.709503
O O15 0.000000 0.214948 0.500000
O O16 0.000000 0.589182 0.000000
#
# Coordination Sequence:
#
# PCOD9204192 Si02
#       6
#     8   8   8   8   8   8
#     4  10  22  41  65  92 118 156 203 246 299 355
#     4  11  25  39  59  90 123 160 199 246 301 351
#     4  10  21  39  62  90 117 154 201 245 296 351
#     4  10  20  40  67  88 116 156 204 253 292 350
#     4  10  21  38  62  89 119 153 199 249 292 351
#     4  11  25  40  58  89 126 161 195 244 303 358
#
# _framework density 19.998971000000001
#
# number of rings (size 3 to 8) (size 9 to 14) (size 15 to 20)
#    0.000    1.667    1.667    3.000    4.667    4.000 
#    0.000    3.333    0.000    0.000    0.000    0.000 
#    0.000    0.000    0.000    0.000    0.000    0.000 
#
# Total GULP energy -133934.190964 kJ/mol
# GULP energy per Si atom -5580.591290 kJ/mol
# Density = 1.995345 g / cm^3
# Si number density = 19.998971 Si / 1000 Ang^3
#
#
#
# Elastic Constant Matrix: (Units=GPa)
#
#
# Indices 1 2 3 4 5 6 
#
# 1 115.3465 18.1336 26.3635 0.0005 -8.5777 0.0005
# 2 18.1336 42.2577 9.9841 0.0017 1.8977 0.0006
# 3 26.3635 9.9841 24.9381 0.0045 2.2437 0.0001
# 4 0.0005 0.0017 0.0045 -64.8182 -0.0010 -14.5099
# 5 -8.5777 1.8977 2.2437 -0.0010 29.2292 -0.0002
# 6 0.0005 0.0006 0.0001 -14.5099 -0.0002 11.9622
#
#
#
# Elastic Compliance Matrix: (Units=1/GPa)
#
#
# Indices 1 2 3 4 5 6 
#
# 1 0.012241 -0.002548 -0.012344 -0.000001 0.004705 -0.000001
# 2 -0.002548 0.026690 -0.007823 0.000000 -0.001880 -0.000001
# 3 -0.012344 -0.007823 0.056955 0.000003 -0.007487 0.000004
# 4 -0.000001 0.000000 0.000003 -0.012133 -0.000001 -0.014717
# 5 0.004705 -0.001880 -0.007487 -0.000001 0.036290 0.000000
# 6 -0.000001 -0.000001 0.000004 -0.014717 0.000000 0.065745
#
#
# Mechanical properties :
#
#
# Convention : Reuss Voigt Hill
#
# Bulk Modulus (GPa) = 19.81919 32.38940 26.10430
# Shear Modulus (GPa) = 20.15821 3.81205 11.98513
#
# Velocity S-wave (km/s) = 3.17829 1.38212 2.45069
# Velocity P-wave (km/s) = 4.83739 4.33333 4.59228
#
# Compressibility (1/GPa) = 0.05045614
#
# Stress axis : x y z
#
# Youngs Moduli (GPa) = 81.68987 37.46668 17.55773
#
# Poissons Ratio (x) = 0.09546 0.21674
# Poissons Ratio (y) = 0.20813 0.13736
# Poissons Ratio (z) = 1.00842 0.29311
#
# Static dielectric constant tensor:
#      x y z
#    x 1.773940 0.000000 0.044290 
#    y 0.000000 1.739310 0.000000 
#    z 0.044290 0.000000 1.691080 
# 
# From -- ./inp_files/260213.got.cif
#   From: 2010.05.17/outbox.cif.g08.bks.cpg/sg12_131_cif.got.tgz:260213.got - 2010.06.03 13:09:07.
