data_PCOD9204444
_publ_section_title
;
Structure prediction by ZEFSAII (Michael W. Deem and Ramdas Pophale) SiO2 
 PCOD9204444
Probable space group: C 2/M
;
_chemical_formula_sum "Si O2"
_cell_formula_units_Z 50
_cell_length_a 12.998755
_cell_length_b 27.444854
_cell_length_c 7.484191
_cell_angle_alpha 90.000000
_cell_angle_beta 122.333262
_cell_angle_gamma 90.000000
_cell_volume 2256.001155
_symmetry_space_group_name_H-M "C 2/M"
_symmetry_group_IT_number 12
_symmetry_cell_setting 'monoclinic'
loop_
_space_group_symop_operation_xyz
x,y,z
-x,y,-z
-x,-y,-z
x,-y,z
1/2+x,1/2+y,z
1/2-x,1/2+y,-z
1/2-x,1/2-y,-z
1/2+x,1/2-y,z
loop_
_atom_site_type_symbol
_atom_site_label
_atom_site_fract_x
_atom_site_fract_y
_atom_site_fract_z
Si Si1 0.958663 0.320242 0.156309
Si Si2 0.359195 0.652092 0.328415
Si Si3 0.500000 0.500000 0.500000
Si Si4 0.873677 0.216711 0.988752
Si Si5 0.710589 0.447907 0.862061
Si Si6 0.632249 0.908159 0.682359
Si Si7 0.785039 0.676896 0.466533
O O1 0.081834 0.303286 0.366983
O O2 0.877917 0.272725 0.052469
O O3 0.905269 0.363641 0.222001
O O4 0.000000 0.338531 0.000000
O O5 0.500000 0.642782 0.500000
O O6 0.361153 0.681251 0.144888
O O7 0.278288 0.603163 0.228034
O O8 0.298927 0.679694 0.438224
O O9 0.566773 0.458924 0.693887
O O10 0.772321 0.205477 0.749425
O O11 0.000000 0.207438 0.000000
O O12 0.762437 0.500000 0.836085
O O13 0.772410 0.440173 0.113802
O O14 0.500000 0.930046 0.500000
O O15 0.696693 0.879776 0.578585
#
# Coordination Sequence:
#
# PCOD9204444 Si02
#       7
#     8   8   2   8   8   8   8
#     4  10  24  44  62  97 134 178 226 274 332 386
#     4  12  22  41  70  97 132 176 222 275 335 404
#     4   8  20  36  66 102 130 160 214 278 340 386
#     4  11  24  43  62  97 131 174 231 273 323 395
#     4  10  20  41  69  97 130 169 218 278 341 396
#     4  10  22  43  67  94 136 177 222 273 328 400
#     4  11  24  43  65  93 136 177 219 277 332 384
#
# _framework density 22.16311
#
# number of rings (size 3 to 8) (size 9 to 14) (size 15 to 20)
#    0.480    0.960    4.000    0.960    0.000    5.440 
#    5.760    0.800    0.000   11.520    0.000    0.000 
#    0.000    0.000    0.000    0.000    0.000    0.000 
#
# Total GULP energy -139252.392618 kJ/mol
# GULP energy per Si atom -5570.095705 kJ/mol
# Density = 2.211267 g / cm^3
# Si number density = 22.163110 Si / 1000 Ang^3
#
#
#
# Elastic Constant Matrix: (Units=GPa)
#
#
# Indices 1 2 3 4 5 6 
#
# 1 85.8462 33.2643 45.1561 0.0000 -13.1028 0.0000
# 2 33.2643 78.5026 37.4388 0.0000 -10.4311 0.0000
# 3 45.1561 37.4388 197.1841 0.0000 22.4084 0.0000
# 4 0.0000 0.0000 0.0000 43.6832 0.0000 6.2585
# 5 -13.1028 -10.4311 22.4084 0.0000 50.3501 0.0000
# 6 0.0000 0.0000 0.0000 6.2585 0.0000 -5.5155
#
#
#
# Elastic Compliance Matrix: (Units=1/GPa)
#
#
# Indices 1 2 3 4 5 6 
#
# 1 0.015847 -0.004523 -0.003299 0.000000 0.004655 0.000000
# 2 -0.004523 0.016242 -0.002419 0.000000 0.003265 0.000000
# 3 -0.003299 -0.002419 0.006784 0.000000 -0.004379 0.000000
# 4 0.000000 0.000000 0.000000 0.019691 0.000000 0.022344
# 5 0.004655 0.003265 -0.004379 0.000000 0.023698 0.000000
# 6 0.000000 0.000000 0.000000 0.022344 0.000000 -0.155954
#
#
# Mechanical properties :
#
#
# Convention : Reuss Voigt Hill
#
# Bulk Modulus (GPa) = 54.37508 65.91681 60.14594
# Shear Modulus (GPa) = -106.20611 34.08180 -36.06216
#
# Velocity S-wave (km/s) = -6.92995 3.92570 -4.03814
# Velocity P-wave (km/s) = 6.28053 7.09608 2.33552
#
# Compressibility (1/GPa) = 0.01839078
#
# Stress axis : x y z
#
# Youngs Moduli (GPa) = 63.10166 61.56696 147.40702
#
# Poissons Ratio (x) = 0.27847 0.48636
# Poissons Ratio (y) = 0.28541 0.35660
# Poissons Ratio (z) = 0.20820 0.14894
#
# Static dielectric constant tensor:
#      x y z
#    x 1.844880 0.000000 0.048440 
#    y 0.000000 1.848460 0.000000 
#    z 0.048440 0.000000 1.893930 
# 
# From -- ./inp_files/67122.got.cif
#   From: 2010.05.17/outbox.cif.g08.bks.cpg/sg12_34_cif.got.tgz:67122.got - 2010.06.03 13:09:07.
