data_PCOD9204919
_publ_section_title
;
Structure prediction by ZEFSAII (Michael W. Deem and Ramdas Pophale) SiO2 
 PCOD9204919
Probable space group: C 2/M
;
_chemical_formula_sum "Si O2"
_cell_formula_units_Z 56
_cell_length_a 9.145503
_cell_length_b 26.597995
_cell_length_c 14.973648
_cell_angle_alpha 90.000000
_cell_angle_beta 60.385503
_cell_angle_gamma 90.000000
_cell_volume 3166.567338
_symmetry_space_group_name_H-M "C 2/M"
_symmetry_group_IT_number 12
_symmetry_cell_setting 'monoclinic'
loop_
_space_group_symop_operation_xyz
x,y,z
-x,y,-z
-x,-y,-z
x,-y,z
1/2+x,1/2+y,z
1/2-x,1/2+y,-z
1/2-x,1/2-y,-z
1/2+x,1/2-y,z
loop_
_atom_site_type_symbol
_atom_site_label
_atom_site_fract_x
_atom_site_fract_y
_atom_site_fract_z
Si Si1 0.067933 0.761711 0.223387
Si Si2 0.379491 0.900990 0.270602
Si Si3 0.498277 0.585176 0.396502
Si Si4 0.014694 0.500000 0.658032
Si Si5 0.976847 0.323002 0.386172
Si Si6 0.238929 0.000000 0.589565
Si Si7 0.784141 0.173883 0.394630
Si Si8 0.432874 0.813504 0.120117
O O1 0.902825 0.794741 0.293876
O O2 0.037208 0.728998 0.143423
O O3 0.061982 0.721245 0.305013
O O4 0.238424 0.794136 0.175640
O O5 0.188501 0.915234 0.306150
O O6 0.467774 0.950815 0.283858
O O7 0.379629 0.861142 0.351967
O O8 0.448373 0.866547 0.168725
O O9 0.500000 0.570737 0.500000
O O10 0.380689 0.547860 0.378131
O O11 0.411224 0.638818 0.409845
O O12 0.851309 0.500000 0.644153
O O13 0.157233 0.500000 0.536077
O O14 0.133673 0.352482 0.383795
O O15 0.840312 0.300413 0.495813
O O16 0.500000 0.818075 0.000000
#
# Coordination Sequence:
#
# PCOD9204919 Si02
#       8
#     8   8   8   4   8   4   8   8
#     4  11  21  38  57  82 113 148 198 245 292 348
#     4  11  22  37  59  83 120 152 200 241 288 346
#     4  12  20  33  53  85 120 155 195 233 275 342
#     4  11  21  38  56  89 120 163 187 229 282 352
#     4  10  21  34  51  83 119 161 187 225 284 356
#     4  11  22  33  58  86 126 156 192 216 282 356
#     4  11  20  33  52  80 123 155 186 227 287 354
#     4  11  24  42  62  84 110 152 205 260 303 339
#
# _framework density 17.684766
#
# number of rings (size 3 to 8) (size 9 to 14) (size 15 to 20)
#    0.000    1.000    5.714    2.357    0.000    2.286 
#    2.571    0.357    0.000    0.000    0.000    1.000 
#    0.000    0.000    0.000    0.000    0.000    0.000 
#
# Total GULP energy -156012.576447 kJ/mol
# GULP energy per Si atom -5571.877730 kJ/mol
# Density = 1.764451 g / cm^3
# Si number density = 17.684766 Si / 1000 Ang^3
#
#
#
# Elastic Constant Matrix: (Units=GPa)
#
#
# Indices 1 2 3 4 5 6 
#
# 1 112.3091 38.7606 25.1810 0.0000 -1.9822 0.0000
# 2 38.7606 78.6627 38.0798 0.0000 0.6496 0.0000
# 3 25.1810 38.0798 80.0239 0.0000 15.2340 0.0000
# 4 0.0000 0.0000 0.0000 12.0758 0.0000 -0.6217
# 5 -1.9822 0.6496 15.2340 0.0000 18.4389 0.0000
# 6 0.0000 0.0000 0.0000 -0.6217 0.0000 26.1352
#
#
#
# Elastic Compliance Matrix: (Units=1/GPa)
#
#
# Indices 1 2 3 4 5 6 
#
# 1 0.010924 -0.004522 -0.001827 0.000000 0.002843 0.000000
# 2 -0.004522 0.019191 -0.008886 0.000000 0.006179 0.000000
# 3 -0.001827 -0.008886 0.020502 0.000000 -0.016822 0.000000
# 4 0.000000 0.000000 0.000000 0.082911 0.000000 0.001972
# 5 0.002843 0.006179 -0.016822 0.000000 0.068219 0.000000
# 6 0.000000 0.000000 0.000000 0.001972 0.000000 0.038309
#
#
# Mechanical properties :
#
#
# Convention : Reuss Voigt Hill
#
# Bulk Modulus (GPa) = 49.63227 52.78205 51.20716
# Shear Modulus (GPa) = 18.03475 22.59494 20.31485
#
# Velocity S-wave (km/s) = 3.19688 3.57830 3.39295
# Velocity P-wave (km/s) = 6.46163 6.85443 6.66092
#
# Compressibility (1/GPa) = 0.02014818
#
# Stress axis : x y z
#
# Youngs Moduli (GPa) = 91.53760 52.10756 48.77640
#
# Poissons Ratio (x) = 0.23563 0.08912
# Poissons Ratio (y) = 0.41393 0.43340
# Poissons Ratio (z) = 0.16724 0.46300
#
# Static dielectric constant tensor:
#      x y z
#    x 1.644600 0.000000 0.016190 
#    y 0.000000 1.670630 0.000000 
#    z 0.016190 0.000000 1.584560 
# 
# From -- ./inp_files/200871.got.cif
#   From: 2010.05.17/outbox.cif.g08.bks.cpg/sg12_101_cif.got.tgz:200871.got - 2010.06.03 13:09:07.
