data_PCOD9204802
_publ_section_title
;
Structure prediction by ZEFSAII (Michael W. Deem and Ramdas Pophale) SiO2 
 PCOD9204802
Probable space group: C 2/M
;
_chemical_formula_sum "Si O2"
_cell_formula_units_Z 40
_cell_length_a 13.186694
_cell_length_b 20.866737
_cell_length_c 7.881020
_cell_angle_alpha 90.000000
_cell_angle_beta 55.860214
_cell_angle_gamma 90.000000
_cell_volume 1794.859877
_symmetry_space_group_name_H-M "C 2/M"
_symmetry_group_IT_number 12
_symmetry_cell_setting 'monoclinic'
loop_
_space_group_symop_operation_xyz
x,y,z
-x,y,-z
-x,-y,-z
x,-y,z
1/2+x,1/2+y,z
1/2-x,1/2+y,-z
1/2-x,1/2-y,-z
1/2+x,1/2-y,z
loop_
_atom_site_type_symbol
_atom_site_label
_atom_site_fract_x
_atom_site_fract_y
_atom_site_fract_z
Si Si1 0.133616 0.103648 0.430631
Si Si2 0.126747 0.246645 0.513692
Si Si3 0.686771 0.071740 0.030907
Si Si4 0.873544 0.709521 0.837698
Si Si5 0.130488 0.924272 0.821974
O O1 0.129058 0.179947 0.409664
O O2 0.231739 0.072640 0.215206
O O3 0.162289 0.097885 0.602977
O O4 0.000000 0.078476 0.500000
O O5 0.250000 0.250000 0.500000
O O6 0.131479 0.299214 0.361508
O O7 0.003439 0.253954 0.739548
O O8 0.629686 0.000000 0.100477
O O9 0.614800 0.139032 0.091759
O O10 0.775402 0.081806 0.111297
O O11 0.750000 0.750000 0.000000
O O12 0.112544 0.000000 0.815973
O O13 0.000000 0.894900 0.000000
#
# Coordination Sequence:
#
# PCOD9204802 Si02
#       5
#     8   8   8   8   8
#     4  12  20  38  62  95 133 176 229 283 338 406
#     4  11  24  42  68  97 129 182 234 282 342 409
#     4  11  23  40  65  95 136 183 223 282 350 410
#     4  11  22  44  65  99 139 170 228 285 343 411
#     4  10  21  33  54  92 134 178 225 277 343 408
#
# _framework density 22.285862999999999
#
# number of rings (size 3 to 8) (size 9 to 14) (size 15 to 20)
#    0.000    1.000    6.000    1.800    0.000    1.600 
#    0.000    2.000    0.000    3.600    0.000    0.000 
#    0.000    0.000    0.000    0.000    0.000    0.000 
#
# Total GULP energy -111543.510328 kJ/mol
# GULP energy per Si atom -5577.175516 kJ/mol
# Density = 2.223514 g / cm^3
# Si number density = 22.285863 Si / 1000 Ang^3
#
#
#
# Elastic Constant Matrix: (Units=GPa)
#
#
# Indices 1 2 3 4 5 6 
#
# 1 83.8296 0.4372 34.7633 0.0000 -5.5907 0.0000
# 2 0.4372 125.4959 30.2649 0.0000 -17.8477 0.0000
# 3 34.7633 30.2649 119.2780 0.0000 9.6183 0.0000
# 4 0.0000 0.0000 0.0000 33.3228 0.0000 9.3825
# 5 -5.5907 -17.8477 9.6183 0.0000 41.6781 0.0000
# 6 0.0000 0.0000 0.0000 9.3825 0.0000 36.6052
#
#
#
# Elastic Compliance Matrix: (Units=1/GPa)
#
#
# Indices 1 2 3 4 5 6 
#
# 1 0.014182 0.001651 -0.004853 0.000000 0.003729 0.000000
# 2 0.001651 0.009473 -0.003291 0.000000 0.005037 0.000000
# 3 -0.004853 -0.003291 0.011004 0.000000 -0.004600 0.000000
# 4 0.000000 0.000000 0.000000 0.032344 0.000000 -0.008290
# 5 0.003729 0.005037 -0.004600 0.000000 0.027712 0.000000
# 6 0.000000 0.000000 0.000000 -0.008290 0.000000 0.029443
#
#
# Mechanical properties :
#
#
# Convention : Reuss Voigt Hill
#
# Bulk Modulus (GPa) = 46.14011 51.05935 48.59973
# Shear Modulus (GPa) = 34.63383 39.86376 37.24880
#
# Velocity S-wave (km/s) = 3.94645 4.23395 4.09272
# Velocity P-wave (km/s) = 6.44319 6.84562 6.64745
#
# Compressibility (1/GPa) = 0.02167312
#
# Stress axis : x y z
#
# Youngs Moduli (GPa) = 70.51433 105.56617 90.87512
#
# Poissons Ratio (x) = -0.17432 0.44101
# Poissons Ratio (y) = -0.11644 0.29907
# Poissons Ratio (z) = 0.34220 0.34742
#
# Static dielectric constant tensor:
#      x y z
#    x 1.891370 0.000000 -0.050290 
#    y 0.000000 1.901180 0.000000 
#    z -0.050290 0.000000 1.873690 
# 
# From -- ./inp_files/63150.got.cif
#   From: 2010.05.17/outbox.cif.g08.bks.cpg/sg12_32_cif.got.tgz:63150.got - 2010.06.03 13:09:07.
