data_PCOD9204582
_publ_section_title
;
Structure prediction by ZEFSAII (Michael W. Deem and Ramdas Pophale) SiO2 
 PCOD9204582
Probable space group: C 2/M
;
_chemical_formula_sum "Si O2"
_cell_formula_units_Z 46
_cell_length_a 13.405253
_cell_length_b 10.738180
_cell_length_c 16.586862
_cell_angle_alpha 90.000000
_cell_angle_beta 125.710449
_cell_angle_gamma 90.000000
_cell_volume 1938.713808
_symmetry_space_group_name_H-M "C 2/M"
_symmetry_group_IT_number 12
_symmetry_cell_setting 'monoclinic'
loop_
_space_group_symop_operation_xyz
x,y,z
-x,y,-z
-x,-y,-z
x,-y,z
1/2+x,1/2+y,z
1/2-x,1/2+y,-z
1/2-x,1/2-y,-z
1/2+x,1/2-y,z
loop_
_atom_site_type_symbol
_atom_site_label
_atom_site_fract_x
_atom_site_fract_y
_atom_site_fract_z
Si Si1 0.817503 0.722618 0.927834
Si Si2 0.583828 0.284240 0.618452
Si Si3 0.893502 0.500000 0.384414
Si Si4 0.532277 0.701716 0.769438
Si Si5 0.638343 0.500000 0.238152
Si Si6 0.356052 0.141068 0.770734
Si Si7 0.354681 0.500000 0.940798
Si Si8 0.500000 0.000000 0.000000
O O1 0.673460 0.692363 0.860593
O O2 0.850633 0.724577 0.848097
O O3 0.826063 0.864359 0.964000
O O4 0.908879 0.612602 0.997841
O O5 0.500000 0.298331 0.500000
O O6 0.595601 0.137569 0.647770
O O7 0.527018 0.338394 0.673558
O O8 0.720343 0.339446 0.668941
O O9 0.754823 0.500000 0.352324
O O10 0.000000 0.500000 0.500000
O O11 0.448288 0.613446 0.782866
O O12 0.464466 0.831233 0.759382
O O13 0.693961 0.500000 0.174585
O O14 0.370240 0.000000 0.811540
O O15 0.500000 0.500000 0.000000
#
# Coordination Sequence:
#
# PCOD9204582 Si02
#       8
#     8   8   4   8   4   8   4   2
#     4  11  24  44  69  94 136 175 213 267 335 391
#     4  10  23  42  62  93 132 173 218 270 327 387
#     4  10  20  43  66  89 129 178 220 269 330 396
#     4  11  24  40  69  95 128 173 219 267 330 391
#     4  12  21  44  67  96 131 169 226 276 325 392
#     4  11  23  41  63  94 131 174 216 266 328 394
#     4  12  24  45  71  98 128 179 220 273 329 394
#     4  12  22  46  70  96 134 172 202 274 334 384
#
# _framework density 23.727070999999999
#
# number of rings (size 3 to 8) (size 9 to 14) (size 15 to 20)
#    0.000    1.043    5.217    1.565    6.087    1.043 
#    0.000    5.217    0.000    0.000    0.000    0.000 
#    0.000    0.000    0.000    0.000    0.000    0.000 
#
# Total GULP energy -128136.232069 kJ/mol
# GULP energy per Si atom -5571.140525 kJ/mol
# Density = 2.367307 g / cm^3
# Si number density = 23.727071 Si / 1000 Ang^3
#
#
#
# Elastic Constant Matrix: (Units=GPa)
#
#
# Indices 1 2 3 4 5 6 
#
# 1 135.8060 21.4507 54.7174 0.0000 8.5960 0.0000
# 2 21.4507 132.2734 13.0612 0.0000 -2.5474 0.0000
# 3 54.7174 13.0612 102.9574 0.0000 6.7537 0.0000
# 4 0.0000 0.0000 0.0000 28.2577 0.0000 4.4982
# 5 8.5960 -2.5474 6.7537 0.0000 36.5057 0.0000
# 6 0.0000 0.0000 0.0000 4.4982 0.0000 4.4976
#
#
#
# Elastic Compliance Matrix: (Units=1/GPa)
#
#
# Indices 1 2 3 4 5 6 
#
# 1 0.009587 -0.001102 -0.004861 0.000000 -0.001435 0.000000
# 2 -0.001102 0.007802 -0.000462 0.000000 0.000889 0.000000
# 3 -0.004861 -0.000462 0.012433 0.000000 -0.001188 0.000000
# 4 0.000000 0.000000 0.000000 0.042089 0.000000 -0.042094
# 5 -0.001435 0.000889 -0.001188 0.000000 0.028013 0.000000
# 6 0.000000 0.000000 0.000000 -0.042094 0.000000 0.264438
#
#
# Mechanical properties :
#
#
# Convention : Reuss Voigt Hill
#
# Bulk Modulus (GPa) = 58.92726 61.05505 59.99116
# Shear Modulus (GPa) = 13.05928 32.63937 22.84932
#
# Velocity S-wave (km/s) = 2.34860 3.71296 3.10660
# Velocity P-wave (km/s) = 5.67837 6.64601 6.18116
#
# Compressibility (1/GPa) = 0.01697007
#
# Stress axis : x y z
#
# Youngs Moduli (GPa) = 104.30835 128.17826 80.43272
#
# Poissons Ratio (x) = 0.14130 0.39099
# Poissons Ratio (y) = 0.11498 0.03718
# Poissons Ratio (z) = 0.50705 0.05925
#
# Static dielectric constant tensor:
#      x y z
#    x 1.842220 0.000000 -0.002130 
#    y 0.000000 2.190760 0.000000 
#    z -0.002130 0.000000 1.934440 
# 
# From -- ./inp_files/304895.got.cif
#   From: 2010.05.17/outbox.cif.g08.bks.cpg/sg12_153_cif.got.tgz:304895.got - 2010.06.03 13:09:07.
