data_PCOD9204377
_publ_section_title
;
Structure prediction by ZEFSAII (Michael W. Deem and Ramdas Pophale) SiO2 
 PCOD9204377
Probable space group: C 2/M
;
_chemical_formula_sum "Si O2"
_cell_formula_units_Z 18
_cell_length_a 6.983198
_cell_length_b 17.003809
_cell_length_c 6.832527
_cell_angle_alpha 90.000000
_cell_angle_beta 61.217080
_cell_angle_gamma 90.000000
_cell_volume 711.064835
_symmetry_space_group_name_H-M "C 2/M"
_symmetry_group_IT_number 12
_symmetry_cell_setting 'monoclinic'
loop_
_space_group_symop_operation_xyz
x,y,z
-x,y,-z
-x,-y,-z
x,-y,z
1/2+x,1/2+y,z
1/2-x,1/2+y,-z
1/2-x,1/2-y,-z
1/2+x,1/2-y,z
loop_
_atom_site_type_symbol
_atom_site_label
_atom_site_fract_x
_atom_site_fract_y
_atom_site_fract_z
Si Si1 0.736615 0.179819 0.798001
Si Si2 0.198995 0.144571 0.692075
Si Si3 0.500000 0.000000 0.500000
O O1 0.756165 0.153893 0.563841
O O2 0.768911 0.274474 0.764363
O O3 0.934818 0.141439 0.821869
O O4 0.500000 0.161914 0.000000
O O5 0.337461 0.068635 0.672207
#
# Coordination Sequence:
#
# PCOD9204377 Si02
#       3
#     8   8   2
#     4  10  20  41  66  89 112 153 205 243 283 349
#     4  10  22  38  62  88 120 156 192 242 296 346
#     4  12  24  42  54  84 132 158 188 244 300 346
#
# _framework density 25.314146999999998
#
# number of rings (size 3 to 8) (size 9 to 14) (size 15 to 20)
#    0.000    1.778    0.000    6.667    0.000    3.556 
#    0.000   12.222    0.000    0.000    0.000    0.000 
#    0.000    0.000    0.000    0.000    0.000    0.000 
#
# Total GULP energy -50164.315613 kJ/mol
# GULP energy per Si atom -5573.812846 kJ/mol
# Density = 2.525653 g / cm^3
# Si number density = 25.314147 Si / 1000 Ang^3
#
#
#
# Elastic Constant Matrix: (Units=GPa)
#
#
# Indices 1 2 3 4 5 6 
#
# 1 147.4623 56.9104 49.6795 0.0000 -49.0373 0.0000
# 2 56.9104 152.4142 17.1224 0.0000 -31.6114 0.0000
# 3 49.6795 17.1224 120.2198 0.0000 -40.4327 0.0000
# 4 0.0000 0.0000 0.0000 40.6152 0.0000 -30.6527
# 5 -49.0373 -31.6114 -40.4327 0.0000 62.9886 0.0000
# 6 0.0000 0.0000 0.0000 -30.6527 0.0000 -17.1250
#
#
#
# Elastic Compliance Matrix: (Units=1/GPa)
#
#
# Indices 1 2 3 4 5 6 
#
# 1 0.010222 -0.002466 -0.002057 0.000000 0.005400 0.000000
# 2 -0.002466 0.007924 0.000742 0.000000 0.002534 0.000000
# 3 -0.002057 0.000742 0.011030 0.000000 0.005852 0.000000
# 4 0.000000 0.000000 0.000000 0.010473 0.000000 -0.018746
# 5 0.005400 0.002534 0.005852 0.000000 0.025108 0.000000
# 6 0.000000 0.000000 0.000000 -0.018746 0.000000 -0.024839
#
#
# Mechanical properties :
#
#
# Convention : Reuss Voigt Hill
#
# Bulk Modulus (GPa) = 46.26154 74.16901 60.21527
# Shear Modulus (GPa) = 91.43684 37.05468 64.24576
#
# Velocity S-wave (km/s) = 6.01658 3.83011 5.04326
# Velocity P-wave (km/s) = 8.15968 6.99447 7.59944
#
# Compressibility (1/GPa) = 0.02161623
#
# Stress axis : x y z
#
# Youngs Moduli (GPa) = 97.83236 126.20186 90.65876
#
# Poissons Ratio (x) = 0.31117 0.18645
# Poissons Ratio (y) = 0.24122 -0.06731
# Poissons Ratio (z) = 0.20120 -0.09370
#
# Static dielectric constant tensor:
#      x y z
#    x 2.101200 0.000000 0.047790 
#    y 0.000000 1.935990 0.000000 
#    z 0.047790 0.000000 2.144480 
# 
# From -- ./inp_files/35484.got.cif
#   From: 2010.05.17/outbox.cif.g08.bks.cpg/sg12_18_cif.got.tgz:35484.got - 2010.06.03 13:09:07.
