data_PCOD9204684
_publ_section_title
;
Structure prediction by ZEFSAII (Michael W. Deem and Ramdas Pophale) SiO2 
 PCOD9204684
Probable space group: C 2/M
;
_chemical_formula_sum "Si O2"
_cell_formula_units_Z 56
_cell_length_a 9.057149
_cell_length_b 28.199478
_cell_length_c 13.390621
_cell_angle_alpha 90.000000
_cell_angle_beta 109.019272
_cell_angle_gamma 90.000000
_cell_volume 3233.352386
_symmetry_space_group_name_H-M "C 2/M"
_symmetry_group_IT_number 12
_symmetry_cell_setting 'monoclinic'
loop_
_space_group_symop_operation_xyz
x,y,z
-x,y,-z
-x,-y,-z
x,-y,z
1/2+x,1/2+y,z
1/2-x,1/2+y,-z
1/2-x,1/2-y,-z
1/2+x,1/2-y,z
loop_
_atom_site_type_symbol
_atom_site_label
_atom_site_fract_x
_atom_site_fract_y
_atom_site_fract_z
Si Si1 0.629317 0.828207 0.242568
Si Si2 0.578800 0.235247 0.423413
Si Si3 0.668939 0.877211 0.895307
Si Si4 0.539394 0.362463 0.187554
Si Si5 0.139485 0.947137 0.949241
Si Si6 0.263212 0.702968 0.069043
Si Si7 0.967380 0.841426 0.380658
O O1 0.579666 0.794906 0.323402
O O2 0.498251 0.866788 0.188510
O O3 0.671703 0.796904 0.153989
O O4 0.790936 0.852226 0.310781
O O5 0.500000 0.209189 0.500000
O O6 0.750000 0.250000 0.500000
O O7 0.486688 0.284291 0.385967
O O8 0.806572 0.867754 0.845072
O O9 0.710614 0.926436 0.959019
O O10 0.688983 0.837957 0.985240
O O11 0.425265 0.407184 0.140369
O O12 0.438865 0.316035 0.131997
O O13 0.572797 0.359296 0.312591
O O14 0.163592 0.000000 0.914285
O O15 0.000000 0.949382 0.000000
O O16 0.250000 0.750000 0.000000
O O17 0.000000 0.857990 0.500000
#
# Coordination Sequence:
#
# PCOD9204684 Si02
#       7
#     8   8   8   8   8   8   8
#     4  11  23  34  49  71 103 139 173 226 256 300
#     4  11  22  37  50  69  95 139 195 225 256 294
#     4  10  21  32  51  82 104 131 174 216 255 313
#     4   9  20  34  54  77 100 136 178 211 254 317
#     4   8  15  34  58  82 108 132 164 211 262 323
#     4  10  22  35  46  68 106 146 173 201 258 306
#     4  10  21  37  50  67 102 139 176 220 264 296
#
# _framework density 17.319486000000001
#
# number of rings (size 3 to 8) (size 9 to 14) (size 15 to 20)
#    0.000    2.143    2.857    1.714    8.000    1.143 
#    0.000    0.000    0.000   15.857    0.000    0.000 
#    0.000    5.143    0.000    0.000    0.000    0.000 
#
# Total GULP energy -156093.080701 kJ/mol
# GULP energy per Si atom -5574.752882 kJ/mol
# Density = 1.728007 g / cm^3
# Si number density = 17.319486 Si / 1000 Ang^3
#
#
#
# Elastic Constant Matrix: (Units=GPa)
#
#
# Indices 1 2 3 4 5 6 
#
# 1 70.4627 13.3205 35.7680 0.0000 0.3517 0.0000
# 2 13.3205 72.1592 28.8247 0.0000 -5.0528 0.0000
# 3 35.7680 28.8247 118.5948 0.0000 -20.8089 0.0000
# 4 0.0000 0.0000 0.0000 11.0280 0.0000 0.7863
# 5 0.3517 -5.0528 -20.8089 0.0000 43.3442 0.0000
# 6 0.0000 0.0000 0.0000 0.7863 0.0000 13.3757
#
#
#
# Elastic Compliance Matrix: (Units=1/GPa)
#
#
# Indices 1 2 3 4 5 6 
#
# 1 0.017170 -0.001219 -0.005385 0.000000 -0.002867 0.000000
# 2 -0.001219 0.015435 -0.003348 0.000000 0.000202 0.000000
# 3 -0.005385 -0.003348 0.011804 0.000000 0.005320 0.000000
# 4 0.000000 0.000000 0.000000 0.091060 0.000000 -0.005353
# 5 -0.002867 0.000202 0.005320 0.000000 0.025672 0.000000
# 6 0.000000 0.000000 0.000000 -0.005353 0.000000 0.075077
#
#
# Mechanical properties :
#
#
# Convention : Reuss Voigt Hill
#
# Bulk Modulus (GPa) = 40.81096 46.33812 43.57454
# Shear Modulus (GPa) = 18.91854 25.76981 22.34417
#
# Velocity S-wave (km/s) = 3.30862 3.86153 3.59572
# Velocity P-wave (km/s) = 6.18148 6.83336 6.51558
#
# Compressibility (1/GPa) = 0.02450322
#
# Stress axis : x y z
#
# Youngs Moduli (GPa) = 58.24005 64.78784 84.72014
#
# Poissons Ratio (x) = 0.07899 0.45624
# Poissons Ratio (y) = 0.07100 0.28368
# Poissons Ratio (z) = 0.31364 0.21694
#
# Static dielectric constant tensor:
#      x y z
#    x 1.658560 0.000000 -0.004740 
#    y 0.000000 1.584970 0.000000 
#    z -0.004740 0.000000 1.622950 
# 
# From -- ./inp_files/125336.got.cif
#   From: 2010.05.17/outbox.cif.g08.bks.cpg/sg12_63_cif.got.tgz:125336.got - 2010.06.03 13:09:07.
