data_PCOD9204400
_publ_section_title
;
Structure prediction by ZEFSAII (Michael W. Deem and Ramdas Pophale) SiO2 
 PCOD9204400
Probable space group: C 2/M
;
_chemical_formula_sum "Si O2"
_cell_formula_units_Z 50
_cell_length_a 24.714396
_cell_length_b 7.942735
_cell_length_c 15.493405
_cell_angle_alpha 90.000000
_cell_angle_beta 51.947795
_cell_angle_gamma 90.000000
_cell_volume 2394.912447
_symmetry_space_group_name_H-M "C 2/M"
_symmetry_group_IT_number 12
_symmetry_cell_setting 'monoclinic'
loop_
_space_group_symop_operation_xyz
x,y,z
-x,y,-z
-x,-y,-z
x,-y,z
1/2+x,1/2+y,z
1/2-x,1/2+y,-z
1/2-x,1/2-y,-z
1/2+x,1/2-y,z
loop_
_atom_site_type_symbol
_atom_site_label
_atom_site_fract_x
_atom_site_fract_y
_atom_site_fract_z
Si Si1 0.056646 0.203802 0.673129
Si Si2 0.101235 0.192104 0.151063
Si Si3 0.658532 0.811612 0.922138
Si Si4 0.191964 0.689940 0.213528
Si Si5 0.575025 0.703684 0.461082
Si Si6 0.928320 0.695437 0.160251
Si Si7 0.500000 0.500000 0.000000
O O1 0.082144 0.256090 0.553701
O O2 0.094482 0.279278 0.718792
O O3 0.976362 0.255725 0.761382
O O4 0.059611 0.000000 0.673789
O O5 0.155281 0.288623 0.157409
O O6 0.101322 0.000000 0.183210
O O7 0.126123 0.197528 0.028221
O O8 0.740345 0.801191 0.844724
O O9 0.629666 0.774007 0.855515
O O10 0.635629 0.000000 0.966872
O O11 0.216612 0.500000 0.199542
O O12 0.134720 0.730378 0.340990
O O13 0.500000 0.756545 0.500000
O O14 0.576507 0.500000 0.456352
O O15 0.952174 0.500000 0.127427
O O16 0.981047 0.847592 0.088590
#
# Coordination Sequence:
#
# PCOD9204400 Si02
#       7
#     8   8   8   8   8   8   2
#     4  10  21  39  67  95 128 168 210 266 327 382
#     4  11  22  38  63  93 127 168 208 258 320 385
#     4  11  25  43  62  89 128 172 218 260 315 392
#     4  12  25  40  62  92 127 170 214 266 323 380
#     4  10  20  41  67  92 123 164 212 265 323 380
#     4  11  25  41  64  96 131 175 218 266 323 382
#     4  12  22  40  68  90 138 168 216 268 316 378
#
# _framework density 20.877590999999999
#
# number of rings (size 3 to 8) (size 9 to 14) (size 15 to 20)
#    0.000    1.120    2.400    4.080    4.480    3.520 
#    0.000    0.800    0.000    0.000    0.000    0.000 
#    0.000    0.000    0.000    0.000    0.000    0.000 
#
# Total GULP energy -139487.872017 kJ/mol
# GULP energy per Si atom -5579.514881 kJ/mol
# Density = 2.083007 g / cm^3
# Si number density = 20.877591 Si / 1000 Ang^3
#
#
#
# Elastic Constant Matrix: (Units=GPa)
#
#
# Indices 1 2 3 4 5 6 
#
# 1 96.4488 13.6229 43.6629 0.0000 18.8031 0.0000
# 2 13.6229 78.2901 19.9314 0.0005 10.8013 0.0000
# 3 43.6629 19.9314 67.6122 0.0002 23.1798 -0.0001
# 4 0.0000 0.0005 0.0002 16.0972 -0.0001 11.3046
# 5 18.8031 10.8013 23.1798 -0.0001 40.7192 0.0000
# 6 0.0000 0.0000 -0.0001 11.3046 0.0000 13.5486
#
#
#
# Elastic Compliance Matrix: (Units=1/GPa)
#
#
# Indices 1 2 3 4 5 6 
#
# 1 0.014749 -0.000059 -0.008918 0.000000 -0.001718 0.000000
# 2 -0.000059 0.013902 -0.003485 -0.000001 -0.001676 0.000001
# 3 -0.008918 -0.003485 0.024661 -0.000001 -0.008996 0.000001
# 4 0.000000 -0.000001 -0.000001 0.150039 0.000001 -0.125188
# 5 -0.001718 -0.001676 -0.008996 0.000001 0.030918 -0.000001
# 6 0.000000 0.000001 0.000001 -0.125188 -0.000001 0.178263
#
#
# Mechanical properties :
#
#
# Convention : Reuss Voigt Hill
#
# Bulk Modulus (GPa) = 35.22760 44.08727 39.65743
# Shear Modulus (GPa) = 11.18775 25.08190 18.13482
#
# Velocity S-wave (km/s) = 2.31741 3.46985 2.95044
# Velocity P-wave (km/s) = 4.90617 6.10049 5.53564
#
# Compressibility (1/GPa) = 0.02838684
#
# Stress axis : x y z
#
# Youngs Moduli (GPa) = 67.80221 71.93279 40.54994
#
# Poissons Ratio (x) = 0.00424 0.36163
# Poissons Ratio (y) = 0.00399 0.14133
# Poissons Ratio (z) = 0.60467 0.25071
#
# Static dielectric constant tensor:
#      x y z
#    x 1.756030 0.000000 0.028250 
#    y 0.000000 1.748570 0.000000 
#    z 0.028250 0.000000 1.738150 
# 
# From -- ./inp_files/237250.got.cif
#   From: 2010.05.17/outbox.cif.g08.bks.cpg/sg12_119_cif.got.tgz:237250.got - 2010.06.03 13:09:07.
