data_PCOD9204949
_publ_section_title
;
Structure prediction by ZEFSAII (Michael W. Deem and Ramdas Pophale) SiO2 
 PCOD9204949
Probable space group: C 2/M
;
_chemical_formula_sum "Si O2"
_cell_formula_units_Z 64
_cell_length_a 29.135455
_cell_length_b 9.177083
_cell_length_c 14.572927
_cell_angle_alpha 90.000000
_cell_angle_beta 106.850168
_cell_angle_gamma 90.000000
_cell_volume 3729.195632
_symmetry_space_group_name_H-M "C 2/M"
_symmetry_group_IT_number 12
_symmetry_cell_setting 'monoclinic'
loop_
_space_group_symop_operation_xyz
x,y,z
-x,y,-z
-x,-y,-z
x,-y,z
1/2+x,1/2+y,z
1/2-x,1/2+y,-z
1/2-x,1/2-y,-z
1/2+x,1/2-y,z
loop_
_atom_site_type_symbol
_atom_site_label
_atom_site_fract_x
_atom_site_fract_y
_atom_site_fract_z
Si Si1 0.292218 0.173849 0.405843
Si Si2 0.844959 0.331361 0.942816
Si Si3 0.753224 0.170786 0.904133
Si Si4 0.502665 0.674866 0.108735
Si Si5 0.400196 0.325738 0.137322
Si Si6 0.807310 0.325820 0.629189
Si Si7 0.901991 0.669191 0.790019
Si Si8 0.653073 0.171117 0.738220
O O1 0.240952 0.250528 0.361926
O O2 0.307536 0.199968 0.519745
O O3 0.332506 0.219514 0.355894
O O4 0.285484 0.000000 0.389365
O O5 0.835060 0.500000 0.960416
O O6 0.796971 0.252662 0.880675
O O7 0.883418 0.326068 0.884069
O O8 0.864888 0.247421 0.042493
O O9 0.703381 0.183986 0.822224
O O10 0.764044 0.000000 0.921455
O O11 0.750000 0.250000 0.000000
O O12 0.507372 0.500000 0.110249
O O13 0.453709 0.711104 0.133788
O O14 0.548892 0.743059 0.183969
O O15 0.500000 0.723040 0.000000
O O16 0.394583 0.500000 0.132385
O O17 0.385734 0.262362 0.227774
O O18 0.803639 0.500000 0.643455
O O19 0.857123 0.276133 0.703503
O O20 0.910525 0.500000 0.770516
O O21 0.639554 0.000000 0.729697
#
# Coordination Sequence:
#
# PCOD9204949 Si02
#       8
#     8   8   8   8   8   8   8   8
#     4   9  18  34  56  80 108 141 174 211 258 309
#     4  11  21  32  47  71 103 136 171 207 251 308
#     4  11  21  31  45  68 100 136 174 209 249 299
#     4  10  21  37  54  75 102 134 176 222 266 314
#     4  11  22  35  52  72  98 135 174 213 259 307
#     4   9  18  34  55  82 111 136 171 216 259 309
#     4  10  21  34  53  79 105 136 171 215 265 311
#     4  10  21  35  51  73 102 138 176 213 254 307
#
# _framework density 17.161878999999999
#
# number of rings (size 3 to 8) (size 9 to 14) (size 15 to 20)
#    0.000    1.875    2.500    1.875    0.000    3.250 
#    0.000    0.000    0.000    0.750    0.000    5.250 
#    0.000    0.000    0.000    0.000    0.000    0.000 
#
# Total GULP energy -178581.624659 kJ/mol
# GULP energy per Si atom -5580.675771 kJ/mol
# Density = 1.712282 g / cm^3
# Si number density = 17.161879 Si / 1000 Ang^3
#
#
#
# Elastic Constant Matrix: (Units=GPa)
#
#
# Indices 1 2 3 4 5 6 
#
# 1 128.2083 55.4687 44.0182 0.0000 -5.7383 0.0000
# 2 55.4687 52.4965 24.1042 0.0000 -5.7875 0.0000
# 3 44.0182 24.1042 68.0996 0.0000 -4.0233 0.0000
# 4 0.0000 0.0000 0.0000 18.1989 0.0000 1.6313
# 5 -5.7383 -5.7875 -4.0233 0.0000 29.1455 0.0000
# 6 0.0000 0.0000 0.0000 1.6313 0.0000 33.1989
#
#
#
# Elastic Compliance Matrix: (Units=1/GPa)
#
#
# Indices 1 2 3 4 5 6 
#
# 1 0.015738 -0.014323 -0.005129 0.000000 -0.000454 0.000000
# 2 -0.014323 0.036128 -0.003299 0.000000 0.003899 0.000000
# 3 -0.005129 -0.003299 0.019226 0.000000 0.000989 0.000000
# 4 0.000000 0.000000 0.000000 0.055191 0.000000 -0.002712
# 5 -0.000454 0.003899 0.000989 0.000000 0.035132 0.000000
# 6 0.000000 0.000000 0.000000 -0.002712 0.000000 0.030255
#
#
# Mechanical properties :
#
#
# Convention : Reuss Voigt Hill
#
# Bulk Modulus (GPa) = 39.08098 55.10962 47.09530
# Shear Modulus (GPa) = 20.34986 24.45623 22.40304
#
# Velocity S-wave (km/s) = 3.44722 3.77906 3.61695
# Velocity P-wave (km/s) = 6.21819 7.15703 6.70406
#
# Compressibility (1/GPa) = 0.02558789
#
# Stress axis : x y z
#
# Youngs Moduli (GPa) = 63.54241 27.67956 52.01287
#
# Poissons Ratio (x) = 0.39646 0.26680
# Poissons Ratio (y) = 0.91014 0.17159
# Poissons Ratio (z) = 0.32594 0.09131
#
# Static dielectric constant tensor:
#      x y z
#    x 1.594590 0.000000 -0.024270 
#    y 0.000000 1.580760 0.000000 
#    z -0.024270 0.000000 1.587840 
# 
# From -- ./inp_files/244130.got.cif
#   From: 2010.05.17/outbox.cif.g08.bks.cpg/sg12_123_cif.got.tgz:244130.got - 2010.06.03 13:09:07.
