data_PCOD9204658
_publ_section_title
;
Structure prediction by ZEFSAII (Michael W. Deem and Ramdas Pophale) SiO2 
 PCOD9204658
Probable space group: C 2/M
;
_chemical_formula_sum "Si O2"
_cell_formula_units_Z 64
_cell_length_a 23.010309
_cell_length_b 7.342019
_cell_length_c 20.339603
_cell_angle_alpha 90.000000
_cell_angle_beta 55.779211
_cell_angle_gamma 90.000000
_cell_volume 2841.326329
_symmetry_space_group_name_H-M "C 2/M"
_symmetry_group_IT_number 12
_symmetry_cell_setting 'monoclinic'
loop_
_space_group_symop_operation_xyz
x,y,z
-x,y,-z
-x,-y,-z
x,-y,z
1/2+x,1/2+y,z
1/2-x,1/2+y,-z
1/2-x,1/2-y,-z
1/2+x,1/2-y,z
loop_
_atom_site_type_symbol
_atom_site_label
_atom_site_fract_x
_atom_site_fract_y
_atom_site_fract_z
Si Si1 0.330507 0.778324 0.385233
Si Si2 0.311838 0.279598 0.165354
Si Si3 0.831231 0.292905 0.530332
Si Si4 0.527817 0.791667 0.914586
Si Si5 0.970316 0.722761 0.229174
Si Si6 0.235770 0.716520 0.085029
Si Si7 0.666982 0.222469 0.327402
Si Si8 0.406544 0.778090 0.756452
O O1 0.253897 0.706887 0.416082
O O2 0.349893 0.716067 0.446973
O O3 0.391108 0.723312 0.296847
O O4 0.325553 0.000000 0.389559
O O5 0.315863 0.500000 0.164917
O O6 0.387559 0.208603 0.137693
O O7 0.292198 0.219914 0.103345
O O8 0.245386 0.224829 0.252927
O O9 0.858186 0.500000 0.512776
O O10 0.850648 0.211415 0.588358
O O11 0.506668 0.712717 0.857501
O O12 0.501409 0.000000 0.931186
O O13 0.500000 0.707077 0.000000
O O14 0.970750 0.500000 0.227357
O O15 0.022381 0.780872 0.253854
O O16 0.234204 0.500000 0.094490
O O17 0.159394 0.781573 0.156982
O O18 0.250000 0.750000 0.000000
O O19 0.612369 0.277664 0.305550
O O20 0.667856 0.000000 0.328835
O O21 0.407780 0.000000 0.755108
#
# Coordination Sequence:
#
# PCOD9204658 Si02
#       8
#     8   8   8   8   8   8   8   8
#     4   9  17  28  44  69  95 120 147 180 224 267
#     4   9  18  32  47  66  90 116 148 184 226 272
#     4   9  16  27  46  70  94 116 147 187 220 261
#     4  10  21  32  45  67  89 116 155 191 222 266
#     4   9  17  30  45  63  93 123 149 183 226 273
#     4   9  18  30  48  69  87 113 151 189 227 268
#     4   8  14  27  46  67  89 115 149 183 219 267
#     4   8  15  28  46  65  87 120 150 179 225 272
#
# _framework density 22.524691000000001
#
# number of rings (size 3 to 8) (size 9 to 14) (size 15 to 20)
#    0.000    3.125    0.000    2.250    1.750    0.750 
#    0.000    0.625    0.000    5.250    0.000    0.000 
#    0.000    4.000    0.000    0.000    0.000    0.000 
#
# Total GULP energy -178575.735979 kJ/mol
# GULP energy per Si atom -5580.491749 kJ/mol
# Density = 2.247342 g / cm^3
# Si number density = 22.524691 Si / 1000 Ang^3
#
#
#
# Elastic Constant Matrix: (Units=GPa)
#
#
# Indices 1 2 3 4 5 6 
#
# 1 56.0267 -9.4085 20.2559 -0.0031 15.8891 0.0011
# 2 -9.4085 87.3360 -0.5874 -0.0132 0.7857 0.0148
# 3 20.2559 -0.5874 107.0461 0.0015 37.1517 0.0000
# 4 -0.0031 -0.0132 0.0015 -18.5658 0.0071 -2.1972
# 5 15.8891 0.7857 37.1517 0.0071 32.2382 -0.0034
# 6 0.0011 0.0148 0.0000 -2.1972 -0.0034 7.3399
#
#
#
# Elastic Compliance Matrix: (Units=1/GPa)
#
#
# Indices 1 2 3 4 5 6 
#
# 1 0.021255 0.002374 -0.000588 -0.000007 -0.009856 -0.000015
# 2 0.002374 0.011722 0.000201 -0.000006 -0.001687 -0.000027
# 3 -0.000588 0.000201 0.015591 -0.000004 -0.017682 -0.000010
# 4 -0.000007 -0.000006 -0.000004 -0.052019 0.000019 -0.015572
# 5 -0.009856 -0.001687 -0.017682 0.000019 0.056295 0.000037
# 6 -0.000015 -0.000027 -0.000010 -0.015572 0.000037 0.131580
#
#
# Mechanical properties :
#
#
# Convention : Reuss Voigt Hill
#
# Bulk Modulus (GPa) = 19.03248 30.10320 24.56784
# Shear Modulus (GPa) = 25.25701 20.21236 22.73469
#
# Velocity S-wave (km/s) = 3.35222 2.99882 3.18043
# Velocity P-wave (km/s) = 4.84264 5.03826 4.94142
#
# Compressibility (1/GPa) = 0.05254177
#
# Stress axis : x y z
#
# Youngs Moduli (GPa) = 47.04725 85.30705 64.13950
#
# Poissons Ratio (x) = -0.20256 0.03774
# Poissons Ratio (y) = -0.11171 -0.01286
# Poissons Ratio (z) = 0.02768 -0.01711
#
# Static dielectric constant tensor:
#      x y z
#    x 1.807700 0.000000 0.047480 
#    y 0.000000 1.874230 0.000000 
#    z 0.047480 0.000000 1.828100 
# 
# From -- ./inp_files/282841.got.cif
#   From: 2010.05.17/outbox.cif.g08.bks.cpg/sg12_142_cif.got.tgz:282841.got - 2010.06.03 13:09:07.
