data_PCOD9204635
_publ_section_title
;
Structure prediction by ZEFSAII (Michael W. Deem and Ramdas Pophale) SiO2 
 PCOD9204635
Probable space group: C 2/M
;
_chemical_formula_sum "Si O2"
_cell_formula_units_Z 40
_cell_length_a 8.748965
_cell_length_b 27.186157
_cell_length_c 18.544973
_cell_angle_alpha 90.000000
_cell_angle_beta 149.359660
_cell_angle_gamma 90.000000
_cell_volume 2248.021395
_symmetry_space_group_name_H-M "C 2/M"
_symmetry_group_IT_number 12
_symmetry_cell_setting 'monoclinic'
loop_
_space_group_symop_operation_xyz
x,y,z
-x,y,-z
-x,-y,-z
x,-y,z
1/2+x,1/2+y,z
1/2-x,1/2+y,-z
1/2-x,1/2-y,-z
1/2+x,1/2-y,z
loop_
_atom_site_type_symbol
_atom_site_label
_atom_site_fract_x
_atom_site_fract_y
_atom_site_fract_z
Si Si1 0.636351 0.944933 0.349094
Si Si2 0.521290 0.786231 0.091836
Si Si3 0.585315 0.125914 0.452754
Si Si4 0.287092 0.851231 0.707290
Si Si5 0.557273 0.781124 0.362795
O O1 0.528774 0.921741 0.380877
O O2 0.577991 0.902102 0.267641
O O3 0.000000 0.947219 0.500000
O O4 0.525764 0.000000 0.290176
O O5 0.532771 0.831229 0.151717
O O6 0.822389 0.755885 0.232285
O O7 0.500000 0.800476 0.000000
O O8 0.250000 0.750000 0.000000
O O9 0.500000 0.118474 0.500000
O O10 0.418869 0.173968 0.353168
O O11 0.939186 0.139240 0.586521
O O12 0.301782 0.810539 0.648777
O O13 0.750000 0.750000 0.500000
#
# Coordination Sequence:
#
# PCOD9204635 Si02
#       5
#     8   8   8   8   8
#     4   8  16  34  57  80 109 142 184 238 290 333
#     4  12  25  37  52  80 117 157 189 232 276 329
#     4  10  21  30  53  86 111 145 187 233 276 334
#     4  10  21  38  53  81 113 148 192 226 282 341
#     4  11  22  35  57  77 112 157 190 226 273 337
#
# _framework density 17.793424999999999
#
# number of rings (size 3 to 8) (size 9 to 14) (size 15 to 20)
#    0.000    1.800    4.000    1.800    5.600    0.400 
#    0.000    0.000    0.000    0.600    0.000   11.200 
#    0.000    0.000    0.000    0.000    0.000    0.000 
#
# Total GULP energy -111503.388396 kJ/mol
# GULP energy per Si atom -5575.169420 kJ/mol
# Density = 1.775293 g / cm^3
# Si number density = 17.793425 Si / 1000 Ang^3
#
#
#
# Elastic Constant Matrix: (Units=GPa)
#
#
# Indices 1 2 3 4 5 6 
#
# 1 131.8986 65.8856 38.6424 -0.0007 -39.0080 0.0001
# 2 65.8856 152.5193 44.6052 0.0023 -30.0404 0.0007
# 3 38.6424 44.6052 84.1493 0.0078 -32.2417 0.0058
# 4 -0.0007 0.0023 0.0078 18.0941 -0.0001 -3.8894
# 5 -39.0080 -30.0404 -32.2417 -0.0001 33.7579 0.0010
# 6 0.0001 0.0007 0.0058 -3.8894 0.0010 11.1144
#
#
#
# Elastic Compliance Matrix: (Units=1/GPa)
#
#
# Indices 1 2 3 4 5 6 
#
# 1 0.012663 -0.003218 0.000631 0.000000 0.012371 -0.000001
# 2 -0.003218 0.009079 -0.002624 0.000000 0.001855 0.000001
# 3 0.000631 -0.002624 0.019509 -0.000011 0.017026 -0.000016
# 4 0.000000 0.000000 -0.000011 0.059762 -0.000011 0.020913
# 5 0.012371 0.001855 0.017026 -0.000011 0.061829 -0.000019
# 6 -0.000001 0.000001 -0.000016 0.020913 -0.000019 0.097291
#
#
# Mechanical properties :
#
#
# Convention : Reuss Voigt Hill
#
# Bulk Modulus (GPa) = 32.43846 74.09264 53.26555
# Shear Modulus (GPa) = 17.80418 27.22221 22.51320
#
# Velocity S-wave (km/s) = 3.16666 3.91564 3.56090
# Velocity P-wave (km/s) = 5.62499 7.88504 6.84888
#
# Compressibility (1/GPa) = 0.03082761
#
# Stress axis : x y z
#
# Youngs Moduli (GPa) = 78.97096 110.13846 51.25953
#
# Poissons Ratio (x) = 0.35443 -0.03233
# Poissons Ratio (y) = 0.25413 0.13453
# Poissons Ratio (z) = -0.04982 0.28906
#
# Static dielectric constant tensor:
#      x y z
#    x 1.653070 0.000000 0.022120 
#    y 0.000000 1.629260 -0.000010 
#    z 0.022120 -0.000010 1.626100 
# 
# From -- ./inp_files/40523.got.cif
#   From: 2010.05.17/outbox.cif.g08.bks.cpg/sg12_21_cif.got.tgz:40523.got - 2010.06.03 13:09:07.
