data_PCOD9204681
_publ_section_title
;
Structure prediction by ZEFSAII (Michael W. Deem and Ramdas Pophale) SiO2 
 PCOD9204681
Probable space group: C 2/M
;
_chemical_formula_sum "Si O2"
_cell_formula_units_Z 40
_cell_length_a 5.162289
_cell_length_b 30.683045
_cell_length_c 12.782905
_cell_angle_alpha 90.000000
_cell_angle_beta 91.654966
_cell_angle_gamma 90.000000
_cell_volume 2023.900402
_symmetry_space_group_name_H-M "C 2/M"
_symmetry_group_IT_number 12
_symmetry_cell_setting 'monoclinic'
loop_
_space_group_symop_operation_xyz
x,y,z
-x,y,-z
-x,-y,-z
x,-y,z
1/2+x,1/2+y,z
1/2-x,1/2+y,-z
1/2-x,1/2-y,-z
1/2+x,1/2-y,z
loop_
_atom_site_type_symbol
_atom_site_label
_atom_site_fract_x
_atom_site_fract_y
_atom_site_fract_z
Si Si1 0.457077 0.585046 0.886598
Si Si2 0.820649 0.267061 0.117607
Si Si3 0.547837 0.449825 0.340056
Si Si4 0.057486 0.605607 0.388312
Si Si5 0.550627 0.860799 0.161375
O O1 0.498337 0.555330 0.785556
O O2 0.671354 0.623840 0.878686
O O3 0.169178 0.604757 0.875782
O O4 0.500000 0.564041 0.000000
O O5 0.539490 0.264710 0.167560
O O6 0.948671 0.314297 0.122460
O O7 0.750000 0.250000 0.000000
O O8 0.534059 0.500000 0.370399
O O9 0.325863 0.420849 0.390734
O O10 0.826790 0.429053 0.366452
O O11 0.061125 0.636944 0.287761
O O12 0.000000 0.626504 0.500000
#
# Coordination Sequence:
#
# PCOD9204681 Si02
#       5
#     8   8   8   8   8
#     4  10  21  33  54  75 106 152 177 209 261 324
#     4  10  21  32  50  79 107 138 165 215 266 314
#     4  10  21  36  53  82 111 135 181 230 266 312
#     4  10  21  37  57  79 103 143 182 220 273 313
#     4  10  21  36  52  77 111 138 179 219 258 320
#
# _framework density 19.763818000000001
#
# number of rings (size 3 to 8) (size 9 to 14) (size 15 to 20)
#    0.000    2.000    0.000    3.000    8.400    2.800 
#    0.000    0.000    0.000    8.400    0.000    0.000 
#    0.000    0.000    0.000    0.000    0.000    0.000 
#
# Total GULP energy -111611.729067 kJ/mol
# GULP energy per Si atom -5580.586453 kJ/mol
# Density = 1.971884 g / cm^3
# Si number density = 19.763818 Si / 1000 Ang^3
#
#
#
# Elastic Constant Matrix: (Units=GPa)
#
#
# Indices 1 2 3 4 5 6 
#
# 1 117.8722 1.2291 -9.6575 0.0000 11.8662 0.0000
# 2 1.2291 55.6193 -1.9588 0.0000 5.9576 0.0000
# 3 -9.6575 -1.9588 109.6755 0.0000 -8.7046 0.0000
# 4 0.0000 0.0000 0.0000 0.1453 0.0000 6.2264
# 5 11.8662 5.9576 -8.7046 0.0000 24.2356 0.0000
# 6 0.0000 0.0000 0.0000 6.2264 0.0000 16.5035
#
#
#
# Elastic Compliance Matrix: (Units=1/GPa)
#
#
# Indices 1 2 3 4 5 6 
#
# 1 0.008950 0.000277 0.000453 0.000000 -0.004287 0.000000
# 2 0.000277 0.018474 -0.000017 0.000000 -0.004683 0.000000
# 3 0.000453 -0.000017 0.009408 0.000000 0.003162 0.000000
# 4 0.000000 0.000000 0.000000 -0.453765 0.000000 0.171196
# 5 -0.004287 -0.004683 0.003162 0.000000 0.045648 0.000000
# 6 0.000000 0.000000 0.000000 0.171196 0.000000 -0.003996
#
#
# Mechanical properties :
#
#
# Convention : Reuss Voigt Hill
#
# Bulk Modulus (GPa) = 26.13845 29.15473 27.64659
# Shear Modulus (GPa) = -13.73799 27.74717 7.00459
#
# Velocity S-wave (km/s) = -2.63935 3.75098 1.88463
# Velocity P-wave (km/s) = 1.99145 5.79167 4.33066
#
# Compressibility (1/GPa) = 0.03825781
#
# Stress axis : x y z
#
# Youngs Moduli (GPa) = 111.73703 54.12932 106.28910
#
# Poissons Ratio (x) = -0.01502 -0.04812
# Poissons Ratio (y) = -0.03100 0.00184
# Poissons Ratio (z) = -0.05059 0.00094
#
# Static dielectric constant tensor:
#      x y z
#    x 1.769680 0.000000 -0.046630 
#    y 0.000000 1.677050 0.000000 
#    z -0.046630 0.000000 1.761020 
# 
# From -- ./inp_files/115859.got.cif
#   From: 2010.05.17/outbox.cif.g08.bks.cpg/sg12_58_cif.got.tgz:115859.got - 2010.06.03 13:09:07.
