data_PCOD9204661
_publ_section_title
;
Structure prediction by ZEFSAII (Michael W. Deem and Ramdas Pophale) SiO2 
 PCOD9204661
Probable space group: C 2/M
;
_chemical_formula_sum "Si O2"
_cell_formula_units_Z 52
_cell_length_a 5.426630
_cell_length_b 30.587945
_cell_length_c 20.354271
_cell_angle_alpha 90.000000
_cell_angle_beta 99.999170
_cell_angle_gamma 90.000000
_cell_volume 3327.274509
_symmetry_space_group_name_H-M "C 2/M"
_symmetry_group_IT_number 12
_symmetry_cell_setting 'monoclinic'
loop_
_space_group_symop_operation_xyz
x,y,z
-x,y,-z
-x,-y,-z
x,-y,z
1/2+x,1/2+y,z
1/2-x,1/2+y,-z
1/2-x,1/2-y,-z
1/2+x,1/2-y,z
loop_
_atom_site_type_symbol
_atom_site_label
_atom_site_fract_x
_atom_site_fract_y
_atom_site_fract_z
Si Si1 0.930590 0.371053 0.574731
Si Si2 0.500000 0.584304 0.500000
Si Si3 0.743558 0.548650 0.390889
Si Si4 0.045189 0.726207 0.581407
Si Si5 0.827805 0.446581 0.191622
Si Si6 0.774422 0.446836 0.036859
Si Si7 0.869046 0.948303 0.258545
O O1 0.640152 0.383655 0.557192
O O2 0.000000 0.370776 0.500000
O O3 0.071590 0.411450 0.614378
O O4 0.001605 0.323433 0.602934
O O5 0.675736 0.553811 0.464394
O O6 0.844951 0.500000 0.381196
O O7 0.494779 0.554253 0.335811
O O8 0.326556 0.743894 0.602229
O O9 0.000000 0.726448 0.500000
O O10 0.821912 0.500000 0.195549
O O11 0.819364 0.434754 0.114617
O O12 0.581021 0.430781 0.218529
O O13 0.089388 0.431034 0.235489
O O14 0.774255 0.500000 0.034653
O O15 0.500000 0.432578 0.000000
O O16 0.000000 0.432191 0.000000
O O17 0.847204 0.000000 0.242766
#
# Coordination Sequence:
#
# PCOD9204661 Si02
#       7
#     8   4   8   8   8   8   8
#     4   9  20  32  45  63  85 103 134 174 220 272
#     4  10  21  32  46  60  84 106 142 184 231 270
#     4  10  21  33  45  60  81 112 148 185 227 268
#     4   9  18  29  49  68  86 105 126 156 209 271
#     4   9  16  27  39  54  75  97 128 167 203 248
#     4   9  15  22  35  54  74  95 119 153 204 252
#     4   9  18  29  42  55  72 102 137 170 208 249
#
# _framework density 15.628406999999999
#
# number of rings (size 3 to 8) (size 9 to 14) (size 15 to 20)
#    0.000    2.769    0.000    1.154    9.692    7.077 
#    0.000    0.000    0.000    0.000    0.000    0.000 
#    0.000    0.000    0.000    0.000    0.000    0.000 
#
# Total GULP energy -144757.672524 kJ/mol
# GULP energy per Si atom -5567.602789 kJ/mol
# Density = 1.559284 g / cm^3
# Si number density = 15.628407 Si / 1000 Ang^3
#
#
#
# Elastic Constant Matrix: (Units=GPa)
#
#
# Indices 1 2 3 4 5 6 
#
# 1 83.6453 26.2279 19.8194 0.0000 9.0690 0.0000
# 2 26.2279 74.8235 12.4228 0.0000 9.1514 0.0000
# 3 19.8194 12.4228 37.8501 0.0000 1.3940 0.0000
# 4 0.0000 0.0000 0.0000 0.8461 0.0000 2.7675
# 5 9.0690 9.1514 1.3940 0.0000 25.8724 0.0000
# 6 0.0000 0.0000 0.0000 2.7675 0.0000 11.4279
#
#
#
# Elastic Compliance Matrix: (Units=1/GPa)
#
#
# Indices 1 2 3 4 5 6 
#
# 1 0.015070 -0.003759 -0.006525 0.000000 -0.003602 0.000000
# 2 -0.003759 0.015683 -0.003029 0.000000 -0.004066 0.000000
# 3 -0.006525 -0.003029 0.030768 0.000000 0.001701 0.000000
# 4 0.000000 0.000000 0.000000 5.683669 0.000000 -1.376408
# 5 -0.003602 -0.004066 0.001701 0.000000 0.041260 0.000000
# 6 0.000000 0.000000 0.000000 -1.376408 0.000000 0.420828
#
#
# Mechanical properties :
#
#
# Convention : Reuss Voigt Hill
#
# Bulk Modulus (GPa) = 28.65719 34.80657 31.73188
# Shear Modulus (GPa) = 0.80057 16.81922 8.80990
#
# Velocity S-wave (km/s) = 0.71650 3.28410 2.37683
# Velocity P-wave (km/s) = 4.36588 6.05806 5.28020
#
# Compressibility (1/GPa) = 0.03489526
#
# Stress axis : x y z
#
# Youngs Moduli (GPa) = 66.35518 63.76481 32.50108
#
# Poissons Ratio (x) = 0.23968 0.21207
# Poissons Ratio (y) = 0.24942 0.09845
# Poissons Ratio (z) = 0.43297 0.19316
#
# Static dielectric constant tensor:
#      x y z
#    x 1.607380 0.000000 0.006180 
#    y 0.000000 1.502510 0.000000 
#    z 0.006180 0.000000 1.536870 
# 
# From -- ./inp_files/298033.got.cif
#   From: 2010.05.17/outbox.cif.g08.bks.cpg/sg12_150_cif.got.tgz:298033.got - 2010.06.03 13:09:07.
