data_PCOD9204997
_publ_section_title
;
Structure prediction by ZEFSAII (Michael W. Deem and Ramdas Pophale) SiO2 
 PCOD9204997
Probable space group: C 2/M
;
_chemical_formula_sum "Si O2"
_cell_formula_units_Z 32
_cell_length_a 12.228199
_cell_length_b 17.537955
_cell_length_c 13.402250
_cell_angle_alpha 90.000000
_cell_angle_beta 147.537480
_cell_angle_gamma 90.000000
_cell_volume 1542.728236
_symmetry_space_group_name_H-M "C 2/M"
_symmetry_group_IT_number 12
_symmetry_cell_setting 'monoclinic'
loop_
_space_group_symop_operation_xyz
x,y,z
-x,y,-z
-x,-y,-z
x,-y,z
1/2+x,1/2+y,z
1/2-x,1/2+y,-z
1/2-x,1/2-y,-z
1/2+x,1/2-y,z
loop_
_atom_site_type_symbol
_atom_site_label
_atom_site_fract_x
_atom_site_fract_y
_atom_site_fract_z
Si Si1 0.568304 0.295692 0.255278
Si Si2 0.669531 0.413825 0.044733
Si Si3 0.162841 0.161983 0.541016
Si Si4 0.371984 0.083137 0.534861
O O1 0.381541 0.342361 0.066016
O O2 0.646994 0.214552 0.277872
O O3 0.554159 0.292193 0.365150
O O4 0.761493 0.352291 0.386484
O O5 0.660839 0.500000 0.991794
O O6 0.500000 0.411729 0.000000
O O7 0.892090 0.405550 0.262919
O O8 0.258034 0.091291 0.554263
O O9 0.000000 0.145760 0.500000
O O10 0.336304 0.000000 0.463414
#
# Coordination Sequence:
#
# PCOD9204997 Si02
#       4
#     8   8   8   8
#     4   9  20  36  56  77 113 144 181 231 270 316
#     4  10  21  34  55  87 112 143 184 222 280 335
#     4   9  20  37  57  81 108 147 191 219 273 332
#     4   9  19  36  55  80 111 141 183 229 269 323
#
# _framework density 20.742474999999999
#
# number of rings (size 3 to 8) (size 9 to 14) (size 15 to 20)
#    1.500    1.250    0.000    0.750    3.500    1.500 
#    0.000    5.000    0.000    3.000    0.000    0.000 
#    0.000    0.000    0.000    0.000    0.000    0.000 
#
# Total GULP energy -89073.644911 kJ/mol
# GULP energy per Si atom -5567.102807 kJ/mol
# Density = 2.069526 g / cm^3
# Si number density = 20.742475 Si / 1000 Ang^3
#
#
#
# Elastic Constant Matrix: (Units=GPa)
#
#
# Indices 1 2 3 4 5 6 
#
# 1 96.2187 -9.0189 -0.4918 0.0000 26.8928 0.0000
# 2 -9.0189 55.7498 -13.8100 0.0000 -7.3395 0.0000
# 3 -0.4918 -13.8100 46.3774 0.0000 9.4690 0.0000
# 4 0.0000 0.0000 0.0000 24.6722 0.0000 -2.1527
# 5 26.8928 -7.3395 9.4690 0.0000 26.6007 0.0000
# 6 0.0000 0.0000 0.0000 -2.1527 0.0000 9.0530
#
#
#
# Elastic Compliance Matrix: (Units=1/GPa)
#
#
# Indices 1 2 3 4 5 6 
#
# 1 0.015077 0.001252 0.003854 0.000000 -0.016269 0.000000
# 2 0.001252 0.019785 0.005444 0.000000 0.002255 0.000000
# 3 0.003854 0.005444 0.025572 0.000000 -0.011497 0.000000
# 4 0.000000 0.000000 0.000000 0.041390 0.000000 0.009842
# 5 -0.016269 0.002255 -0.011497 0.000000 0.058756 0.000000
# 6 0.000000 0.000000 0.000000 0.009842 0.000000 0.112801
#
#
# Mechanical properties :
#
#
# Convention : Reuss Voigt Hill
#
# Bulk Modulus (GPa) = 12.26447 16.85606 14.56027
# Shear Modulus (GPa) = 17.89173 26.84295 22.36734
#
# Velocity S-wave (km/s) = 2.94013 3.60127 3.28736
# Velocity P-wave (km/s) = 4.17749 5.04343 4.63074
#
# Compressibility (1/GPa) = 0.08153631
#
# Stress axis : x y z
#
# Youngs Moduli (GPa) = 66.32483 50.54237 39.10566
#
# Poissons Ratio (x) = -0.06328 -0.15073
# Poissons Ratio (y) = -0.08304 -0.21291
# Poissons Ratio (z) = -0.25565 -0.27517
#
# Static dielectric constant tensor:
#      x y z
#    x 1.751970 0.000000 -0.030850 
#    y 0.000000 1.783860 0.000000 
#    z -0.030850 0.000000 1.764060 
# 
# From -- ./inp_files/10522.got.cif
#   From: 2010.05.17/outbox.cif.g08.bks.cpg/sg12_6_cif.got.tgz:10522.got - 2010.06.03 13:09:07.
