data_PCOD9204493
_publ_section_title
;
Structure prediction by ZEFSAII (Michael W. Deem and Ramdas Pophale) SiO2 
 PCOD9204493
Probable space group: C 2/M
;
_chemical_formula_sum "Si O2"
_cell_formula_units_Z 52
_cell_length_a 17.003149
_cell_length_b 14.744235
_cell_length_c 15.570389
_cell_angle_alpha 90.000000
_cell_angle_beta 139.266270
_cell_angle_gamma 90.000000
_cell_volume 2547.189586
_symmetry_space_group_name_H-M "C 2/M"
_symmetry_group_IT_number 12
_symmetry_cell_setting 'monoclinic'
loop_
_space_group_symop_operation_xyz
x,y,z
-x,y,-z
-x,-y,-z
x,-y,z
1/2+x,1/2+y,z
1/2-x,1/2+y,-z
1/2-x,1/2-y,-z
1/2+x,1/2-y,z
loop_
_atom_site_type_symbol
_atom_site_label
_atom_site_fract_x
_atom_site_fract_y
_atom_site_fract_z
Si Si1 0.955278 0.834149 0.730121
Si Si2 0.274422 0.392061 0.054531
Si Si3 0.394236 0.161139 0.567426
Si Si4 0.833387 0.393070 0.218048
Si Si5 0.787024 0.784552 0.731906
Si Si6 0.355957 0.104460 0.873218
Si Si7 0.287469 0.500000 0.538370
O O1 0.910636 0.743247 0.646869
O O2 0.905627 0.827474 0.786273
O O3 0.098150 0.842392 0.842452
O O4 0.891574 0.920102 0.633577
O O5 0.298955 0.500000 0.072244
O O6 0.202070 0.375172 0.082080
O O7 0.197654 0.371057 0.906338
O O8 0.526781 0.128350 0.650216
O O9 0.319517 0.196491 0.423745
O O10 0.317910 0.079490 0.544549
O O11 0.812043 0.500000 0.215084
O O12 0.749886 0.335044 0.211721
O O13 0.807266 0.678830 0.767171
O O14 0.326662 0.000000 0.824949
O O15 0.500000 0.111768 0.000000
#
# Coordination Sequence:
#
# PCOD9204493 Si02
#       7
#     8   8   8   8   8   8   4
#     4  11  24  43  68 101 136 180 219 275 334 400
#     4  10  23  45  69  98 133 175 221 275 344 394
#     4  11  24  44  66  99 135 179 229 268 330 396
#     4  11  25  42  71 101 132 179 225 277 333 400
#     4  11  25  40  66 103 135 171 224 275 330 393
#     4  10  24  47  69  97 134 177 225 281 330 392
#     4  10  20  42  63  93 136 176 213 276 324 386
#
# _framework density 20.414655
#
# number of rings (size 3 to 8) (size 9 to 14) (size 15 to 20)
#    0.000    1.385    1.538    3.231    8.615    1.846 
#    5.538    1.538    0.000    2.769    0.000    0.000 
#    0.000    0.000    0.000    0.000    0.000    0.000 
#
# Total GULP energy -144902.481864 kJ/mol
# GULP energy per Si atom -5573.172379 kJ/mol
# Density = 2.036819 g / cm^3
# Si number density = 20.414655 Si / 1000 Ang^3
#
#
#
# Elastic Constant Matrix: (Units=GPa)
#
#
# Indices 1 2 3 4 5 6 
#
# 1 86.8803 35.6232 30.0957 0.0000 30.4735 0.0000
# 2 35.6232 138.3276 54.1355 0.0000 15.0995 0.0000
# 3 30.0957 54.1355 74.3831 0.0000 18.4145 0.0000
# 4 0.0000 0.0000 0.0000 42.0646 0.0000 -1.7417
# 5 30.4735 15.0995 18.4145 0.0000 24.4192 0.0000
# 6 0.0000 0.0000 0.0000 -1.7417 0.0000 35.2638
#
#
#
# Elastic Compliance Matrix: (Units=1/GPa)
#
#
# Indices 1 2 3 4 5 6 
#
# 1 0.021452 -0.002552 -0.000720 0.000000 -0.024650 0.000000
# 2 -0.002552 0.010427 -0.007068 0.000000 0.002067 0.000000
# 3 -0.000720 -0.007068 0.021609 0.000000 -0.011027 0.000000
# 4 0.000000 0.000000 0.000000 0.023822 0.000000 0.001177
# 5 -0.024650 0.002067 -0.011027 0.000000 0.078749 0.000000
# 6 0.000000 0.000000 0.000000 0.001177 0.000000 0.028416
#
#
# Mechanical properties :
#
#
# Convention : Reuss Voigt Hill
#
# Bulk Modulus (GPa) = 30.48018 59.92219 45.20119
# Shear Modulus (GPa) = 23.13857 32.33195 27.73526
#
# Velocity S-wave (km/s) = 3.37030 3.98397 3.68991
# Velocity P-wave (km/s) = 5.48709 7.11189 6.35166
#
# Compressibility (1/GPa) = 0.03280820
#
# Stress axis : x y z
#
# Youngs Moduli (GPa) = 46.61629 95.90677 46.27746
#
# Poissons Ratio (x) = 0.24476 0.03331
# Poissons Ratio (y) = 0.11897 0.32708
# Poissons Ratio (z) = 0.03355 0.67784
#
# Static dielectric constant tensor:
#      x y z
#    x 1.728080 0.000000 -0.015480 
#    y 0.000000 1.719130 0.000000 
#    z -0.015480 0.000000 1.713450 
# 
# From -- ./inp_files/225783.got.cif
#   From: 2010.05.17/outbox.cif.g08.bks.cpg/sg12_113_cif.got.tgz:225783.got - 2010.06.03 13:09:07.
