data_PCOD9204327
_publ_section_title
;
Structure prediction by ZEFSAII (Michael W. Deem and Ramdas Pophale) SiO2 
 PCOD9204327
Probable space group: C 2/M
;
_chemical_formula_sum "Si O2"
_cell_formula_units_Z 42
_cell_length_a 14.658856
_cell_length_b 20.713967
_cell_length_c 7.870747
_cell_angle_alpha 90.000000
_cell_angle_beta 52.637417
_cell_angle_gamma 90.000000
_cell_volume 1899.517214
_symmetry_space_group_name_H-M "C 2/M"
_symmetry_group_IT_number 12
_symmetry_cell_setting 'monoclinic'
loop_
_space_group_symop_operation_xyz
x,y,z
-x,y,-z
-x,-y,-z
x,-y,z
1/2+x,1/2+y,z
1/2-x,1/2+y,-z
1/2-x,1/2-y,-z
1/2+x,1/2-y,z
loop_
_atom_site_type_symbol
_atom_site_label
_atom_site_fract_x
_atom_site_fract_y
_atom_site_fract_z
Si Si1 0.000000 0.000000 0.000000
Si Si2 0.466059 0.374721 0.806135
Si Si3 0.158839 0.803099 0.752043
Si Si4 0.859841 0.340704 0.306138
Si Si5 0.545247 0.926546 0.256056
Si Si6 0.725873 0.575311 0.191487
O O1 0.002189 0.056869 0.145081
O O2 0.577906 0.329549 0.689904
O O3 0.389980 0.388154 0.727810
O O4 0.381771 0.339366 0.035324
O O5 0.138206 0.727134 0.793755
O O6 0.287205 0.821677 0.555999
O O7 0.789609 0.393098 0.278166
O O8 0.979101 0.372846 0.222966
O O9 0.500000 0.921411 0.500000
O O10 0.514963 0.000000 0.232676
O O11 0.681172 0.920667 0.068685
O O12 0.702311 0.500000 0.247918
#
# Coordination Sequence:
#
# PCOD9204327 Si02
#       6
#     2   8   8   8   8   8
#     4   8  16  36  64  78 124 144 206 250 270 368
#     4  10  20  41  63  91 111 168 204 244 297 365
#     4   9  23  40  61  85 120 167 204 236 307 359
#     4  11  22  42  57  91 128 155 198 259 299 360
#     4  10  22  40  62  89 119 164 206 242 301 368
#     4  11  23  38  64  95 123 154 201 256 310 348
#
# _framework density 22.110880999999999
#
# number of rings (size 3 to 8) (size 9 to 14) (size 15 to 20)
#    0.000    2.095    0.952    2.286    5.333    3.048 
#   20.571    0.952    0.000    0.000    0.000    0.000 
#    0.000    0.000    0.000    0.000    0.000    0.000 
#
# Total GULP energy -117048.833471 kJ/mol
# GULP energy per Si atom -5573.753975 kJ/mol
# Density = 2.206056 g / cm^3
# Si number density = 22.110881 Si / 1000 Ang^3
#
#
#
# Elastic Constant Matrix: (Units=GPa)
#
#
# Indices 1 2 3 4 5 6 
#
# 1 73.0970 26.7996 -16.1454 0.0000 -6.7893 0.0000
# 2 26.7996 114.8642 8.0045 0.0000 -3.5869 0.0000
# 3 -16.1454 8.0045 61.9896 0.0000 -15.0890 0.0000
# 4 0.0000 0.0000 0.0000 15.5964 0.0000 -9.3346
# 5 -6.7893 -3.5869 -15.0890 0.0000 27.1109 0.0000
# 6 0.0000 0.0000 0.0000 -9.3346 0.0000 34.3167
#
#
#
# Elastic Compliance Matrix: (Units=1/GPa)
#
#
# Indices 1 2 3 4 5 6 
#
# 1 0.017535 -0.004338 0.007006 0.000000 0.007716 0.000000
# 2 -0.004338 0.009867 -0.002719 0.000000 -0.001294 0.000000
# 3 0.007006 -0.002719 0.021569 0.000000 0.013399 0.000000
# 4 0.000000 0.000000 0.000000 0.076586 0.000000 0.020832
# 5 0.007716 -0.001294 0.013399 0.000000 0.046104 0.000000
# 6 0.000000 0.000000 0.000000 0.020832 0.000000 0.034807
#
#
# Mechanical properties :
#
#
# Convention : Reuss Voigt Hill
#
# Bulk Modulus (GPa) = 20.46365 31.91867 26.19116
# Shear Modulus (GPa) = 22.43547 30.82428 26.62987
#
# Velocity S-wave (km/s) = 3.18886 3.73779 3.47418
# Velocity P-wave (km/s) = 4.77845 5.75284 5.28813
#
# Compressibility (1/GPa) = 0.04886713
#
# Stress axis : x y z
#
# Youngs Moduli (GPa) = 57.02851 101.34559 46.36294
#
# Poissons Ratio (x) = 0.43968 -0.32480
# Poissons Ratio (y) = 0.24741 0.12607
# Poissons Ratio (z) = -0.39951 0.27557
#
# Static dielectric constant tensor:
#      x y z
#    x 1.807470 0.000000 -0.009800 
#    y 0.000000 1.749910 0.000000 
#    z -0.009800 0.000000 1.922750 
# 
# From -- ./inp_files/61588.got.cif
#   From: 2010.05.17/outbox.cif.g08.bks.cpg/sg12_31_cif.got.tgz:61588.got - 2010.06.03 13:09:07.
