data_PCOD9204029
_publ_section_title
;
Structure prediction by ZEFSAII (Michael W. Deem and Ramdas Pophale) SiO2 
 PCOD9204029
Probable space group: C 2/M
;
_chemical_formula_sum "Si O2"
_cell_formula_units_Z 48
_cell_length_a 14.398298
_cell_length_b 11.240082
_cell_length_c 27.199907
_cell_angle_alpha 90.000000
_cell_angle_beta 145.442186
_cell_angle_gamma 90.000000
_cell_volume 2496.968207
_symmetry_space_group_name_H-M "C 2/M"
_symmetry_group_IT_number 12
_symmetry_cell_setting 'monoclinic'
loop_
_space_group_symop_operation_xyz
x,y,z
-x,y,-z
-x,-y,-z
x,-y,z
1/2+x,1/2+y,z
1/2-x,1/2+y,-z
1/2-x,1/2-y,-z
1/2+x,1/2-y,z
loop_
_atom_site_type_symbol
_atom_site_label
_atom_site_fract_x
_atom_site_fract_y
_atom_site_fract_z
Si Si1 0.735158 0.857263 0.888745
Si Si2 0.514782 0.642748 0.084732
Si Si3 0.589054 0.635597 0.660884
Si Si4 0.344956 0.364460 0.468986
Si Si5 0.866917 0.132494 0.651472
Si Si6 0.412400 0.724701 0.774592
O O1 0.829288 0.817760 0.880175
O O2 0.551923 0.813380 0.815690
O O3 0.734630 0.000000 0.888402
O O4 0.852005 0.816543 0.984807
O O5 0.513485 0.500000 0.082175
O O6 0.527413 0.678957 0.146498
O O7 0.640478 0.500000 0.673408
O O8 0.424955 0.655585 0.557347
O O9 0.533983 0.645767 0.693211
O O10 0.735855 0.717666 0.707778
O O11 0.500000 0.366366 0.500000
O O12 0.271674 0.500000 0.435304
O O13 0.236171 0.251156 0.406769
O O14 0.892295 0.134282 0.720884
O O15 0.799596 0.000000 0.608167
#
# Coordination Sequence:
#
# PCOD9204029 Si02
#       6
#     8   8   8   8   8   8
#     4   9  19  35  57  79 105 145 191 232 275 327
#     4   9  19  36  53  78 112 143 182 235 281 327
#     4  10  22  39  57  81 116 150 190 238 285 333
#     4  10  20  40  64  84 108 151 198 238 274 329
#     4  11  24  39  57  86 120 152 183 235 294 340
#     4  12  20  34  56  84 111 148 186 229 282 346
#
# _framework density 19.223312
#
# number of rings (size 3 to 8) (size 9 to 14) (size 15 to 20)
#    0.000    1.833    1.667    4.000    0.000    1.000 
#    0.000    1.667    0.000    0.000    0.000   14.000 
#    0.000    0.000    0.000    0.000    0.000    0.000 
#
# Total GULP energy -133773.524967 kJ/mol
# GULP energy per Si atom -5573.896874 kJ/mol
# Density = 1.917956 g / cm^3
# Si number density = 19.223312 Si / 1000 Ang^3
#
#
#
# Elastic Constant Matrix: (Units=GPa)
#
#
# Indices 1 2 3 4 5 6 
#
# 1 104.9702 34.5968 28.2658 0.0000 -8.5135 0.0000
# 2 34.5968 94.5100 42.7327 0.0000 9.5455 0.0000
# 3 28.2658 42.7327 48.9773 0.0000 -4.1064 0.0000
# 4 0.0000 0.0000 0.0000 27.0331 0.0000 0.7776
# 5 -8.5135 9.5455 -4.1064 0.0000 29.6563 0.0000
# 6 0.0000 0.0000 0.0000 0.7776 0.0000 27.8068
#
#
#
# Elastic Compliance Matrix: (Units=1/GPa)
#
#
# Indices 1 2 3 4 5 6 
#
# 1 0.011872 -0.002933 -0.003973 0.000000 0.003802 0.000000
# 2 -0.002933 0.020200 -0.016742 0.000000 -0.009662 0.000000
# 3 -0.003973 -0.016742 0.038117 0.000000 0.009526 0.000000
# 4 0.000000 0.000000 0.000000 0.037021 0.000000 -0.001035
# 5 0.003802 -0.009662 0.009526 0.000000 0.039240 0.000000
# 6 0.000000 0.000000 0.000000 -0.001035 0.000000 0.035991
#
#
# Mechanical properties :
#
#
# Convention : Reuss Voigt Hill
#
# Bulk Modulus (GPa) = 43.68432 51.07202 47.37817
# Shear Modulus (GPa) = 21.06418 26.42339 23.74379
#
# Velocity S-wave (km/s) = 3.31382 3.71151 3.51829
# Velocity P-wave (km/s) = 6.11685 6.70765 6.41905
#
# Compressibility (1/GPa) = 0.02289151
#
# Stress axis : x y z
#
# Youngs Moduli (GPa) = 84.23518 49.50376 26.23504
#
# Poissons Ratio (x) = 0.14520 0.10424
# Poissons Ratio (y) = 0.24708 0.43923
# Poissons Ratio (z) = 0.33469 0.82880
#
# Static dielectric constant tensor:
#      x y z
#    x 1.678810 0.000000 -0.038050 
#    y 0.000000 1.671390 0.000000 
#    z -0.038050 0.000000 1.699580 
# 
# From -- ./inp_files/245834.got.cif
#   From: 2010.05.17/outbox.cif.g08.bks.cpg/sg12_123_cif.got.tgz:245834.got - 2010.06.03 13:09:07.
