data_PCOD9204326
_publ_section_title
;
Structure prediction by ZEFSAII (Michael W. Deem and Ramdas Pophale) SiO2 
 PCOD9204326
Probable space group: C 2/M
;
_chemical_formula_sum "Si O2"
_cell_formula_units_Z 40
_cell_length_a 15.012874
_cell_length_b 14.532292
_cell_length_c 13.891173
_cell_angle_alpha 90.000000
_cell_angle_beta 142.230277
_cell_angle_gamma 90.000000
_cell_volume 1856.245737
_symmetry_space_group_name_H-M "C 2/M"
_symmetry_group_IT_number 12
_symmetry_cell_setting 'monoclinic'
loop_
_space_group_symop_operation_xyz
x,y,z
-x,y,-z
-x,-y,-z
x,-y,z
1/2+x,1/2+y,z
1/2-x,1/2+y,-z
1/2-x,1/2-y,-z
1/2+x,1/2-y,z
loop_
_atom_site_type_symbol
_atom_site_label
_atom_site_fract_x
_atom_site_fract_y
_atom_site_fract_z
Si Si1 0.804307 0.145791 0.058879
Si Si2 0.557617 0.714356 0.156737
Si Si3 0.985077 0.101773 0.602271
Si Si4 0.883151 0.297893 0.486540
Si Si5 0.014714 0.600099 0.239520
O O1 0.950843 0.144077 0.121386
O O2 0.860539 0.120880 0.213384
O O3 0.750000 0.250000 0.000000
O O4 0.660656 0.093761 0.905134
O O5 0.724238 0.685621 0.308788
O O6 0.547006 0.816355 0.194383
O O7 0.500000 0.719756 0.000000
O O8 0.892026 0.194341 0.540664
O O9 0.000000 0.098141 0.500000
O O10 0.934001 0.000000 0.590606
O O11 0.000000 0.301068 0.500000
O O12 0.925254 0.368302 0.606087
O O13 0.072226 0.500000 0.259068
#
# Coordination Sequence:
#
# PCOD9204326 Si02
#       5
#     8   8   8   8   8
#     4  10  20  41  63  90 128 171 209 257 320 379
#     4  11  24  41  66  95 128 171 215 264 321 375
#     4  10  21  36  64  97 127 163 209 262 321 379
#     4  11  23  43  67  94 130 171 213 263 318 381
#     4  11  24  42  67  97 130 169 212 262 321 380
#
# _framework density 21.548871999999999
#
# number of rings (size 3 to 8) (size 9 to 14) (size 15 to 20)
#    0.000    1.400    4.000    2.400    8.400    1.600 
#    0.000    1.000    0.000    4.200    0.000    0.000 
#    0.000    0.000    0.000    0.000    0.000    0.000 
#
# Total GULP energy -111665.560964 kJ/mol
# GULP energy per Si atom -5583.278048 kJ/mol
# Density = 2.149983 g / cm^3
# Si number density = 21.548872 Si / 1000 Ang^3
#
#
#
# Elastic Constant Matrix: (Units=GPa)
#
#
# Indices 1 2 3 4 5 6 
#
# 1 76.7510 -1.0799 71.5108 0.0000 4.8419 0.0000
# 2 -1.0799 62.1443 28.1521 0.0000 -9.1926 0.0000
# 3 71.5108 28.1521 228.9283 0.0000 2.5014 0.0000
# 4 0.0000 0.0000 0.0000 144.5536 0.0000 -26.5528
# 5 4.8419 -9.1926 2.5014 0.0000 49.1919 0.0000
# 6 0.0000 0.0000 0.0000 -26.5528 0.0000 16.1447
#
#
#
# Elastic Compliance Matrix: (Units=1/GPa)
#
#
# Indices 1 2 3 4 5 6 
#
# 1 0.019003 0.003038 -0.006299 0.000000 -0.000982 0.000000
# 2 0.003038 0.018077 -0.003208 0.000000 0.003242 0.000000
# 3 -0.006299 -0.003208 0.006734 0.000000 -0.000322 0.000000
# 4 0.000000 0.000000 0.000000 0.009912 0.000000 0.016303
# 5 -0.000982 0.003242 -0.000322 0.000000 0.021047 0.000000
# 6 0.000000 0.000000 0.000000 0.016303 0.000000 0.088753
#
#
# Mechanical properties :
#
#
# Convention : Reuss Voigt Hill
#
# Bulk Modulus (GPa) = 32.38615 62.77664 47.58139
# Shear Modulus (GPa) = 26.77313 59.92741 43.35027
#
# Velocity S-wave (km/s) = 3.52865 5.27924 4.49008
# Velocity P-wave (km/s) = 5.62704 8.14592 7.00070
#
# Compressibility (1/GPa) = 0.03087740
#
# Stress axis : x y z
#
# Youngs Moduli (GPa) = 52.62434 55.31888 148.50671
#
# Poissons Ratio (x) = -0.16808 0.93541
# Poissons Ratio (y) = -0.15989 0.47634
# Poissons Ratio (z) = 0.33147 0.17744
#
# Static dielectric constant tensor:
#      x y z
#    x 1.828360 0.000000 0.015260 
#    y 0.000000 1.808630 0.000000 
#    z 0.015260 0.000000 1.777910 
# 
# From -- ./inp_files/73353.got.cif
#   From: 2010.05.17/outbox.cif.g08.bks.cpg/sg12_37_cif.got.tgz:73353.got - 2010.06.03 13:09:07.
