data_PCOD9204364
_publ_section_title
;
Structure prediction by ZEFSAII (Michael W. Deem and Ramdas Pophale) SiO2 
 PCOD9204364
Probable space group: C 2/M
;
_chemical_formula_sum "Si O2"
_cell_formula_units_Z 44
_cell_length_a 7.084602
_cell_length_b 22.360727
_cell_length_c 15.065090
_cell_angle_alpha 90.000000
_cell_angle_beta 56.543470
_cell_angle_gamma 90.000000
_cell_volume 1991.120789
_symmetry_space_group_name_H-M "C 2/M"
_symmetry_group_IT_number 12
_symmetry_cell_setting 'monoclinic'
loop_
_space_group_symop_operation_xyz
x,y,z
-x,y,-z
-x,-y,-z
x,-y,z
1/2+x,1/2+y,z
1/2-x,1/2+y,-z
1/2-x,1/2-y,-z
1/2+x,1/2-y,z
loop_
_atom_site_type_symbol
_atom_site_label
_atom_site_fract_x
_atom_site_fract_y
_atom_site_fract_z
Si Si1 0.551842 0.000000 0.874594
Si Si2 0.347992 0.874943 0.931816
Si Si3 0.237232 0.500000 0.637077
Si Si4 0.232390 0.190946 0.144872
Si Si5 0.231525 0.176002 0.793005
Si Si6 0.070716 0.000000 0.705856
Si Si7 0.531693 0.097066 0.388726
O O1 0.409811 0.942100 0.939915
O O2 0.826683 0.000000 0.821847
O O3 0.558392 0.000000 0.765633
O O4 0.592911 0.846640 0.842726
O O5 0.199846 0.870229 0.882438
O O6 0.274477 0.831959 0.032220
O O7 0.526826 0.500000 0.370438
O O8 0.173630 0.557265 0.595470
O O9 0.266844 0.260265 0.157546
O O10 0.972363 0.177024 0.223540
O O11 0.440921 0.154488 0.680888
O O12 0.238271 0.943896 0.678930
O O13 0.500000 0.110417 0.500000
#
# Coordination Sequence:
#
# PCOD9204364 Si02
#       7
#     4   8   4   8   8   4   8
#     4  10  20  41  65  94 137 163 191 270 318 374
#     4  11  23  41  63  97 126 163 218 255 323 382
#     4   9  19  39  63  91 129 171 196 264 319 379
#     4  11  25  38  67  87 121 173 215 264 305 388
#     4  12  22  42  62  89 126 164 221 266 315 368
#     4   9  19  39  64  94 127 172 211 251 330 383
#     4  11  23  38  64  96 127 168 216 266 319 383
#
# _framework density 22.098106000000001
#
# number of rings (size 3 to 8) (size 9 to 14) (size 15 to 20)
#    0.545    0.727    3.636    3.273    2.545    2.909 
#    0.000    4.545    0.000    0.000    0.000    0.000 
#    0.000    0.000    0.000    0.000    0.000    0.000 
#
# Total GULP energy -122654.160588 kJ/mol
# GULP energy per Si atom -5575.189118 kJ/mol
# Density = 2.204781 g / cm^3
# Si number density = 22.098106 Si / 1000 Ang^3
#
#
#
# Elastic Constant Matrix: (Units=GPa)
#
#
# Indices 1 2 3 4 5 6 
#
# 1 91.5299 11.5426 -5.8346 0.0000 5.9474 0.0000
# 2 11.5426 136.2111 32.6650 0.0000 -5.3020 0.0000
# 3 -5.8346 32.6650 89.1416 0.0000 20.6012 0.0000
# 4 0.0000 0.0000 0.0000 28.2395 0.0000 -7.2227
# 5 5.9474 -5.3020 20.6012 0.0000 32.7064 0.0000
# 6 0.0000 0.0000 0.0000 -7.2227 0.0000 7.7853
#
#
#
# Elastic Compliance Matrix: (Units=1/GPa)
#
#
# Indices 1 2 3 4 5 6 
#
# 1 0.011522 -0.001659 0.002233 0.000000 -0.003771 0.000000
# 2 -0.001659 0.008690 -0.004316 0.000000 0.004429 0.000000
# 3 0.002233 -0.004316 0.015451 0.000000 -0.010838 0.000000
# 4 0.000000 0.000000 0.000000 0.046428 0.000000 0.043073
# 5 -0.003771 0.004429 -0.010838 0.000000 0.038805 0.000000
# 6 0.000000 0.000000 0.000000 0.043073 0.000000 0.168408
#
#
# Mechanical properties :
#
#
# Convention : Reuss Voigt Hill
#
# Bulk Modulus (GPa) = 35.48750 43.73650 39.61200
# Shear Modulus (GPa) = 16.33027 32.31354 24.32190
#
# Velocity S-wave (km/s) = 2.72139 3.82812 3.32118
# Velocity P-wave (km/s) = 5.09593 6.27489 5.71589
#
# Compressibility (1/GPa) = 0.02817894
#
# Stress axis : x y z
#
# Youngs Moduli (GPa) = 86.79070 115.07958 64.72187
#
# Poissons Ratio (x) = 0.19089 -0.14455
# Poissons Ratio (y) = 0.14397 0.27937
# Poissons Ratio (z) = -0.19384 0.49673
#
# Static dielectric constant tensor:
#      x y z
#    x 1.872660 0.000000 -0.046540 
#    y 0.000000 1.838620 0.000000 
#    z -0.046540 0.000000 1.847960 
# 
# From -- ./inp_files/198276.got.cif
#   From: 2010.05.17/outbox.cif.g08.bks.cpg/sg12_100_cif.got.tgz:198276.got - 2010.06.03 13:09:07.
