data_PCOD9204209
_publ_section_title
;
Structure prediction by ZEFSAII (Michael W. Deem and Ramdas Pophale) SiO2 
 PCOD9204209
Probable space group: C 2/M
;
_chemical_formula_sum "Si O2"
_cell_formula_units_Z 40
_cell_length_a 13.828012
_cell_length_b 22.385729
_cell_length_c 8.135130
_cell_angle_alpha 90.000000
_cell_angle_beta 140.546748
_cell_angle_gamma 90.000000
_cell_volume 1600.205658
_symmetry_space_group_name_H-M "C 2/M"
_symmetry_group_IT_number 12
_symmetry_cell_setting 'monoclinic'
loop_
_space_group_symop_operation_xyz
x,y,z
-x,y,-z
-x,-y,-z
x,-y,z
1/2+x,1/2+y,z
1/2-x,1/2+y,-z
1/2-x,1/2-y,-z
1/2+x,1/2-y,z
loop_
_atom_site_type_symbol
_atom_site_label
_atom_site_fract_x
_atom_site_fract_y
_atom_site_fract_z
Si Si1 0.370352 0.065684 0.650770
Si Si2 0.289390 0.434053 0.913303
Si Si3 0.572583 0.273619 0.273952
Si Si4 0.921184 0.660117 0.217761
Si Si5 0.080134 0.902046 0.434976
O O1 0.278413 0.071179 0.357584
O O2 0.489432 0.118365 0.792585
O O3 0.248438 0.073714 0.633288
O O4 0.438945 0.000000 0.745207
O O5 0.239128 0.500000 0.908628
O O6 0.232083 0.376778 0.944111
O O7 0.469695 0.431107 0.155450
O O8 0.750000 0.250000 0.500000
O O9 0.451387 0.226154 0.189606
O O10 0.582742 0.331794 0.400474
O O11 0.500000 0.288626 0.000000
O O12 0.000000 0.659985 0.500000
O O13 0.000000 0.916770 0.500000
#
# Coordination Sequence:
#
# PCOD9204209 Si02
#       5
#     8   8   8   8   8
#     4  10  20  40  67  96 134 179 224 279 343 413
#     4  10  22  40  67 101 134 178 229 282 344 416
#     4  12  27  47  74 101 138 185 234 286 350 415
#     4  10  22  41  69  99 136 176 229 284 342 410
#     4  12  26  42  65  96 137 179 231 287 345 406
#
# _framework density 24.996786
#
# number of rings (size 3 to 8) (size 9 to 14) (size 15 to 20)
#    0.000    1.200    2.000    3.600    5.600    6.400 
#    0.000    0.000    0.000    3.600    0.000    0.000 
#    0.000    0.000    0.000    0.000    0.000    0.000 
#
# Total GULP energy -111890.770819 kJ/mol
# GULP energy per Si atom -5594.538541 kJ/mol
# Density = 2.493989 g / cm^3
# Si number density = 24.996786 Si / 1000 Ang^3
#
#
#
# Elastic Constant Matrix: (Units=GPa)
#
#
# Indices 1 2 3 4 5 6 
#
# 1 110.8448 15.6278 -3.5255 0.0000 -4.6930 0.0000
# 2 15.6278 119.8311 -22.8164 0.0000 1.0814 0.0000
# 3 -3.5255 -22.8164 78.7482 0.0000 -6.6109 0.0000
# 4 0.0000 0.0000 0.0000 8.2044 0.0000 -5.6675
# 5 -4.6930 1.0814 -6.6109 0.0000 28.3182 0.0000
# 6 0.0000 0.0000 0.0000 -5.6675 0.0000 -11.0069
#
#
#
# Elastic Compliance Matrix: (Units=1/GPa)
#
#
# Indices 1 2 3 4 5 6 
#
# 1 0.009264 -0.001183 0.000209 0.000000 0.001629 0.000000
# 2 -0.001183 0.008985 0.002555 0.000000 0.000057 0.000000
# 3 0.000209 0.002555 0.013712 0.000000 0.003138 0.000000
# 4 0.000000 0.000000 0.000000 0.089907 0.000000 -0.046293
# 5 0.001629 0.000057 0.003138 0.000000 0.036313 0.000000
# 6 0.000000 0.000000 0.000000 -0.046293 0.000000 -0.067016
#
#
# Mechanical properties :
#
#
# Convention : Reuss Voigt Hill
#
# Bulk Modulus (GPa) = 28.47142 31.99956 30.23549
# Shear Modulus (GPa) = 50.14425 26.44568 38.29497
#
# Velocity S-wave (km/s) = 4.48373 3.25616 3.91832
# Velocity P-wave (km/s) = 6.18222 5.19289 5.70902
#
# Compressibility (1/GPa) = 0.03512294
#
# Stress axis : x y z
#
# Youngs Moduli (GPa) = 107.94416 111.29174 72.92966
#
# Poissons Ratio (x) = 0.13167 -0.01522
# Poissons Ratio (y) = 0.12771 -0.18635
# Poissons Ratio (z) = -0.02253 -0.28438
#
# Static dielectric constant tensor:
#      x y z
#    x 1.958000 0.000000 -0.012990 
#    y 0.000000 1.958510 0.000000 
#    z -0.012990 0.000000 1.991170 
# 
# From -- ./inp_files/65610.got.cif
#   From: 2010.05.17/outbox.cif.g08.bks.cpg/sg12_33_cif.got.tgz:65610.got - 2010.06.03 13:09:07.
