data_PCOD9204274
_publ_section_title
;
Structure prediction by ZEFSAII (Michael W. Deem and Ramdas Pophale) SiO2 
 PCOD9204274
Probable space group: C 2/M
;
_chemical_formula_sum "Si O2"
_cell_formula_units_Z 56
_cell_length_a 16.496154
_cell_length_b 18.261027
_cell_length_c 8.017293
_cell_angle_alpha 90.000000
_cell_angle_beta 104.597737
_cell_angle_gamma 90.000000
_cell_volume 2337.141359
_symmetry_space_group_name_H-M "C 2/M"
_symmetry_group_IT_number 12
_symmetry_cell_setting 'monoclinic'
loop_
_space_group_symop_operation_xyz
x,y,z
-x,y,-z
-x,-y,-z
x,-y,z
1/2+x,1/2+y,z
1/2-x,1/2+y,-z
1/2-x,1/2-y,-z
1/2+x,1/2-y,z
loop_
_atom_site_type_symbol
_atom_site_label
_atom_site_fract_x
_atom_site_fract_y
_atom_site_fract_z
Si Si1 0.785478 0.712525 0.348751
Si Si2 0.438243 0.915808 0.129415
Si Si3 0.879701 0.079919 0.122775
Si Si4 0.165519 0.918774 0.283554
Si Si5 0.710018 0.150974 0.138596
Si Si6 0.419371 0.166549 0.645956
Si Si7 0.023202 0.180749 0.323316
O O1 0.750000 0.750000 0.500000
O O2 0.743006 0.634631 0.303814
O O3 0.754059 0.769563 0.192031
O O4 0.879852 0.692850 0.450276
O O5 0.501594 0.886590 0.303183
O O6 0.410294 0.000000 0.143066
O O7 0.500000 0.915518 0.000000
O O8 0.359201 0.863757 0.042141
O O9 0.788048 0.097643 0.147489
O O10 0.944023 0.143254 0.199195
O O11 0.908960 0.000000 0.198896
O O12 0.874009 0.076964 0.920564
O O13 0.099241 0.876601 0.362529
O O14 0.185689 0.000000 0.353130
O O15 0.656316 0.135316 0.278992
O O16 0.447913 0.243611 0.745271
O O17 0.000000 0.195276 0.500000
#
# Coordination Sequence:
#
# PCOD9204274 Si02
#       7
#     8   8   8   8   8   8   8
#     4  10  20  41  65  97 133 177 241 286 345 412
#     4   9  19  36  62 100 136 177 232 288 352 415
#     4  11  26  43  68 107 144 181 229 294 358 420
#     4  11  25  45  68  98 145 186 228 290 357 424
#     4  10  20  40  70  94 132 180 229 291 340 419
#     4  10  22  41  66  98 139 179 229 295 347 412
#     4  12  25  45  68 101 142 185 240 286 348 429
#
# _framework density 23.960896000000002
#
# number of rings (size 3 to 8) (size 9 to 14) (size 15 to 20)
#    0.000    1.571    2.857    2.143    4.000    5.143 
#    2.571    2.143    0.000    0.429    0.000    0.000 
#    0.000    0.000    0.000    0.000    0.000    0.000 
#
# Total GULP energy -156519.605930 kJ/mol
# GULP energy per Si atom -5589.985926 kJ/mol
# Density = 2.390636 g / cm^3
# Si number density = 23.960896 Si / 1000 Ang^3
#
#
#
# Elastic Constant Matrix: (Units=GPa)
#
#
# Indices 1 2 3 4 5 6 
#
# 1 78.4824 14.9868 19.5574 0.0000 14.6486 0.0000
# 2 14.9868 66.1043 7.5597 0.0000 26.1941 0.0000
# 3 19.5574 7.5597 71.5755 0.0000 29.1153 0.0000
# 4 0.0000 0.0000 0.0000 32.3888 0.0000 23.4092
# 5 14.6486 26.1941 29.1153 0.0000 55.0074 0.0000
# 6 0.0000 0.0000 0.0000 23.4092 0.0000 35.2565
#
#
#
# Elastic Compliance Matrix: (Units=1/GPa)
#
#
# Indices 1 2 3 4 5 6 
#
# 1 0.014194 -0.002504 -0.003264 0.000000 -0.000860 0.000000
# 2 -0.002504 0.019337 0.002697 0.000000 -0.009969 0.000000
# 3 -0.003264 0.002697 0.018793 0.000000 -0.010362 0.000000
# 4 0.000000 0.000000 0.000000 0.059362 0.000000 -0.039414
# 5 -0.000860 -0.009969 -0.010362 0.000000 0.028640 0.000000
# 6 0.000000 0.000000 0.000000 -0.039414 0.000000 0.054533
#
#
# Mechanical properties :
#
#
# Convention : Reuss Voigt Hill
#
# Bulk Modulus (GPa) = 21.65346 33.37444 27.51395
# Shear Modulus (GPa) = 23.10579 36.13443 29.62011
#
# Velocity S-wave (km/s) = 3.10871 3.88759 3.51976
# Velocity P-wave (km/s) = 4.68423 5.84038 5.29396
#
# Compressibility (1/GPa) = 0.04618200
#
# Stress axis : x y z
#
# Youngs Moduli (GPa) = 70.45356 51.71422 53.20989
#
# Poissons Ratio (x) = 0.12949 0.17368
# Poissons Ratio (y) = 0.17641 -0.14350
# Poissons Ratio (z) = 0.22997 -0.13947
#
# Static dielectric constant tensor:
#      x y z
#    x 1.863850 0.000000 -0.043020 
#    y 0.000000 1.931870 0.000000 
#    z -0.043020 0.000000 1.885110 
# 
# From -- ./inp_files/75974.got.cif
#   From: 2010.05.17/outbox.cif.g08.bks.cpg/sg12_38_cif.got.tgz:75974.got - 2010.06.03 13:09:07.
