data_PCOD9204914
_publ_section_title
;
Structure prediction by ZEFSAII (Michael W. Deem and Ramdas Pophale) SiO2 
 PCOD9204914
Probable space group: C 2/M
;
_chemical_formula_sum "Si O2"
_cell_formula_units_Z 52
_cell_length_a 9.516447
_cell_length_b 25.961461
_cell_length_c 21.964318
_cell_angle_alpha 90.000000
_cell_angle_beta 30.139620
_cell_angle_gamma 90.000000
_cell_volume 2724.705558
_symmetry_space_group_name_H-M "C 2/M"
_symmetry_group_IT_number 12
_symmetry_cell_setting 'monoclinic'
loop_
_space_group_symop_operation_xyz
x,y,z
-x,y,-z
-x,-y,-z
x,-y,z
1/2+x,1/2+y,z
1/2-x,1/2+y,-z
1/2-x,1/2-y,-z
1/2+x,1/2-y,z
loop_
_atom_site_type_symbol
_atom_site_label
_atom_site_fract_x
_atom_site_fract_y
_atom_site_fract_z
Si Si1 0.159464 0.176421 0.535654
Si Si2 0.500000 0.241726 0.500000
Si Si3 0.148301 0.357053 0.260604
Si Si4 0.673813 0.216710 0.140100
Si Si5 0.673480 0.663009 0.139370
Si Si6 0.312753 0.060517 0.858742
Si Si7 0.204940 0.630546 0.775670
O O1 0.270099 0.204070 0.555860
O O2 0.981460 0.218391 0.563592
O O3 0.413303 0.154896 0.399591
O O4 0.946627 0.132571 0.634792
O O5 0.146559 0.307726 0.216867
O O6 0.452749 0.361934 0.176628
O O7 0.112840 0.405432 0.228578
O O8 0.594442 0.276443 0.170134
O O9 0.491217 0.181034 0.163344
O O10 0.000000 0.212993 0.000000
O O11 0.658705 0.636601 0.210188
O O12 0.000000 0.659823 0.000000
O O13 0.517016 0.081012 0.834947
O O14 0.336156 0.000000 0.838735
O O15 0.000000 0.072249 0.000000
#
# Coordination Sequence:
#
# PCOD9204914 Si02
#       7
#     8   4   8   8   8   8   8
#     4  11  24  34  54  83 117 158 202 221 281 321
#     4  10  22  34  50  76 118 168 196 226 248 322
#     4  11  22  36  57  82 118 148 194 237 280 340
#     4  10  21  34  51  78 114 157 191 226 277 336
#     4  11  22  34  54  84 116 155 190 233 290 335
#     4  10  22  43  67  85 105 143 191 243 299 346
#     4  11  22  36  57  82 118 148 194 237 280 340
#
# _framework density 19.084631000000002
#
# number of rings (size 3 to 8) (size 9 to 14) (size 15 to 20)
#    0.000    1.385    0.000    7.385   12.923    2.462 
#    0.000    2.308    0.000    2.769    0.000    3.231 
#    0.000    0.000    0.000    0.000    0.000    0.000 
#
# Total GULP energy -145187.994782 kJ/mol
# GULP energy per Si atom -5584.153645 kJ/mol
# Density = 1.904119 g / cm^3
# Si number density = 19.084631 Si / 1000 Ang^3
#
#
#
# Elastic Constant Matrix: (Units=GPa)
#
#
# Indices 1 2 3 4 5 6 
#
# 1 110.8921 17.0297 1.0749 0.0012 -10.4797 0.0014
# 2 17.0297 59.8092 27.3247 0.0033 4.1087 0.0007
# 3 1.0749 27.3247 79.6136 0.0024 2.3582 0.0054
# 4 0.0012 0.0033 0.0024 6.5021 0.0006 -2.3121
# 5 -10.4797 4.1087 2.3582 0.0006 20.1982 0.0008
# 6 0.0014 0.0007 0.0054 -2.3121 0.0008 7.0008
#
#
#
# Elastic Compliance Matrix: (Units=1/GPa)
#
#
# Indices 1 2 3 4 5 6 
#
# 1 0.010141 -0.003737 0.000971 -0.000002 0.005908 -0.000004
# 2 -0.003737 0.021421 -0.007140 -0.000006 -0.005463 0.000003
# 3 0.000971 -0.007140 0.014992 -0.000007 0.000206 -0.000013
# 4 -0.000002 -0.000006 -0.000007 0.174262 -0.000007 0.057553
# 5 0.005908 -0.005463 0.000206 -0.000007 0.053662 -0.000009
# 6 -0.000004 0.000003 -0.000013 0.057553 -0.000009 0.161849
#
#
# Mechanical properties :
#
#
# Convention : Reuss Voigt Hill
#
# Bulk Modulus (GPa) = 37.39469 37.90816 37.65142
# Shear Modulus (GPa) = 10.75150 20.39926 15.57538
#
# Velocity S-wave (km/s) = 2.37609 3.27293 2.85988
# Velocity P-wave (km/s) = 5.21195 5.84714 5.53866
#
# Compressibility (1/GPa) = 0.02674177
#
# Stress axis : x y z
#
# Youngs Moduli (GPa) = 98.61403 46.68320 66.70237
#
# Poissons Ratio (x) = 0.17444 -0.06474
# Poissons Ratio (y) = 0.36849 0.47624
# Poissons Ratio (z) = -0.09571 0.33331
#
# Static dielectric constant tensor:
#      x y z
#    x 1.674560 0.000000 0.000280 
#    y 0.000000 1.624090 0.000000 
#    z 0.000280 0.000000 1.716350 
# 
# From -- ./inp_files/302928.got.cif
#   From: 2010.05.17/outbox.cif.g08.bks.cpg/sg12_152_cif.got.tgz:302928.got - 2010.06.03 13:09:07.
