data_PCOD9204168
_publ_section_title
;
Structure prediction by ZEFSAII (Michael W. Deem and Ramdas Pophale) SiO2 
 PCOD9204168
Probable space group: C 2/M
;
_chemical_formula_sum "Si O2"
_cell_formula_units_Z 56
_cell_length_a 20.181001
_cell_length_b 7.781446
_cell_length_c 17.171518
_cell_angle_alpha 90.000000
_cell_angle_beta 96.257055
_cell_angle_gamma 90.000000
_cell_volume 2680.506349
_symmetry_space_group_name_H-M "C 2/M"
_symmetry_group_IT_number 12
_symmetry_cell_setting 'monoclinic'
loop_
_space_group_symop_operation_xyz
x,y,z
-x,y,-z
-x,-y,-z
x,-y,z
1/2+x,1/2+y,z
1/2-x,1/2+y,-z
1/2-x,1/2-y,-z
1/2+x,1/2-y,z
loop_
_atom_site_type_symbol
_atom_site_label
_atom_site_fract_x
_atom_site_fract_y
_atom_site_fract_z
Si Si1 0.326946 0.699158 0.523004
Si Si2 0.527179 0.802655 0.758284
Si Si3 0.382262 0.707647 0.692069
Si Si4 0.962997 0.000000 0.121064
Si Si5 0.790988 0.304623 0.929367
Si Si6 0.895066 0.000000 0.945107
Si Si7 0.126295 0.706347 0.637318
Si Si8 0.254290 0.206335 0.236046
O O1 0.323054 0.500000 0.541291
O O2 0.250000 0.750000 0.500000
O O3 0.363158 0.775248 0.603387
O O4 0.367498 0.725353 0.448894
O O5 0.448370 0.790407 0.734796
O O6 0.547561 0.668551 0.827439
O O7 0.562257 0.751910 0.681157
O O8 0.546877 0.000000 0.778624
O O9 0.393641 0.500000 0.692829
O O10 0.317745 0.740947 0.736353
O O11 0.039673 0.000000 0.100553
O O12 0.918349 0.000000 0.037990
O O13 0.814997 0.500000 0.940333
O O14 0.743469 0.289714 0.848074
O O15 0.850039 0.167662 0.924707
O O16 0.750000 0.250000 0.000000
O O17 0.130278 0.500000 0.630878
O O18 0.189550 0.765192 0.696520
O O19 0.261451 0.000000 0.228127
#
# Coordination Sequence:
#
# PCOD9204168 Si02
#       8
#     8   8   8   4   8   4   8   8
#     4  11  22  38  62  94 133 174 219 273 335 395
#     4  11  25  43  69  99 129 178 228 275 334 401
#     4  10  21  40  65  91 130 177 218 275 331 394
#     4  11  26  48  74  89 144 176 224 284 332 412
#     4  12  25  42  68 102 139 172 220 276 340 405
#     4  11  26  48  68 104 130 183 220 276 350 397
#     4  10  23  41  62  94 131 170 224 278 331 392
#     4  10  20  40  66  91 129 174 216 272 335 394
#
# _framework density 20.891576000000001
#
# number of rings (size 3 to 8) (size 9 to 14) (size 15 to 20)
#    0.000    1.286    3.571    1.286    3.000    5.143 
#    0.000    4.286    0.000    0.000    0.000    0.000 
#    0.000    0.000    0.000    0.000    0.000    0.000 
#
# Total GULP energy -156581.705975 kJ/mol
# GULP energy per Si atom -5592.203785 kJ/mol
# Density = 2.084403 g / cm^3
# Si number density = 20.891576 Si / 1000 Ang^3
#
#
#
# Elastic Constant Matrix: (Units=GPa)
#
#
# Indices 1 2 3 4 5 6 
#
# 1 24.7661 4.2920 -17.2665 0.0000 1.5123 0.0000
# 2 4.2920 82.0922 21.2627 0.0000 -3.9414 0.0000
# 3 -17.2665 21.2627 111.0323 0.0000 2.5767 0.0000
# 4 0.0000 0.0000 0.0000 27.4256 0.0000 -5.2515
# 5 1.5123 -3.9414 2.5767 0.0000 26.7288 0.0000
# 6 0.0000 0.0000 0.0000 -5.2515 0.0000 18.4356
#
#
#
# Elastic Compliance Matrix: (Units=1/GPa)
#
#
# Indices 1 2 3 4 5 6 
#
# 1 0.047320 -0.004847 0.008384 0.000000 -0.004200 0.000000
# 2 -0.004847 0.013436 -0.003387 0.000000 0.002582 0.000000
# 3 0.008384 -0.003387 0.011006 0.000000 -0.002035 0.000000
# 4 0.000000 0.000000 0.000000 0.038566 0.000000 0.010986
# 5 -0.004200 0.002582 -0.002035 0.000000 0.038227 0.000000
# 6 0.000000 0.000000 0.000000 0.010986 0.000000 0.057372
#
#
# Mechanical properties :
#
#
# Convention : Reuss Voigt Hill
#
# Bulk Modulus (GPa) = 13.87683 26.05188 19.96435
# Shear Modulus (GPa) = 21.77248 28.49147 25.13197
#
# Velocity S-wave (km/s) = 3.23176 3.69694 3.47215
# Velocity P-wave (km/s) = 4.53679 5.54259 5.06472
#
# Compressibility (1/GPa) = 0.07206256
#
# Stress axis : x y z
#
# Youngs Moduli (GPa) = 21.13282 74.42682 90.85938
#
# Poissons Ratio (x) = 0.36077 -0.76180
# Poissons Ratio (y) = 0.10244 0.30772
# Poissons Ratio (z) = -0.17719 0.25206
#
# Static dielectric constant tensor:
#      x y z
#    x 1.734580 0.000000 0.018930 
#    y 0.000000 1.770860 0.000000 
#    z 0.018930 0.000000 1.756800 
# 
# From -- ./inp_files/231114.got.cif
#   From: 2010.05.17/outbox.cif.g08.bks.cpg/sg12_116_cif.got.tgz:231114.got - 2010.06.03 13:09:07.
