data_PCOD9204829
_publ_section_title
;
Structure prediction by ZEFSAII (Michael W. Deem and Ramdas Pophale) SiO2 
 PCOD9204829
Probable space group: C 2/M
;
_chemical_formula_sum "Si O2"
_cell_formula_units_Z 58
_cell_length_a 25.933923
_cell_length_b 18.154435
_cell_length_c 11.755932
_cell_angle_alpha 90.000000
_cell_angle_beta 148.332967
_cell_angle_gamma 90.000000
_cell_volume 2905.711225
_symmetry_space_group_name_H-M "C 2/M"
_symmetry_group_IT_number 12
_symmetry_cell_setting 'monoclinic'
loop_
_space_group_symop_operation_xyz
x,y,z
-x,y,-z
-x,-y,-z
x,-y,z
1/2+x,1/2+y,z
1/2-x,1/2+y,-z
1/2-x,1/2-y,-z
1/2+x,1/2-y,z
loop_
_atom_site_type_symbol
_atom_site_label
_atom_site_fract_x
_atom_site_fract_y
_atom_site_fract_z
Si Si1 0.676501 0.813303 0.542780
Si Si2 0.017886 0.913897 0.164528
Si Si3 0.490331 0.216914 0.603602
Si Si4 0.000000 0.000000 0.500000
Si Si5 0.777048 0.857259 0.364570
Si Si6 0.383549 0.912338 0.778153
Si Si7 0.867719 0.169701 0.049128
Si Si8 0.129064 0.865866 0.686277
O O1 0.576654 0.820423 0.428117
O O2 0.697477 0.727356 0.554677
O O3 0.665948 0.865297 0.415142
O O4 0.768042 0.833734 0.793034
O O5 0.950100 0.869169 0.125709
O O6 0.131508 0.902115 0.410193
O O7 0.991851 0.000000 0.123027
O O8 0.000000 0.889634 0.000000
O O9 0.500000 0.177102 0.500000
O O10 0.590768 0.248551 0.844953
O O11 0.429387 0.291387 0.455159
O O12 0.059209 0.935607 0.540945
O O13 0.674556 0.885291 0.219956
O O14 0.784483 0.867054 0.242497
O O15 0.370189 0.000000 0.737607
O O16 0.500000 0.897093 0.000000
O O17 0.848166 0.135397 0.137027
#
# Coordination Sequence:
#
# PCOD9204829 Si02
#       8
#     8   8   8   2   8   8   8   8
#     4  11  24  41  68  97 122 167 214 267 316 379
#     4  11  23  37  59  92 135 170 199 259 323 382
#     4   9  19  39  57  93 131 164 203 255 314 374
#     4  12  16  32  56  96 140 174 188 236 318 402
#     4  11  23  41  66  99 122 165 219 262 313 383
#     4  11  27  49  66  85 125 174 218 268 314 371
#     4  11  21  38  59  97 136 163 201 259 319 375
#     4  10  21  33  59  97 134 169 201 245 320 390
#
# _framework density 19.96069
#
# number of rings (size 3 to 8) (size 9 to 14) (size 15 to 20)
#    0.000    1.379    4.828    1.655    6.759    7.172 
#    0.000    0.000    0.000    0.414    0.000    0.000 
#    0.000    0.000    0.000    0.000    0.000    0.000 
#
# Total GULP energy -161679.362813 kJ/mol
# GULP energy per Si atom -5575.150442 kJ/mol
# Density = 1.991526 g / cm^3
# Si number density = 19.960690 Si / 1000 Ang^3
#
#
#
# Elastic Constant Matrix: (Units=GPa)
#
#
# Indices 1 2 3 4 5 6 
#
# 1 177.2673 36.0201 53.0077 0.0000 4.3542 0.0000
# 2 36.0201 45.3592 13.0859 0.0000 -2.2359 0.0000
# 3 53.0077 13.0859 91.5201 0.0000 -5.7125 0.0000
# 4 0.0000 0.0000 0.0000 41.5417 0.0000 10.7505
# 5 4.3542 -2.2359 -5.7125 0.0000 28.9058 0.0000
# 6 0.0000 0.0000 0.0000 10.7505 0.0000 0.1070
#
#
#
# Elastic Compliance Matrix: (Units=1/GPa)
#
#
# Indices 1 2 3 4 5 6 
#
# 1 0.007976 -0.005295 -0.004013 0.000000 -0.002404 0.000000
# 2 -0.005295 0.026547 -0.000558 0.000000 0.002741 0.000000
# 3 -0.004013 -0.000558 0.013532 0.000000 0.003236 0.000000
# 4 0.000000 0.000000 0.000000 -0.000963 0.000000 0.096740
# 5 -0.002404 0.002741 0.003236 0.000000 0.035809 0.000000
# 6 0.000000 0.000000 0.000000 0.096740 0.000000 -0.373819
#
#
# Mechanical properties :
#
#
# Convention : Reuss Voigt Hill
#
# Bulk Modulus (GPa) = 35.30507 57.59710 46.45108
# Shear Modulus (GPa) = -19.10253 28.24644 4.57196
#
# Velocity S-wave (km/s) = -3.09691 3.76587 1.51508
# Velocity P-wave (km/s) = 2.22214 6.91570 5.13638
#
# Compressibility (1/GPa) = 0.02832454
#
# Stress axis : x y z
#
# Youngs Moduli (GPa) = 125.37622 37.66916 73.89671
#
# Poissons Ratio (x) = 0.19945 0.29652
# Poissons Ratio (y) = 0.66383 0.04124
# Poissons Ratio (z) = 0.50309 0.02102
#
# Static dielectric constant tensor:
#      x y z
#    x 1.756100 0.000000 -0.003290 
#    y 0.000000 1.703260 0.000000 
#    z -0.003290 0.000000 1.725030 
# 
# From -- ./inp_files/184468.got.cif
#   From: 2010.05.17/outbox.cif.g08.bks.cpg/sg12_93_cif.got.tgz:184468.got - 2010.06.03 13:09:07.
