data_PCOD9204062
_publ_section_title
;
Structure prediction by ZEFSAII (Michael W. Deem and Ramdas Pophale) SiO2 
 PCOD9204062
Probable space group: C 2/M
;
_chemical_formula_sum "Si O2"
_cell_formula_units_Z 58
_cell_length_a 12.439274
_cell_length_b 15.911552
_cell_length_c 22.946930
_cell_angle_alpha 90.000000
_cell_angle_beta 37.420372
_cell_angle_gamma 90.000000
_cell_volume 2759.888740
_symmetry_space_group_name_H-M "C 2/M"
_symmetry_group_IT_number 12
_symmetry_cell_setting 'monoclinic'
loop_
_space_group_symop_operation_xyz
x,y,z
-x,y,-z
-x,-y,-z
x,-y,z
1/2+x,1/2+y,z
1/2-x,1/2+y,-z
1/2-x,1/2-y,-z
1/2+x,1/2-y,z
loop_
_atom_site_type_symbol
_atom_site_label
_atom_site_fract_x
_atom_site_fract_y
_atom_site_fract_z
Si Si1 0.302418 0.902802 0.085357
Si Si2 0.225056 0.862618 0.247786
Si Si3 0.710737 0.166701 0.224867
Si Si4 0.899356 0.898885 0.939286
Si Si5 0.000000 0.500000 0.500000
Si Si6 0.065732 0.359903 0.565567
Si Si7 0.083322 0.400929 0.162867
Si Si8 0.567591 0.661260 0.535087
O O1 0.225778 0.901982 0.183185
O O2 0.171629 0.866740 0.092925
O O3 0.327597 0.000000 0.055990
O O4 0.500000 0.863771 0.000000
O O5 0.222118 0.763724 0.236155
O O6 0.404337 0.887017 0.203906
O O7 0.059834 0.878904 0.361041
O O8 0.613031 0.122385 0.321041
O O9 0.595983 0.151311 0.216550
O O10 0.908086 0.134936 0.129499
O O11 0.914757 0.000000 0.931631
O O12 0.749387 0.877325 0.050686
O O13 0.081547 0.426040 0.507553
O O14 0.232311 0.364493 0.537315
O O15 0.059213 0.263217 0.545944
O O16 0.098813 0.500000 0.170357
O O17 0.500000 0.639198 0.500000
#
# Coordination Sequence:
#
# PCOD9204062 Si02
#       8
#     8   8   8   8   2   8   8   8
#     4  10  20  40  64  90 130 169 213 263 321 383
#     4  11  24  39  68  96 124 167 222 265 323 383
#     4  11  25  40  63  98 127 166 216 265 324 380
#     4  10  22  40  63  88 127 175 211 255 321 388
#     4  12  24  44  70 104 126 168 220 280 326 384
#     4  10  24  43  69  95 135 169 216 274 332 388
#     4  11  23  43  65  89 132 175 210 260 321 388
#     4  10  21  47  69  93 130 181 214 265 338 402
#
# _framework density 21.015339999999998
#
# number of rings (size 3 to 8) (size 9 to 14) (size 15 to 20)
#    0.000    1.517    2.069    2.069    3.862    3.862 
#    4.966    0.345    0.000    0.000    0.000    0.000 
#    0.000    0.000    0.000    0.000    0.000    0.000 
#
# Total GULP energy -161818.684102 kJ/mol
# GULP energy per Si atom -5579.954624 kJ/mol
# Density = 2.096751 g / cm^3
# Si number density = 21.015340 Si / 1000 Ang^3
#
#
#
# Elastic Constant Matrix: (Units=GPa)
#
#
# Indices 1 2 3 4 5 6 
#
# 1 75.0260 7.8199 1.0069 0.0001 10.2576 -0.0001
# 2 7.8199 31.1984 7.9406 0.0001 -3.3645 -0.0001
# 3 1.0069 7.9406 66.8079 0.0006 -8.6713 -0.0003
# 4 0.0001 0.0001 0.0006 15.7344 -0.0001 5.3363
# 5 10.2576 -3.3645 -8.6713 -0.0001 28.2186 0.0001
# 6 -0.0001 -0.0001 -0.0003 5.3363 0.0001 36.8945
#
#
#
# Elastic Compliance Matrix: (Units=1/GPa)
#
#
# Indices 1 2 3 4 5 6 
#
# 1 0.014584 -0.004171 -0.000497 0.000000 -0.005951 0.000000
# 2 -0.004171 0.034467 -0.003441 0.000000 0.004568 0.000000
# 3 -0.000497 -0.003441 0.015993 -0.000001 0.004685 0.000000
# 4 0.000000 0.000000 -0.000001 0.066833 0.000000 -0.009666
# 5 -0.005951 0.004568 0.004685 0.000000 0.039585 0.000000
# 6 0.000000 0.000000 0.000000 -0.009666 0.000000 0.028502
#
#
# Mechanical properties :
#
#
# Convention : Reuss Voigt Hill
#
# Bulk Modulus (GPa) = 20.48048 22.95188 21.71618
# Shear Modulus (GPa) = 21.50945 26.58716 24.04831
#
# Velocity S-wave (km/s) = 3.20271 3.56073 3.38645
# Velocity P-wave (km/s) = 4.84181 5.27733 5.06425
#
# Compressibility (1/GPa) = 0.04882698
#
# Stress axis : x y z
#
# Youngs Moduli (GPa) = 68.56948 29.01352 62.52817
#
# Poissons Ratio (x) = 0.12101 0.03105
# Poissons Ratio (y) = 0.28599 0.21515
# Poissons Ratio (z) = 0.03404 0.09983
#
# Static dielectric constant tensor:
#      x y z
#    x 1.721440 0.000000 0.014100 
#    y 0.000000 1.729310 0.000000 
#    z 0.014100 0.000000 1.747430 
# 
# From -- ./inp_files/306346.got.cif
#   From: 2010.05.17/outbox.cif.g08.bks.cpg/sg12_154_cif.got.tgz:306346.got - 2010.06.03 13:09:07.
