data_PCOD9204611
_publ_section_title
;
Structure prediction by ZEFSAII (Michael W. Deem and Ramdas Pophale) SiO2 
 PCOD9204611
Probable space group: C 2/M
;
_chemical_formula_sum "Si O2"
_cell_formula_units_Z 48
_cell_length_a 14.371112
_cell_length_b 11.450926
_cell_length_c 14.689845
_cell_angle_alpha 90.000000
_cell_angle_beta 110.594399
_cell_angle_gamma 90.000000
_cell_volume 2262.911777
_symmetry_space_group_name_H-M "C 2/M"
_symmetry_group_IT_number 12
_symmetry_cell_setting 'monoclinic'
loop_
_space_group_symop_operation_xyz
x,y,z
-x,y,-z
-x,-y,-z
x,-y,z
1/2+x,1/2+y,z
1/2-x,1/2+y,-z
1/2-x,1/2-y,-z
1/2+x,1/2-y,z
loop_
_atom_site_type_symbol
_atom_site_label
_atom_site_fract_x
_atom_site_fract_y
_atom_site_fract_z
Si Si1 0.681711 0.000000 0.394259
Si Si2 0.773990 0.000000 0.223846
Si Si3 0.589412 0.500000 0.456599
Si Si4 0.934456 0.500000 0.888334
Si Si5 0.371175 0.315961 0.143703
Si Si6 0.217424 0.130785 0.081747
Si Si7 0.151319 0.755811 0.403718
Si Si8 0.088570 0.752571 0.187555
O O1 0.620833 0.117848 0.397246
O O2 0.720834 0.000000 0.302755
O O3 0.791996 0.000000 0.477727
O O4 0.838081 0.887576 0.221063
O O5 0.681140 0.000000 0.123103
O O6 0.500000 0.500000 0.500000
O O7 0.585565 0.369055 0.409590
O O8 0.946463 0.619229 0.837150
O O9 0.000000 0.500000 0.000000
O O10 0.325655 0.186611 0.131733
O O11 0.488138 0.322867 0.170898
O O12 0.318107 0.365295 0.034785
O O13 0.141933 0.209165 0.113966
O O14 0.213129 0.000000 0.114859
O O15 0.250000 0.750000 0.500000
O O16 0.162195 0.769824 0.298185
#
# Coordination Sequence:
#
# PCOD9204611 Si02
#       8
#     4   4   4   4   8   8   8   8
#     4  10  20  44  71  90 127 174 222 272 337 398
#     4  12  22  44  64  92 133 173 217 274 322 395
#     4  10  24  40  69 101 133 163 220 283 339 412
#     4  12  24  42  70  93 131 180 229 269 328 403
#     4  11  25  38  62  94 128 178 218 265 326 388
#     4  11  24  42  59  90 137 172 213 270 323 393
#     4  10  22  44  69  96 128 175 223 281 344 404
#     4  12  25  41  67  96 129 174 228 270 336 402
#
# _framework density 21.211607999999998
#
# number of rings (size 3 to 8) (size 9 to 14) (size 15 to 20)
#    0.000    1.000    4.167    1.500    8.167    0.667 
#    0.000    0.417    0.000    0.000    0.000    0.000 
#    0.000    0.000    0.000    0.000    0.000    0.000 
#
# Total GULP energy -133685.907124 kJ/mol
# GULP energy per Si atom -5570.246130 kJ/mol
# Density = 2.116333 g / cm^3
# Si number density = 21.211608 Si / 1000 Ang^3
#
#
#
# Elastic Constant Matrix: (Units=GPa)
#
#
# Indices 1 2 3 4 5 6 
#
# 1 71.3339 11.3317 8.9392 0.0000 -8.7300 0.0000
# 2 11.3317 153.1214 29.9714 0.0000 -24.4169 0.0000
# 3 8.9392 29.9714 75.0495 0.0000 3.0341 0.0000
# 4 0.0000 0.0000 0.0000 21.9351 0.0000 -13.4422
# 5 -8.7300 -24.4169 3.0341 0.0000 27.1629 0.0000
# 6 0.0000 0.0000 0.0000 -13.4422 0.0000 21.7720
#
#
#
# Elastic Compliance Matrix: (Units=1/GPa)
#
#
# Indices 1 2 3 4 5 6 
#
# 1 0.014880 0.000109 -0.002022 0.000000 0.005106 0.000000
# 2 0.000109 0.008558 -0.003760 0.000000 0.008148 0.000000
# 3 -0.002022 -0.003760 0.015299 0.000000 -0.005739 0.000000
# 4 0.000000 0.000000 0.000000 0.073336 0.000000 0.045278
# 5 0.005106 0.008148 -0.005739 0.000000 0.046421 0.000000
# 6 0.000000 0.000000 0.000000 0.045278 0.000000 0.073886
#
#
# Mechanical properties :
#
#
# Convention : Reuss Voigt Hill
#
# Bulk Modulus (GPa) = 36.51000 44.44327 40.47663
# Shear Modulus (GPa) = 19.77408 30.79152 25.28280
#
# Velocity S-wave (km/s) = 3.05656 3.81417 3.45618
# Velocity P-wave (km/s) = 5.45035 6.35570 5.92036
#
# Compressibility (1/GPa) = 0.02738976
#
# Stress axis : x y z
#
# Youngs Moduli (GPa) = 67.20626 116.85067 65.36383
#
# Poissons Ratio (x) = -0.01272 0.13218
# Poissons Ratio (y) = -0.00732 0.24577
# Poissons Ratio (z) = 0.13590 0.43936
#
# Static dielectric constant tensor:
#      x y z
#    x 1.767840 0.000000 0.042640 
#    y 0.000000 1.849630 0.000000 
#    z 0.042640 0.000000 1.788480 
# 
# From -- ./inp_files/212812.got.cif
#   From: 2010.05.17/outbox.cif.g08.bks.cpg/sg12_107_cif.got.tgz:212812.got - 2010.06.03 13:09:07.
