data_PCOD9204234
_publ_section_title
;
Structure prediction by ZEFSAII (Michael W. Deem and Ramdas Pophale) SiO2 
 PCOD9204234
Probable space group: C 2/M
;
_chemical_formula_sum "Si O2"
_cell_formula_units_Z 56
_cell_length_a 20.096552
_cell_length_b 8.967092
_cell_length_c 32.325202
_cell_angle_alpha 90.000000
_cell_angle_beta 151.068028
_cell_angle_gamma 90.000000
_cell_volume 2818.085101
_symmetry_space_group_name_H-M "C 2/M"
_symmetry_group_IT_number 12
_symmetry_cell_setting 'monoclinic'
loop_
_space_group_symop_operation_xyz
x,y,z
-x,y,-z
-x,-y,-z
x,-y,z
1/2+x,1/2+y,z
1/2-x,1/2+y,-z
1/2-x,1/2-y,-z
1/2+x,1/2-y,z
loop_
_atom_site_type_symbol
_atom_site_label
_atom_site_fract_x
_atom_site_fract_y
_atom_site_fract_z
Si Si1 0.852380 0.322409 0.780348
Si Si2 0.092987 0.176267 0.751173
Si Si3 0.586924 0.323856 0.506501
Si Si4 0.605506 0.824846 0.293692
Si Si5 0.849731 0.678812 0.020071
Si Si6 0.158396 0.824543 0.073430
Si Si7 0.066824 0.676930 0.652110
O O1 0.823006 0.500000 0.767922
O O2 0.880051 0.290834 0.746990
O O3 0.719662 0.233551 0.723285
O O4 0.991852 0.289872 0.881138
O O5 0.243876 0.243978 0.840599
O O6 0.030420 0.248976 0.676040
O O7 0.004346 0.225331 0.742494
O O8 0.099413 0.000000 0.750501
O O9 0.500000 0.282264 0.500000
O O10 0.560729 0.500000 0.484521
O O11 0.746283 0.304762 0.604291
O O12 0.534578 0.232050 0.439049
O O13 0.566879 0.000000 0.276269
O O14 0.831846 0.500000 0.009318
O O15 0.750000 0.750000 0.000000
O O16 0.820012 0.749934 0.959432
O O17 0.191835 0.000000 0.089836
O O18 0.000000 0.808090 0.000000
O O19 0.064871 0.500000 0.654663
#
# Coordination Sequence:
#
# PCOD9204234 Si02
#       7
#     8   8   8   8   8   8   8
#     4  10  21  40  64  91 123 163 207 254 310 370
#     4  12  26  43  64  91 127 166 210 258 312 375
#     4  10  20  40  68  95 125 164 207 252 310 371
#     4  10  21  40  67  94 127 166 206 256 313 370
#     4  11  23  38  62  93 126 164 208 259 312 370
#     4  11  24  43  66  91 125 165 209 261 316 374
#     4  12  25  40  63  93 127 163 207 258 307 366
#
# _framework density 19.871649999999999
#
# number of rings (size 3 to 8) (size 9 to 14) (size 15 to 20)
#    0.000    1.143    1.429    5.143    0.000    7.714 
#    0.000    0.000    0.000    0.000    0.000    0.000 
#    0.000    0.000    0.000    0.000    0.000    0.000 
#
# Total GULP energy -156719.594514 kJ/mol
# GULP energy per Si atom -5597.128376 kJ/mol
# Density = 1.982642 g / cm^3
# Si number density = 19.871650 Si / 1000 Ang^3
#
#
#
# Elastic Constant Matrix: (Units=GPa)
#
#
# Indices 1 2 3 4 5 6 
#
# 1 46.3692 24.9198 4.0878 0.0000 -12.8525 0.0000
# 2 24.9198 91.5328 31.1870 0.0000 -10.0361 0.0000
# 3 4.0878 31.1870 67.1694 0.0001 -17.2601 0.0000
# 4 0.0000 0.0000 0.0001 28.1172 0.0000 9.4687
# 5 -12.8525 -10.0361 -17.2601 0.0000 32.8946 0.0000
# 6 0.0000 0.0000 0.0000 9.4687 0.0000 12.4380
#
#
#
# Elastic Compliance Matrix: (Units=1/GPa)
#
#
# Indices 1 2 3 4 5 6 
#
# 1 0.028713 -0.008282 0.005006 0.000000 0.011319 0.000000
# 2 -0.008282 0.015391 -0.007244 0.000000 -0.002341 0.000000
# 3 0.005006 -0.007244 0.020668 0.000000 0.010591 0.000000
# 4 0.000000 0.000000 0.000000 0.047827 0.000000 -0.036409
# 5 0.011319 -0.002341 0.010591 0.000000 0.039665 0.000000
# 6 0.000000 0.000000 0.000000 -0.036409 0.000000 0.108116
#
#
# Mechanical properties :
#
#
# Convention : Reuss Voigt Hill
#
# Bulk Modulus (GPa) = 22.86580 36.16229 29.51404
# Shear Modulus (GPa) = 16.89213 24.34841 20.62027
#
# Velocity S-wave (km/s) = 2.91874 3.50420 3.22479
# Velocity P-wave (km/s) = 4.78440 5.88303 5.36193
#
# Compressibility (1/GPa) = 0.04373343
#
# Stress axis : x y z
#
# Youngs Moduli (GPa) = 34.82772 64.97242 48.38467
#
# Poissons Ratio (x) = 0.53809 -0.24223
# Poissons Ratio (y) = 0.28843 0.35048
# Poissons Ratio (z) = -0.17436 0.47064
#
# Static dielectric constant tensor:
#      x y z
#    x 1.682770 0.000000 0.003960 
#    y 0.000000 1.660560 0.000000 
#    z 0.003960 0.000000 1.687640 
# 
# From -- ./inp_files/380747.got.cif
#   From: 2010.05.17/outbox.cif.g08.bks.cpg/sg12_191_cif.got.tgz:380747.got - 2010.06.03 13:09:07.
