data_PCOD9204220
_publ_section_title
;
Structure prediction by ZEFSAII (Michael W. Deem and Ramdas Pophale) SiO2 
 PCOD9204220
Probable space group: C 2/M
;
_chemical_formula_sum "Si O2"
_cell_formula_units_Z 60
_cell_length_a 19.867631
_cell_length_b 17.111880
_cell_length_c 8.102893
_cell_angle_alpha 90.000000
_cell_angle_beta 91.214979
_cell_angle_gamma 90.000000
_cell_volume 2754.141592
_symmetry_space_group_name_H-M "C 2/M"
_symmetry_group_IT_number 12
_symmetry_cell_setting 'monoclinic'
loop_
_space_group_symop_operation_xyz
x,y,z
-x,y,-z
-x,-y,-z
x,-y,z
1/2+x,1/2+y,z
1/2-x,1/2+y,-z
1/2-x,1/2-y,-z
1/2+x,1/2-y,z
loop_
_atom_site_type_symbol
_atom_site_label
_atom_site_fract_x
_atom_site_fract_y
_atom_site_fract_z
Si Si1 0.355078 0.642906 0.299188
Si Si2 0.280293 0.792519 0.156739
Si Si3 0.992170 0.622493 0.808552
Si Si4 0.349769 0.683354 0.672749
Si Si5 0.501175 0.299364 0.298981
Si Si6 0.634556 0.084876 0.725796
Si Si7 0.347355 0.873917 0.650117
Si Si8 0.737262 0.500000 0.771202
O O1 0.315798 0.723427 0.259411
O O2 0.348908 0.640070 0.497423
O O3 0.433613 0.653204 0.257588
O O4 0.320522 0.569202 0.215402
O O5 0.217597 0.838167 0.234046
O O6 0.339005 0.855244 0.135717
O O7 0.250000 0.750000 0.000000
O O8 0.920366 0.604181 0.726143
O O9 0.003086 0.715293 0.786089
O O10 0.054479 0.585180 0.717279
O O11 0.000000 0.600770 0.000000
O O12 0.425056 0.668076 0.743999
O O13 0.342430 0.778997 0.665318
O O14 0.500000 0.287396 0.500000
O O15 0.657839 0.110480 0.545847
O O16 0.661459 0.000000 0.766885
O O17 0.293226 0.929628 0.734071
#
# Coordination Sequence:
#
# PCOD9204220 Si02
#       8
#     8   8   8   8   8   8   8   4
#     4  11  21  41  65  93 128 168 221 263 328 394
#     4  12  25  41  61  94 127 171 217 266 333 387
#     4  11  24  39  63  96 135 171 213 268 328 396
#     4  10  20  40  68  89 123 165 219 276 318 389
#     4   9  19  39  68  93 118 168 218 267 323 383
#     4  12  25  42  64  93 129 174 219 266 320 402
#     4  11  22  40  66  95 126 174 222 262 331 390
#     4  12  24  36  65  98 130 172 218 272 326 385
#
# _framework density 21.785371000000001
#
# number of rings (size 3 to 8) (size 9 to 14) (size 15 to 20)
#    0.000    1.067    4.667    3.200    4.667    0.800 
#    3.600    3.000    0.000    0.000    0.000    1.400 
#    0.000    0.000    0.000    0.000    0.000    0.000 
#
# Total GULP energy -167079.081942 kJ/mol
# GULP energy per Si atom -5569.302731 kJ/mol
# Density = 2.173579 g / cm^3
# Si number density = 21.785371 Si / 1000 Ang^3
#
#
#
# Elastic Constant Matrix: (Units=GPa)
#
#
# Indices 1 2 3 4 5 6 
#
# 1 132.0138 24.8533 10.5099 0.0000 11.5612 0.0000
# 2 24.8533 63.0484 -6.3849 0.0000 8.7465 0.0000
# 3 10.5099 -6.3849 29.9251 0.0000 16.0719 0.0000
# 4 0.0000 0.0000 0.0000 0.4739 0.0000 3.1153
# 5 11.5612 8.7465 16.0719 0.0000 18.2935 0.0000
# 6 0.0000 0.0000 0.0000 3.1153 0.0000 31.3522
#
#
#
# Elastic Compliance Matrix: (Units=1/GPa)
#
#
# Indices 1 2 3 4 5 6 
#
# 1 0.008593 -0.003642 -0.003433 0.000000 -0.000673 0.000000
# 2 -0.003642 0.023122 0.020664 0.000000 -0.026908 0.000000
# 3 -0.003433 0.020664 0.081742 0.000000 -0.079525 0.000000
# 4 0.000000 0.000000 0.000000 6.083498 0.000000 -0.604490
# 5 -0.000673 -0.026908 -0.079525 0.000000 0.137823 0.000000
# 6 0.000000 0.000000 0.000000 -0.604490 0.000000 0.091961
#
#
# Mechanical properties :
#
#
# Convention : Reuss Voigt Hill
#
# Bulk Modulus (GPa) = 7.11065 31.43822 19.27444
# Shear Modulus (GPa) = 0.77562 23.09118 11.93340
#
# Velocity S-wave (km/s) = 0.59733 3.25920 2.34299
# Velocity P-wave (km/s) = 1.93566 5.35027 4.02320
#
# Compressibility (1/GPa) = 0.14063409
#
# Stress axis : x y z
#
# Youngs Moduli (GPa) = 116.37627 43.24931 12.23360
#
# Poissons Ratio (x) = 0.15750 0.04200
# Poissons Ratio (y) = 0.42379 -0.25279
# Poissons Ratio (z) = 0.39957 -0.89369
#
# Static dielectric constant tensor:
#      x y z
#    x 1.831890 0.000000 0.005740 
#    y 0.000000 1.790830 0.000000 
#    z 0.005740 0.000000 1.840500 
# 
# From -- ./inp_files/88006.got.cif
#   From: 2010.05.17/outbox.cif.g08.bks.cpg/sg12_45_cif.got.tgz:88006.got - 2010.06.03 13:09:07.
