data_PCOD9204271
_publ_section_title
;
Structure prediction by ZEFSAII (Michael W. Deem and Ramdas Pophale) SiO2 
 PCOD9204271
Probable space group: C 2/M
;
_chemical_formula_sum "Si O2"
_cell_formula_units_Z 38
_cell_length_a 13.684403
_cell_length_b 17.122665
_cell_length_c 6.644995
_cell_angle_alpha 90.000000
_cell_angle_beta 101.591488
_cell_angle_gamma 90.000000
_cell_volume 1525.256612
_symmetry_space_group_name_H-M "C 2/M"
_symmetry_group_IT_number 12
_symmetry_cell_setting 'monoclinic'
loop_
_space_group_symop_operation_xyz
x,y,z
-x,y,-z
-x,-y,-z
x,-y,z
1/2+x,1/2+y,z
1/2-x,1/2+y,-z
1/2-x,1/2-y,-z
1/2+x,1/2-y,z
loop_
_atom_site_type_symbol
_atom_site_label
_atom_site_fract_x
_atom_site_fract_y
_atom_site_fract_z
Si Si1 0.000000 0.385445 0.500000
Si Si2 0.649065 0.194670 0.870134
Si Si3 0.028176 0.148182 0.785889
Si Si4 0.195399 0.175148 0.389633
Si Si5 0.327112 0.085201 0.735906
Si Si6 0.000000 0.000000 0.500000
O O1 0.068618 0.342704 0.689591
O O2 0.081215 0.421150 0.381831
O O3 0.753930 0.172089 0.808687
O O4 0.613189 0.285141 0.836396
O O5 0.650189 0.153029 0.089522
O O6 0.922924 0.184443 0.661248
O O7 0.042578 0.069550 0.668367
O O8 0.000000 0.124979 0.000000
O O9 0.250000 0.250000 0.500000
O O10 0.234408 0.106460 0.551160
O O11 0.313455 0.000000 0.829297
#
# Coordination Sequence:
#
# PCOD9204271 Si02
#       6
#     4   8   8   8   8   2
#     4  10  20  40  70 104 150 198 246 306 380 454
#     4  11  24  46  77 110 149 199 253 319 385 457
#     4  12  26  48  75 110 151 196 264 313 379 459
#     4  11  25  46  73 107 149 200 253 314 381 459
#     4  11  25  44  70 111 152 198 252 316 389 453
#     4  12  28  48  72 104 150 206 246 318 374 444
#
# _framework density 24.913838999999999
#
# number of rings (size 3 to 8) (size 9 to 14) (size 15 to 20)
#    0.000    0.842    0.000    8.211    1.474   10.105 
#    0.000    0.000    0.000    0.000    0.000    0.000 
#    0.000    0.000    0.000    0.000    0.000    0.000 
#
# Total GULP energy -105904.176359 kJ/mol
# GULP energy per Si atom -5573.904019 kJ/mol
# Density = 2.485713 g / cm^3
# Si number density = 24.913839 Si / 1000 Ang^3
#
#
#
# Elastic Constant Matrix: (Units=GPa)
#
#
# Indices 1 2 3 4 5 6 
#
# 1 132.4136 34.7954 51.0636 0.0000 12.3686 0.0000
# 2 34.7954 166.3734 80.3152 0.0000 0.4510 0.0000
# 3 51.0636 80.3152 174.3290 0.0000 5.4795 0.0000
# 4 0.0000 0.0000 0.0000 25.3533 0.0000 19.3530
# 5 12.3686 0.4510 5.4795 0.0000 60.5233 0.0000
# 6 0.0000 0.0000 0.0000 19.3530 0.0000 -60.9028
#
#
#
# Elastic Compliance Matrix: (Units=1/GPa)
#
#
# Indices 1 2 3 4 5 6 
#
# 1 0.008734 -0.000786 -0.002146 0.000000 -0.001585 0.000000
# 2 -0.000786 0.007805 -0.003378 0.000000 0.000408 0.000000
# 3 -0.002146 -0.003378 0.007929 0.000000 -0.000254 0.000000
# 4 0.000000 0.000000 0.000000 0.031743 0.000000 0.010087
# 5 -0.001585 0.000408 -0.000254 0.000000 0.016866 0.000000
# 6 0.000000 0.000000 0.000000 0.010087 0.000000 -0.013214
#
#
# Mechanical properties :
#
#
# Convention : Reuss Voigt Hill
#
# Bulk Modulus (GPa) = 84.41149 89.49603 86.95376
# Shear Modulus (GPa) = 65.41558 25.45754 45.43656
#
# Velocity S-wave (km/s) = 5.12969 3.20006 4.27517
# Velocity P-wave (km/s) = 8.30902 7.04657 7.70370
#
# Compressibility (1/GPa) = 0.01184673
#
# Stress axis : x y z
#
# Youngs Moduli (GPa) = 114.48886 128.12752 126.11344
#
# Poissons Ratio (x) = 0.10074 0.27069
# Poissons Ratio (y) = 0.09002 0.42604
# Poissons Ratio (z) = 0.24574 0.43285
#
# Static dielectric constant tensor:
#      x y z
#    x 2.041100 0.000000 -0.056620 
#    y 0.000000 2.091470 0.000000 
#    z -0.056620 0.000000 2.023200 
# 
# From -- ./inp_files/15331.got.cif
#   From: 2010.05.17/outbox.cif.g08.bks.cpg/sg12_8_cif.got.tgz:15331.got - 2010.06.03 13:09:07.
