data_PCOD9204500
_publ_section_title
;
Structure prediction by ZEFSAII (Michael W. Deem and Ramdas Pophale) SiO2 
 PCOD9204500
Probable space group: C 2/M
;
_chemical_formula_sum "Si O2"
_cell_formula_units_Z 40
_cell_length_a 9.257700
_cell_length_b 27.185564
_cell_length_c 16.021342
_cell_angle_alpha 90.000000
_cell_angle_beta 29.879881
_cell_angle_gamma 90.000000
_cell_volume 2008.766749
_symmetry_space_group_name_H-M "C 2/M"
_symmetry_group_IT_number 12
_symmetry_cell_setting 'monoclinic'
loop_
_space_group_symop_operation_xyz
x,y,z
-x,y,-z
-x,-y,-z
x,-y,z
1/2+x,1/2+y,z
1/2-x,1/2+y,-z
1/2-x,1/2-y,-z
1/2+x,1/2-y,z
loop_
_atom_site_type_symbol
_atom_site_label
_atom_site_fract_x
_atom_site_fract_y
_atom_site_fract_z
Si Si1 0.107776 0.787562 0.636397
Si Si2 0.696315 0.100158 0.479825
Si Si3 0.830990 0.442212 0.168480
Si Si4 0.045006 0.726459 0.820374
Si Si5 0.853682 0.624796 0.314568
O O1 0.250000 0.750000 0.500000
O O2 0.211508 0.842916 0.576162
O O3 0.172305 0.767826 0.695592
O O4 0.766804 0.786160 0.783204
O O5 0.500000 0.086105 0.500000
O O6 0.554279 0.101204 0.643335
O O7 0.987930 0.068069 0.332248
O O8 0.883881 0.500000 0.154123
O O9 0.920512 0.411150 0.204518
O O10 0.000000 0.426322 0.000000
O O11 0.018688 0.677822 0.775283
O O12 0.750000 0.750000 0.000000
O O13 0.500000 0.631096 0.500000
#
# Coordination Sequence:
#
# PCOD9204500 Si02
#       5
#     8   8   8   8   8
#     4  12  22  40  58  85 129 170 213 253 311 374
#     4  11  23  40  67  94 126 171 215 269 310 379
#     4  10  23  44  71  97 126 164 210 270 333 382
#     4  12  24  36  57  91 124 167 211 260 311 373
#     4  10  20  42  64  89 129 169 218 258 313 386
#
# _framework density 19.912716
#
# number of rings (size 3 to 8) (size 9 to 14) (size 15 to 20)
#    0.000    1.000    6.000    2.400    2.800    4.000 
#    0.000    1.000    0.000    2.400    0.000    0.000 
#    0.000    0.000    0.000    0.000    0.000    0.000 
#
# Total GULP energy -111731.828871 kJ/mol
# GULP energy per Si atom -5586.591444 kJ/mol
# Density = 1.986739 g / cm^3
# Si number density = 19.912716 Si / 1000 Ang^3
#
#
#
# Elastic Constant Matrix: (Units=GPa)
#
#
# Indices 1 2 3 4 5 6 
#
# 1 114.8223 5.1539 28.6550 0.0000 21.8186 0.0000
# 2 5.1539 58.7746 33.9113 0.0000 26.1457 0.0000
# 3 28.6550 33.9113 98.1856 0.0000 27.6278 0.0000
# 4 0.0000 0.0000 0.0000 33.6720 0.0000 5.3104
# 5 21.8186 26.1457 27.6278 0.0000 34.0969 0.0000
# 6 0.0000 0.0000 0.0000 5.3104 0.0000 24.9400
#
#
#
# Elastic Compliance Matrix: (Units=1/GPa)
#
#
# Indices 1 2 3 4 5 6 
#
# 1 0.010599 0.003887 -0.002187 0.000000 -0.007991 0.000000
# 2 0.003887 0.028756 -0.005391 0.000000 -0.020170 0.000000
# 3 -0.002187 -0.005391 0.014414 0.000000 -0.006146 0.000000
# 4 0.000000 0.000000 0.000000 0.030730 0.000000 -0.006543
# 5 -0.007991 -0.020170 -0.006146 0.000000 0.054888 0.000000
# 6 0.000000 0.000000 0.000000 -0.006543 0.000000 0.041489
#
#
# Mechanical properties :
#
#
# Convention : Reuss Voigt Hill
#
# Bulk Modulus (GPa) = 21.55743 45.24701 33.40222
# Shear Modulus (GPa) = 24.54331 32.14594 28.34462
#
# Velocity S-wave (km/s) = 3.51457 4.02225 3.77695
# Velocity P-wave (km/s) = 5.22676 6.65908 5.98591
#
# Compressibility (1/GPa) = 0.04638771
#
# Stress axis : x y z
#
# Youngs Moduli (GPa) = 94.34945 34.77523 69.37460
#
# Poissons Ratio (x) = -0.13518 0.15175
# Poissons Ratio (y) = -0.36676 0.37398
# Poissons Ratio (z) = 0.20638 0.18747
#
# Static dielectric constant tensor:
#      x y z
#    x 1.781220 0.000000 -0.109720 
#    y 0.000000 1.666780 0.000000 
#    z -0.109720 0.000000 1.986510 
# 
# From -- ./inp_files/68735.got.cif
#   From: 2010.05.17/outbox.cif.g08.bks.cpg/sg12_35_cif.got.tgz:68735.got - 2010.06.03 13:09:07.
