data_PCOD9204819
_publ_section_title
;
Structure prediction by ZEFSAII (Michael W. Deem and Ramdas Pophale) SiO2 
 PCOD9204819
Probable space group: C 2/M
;
_chemical_formula_sum "Si O2"
_cell_formula_units_Z 56
_cell_length_a 5.406681
_cell_length_b 27.698151
_cell_length_c 16.009160
_cell_angle_alpha 90.000000
_cell_angle_beta 79.899807
_cell_angle_gamma 90.000000
_cell_volume 2360.298513
_symmetry_space_group_name_H-M "C 2/M"
_symmetry_group_IT_number 12
_symmetry_cell_setting 'monoclinic'
loop_
_space_group_symop_operation_xyz
x,y,z
-x,y,-z
-x,-y,-z
x,-y,z
1/2+x,1/2+y,z
1/2-x,1/2+y,-z
1/2-x,1/2-y,-z
1/2+x,1/2-y,z
loop_
_atom_site_type_symbol
_atom_site_label
_atom_site_fract_x
_atom_site_fract_y
_atom_site_fract_z
Si Si1 0.445362 0.271636 0.361673
Si Si2 0.996381 0.444694 0.244079
Si Si3 0.225870 0.942809 0.551614
Si Si4 0.238117 0.551650 0.925542
Si Si5 0.441103 0.730599 0.158788
Si Si6 0.568453 0.625337 0.843753
Si Si7 0.592601 0.622291 0.326997
O O1 0.648986 0.237354 0.395580
O O2 0.438804 0.262303 0.260632
O O3 0.549230 0.325885 0.372408
O O4 0.047120 0.500000 0.269411
O O5 0.840579 0.449625 0.166997
O O6 0.831847 0.413327 0.319243
O O7 0.229829 0.413565 0.198667
O O8 0.500000 0.931201 0.500000
O O9 0.000000 0.932386 0.500000
O O10 0.143782 0.910861 0.634619
O O11 0.217536 0.000000 0.569259
O O12 0.368573 0.500000 0.931932
O O13 0.405592 0.598650 0.921886
O O14 0.000000 0.554075 0.000000
O O15 0.739504 0.734920 0.125233
O O16 0.333320 0.677917 0.141419
O O17 0.405649 0.635870 0.770454
#
# Coordination Sequence:
#
# PCOD9204819 Si02
#       7
#     8   8   8   8   8   8   8
#     4   9  19  32  54  84 115 145 189 236 285 344
#     4  10  21  34  54  86 116 145 190 239 289 345
#     4  10  23  41  60  84 115 157 201 236 282 350
#     4   9  19  36  54  78 115 153 190 233 285 352
#     4   9  19  32  54  81 115 147 187 239 287 341
#     4  10  21  33  57  86 113 148 192 240 296 342
#     4  10  22  36  59  83 116 151 188 240 297 336
#
# _framework density 23.725814
#
# number of rings (size 3 to 8) (size 9 to 14) (size 15 to 20)
#    0.000    2.429    0.000    0.857   14.000    2.286 
#    0.000    2.143    0.000    3.429    0.000    0.000 
#    0.000    0.000    0.000    0.000    0.000    0.000 
#
# Total GULP energy -156064.909783 kJ/mol
# GULP energy per Si atom -5573.746778 kJ/mol
# Density = 2.367181 g / cm^3
# Si number density = 23.725814 Si / 1000 Ang^3
#
#
#
# Elastic Constant Matrix: (Units=GPa)
#
#
# Indices 1 2 3 4 5 6 
#
# 1 118.0935 41.4758 18.2775 0.0000 -8.6696 0.0000
# 2 41.4758 110.8786 9.3700 0.0000 -17.4371 0.0000
# 3 18.2775 9.3700 48.3870 0.0000 1.3097 0.0000
# 4 0.0000 0.0000 0.0000 20.7434 0.0000 12.1879
# 5 -8.6696 -17.4371 1.3097 0.0000 32.1330 0.0000
# 6 0.0000 0.0000 0.0000 12.1879 0.0000 -12.0439
#
#
#
# Elastic Compliance Matrix: (Units=1/GPa)
#
#
# Indices 1 2 3 4 5 6 
#
# 1 0.010237 -0.003390 -0.003239 0.000000 0.001055 0.000000
# 2 -0.003390 0.011192 -0.001028 0.000000 0.005200 0.000000
# 3 -0.003239 -0.001028 0.022152 0.000000 -0.002334 0.000000
# 4 0.000000 0.000000 0.000000 0.030232 0.000000 0.030594
# 5 0.001055 0.005200 -0.002334 0.000000 0.034322 0.000000
# 6 0.000000 0.000000 0.000000 0.030594 0.000000 -0.052070
#
#
# Mechanical properties :
#
#
# Convention : Reuss Voigt Hill
#
# Bulk Modulus (GPa) = 35.37530 46.17840 40.77685
# Shear Modulus (GPa) = 61.88009 22.04890 41.96450
#
# Velocity S-wave (km/s) = 5.11253 3.05178 4.21019
# Velocity P-wave (km/s) = 7.05642 5.65008 6.39205
#
# Compressibility (1/GPa) = 0.02826831
#
# Stress axis : x y z
#
# Youngs Moduli (GPa) = 97.68374 89.35327 45.14192
#
# Poissons Ratio (x) = 0.30289 0.14622
# Poissons Ratio (y) = 0.33113 0.04638
# Poissons Ratio (z) = 0.31640 0.09181
#
# Static dielectric constant tensor:
#      x y z
#    x 2.001910 0.000000 0.045520 
#    y 0.000000 1.954670 0.000000 
#    z 0.045520 0.000000 1.966300 
# 
# From -- ./inp_files/253608.got.cif
#   From: 2010.05.17/outbox.cif.g08.bks.cpg/sg12_127_cif.got.tgz:253608.got - 2010.06.03 13:09:07.
