data_PCOD9204358
_publ_section_title
;
Structure prediction by ZEFSAII (Michael W. Deem and Ramdas Pophale) SiO2 
 PCOD9204358
Probable space group: C 2/M
;
_chemical_formula_sum "Si O2"
_cell_formula_units_Z 50
_cell_length_a 24.546664
_cell_length_b 7.469099
_cell_length_c 12.361609
_cell_angle_alpha 90.000000
_cell_angle_beta 117.595999
_cell_angle_gamma 90.000000
_cell_volume 2008.561109
_symmetry_space_group_name_H-M "C 2/M"
_symmetry_group_IT_number 12
_symmetry_cell_setting 'monoclinic'
loop_
_space_group_symop_operation_xyz
x,y,z
-x,y,-z
-x,-y,-z
x,-y,z
1/2+x,1/2+y,z
1/2-x,1/2+y,-z
1/2-x,1/2-y,-z
1/2+x,1/2-y,z
loop_
_atom_site_type_symbol
_atom_site_label
_atom_site_fract_x
_atom_site_fract_y
_atom_site_fract_z
Si Si1 0.126225 0.292077 0.438078
Si Si2 0.931612 0.201405 0.058835
Si Si3 0.718066 0.217678 0.704192
Si Si4 0.490020 0.701923 0.325959
Si Si5 0.643557 0.717914 0.203722
Si Si6 0.819077 0.287623 0.100594
Si Si7 0.000000 0.500000 0.500000
O O1 0.113099 0.500000 0.455539
O O2 0.183457 0.230069 0.562637
O O3 0.063301 0.194120 0.404973
O O4 0.138527 0.275850 0.322647
O O5 0.867390 0.197627 0.065888
O O6 0.976722 0.275135 0.192169
O O7 0.954170 0.000000 0.058752
O O8 0.911331 0.282276 0.925506
O O9 0.788891 0.277230 0.774082
O O10 0.679984 0.274028 0.774245
O O11 0.720467 0.000000 0.708408
O O12 0.465160 0.500000 0.313011
O O13 0.468696 0.843009 0.394393
O O14 0.641619 0.500000 0.198565
O O15 0.830843 0.500000 0.106587
O O16 0.750000 0.250000 0.000000
#
# Coordination Sequence:
#
# PCOD9204358 Si02
#       7
#     8   8   8   8   8   8   2
#     4  11  23  41  63  96 132 173 226 275 328 399
#     4  10  23  42  65  94 129 171 222 273 333 397
#     4   9  20  37  61  89 127 172 215 272 338 393
#     4  11  26  46  70 102 134 177 223 273 335 397
#     4  10  20  41  65  89 128 175 221 277 333 395
#     4  11  21  36  61  91 128 167 212 267 333 400
#     4  12  26  48  72  96 140 172 222 272 330 394
#
# _framework density 24.893442
#
# number of rings (size 3 to 8) (size 9 to 14) (size 15 to 20)
#    0.000    1.600    2.400    1.680    3.360    1.280 
#    0.000    6.400    0.000    0.000    0.000    0.000 
#    0.000    0.000    0.000    0.000    0.000    0.000 
#
# Total GULP energy -139611.065264 kJ/mol
# GULP energy per Si atom -5584.442611 kJ/mol
# Density = 2.483678 g / cm^3
# Si number density = 24.893442 Si / 1000 Ang^3
#
#
#
# Elastic Constant Matrix: (Units=GPa)
#
#
# Indices 1 2 3 4 5 6 
#
# 1 36.1796 6.8405 -2.6221 0.0000 -6.9728 0.0000
# 2 6.8405 110.2579 27.4775 0.0000 0.8809 0.0000
# 3 -2.6221 27.4775 206.0668 0.0000 -6.0983 0.0000
# 4 0.0000 0.0000 0.0000 5.2901 0.0000 -2.7411
# 5 -6.9728 0.8809 -6.0983 0.0000 44.1186 0.0000
# 6 0.0000 0.0000 0.0000 -2.7411 0.0000 12.5538
#
#
#
# Elastic Compliance Matrix: (Units=1/GPa)
#
#
# Indices 1 2 3 4 5 6 
#
# 1 0.028992 -0.002031 0.000780 0.000000 0.004730 0.000000
# 2 -0.002031 0.009529 -0.001317 0.000000 -0.000693 0.000000
# 3 0.000780 -0.001317 0.005063 0.000000 0.000849 0.000000
# 4 0.000000 0.000000 0.000000 0.213149 0.000000 0.046541
# 5 0.004730 -0.000693 0.000849 0.000000 0.023545 0.000000
# 6 0.000000 0.000000 0.000000 0.046541 0.000000 0.089819
#
#
# Mechanical properties :
#
#
# Convention : Reuss Voigt Hill
#
# Bulk Modulus (GPa) = 26.00873 46.21068 36.10970
# Shear Modulus (GPa) = 12.88493 33.77974 23.33233
#
# Velocity S-wave (km/s) = 2.27756 3.68771 3.06484
# Velocity P-wave (km/s) = 4.16978 6.06102 5.20207
#
# Compressibility (1/GPa) = 0.03844863
#
# Stress axis : x y z
#
# Youngs Moduli (GPa) = 34.49224 104.93846 197.49302
#
# Poissons Ratio (x) = 0.21311 -0.15398
# Poissons Ratio (y) = 0.07005 0.26010
# Poissons Ratio (z) = -0.02689 0.13821
#
# Static dielectric constant tensor:
#      x y z
#    x 1.987280 0.000000 -0.030510 
#    y 0.000000 2.064300 0.000000 
#    z -0.030510 0.000000 1.989130 
# 
# From -- ./inp_files/181185.got.cif
#   From: 2010.05.17/outbox.cif.g08.bks.cpg/sg12_91_cif.got.tgz:181185.got - 2010.06.03 13:09:07.
