data_PCOD9204825
_publ_section_title
;
Structure prediction by ZEFSAII (Michael W. Deem and Ramdas Pophale) SiO2 
 PCOD9204825
Probable space group: C 2/M
;
_chemical_formula_sum "Si O2"
_cell_formula_units_Z 60
_cell_length_a 21.995481
_cell_length_b 14.248173
_cell_length_c 22.771929
_cell_angle_alpha 90.000000
_cell_angle_beta 24.043338
_cell_angle_gamma 90.000000
_cell_volume 2907.654691
_symmetry_space_group_name_H-M "C 2/M"
_symmetry_group_IT_number 12
_symmetry_cell_setting 'monoclinic'
loop_
_space_group_symop_operation_xyz
x,y,z
-x,y,-z
-x,-y,-z
x,-y,z
1/2+x,1/2+y,z
1/2-x,1/2+y,-z
1/2-x,1/2-y,-z
1/2+x,1/2-y,z
loop_
_atom_site_type_symbol
_atom_site_label
_atom_site_fract_x
_atom_site_fract_y
_atom_site_fract_z
Si Si1 0.650740 0.389857 0.599385
Si Si2 0.355011 0.894424 0.303771
Si Si3 0.167563 0.191538 0.860819
Si Si4 0.162042 0.394860 0.197057
Si Si5 0.729200 0.500000 0.737823
Si Si6 0.578264 0.229983 0.165598
Si Si7 0.155128 0.821515 0.384358
Si Si8 0.366027 0.140860 0.520334
O O1 0.609427 0.500000 0.641414
O O2 0.737501 0.378303 0.461155
O O3 0.511296 0.320013 0.730590
O O4 0.766312 0.365691 0.549896
O O5 0.480750 0.814815 0.199297
O O6 0.271171 0.886754 0.315740
O O7 0.414951 0.000000 0.258759
O O8 0.215462 0.176532 0.886069
O O9 0.178796 0.084964 0.826517
O O10 0.272334 0.263242 0.733150
O O11 0.000000 0.224367 0.000000
O O12 0.218051 0.500000 0.136707
O O13 0.084473 0.351254 0.208995
O O14 0.030923 0.396944 0.361321
O O15 0.787681 0.579940 0.639133
O O16 0.750000 0.250000 0.000000
O O17 0.118444 0.743858 0.466739
O O18 0.000000 0.865497 0.500000
#
# Coordination Sequence:
#
# PCOD9204825 Si02
#       8
#     8   8   8   8   4   8   8   8
#     4  11  22  42  69  94 125 167 219 272 326 381
#     4  11  24  44  70  95 127 170 224 281 325 379
#     4  11  25  39  57  91 132 174 210 256 327 399
#     4  12  23  39  65  93 130 168 214 266 323 390
#     4  10  21  33  58  90 134 158 209 256 323 393
#     4  12  27  42  64  98 134 175 216 265 327 398
#     4  11  23  39  65  93 124 169 216 270 328 388
#     4  11  19  36  63  96 123 160 209 269 321 380
#
# _framework density 20.635187999999999
#
# number of rings (size 3 to 8) (size 9 to 14) (size 15 to 20)
#    0.000    0.800    6.000    1.800    1.867    1.867 
#    0.000    0.000    0.000    0.400    0.000    0.000 
#    0.000    0.000    0.000    0.000    0.000    0.000 
#
# Total GULP energy -167103.142715 kJ/mol
# GULP energy per Si atom -5570.104757 kJ/mol
# Density = 2.058822 g / cm^3
# Si number density = 20.635188 Si / 1000 Ang^3
#
#
#
# Elastic Constant Matrix: (Units=GPa)
#
#
# Indices 1 2 3 4 5 6 
#
# 1 61.3038 13.2738 21.0152 0.0014 -23.4748 -0.0003
# 2 13.2738 78.9492 27.5551 -0.0011 -6.1661 0.0001
# 3 21.0152 27.5551 85.1004 -0.0005 -21.5655 0.0010
# 4 0.0014 -0.0011 -0.0005 8.6920 -0.0001 -3.0774
# 5 -23.4748 -6.1661 -21.5655 -0.0001 26.1920 -0.0005
# 6 -0.0003 0.0001 0.0010 -3.0774 -0.0005 13.1056
#
#
#
# Elastic Compliance Matrix: (Units=1/GPa)
#
#
# Indices 1 2 3 4 5 6 
#
# 1 0.025326 -0.002599 0.000233 -0.000004 0.022279 0.000000
# 2 -0.002599 0.014554 -0.004793 0.000002 -0.002850 0.000001
# 3 0.000233 -0.004793 0.016443 0.000000 0.012619 -0.000001
# 4 -0.000004 0.000002 0.000000 0.125481 -0.000002 0.029465
# 5 0.022279 -0.002850 0.012619 -0.000002 0.067867 0.000001
# 6 0.000000 0.000001 -0.000001 0.029465 0.000001 0.083223
#
#
# Mechanical properties :
#
#
# Convention : Reuss Voigt Hill
#
# Bulk Modulus (GPa) = 23.80663 38.78239 31.29451
# Shear Modulus (GPa) = 13.84227 20.49853 17.17040
#
# Velocity S-wave (km/s) = 2.59281 3.15521 2.88773
# Velocity P-wave (km/s) = 4.53051 5.66647 5.13003
#
# Compressibility (1/GPa) = 0.04200510
#
# Stress axis : x y z
#
# Youngs Moduli (GPa) = 39.48472 68.71157 60.81647
#
# Poissons Ratio (x) = 0.17862 -0.01419
# Poissons Ratio (y) = 0.10264 0.29147
# Poissons Ratio (z) = -0.00921 0.32931
#
# Static dielectric constant tensor:
#      x y z
#    x 1.775310 0.000000 -0.028140 
#    y 0.000000 1.745860 0.000000 
#    z -0.028140 0.000000 1.756630 
# 
# From -- ./inp_files/368149.got.cif
#   From: 2010.05.17/outbox.cif.g08.bks.cpg/sg12_185_cif.got.tgz:368149.got - 2010.06.03 13:09:07.
