data_PCOD9204338
_publ_section_title
;
Structure prediction by ZEFSAII (Michael W. Deem and Ramdas Pophale) SiO2 
 PCOD9204338
Probable space group: C 2/M
;
_chemical_formula_sum "Si O2"
_cell_formula_units_Z 64
_cell_length_a 19.426122
_cell_length_b 25.540736
_cell_length_c 15.834093
_cell_angle_alpha 90.000000
_cell_angle_beta 23.266685
_cell_angle_gamma 90.000000
_cell_volume 3103.289842
_symmetry_space_group_name_H-M "C 2/M"
_symmetry_group_IT_number 12
_symmetry_cell_setting 'monoclinic'
loop_
_space_group_symop_operation_xyz
x,y,z
-x,y,-z
-x,-y,-z
x,-y,z
1/2+x,1/2+y,z
1/2-x,1/2+y,-z
1/2-x,1/2-y,-z
1/2+x,1/2-y,z
loop_
_atom_site_type_symbol
_atom_site_label
_atom_site_fract_x
_atom_site_fract_y
_atom_site_fract_z
Si Si1 0.494347 0.440010 0.905809
Si Si2 0.597576 0.132076 0.141192
Si Si3 0.139080 0.059891 0.474199
Si Si4 0.597106 0.229548 0.305284
Si Si5 0.116459 0.603663 0.292415
Si Si6 0.410915 0.708612 0.850880
Si Si7 0.284968 0.367258 0.453229
Si Si8 0.746597 0.059347 0.844064
O O1 0.489456 0.500000 0.879953
O O2 0.654955 0.408221 0.686278
O O3 0.500000 0.440945 0.000000
O O4 0.316449 0.410263 0.082589
O O5 0.582205 0.089173 0.234053
O O6 0.405493 0.155455 0.348826
O O7 0.763796 0.168636 0.976837
O O8 0.630576 0.102586 0.017424
O O9 0.194584 0.100819 0.482244
O O10 0.232044 0.067687 0.279548
O O11 0.934509 0.063659 0.679317
O O12 0.170951 0.000000 0.466437
O O13 0.500000 0.249661 0.500000
O O14 0.579153 0.166421 0.330886
O O15 0.527028 0.256435 0.298520
O O16 0.804402 0.235845 0.048467
O O17 0.000000 0.581638 0.500000
O O18 0.571627 0.677669 0.705935
O O19 0.683644 0.000000 0.927788
#
# Coordination Sequence:
#
# PCOD9204338 Si02
#       8
#     8   8   8   8   8   8   8   8
#     4  11  23  39  61  92 128 164 209 258 307 369
#     4  11  22  36  60  89 120 161 203 253 305 370
#     4   9  18  34  56  80 115 161 206 250 306 368
#     4   9  19  39  70  89 118 167 202 251 319 377
#     4  10  20  41  64  88 122 161 205 251 316 371
#     4  10  21  41  62  91 124 156 204 256 309 371
#     4  12  22  38  61  88 125 164 200 254 312 361
#     4   9  18  34  55  81 113 160 209 248 304 368
#
# _framework density 20.623273999999999
#
# number of rings (size 3 to 8) (size 9 to 14) (size 15 to 20)
#    0.000    1.875    3.750    1.875    0.000    4.250 
#    0.000    6.875    2.750    0.000    0.000    0.000 
#    0.000    0.000    0.000    0.000    0.000    0.000 
#
# Total GULP energy -178273.523155 kJ/mol
# GULP energy per Si atom -5571.047599 kJ/mol
# Density = 2.057633 g / cm^3
# Si number density = 20.623274 Si / 1000 Ang^3
#
#
#
# Elastic Constant Matrix: (Units=GPa)
#
#
# Indices 1 2 3 4 5 6 
#
# 1 65.0063 22.5046 30.6196 -0.0139 9.8867 0.0120
# 2 22.5046 44.8316 30.8418 -0.0473 9.2458 0.0348
# 3 30.6196 30.8418 104.1454 -0.0599 6.1210 0.0407
# 4 -0.0139 -0.0473 -0.0599 6.6628 0.0127 6.4526
# 5 9.8867 9.2458 6.1210 0.0127 36.7592 -0.0030
# 6 0.0120 0.0348 0.0407 6.4526 -0.0030 25.1652
#
#
#
# Elastic Compliance Matrix: (Units=1/GPa)
#
#
# Indices 1 2 3 4 5 6 
#
# 1 0.019943 -0.006876 -0.003649 -0.000053 -0.003027 0.000019
# 2 -0.006876 0.031628 -0.007055 0.000246 -0.004931 -0.000093
# 3 -0.003649 -0.007055 0.012727 0.000086 0.000637 -0.000031
# 4 -0.000053 0.000246 0.000086 0.199675 -0.000135 -0.051199
# 5 -0.003027 -0.004931 0.000637 -0.000135 0.029152 0.000045
# 6 0.000019 -0.000093 -0.000031 -0.051199 0.000045 0.052866
#
#
# Mechanical properties :
#
#
# Convention : Reuss Voigt Hill
#
# Bulk Modulus (GPa) = 34.32045 42.43502 38.37773
# Shear Modulus (GPa) = 12.79220 22.38526 17.58873
#
# Velocity S-wave (km/s) = 2.49324 3.29817 2.92354
# Velocity P-wave (km/s) = 4.99661 5.92662 5.48137
#
# Compressibility (1/GPa) = 0.02913715
#
# Stress axis : x y z
#
# Youngs Moduli (GPa) = 50.14350 31.61752 78.57534
#
# Poissons Ratio (x) = 0.21741 0.28673
# Poissons Ratio (y) = 0.34481 0.55432
# Poissons Ratio (z) = 0.18298 0.22305
#
# Static dielectric constant tensor:
#      x y z
#    x 1.758410 -0.000040 0.037670 
#    y -0.000040 1.788820 0.000090 
#    z 0.037670 0.000090 1.771370 
# 
# From -- ./inp_files/286661.got.cif
#   From: 2010.05.17/outbox.cif.g08.bks.cpg/sg12_144_cif.got.tgz:286661.got - 2010.06.03 13:09:07.
