data_PCOD9204096
_publ_section_title
;
Structure prediction by ZEFSAII (Michael W. Deem and Ramdas Pophale) SiO2 
 PCOD9204096
Probable space group: C 2/M
;
_chemical_formula_sum "Si O2"
_cell_formula_units_Z 56
_cell_length_a 28.160679
_cell_length_b 8.898484
_cell_length_c 11.863596
_cell_angle_alpha 90.000000
_cell_angle_beta 74.202878
_cell_angle_gamma 90.000000
_cell_volume 2860.586873
_symmetry_space_group_name_H-M "C 2/M"
_symmetry_group_IT_number 12
_symmetry_cell_setting 'monoclinic'
loop_
_space_group_symop_operation_xyz
x,y,z
-x,y,-z
-x,-y,-z
x,-y,z
1/2+x,1/2+y,z
1/2-x,1/2+y,-z
1/2-x,1/2-y,-z
1/2+x,1/2-y,z
loop_
_atom_site_type_symbol
_atom_site_label
_atom_site_fract_x
_atom_site_fract_y
_atom_site_fract_z
Si Si1 0.713868 0.822112 0.614941
Si Si2 0.558355 0.820792 0.476131
Si Si3 0.479314 0.179851 0.136764
Si Si4 0.674199 0.324864 0.075998
Si Si5 0.754064 0.174941 0.178955
Si Si6 0.422313 0.178875 0.790844
Si Si7 0.105608 0.821139 0.667256
O O1 0.750000 0.750000 0.500000
O O2 0.736005 0.778925 0.721612
O O3 0.659447 0.751620 0.642103
O O4 0.711048 0.000000 0.601265
O O5 0.500000 0.792094 0.500000
O O6 0.581599 0.785221 0.339241
O O7 0.581614 0.731913 0.564509
O O8 0.564122 0.000000 0.493795
O O9 0.523034 0.210271 0.198020
O O10 0.430496 0.262781 0.210413
O O11 0.469999 0.000000 0.142337
O O12 0.500000 0.221219 0.000000
O O13 0.677252 0.500000 0.105553
O O14 0.705324 0.225750 0.143893
O O15 0.618472 0.268457 0.113818
O O16 0.701061 0.308477 0.938665
O O17 0.750588 0.000000 0.214568
O O18 0.414408 0.000000 0.809544
O O19 0.109442 0.000000 0.668884
#
# Coordination Sequence:
#
# PCOD9204096 Si02
#       7
#     8   8   8   8   8   8   8
#     4  12  27  47  70  94 126 167 214 266 323 386
#     4  10  20  40  65  88 122 164 210 258 307 366
#     4  10  22  42  66  95 129 171 219 262 314 381
#     4  10  22  39  63  94 129 166 207 261 318 375
#     4  10  22  43  66  92 126 165 211 261 318 379
#     4  10  21  37  62  93 125 164 212 263 315 373
#     4  12  26  43  65  95 131 169 212 263 320 382
#
# _framework density 19.576401000000001
#
# number of rings (size 3 to 8) (size 9 to 14) (size 15 to 20)
#    0.000    1.429    1.429    3.429    4.000    3.429 
#    0.000    0.000    0.000    0.000    0.000    0.000 
#    0.000    0.000    0.000    0.000    0.000    0.000 
#
# Total GULP energy -156583.107722 kJ/mol
# GULP energy per Si atom -5592.253847 kJ/mol
# Density = 1.953184 g / cm^3
# Si number density = 19.576401 Si / 1000 Ang^3
#
#
#
# Elastic Constant Matrix: (Units=GPa)
#
#
# Indices 1 2 3 4 5 6 
#
# 1 62.2720 47.3447 46.3970 0.0000 -22.8946 0.0000
# 2 47.3447 104.2145 58.3360 0.0000 -14.4360 0.0000
# 3 46.3970 58.3360 86.3205 0.0000 -4.6809 0.0000
# 4 0.0000 0.0000 0.0000-2100.0354 0.0000-1291.2682
# 5 -22.8946 -14.4360 -4.6809 0.0000 31.9999 0.0000
# 6 0.0000 0.0000 0.0000-1291.2682 0.0000 -749.5326
#
#
#
# Elastic Compliance Matrix: (Units=1/GPa)
#
#
# Indices 1 2 3 4 5 6 
#
# 1 0.043494 -0.006263 -0.017752 0.000000 0.025696 0.000000
# 2 -0.006263 0.017352 -0.008245 0.000000 0.002141 0.000000
# 3 -0.017752 -0.008245 0.026014 0.000000 -0.012615 0.000000
# 4 0.000000 0.000000 0.000000 0.008031 0.000000 -0.013836
# 5 0.025696 0.002141 -0.012615 0.000000 0.048755 0.000000
# 6 0.000000 0.000000 0.000000 -0.013836 0.000000 0.022502
#
#
# Mechanical properties :
#
#
# Convention : Reuss Voigt Hill
#
# Bulk Modulus (GPa) = 44.75938 61.88473 53.32206
# Shear Modulus (GPa) = 20.99835 -556.79834 -267.89999
#
# Velocity S-wave (km/s) = 3.27867 -16.88315 -11.71091
# Velocity P-wave (km/s) = 6.10299 18.66477 12.47252
#
# Compressibility (1/GPa) = 0.02234168
#
# Stress axis : x y z
#
# Youngs Moduli (GPa) = 22.99178 57.62865 38.44092
#
# Poissons Ratio (x) = 0.36092 0.68240
# Poissons Ratio (y) = 0.14399 0.31693
# Poissons Ratio (z) = 0.40815 0.47512
#
# Static dielectric constant tensor:
#      x y z
#    x 1.656370 0.000000 -0.001450 
#    y 0.000000 1.653430 0.000000 
#    z -0.001450 0.000000 1.685470 
# 
# From -- ./inp_files/180860.got.cif
#   From: 2010.05.17/outbox.cif.g08.bks.cpg/sg12_91_cif.got.tgz:180860.got - 2010.06.03 13:09:07.
