data_PCOD9204838
_publ_section_title
;
Structure prediction by ZEFSAII (Michael W. Deem and Ramdas Pophale) SiO2 
 PCOD9204838
Probable space group: C 2/M
;
_chemical_formula_sum "Si O2"
_cell_formula_units_Z 64
_cell_length_a 28.863775
_cell_length_b 8.861282
_cell_length_c 15.192475
_cell_angle_alpha 90.000000
_cell_angle_beta 87.931771
_cell_angle_gamma 90.000000
_cell_volume 3883.248733
_symmetry_space_group_name_H-M "C 2/M"
_symmetry_group_IT_number 12
_symmetry_cell_setting 'monoclinic'
loop_
_space_group_symop_operation_xyz
x,y,z
-x,y,-z
-x,-y,-z
x,-y,z
1/2+x,1/2+y,z
1/2-x,1/2+y,-z
1/2-x,1/2-y,-z
1/2+x,1/2-y,z
loop_
_atom_site_type_symbol
_atom_site_label
_atom_site_fract_x
_atom_site_fract_y
_atom_site_fract_z
Si Si1 0.559534 0.181503 0.744566
Si Si2 0.592726 0.676268 0.484500
Si Si3 0.856529 0.818057 0.341703
Si Si4 0.986210 0.681202 0.901233
Si Si5 0.254675 0.680080 0.401879
Si Si6 0.416168 0.319093 0.783484
Si Si7 0.832649 0.175561 0.679303
Si Si8 0.520049 0.179591 0.373469
O O1 0.610381 0.251717 0.735653
O O2 0.528285 0.221544 0.831517
O O3 0.529439 0.233423 0.660948
O O4 0.562890 0.000000 0.741518
O O5 0.581546 0.500000 0.496559
O O6 0.619182 0.732136 0.568719
O O7 0.630262 0.687385 0.403088
O O8 0.546159 0.758852 0.457258
O O9 0.803044 0.771551 0.353172
O O10 0.857886 0.000000 0.337628
O O11 0.979212 0.500000 0.893906
O O12 0.939798 0.765179 0.871818
O O13 0.000000 0.716126 0.000000
O O14 0.256129 0.500000 0.412427
O O15 0.250000 0.750000 0.500000
O O16 0.211402 0.727689 0.344869
O O17 0.421805 0.500000 0.771418
O O18 0.362611 0.284467 0.764072
O O19 0.446020 0.230821 0.708172
O O20 0.818744 0.000000 0.685927
O O21 0.518107 0.000000 0.380066
#
# Coordination Sequence:
#
# PCOD9204838 Si02
#       8
#     8   8   8   8   8   8   8   8
#     4   9  19  33  47  67  94 123 156 192 232 282
#     4   9  17  30  44  61  89 124 162 200 239 281
#     4  10  21  34  45  62  92 126 162 202 243 284
#     4   9  18  34  55  78 104 128 152 188 233 286
#     4  11  21  33  48  67  91 124 168 212 249 283
#     4   9  17  29  47  72 101 127 155 193 235 285
#     4   9  17  31  47  66  95 126 161 205 244 279
#     4   9  17  29  44  64  91 122 161 200 233 276
#
# _framework density 16.481047
#
# number of rings (size 3 to 8) (size 9 to 14) (size 15 to 20)
#    0.000    2.625    1.250    2.625    0.000    7.250 
#    0.000    2.500    0.000    0.000    0.000    0.875 
#    0.000    0.000    0.000    0.000    0.000    0.000 
#
# Total GULP energy -178277.984718 kJ/mol
# GULP energy per Si atom -5571.187022 kJ/mol
# Density = 1.644354 g / cm^3
# Si number density = 16.481047 Si / 1000 Ang^3
#
#
#
# Elastic Constant Matrix: (Units=GPa)
#
#
# Indices 1 2 3 4 5 6 
#
# 1 126.4837 40.4287 37.3540 0.0000 9.3872 0.0000
# 2 40.4287 23.6941 15.9949 0.0000 3.5802 0.0000
# 3 37.3540 15.9949 68.6945 0.0000 13.2331 0.0000
# 4 0.0000 0.0000 0.0000 17.0494 0.0000 3.6014
# 5 9.3872 3.5802 13.2331 0.0000 18.6441 0.0000
# 6 0.0000 0.0000 0.0000 3.6014 0.0000 23.9151
#
#
#
# Elastic Compliance Matrix: (Units=1/GPa)
#
#
# Indices 1 2 3 4 5 6 
#
# 1 0.017976 -0.028524 -0.002832 0.000000 -0.001563 0.000000
# 2 -0.028524 0.095375 -0.006875 0.000000 0.000927 0.000000
# 3 -0.002832 -0.006875 0.019888 0.000000 -0.011370 0.000000
# 4 0.000000 0.000000 0.000000 0.060580 0.000000 -0.009123
# 5 -0.001563 0.000927 -0.011370 0.000000 0.062316 0.000000
# 6 0.000000 0.000000 0.000000 -0.009123 0.000000 0.043188
#
#
# Mechanical properties :
#
#
# Convention : Reuss Voigt Hill
#
# Bulk Modulus (GPa) = 17.61278 45.15859 31.38568
# Shear Modulus (GPa) = 12.66748 20.26135 16.46442
#
# Velocity S-wave (km/s) = 2.77539 3.51004 3.16411
# Velocity P-wave (km/s) = 4.58042 6.62473 5.69505
#
# Compressibility (1/GPa) = 0.05677696
#
# Stress axis : x y z
#
# Youngs Moduli (GPa) = 55.63061 10.48492 50.28059
#
# Poissons Ratio (x) = 0.29907 0.14240
# Poissons Ratio (y) = 1.58678 0.34570
# Poissons Ratio (z) = 0.15755 0.07209
#
# Static dielectric constant tensor:
#      x y z
#    x 1.574420 0.000000 0.008670 
#    y 0.000000 1.556970 0.000000 
#    z 0.008670 0.000000 1.575890 
# 
# From -- ./inp_files/248432.got.cif
#   From: 2010.05.17/outbox.cif.g08.bks.cpg/sg12_125_cif.got.tgz:248432.got - 2010.06.03 13:09:07.
