data_PCOD9204203
_publ_section_title
;
Structure prediction by ZEFSAII (Michael W. Deem and Ramdas Pophale) SiO2 
 PCOD9204203
Probable space group: C 2/M
;
_chemical_formula_sum "Si O2"
_cell_formula_units_Z 48
_cell_length_a 29.971242
_cell_length_b 8.813416
_cell_length_c 15.321796
_cell_angle_alpha 90.000000
_cell_angle_beta 140.172819
_cell_angle_gamma 90.000000
_cell_volume 2592.150765
_symmetry_space_group_name_H-M "C 2/M"
_symmetry_group_IT_number 12
_symmetry_cell_setting 'monoclinic'
loop_
_space_group_symop_operation_xyz
x,y,z
-x,y,-z
-x,-y,-z
x,-y,z
1/2+x,1/2+y,z
1/2-x,1/2+y,-z
1/2-x,1/2-y,-z
1/2+x,1/2-y,z
loop_
_atom_site_type_symbol
_atom_site_label
_atom_site_fract_x
_atom_site_fract_y
_atom_site_fract_z
Si Si1 0.932869 0.681591 0.681950
Si Si2 0.326686 0.819509 0.863422
Si Si3 0.079847 0.819060 0.149328
Si Si4 0.174728 0.681256 0.635123
Si Si5 0.418979 0.319279 0.152497
Si Si6 0.423133 0.818314 0.347944
O O1 0.942471 0.500000 0.699523
O O2 0.909854 0.743582 0.741116
O O3 0.876116 0.715634 0.522285
O O4 0.005988 0.757713 0.766164
O O5 0.369194 0.749893 0.846195
O O6 0.246621 0.769854 0.737871
O O7 0.333604 0.000000 0.873253
O O8 0.361275 0.752759 0.002875
O O9 0.089689 0.000000 0.169597
O O10 0.000000 0.790770 0.000000
O O11 0.188665 0.500000 0.654674
O O12 0.132759 0.715173 0.660884
O O13 0.417382 0.500000 0.142016
O O14 0.409143 0.267772 0.237322
O O15 0.500000 0.780452 0.500000
O O16 0.422723 0.000000 0.330554
#
# Coordination Sequence:
#
# PCOD9204203 Si02
#       6
#     8   8   8   8   8   8
#     4  11  22  40  67  96 125 166 212 257 311 375
#     4  12  26  43  65  92 127 169 212 260 314 376
#     4  11  23  40  65  96 127 164 208 261 314 371
#     4  10  23  43  66  93 130 166 205 261 318 370
#     4  12  24  39  63  95 129 166 210 262 313 370
#     4  10  20  40  67  95 125 166 212 258 312 372
#
# _framework density 18.517441999999999
#
# number of rings (size 3 to 8) (size 9 to 14) (size 15 to 20)
#    0.000    1.000    3.333    4.000    0.000    4.333 
#    0.000    0.000    0.000    0.000    0.000    0.000 
#    0.000    0.000    0.000    0.000    0.000    0.000 
#
# Total GULP energy -134271.101476 kJ/mol
# GULP energy per Si atom -5594.629228 kJ/mol
# Density = 1.847530 g / cm^3
# Si number density = 18.517442 Si / 1000 Ang^3
#
#
#
# Elastic Constant Matrix: (Units=GPa)
#
#
# Indices 1 2 3 4 5 6 
#
# 1 96.9241 46.6710 32.1446 0.0000 -8.4141 0.0000
# 2 46.6710 77.1274 44.1881 0.0000 3.2231 0.0000
# 3 32.1446 44.1881 73.6130 0.0000 -5.5488 0.0000
# 4 0.0000 0.0000 0.0000 -2.1886 0.0000 11.4810
# 5 -8.4141 3.2231 -5.5488 0.0000 38.2162 0.0000
# 6 0.0000 0.0000 0.0000 11.4810 0.0000 23.7020
#
#
#
# Elastic Compliance Matrix: (Units=1/GPa)
#
#
# Indices 1 2 3 4 5 6 
#
# 1 0.015240 -0.008754 -0.001103 0.000000 0.003934 0.000000
# 2 -0.008754 0.025245 -0.011766 0.000000 -0.005765 0.000000
# 3 -0.001103 -0.011766 0.021420 0.000000 0.003859 0.000000
# 4 0.000000 0.000000 0.000000 -0.129035 0.000000 0.062503
# 5 0.003934 -0.005765 0.003859 0.000000 0.028080 0.000000
# 6 0.000000 0.000000 0.000000 0.062503 0.000000 0.011915
#
#
# Mechanical properties :
#
#
# Convention : Reuss Voigt Hill
#
# Bulk Modulus (GPa) = 53.59592 54.85243 54.22418
# Shear Modulus (GPa) = 223.91318 20.25663 122.08490
#
# Velocity S-wave (km/s) = 11.00830 3.31104 8.12852
# Velocity P-wave (km/s) = 13.80519 6.65610 10.83713
#
# Compressibility (1/GPa) = 0.01865814
#
# Stress axis : x y z
#
# Youngs Moduli (GPa) = 65.61630 39.61256 46.68561
#
# Poissons Ratio (x) = 0.34678 0.05152
# Poissons Ratio (y) = 0.57442 0.54928
# Poissons Ratio (z) = 0.07241 0.46606
#
# Static dielectric constant tensor:
#      x y z
#    x 1.610250 0.000000 -0.005160 
#    y 0.000000 1.616490 0.000000 
#    z -0.005160 0.000000 1.609160 
# 
# From -- ./inp_files/230423.got.cif
#   From: 2010.05.17/outbox.cif.g08.bks.cpg/sg12_116_cif.got.tgz:230423.got - 2010.06.03 13:09:07.
