data_PCOD9204186
_publ_section_title
;
Structure prediction by ZEFSAII (Michael W. Deem and Ramdas Pophale) SiO2 
 PCOD9204186
Probable space group: C 2/M
;
_chemical_formula_sum "Si O2"
_cell_formula_units_Z 38
_cell_length_a 15.002253
_cell_length_b 13.755109
_cell_length_c 9.137668
_cell_angle_alpha 90.000000
_cell_angle_beta 108.410340
_cell_angle_gamma 90.000000
_cell_volume 1789.119230
_symmetry_space_group_name_H-M "C 2/M"
_symmetry_group_IT_number 12
_symmetry_cell_setting 'monoclinic'
loop_
_space_group_symop_operation_xyz
x,y,z
-x,y,-z
-x,-y,-z
x,-y,z
1/2+x,1/2+y,z
1/2-x,1/2+y,-z
1/2-x,1/2-y,-z
1/2+x,1/2-y,z
loop_
_atom_site_type_symbol
_atom_site_label
_atom_site_fract_x
_atom_site_fract_y
_atom_site_fract_z
Si Si1 0.401211 0.500000 0.529628
Si Si2 0.609614 0.000000 0.595293
Si Si3 0.699169 0.000000 0.322108
Si Si4 0.977452 0.163367 0.760490
Si Si5 0.160772 0.696779 0.139555
Si Si6 0.500000 0.500000 0.000000
Si Si7 0.859921 0.298765 0.219016
O O1 0.500000 0.500000 0.500000
O O2 0.312127 0.500000 0.380018
O O3 0.405383 0.596754 0.630782
O O4 0.500000 0.000000 0.500000
O O5 0.630773 0.098280 0.695977
O O6 0.667743 0.000000 0.474726
O O7 0.662145 0.905581 0.221095
O O8 0.917151 0.237299 0.824888
O O9 0.053572 0.224659 0.708860
O O10 0.026466 0.085356 0.893015
O O11 0.262070 0.747955 0.209572
O O12 0.141738 0.685771 0.957239
#
# Coordination Sequence:
#
# PCOD9204186 Si02
#       7
#     4   4   4   8   8   2   8
#     4  11  25  40  63  99 130 174 214 279 328 391
#     4  12  27  43  65  96 136 181 218 268 324 402
#     4  12  26  44  63  98 138 178 221 264 333 399
#     4  11  22  42  68  94 131 169 218 275 327 386
#     4  11  24  43  69  97 130 177 218 279 325 387
#     4  10  20  40  66  96 122 156 218 262 330 376
#     4  11  24  44  67 101 127 175 226 272 331 385
#
# _framework density 21.239501000000001
#
# number of rings (size 3 to 8) (size 9 to 14) (size 15 to 20)
#    0.000    0.842    2.105    4.421    0.000    9.263 
#    0.000    3.158    0.000    0.000    0.000    0.000 
#    0.000    0.000    0.000    0.000    0.000    0.000 
#
# Total GULP energy -106079.704974 kJ/mol
# GULP energy per Si atom -5583.142367 kJ/mol
# Density = 2.119116 g / cm^3
# Si number density = 21.239501 Si / 1000 Ang^3
#
#
#
# Elastic Constant Matrix: (Units=GPa)
#
#
# Indices 1 2 3 4 5 6 
#
# 1 103.0072 53.7354 14.0814 0.0000 -8.8808 0.0000
# 2 53.7354 214.0366 64.5716 0.0000 1.8305 0.0000
# 3 14.0814 64.5716 45.8511 0.0000 0.3110 0.0000
# 4 0.0000 0.0000 0.0000 5.9284 0.0000 13.9210
# 5 -8.8808 1.8305 0.3110 0.0000 23.5768 0.0000
# 6 0.0000 0.0000 0.0000 13.9210 0.0000 23.5221
#
#
#
# Elastic Compliance Matrix: (Units=1/GPa)
#
#
# Indices 1 2 3 4 5 6 
#
# 1 0.011679 -0.003269 0.000986 0.000000 0.004640 0.000000
# 2 -0.003269 0.009044 -0.011720 0.000000 -0.001779 0.000000
# 3 0.000986 -0.011720 0.038007 0.000000 0.000780 0.000000
# 4 0.000000 0.000000 0.000000 -0.432816 0.000000 0.256152
# 5 0.004640 -0.001779 0.000780 0.000000 0.044290 0.000000
# 6 0.000000 0.000000 0.000000 0.256152 0.000000 -0.109084
#
#
# Mechanical properties :
#
#
# Convention : Reuss Voigt Hill
#
# Bulk Modulus (GPa) = 32.54952 69.74130 51.14541
# Shear Modulus (GPa) = -12.48031 25.97254 6.74612
#
# Velocity S-wave (km/s) = -2.42667 3.50071 1.78413
# Velocity P-wave (km/s) = 2.73982 7.01761 5.32698
#
# Compressibility (1/GPa) = 0.03072242
#
# Stress axis : x y z
#
# Youngs Moduli (GPa) = 85.62592 110.57193 26.31065
#
# Poissons Ratio (x) = 0.36147 -0.02593
# Poissons Ratio (y) = 0.27992 0.30837
# Poissons Ratio (z) = -0.08440 1.29594
#
# Static dielectric constant tensor:
#      x y z
#    x 1.828010 0.000000 0.017760 
#    y 0.000000 1.717040 0.000000 
#    z 0.017760 0.000000 1.803300 
# 
# From -- ./inp_files/71460.got.cif
#   From: 2010.05.17/outbox.cif.g08.bks.cpg/sg12_36_cif.got.tgz:71460.got - 2010.06.03 13:09:07.
