data_PCOD9204970
_publ_section_title
;
Structure prediction by ZEFSAII (Michael W. Deem and Ramdas Pophale) SiO2 
 PCOD9204970
Probable space group: C 2/M
;
_chemical_formula_sum "Si O2"
_cell_formula_units_Z 48
_cell_length_a 7.297627
_cell_length_b 33.064412
_cell_length_c 12.767216
_cell_angle_alpha 90.000000
_cell_angle_beta 139.344474
_cell_angle_gamma 90.000000
_cell_volume 2007.056405
_symmetry_space_group_name_H-M "C 2/M"
_symmetry_group_IT_number 12
_symmetry_cell_setting 'monoclinic'
loop_
_space_group_symop_operation_xyz
x,y,z
-x,y,-z
-x,-y,-z
x,-y,z
1/2+x,1/2+y,z
1/2-x,1/2+y,-z
1/2-x,1/2-y,-z
1/2+x,1/2-y,z
loop_
_atom_site_type_symbol
_atom_site_label
_atom_site_fract_x
_atom_site_fract_y
_atom_site_fract_z
Si Si1 0.284567 0.869458 0.819200
Si Si2 0.695551 0.212675 0.818569
Si Si3 0.459285 0.043851 0.647982
Si Si4 0.626850 0.707190 0.670566
Si Si5 0.292130 0.123826 0.189214
Si Si6 0.375408 0.456267 0.275562
O O1 0.057026 0.834359 0.700394
O O2 0.451192 0.875044 0.782556
O O3 0.184819 0.914217 0.808008
O O4 0.500000 0.855214 0.000000
O O5 0.571263 0.250166 0.700326
O O6 0.466405 0.207091 0.809885
O O7 0.711367 0.169390 0.766429
O O8 0.000000 0.220841 0.000000
O O9 0.646973 0.083719 0.718404
O O10 0.319492 0.043307 0.703889
O O11 0.194519 0.045653 0.455530
O O12 0.601931 0.000000 0.695580
O O13 0.500000 0.704955 0.500000
O O14 0.000000 0.119323 0.000000
O O15 0.328954 0.500000 0.202475
#
# Coordination Sequence:
#
# PCOD9204970 Si02
#       6
#     8   8   8   8   8   8
#     4  10  21  34  54  80 107 138 173 216 266 311
#     4  10  21  38  57  77 110 146 176 221 269 320
#     4   8  14  27  50  77 104 135 174 215 257 304
#     4  11  23  37  57  82 108 139 182 227 265 317
#     4   9  19  33  53  76 108 139 176 212 260 313
#     4   8  15  28  50  77 104 135 172 216 258 303
#
# _framework density 23.915621000000002
#
# number of rings (size 3 to 8) (size 9 to 14) (size 15 to 20)
#    0.000    2.667    0.000    2.500    7.000    3.333 
#    0.000    0.000    0.000    0.000    0.000    2.333 
#    0.000    0.000    0.000    0.000    0.000    0.000 
#
# Total GULP energy -133944.474574 kJ/mol
# GULP energy per Si atom -5581.019774 kJ/mol
# Density = 2.386119 g / cm^3
# Si number density = 23.915621 Si / 1000 Ang^3
#
#
#
# Elastic Constant Matrix: (Units=GPa)
#
#
# Indices 1 2 3 4 5 6 
#
# 1 60.6501 3.2750 -7.3298 0.0000 5.0606 0.0000
# 2 3.2750 271.1754 68.7357 0.0000 -13.4610 0.0000
# 3 -7.3298 68.7357 49.6816 0.0000 -6.8870 0.0000
# 4 0.0000 0.0000 0.0000 208.7625 0.0000 1.5688
# 5 5.0606 -13.4610 -6.8870 0.0000 24.1517 0.0000
# 6 0.0000 0.0000 0.0000 1.5688 0.0000 7.2467
#
#
#
# Elastic Compliance Matrix: (Units=1/GPa)
#
#
# Indices 1 2 3 4 5 6 
#
# 1 0.017322 -0.001393 0.004031 0.000000 -0.003256 0.000000
# 2 -0.001393 0.005813 -0.008077 0.000000 0.001228 0.000000
# 3 0.004031 -0.008077 0.032439 0.000000 0.003904 0.000000
# 4 0.000000 0.000000 0.000000 0.004798 0.000000 -0.001039
# 5 -0.003256 0.001228 0.003904 0.000000 0.043885 0.000000
# 6 0.000000 0.000000 0.000000 -0.001039 0.000000 0.138218
#
#
# Mechanical properties :
#
#
# Convention : Reuss Voigt Hill
#
# Bulk Modulus (GPa) = 22.37335 56.76321 39.56828
# Shear Modulus (GPa) = 18.63918 69.15394 43.89656
#
# Velocity S-wave (km/s) = 2.79475 5.38318 4.28889
# Velocity P-wave (km/s) = 4.44855 7.90091 6.41148
#
# Compressibility (1/GPa) = 0.04469604
#
# Stress axis : x y z
#
# Youngs Moduli (GPa) = 57.72984 172.03287 30.82682
#
# Poissons Ratio (x) = 0.23957 -0.12426
# Poissons Ratio (y) = 0.08039 0.24900
# Poissons Ratio (z) = -0.23270 1.38958
#
# Static dielectric constant tensor:
#      x y z
#    x 2.176520 0.000000 -0.114350 
#    y 0.000000 2.045850 0.000000 
#    z -0.114350 0.000000 1.914860 
# 
# From -- ./inp_files/200243.got.cif
#   From: 2010.05.17/outbox.cif.g08.bks.cpg/sg12_101_cif.got.tgz:200243.got - 2010.06.03 13:09:07.
