data_PCOD9204489
_publ_section_title
;
Structure prediction by ZEFSAII (Michael W. Deem and Ramdas Pophale) SiO2 
 PCOD9204489
Probable space group: C 2/M
;
_chemical_formula_sum "Si O2"
_cell_formula_units_Z 38
_cell_length_a 17.879397
_cell_length_b 16.683606
_cell_length_c 15.000168
_cell_angle_alpha 90.000000
_cell_angle_beta 155.834467
_cell_angle_gamma 90.000000
_cell_volume 1831.721532
_symmetry_space_group_name_H-M "C 2/M"
_symmetry_group_IT_number 12
_symmetry_cell_setting 'monoclinic'
loop_
_space_group_symop_operation_xyz
x,y,z
-x,y,-z
-x,-y,-z
x,-y,z
1/2+x,1/2+y,z
1/2-x,1/2+y,-z
1/2-x,1/2-y,-z
1/2+x,1/2-y,z
loop_
_atom_site_type_symbol
_atom_site_label
_atom_site_fract_x
_atom_site_fract_y
_atom_site_fract_z
Si Si1 0.500000 0.145681 0.500000
Si Si2 0.625537 0.272674 0.497394
Si Si3 0.000000 0.000000 0.000000
Si Si4 0.653782 0.384905 0.026658
Si Si5 0.017903 0.710480 0.850021
Si Si6 0.341906 0.408702 0.180077
O O1 0.608379 0.203636 0.551205
O O2 0.648120 0.096163 0.716338
O O3 0.832372 0.298338 0.703437
O O4 0.543007 0.233282 0.317054
O O5 0.502138 0.349397 0.386399
O O6 0.988470 0.930596 0.065970
O O7 0.624919 0.289430 0.998723
O O8 0.643266 0.408296 0.911968
O O9 0.151492 0.635035 0.996135
O O10 0.353359 0.500000 0.224115
#
# Coordination Sequence:
#
# PCOD9204489 Si02
#       6
#     4   8   2   8   8   8
#     4  12  20  39  65  94 128 168 212 266 321 383
#     4  10  21  36  66  90 118 169 226 255 313 380
#     4  12  24  38  56 104 134 164 194 272 334 370
#     4  11  22  39  60  92 136 168 204 258 327 383
#     4  10  20  42  63  88 121 183 219 247 311 401
#     4  11  21  42  63  90 127 171 216 264 304 381
#
# _framework density 20.745511
#
# number of rings (size 3 to 8) (size 9 to 14) (size 15 to 20)
#    0.000    1.263    5.263    2.526    0.000    1.263 
#    0.000    0.526    0.000    1.263    0.000    0.000 
#    0.000    0.000    0.000    0.000    0.000    0.000 
#
# Total GULP energy -105955.413078 kJ/mol
# GULP energy per Si atom -5576.600688 kJ/mol
# Density = 2.069829 g / cm^3
# Si number density = 20.745511 Si / 1000 Ang^3
#
#
#
# Elastic Constant Matrix: (Units=GPa)
#
#
# Indices 1 2 3 4 5 6 
#
# 1 62.4370 8.3184 2.3982 0.0000 8.8806 0.0000
# 2 8.3184 107.9612 5.3700 0.0000 17.5367 0.0000
# 3 2.3982 5.3700 55.4147 0.0000 14.5057 -0.0001
# 4 0.0000 0.0000 0.0000 -9.2577 0.0000 27.5038
# 5 8.8806 17.5367 14.5057 0.0000 35.4287 0.0000
# 6 0.0000 0.0000 -0.0001 27.5038 0.0000 -149.9004
#
#
#
# Elastic Compliance Matrix: (Units=1/GPa)
#
#
# Indices 1 2 3 4 5 6 
#
# 1 0.016659 -0.000651 0.000393 0.000000 -0.004014 0.000000
# 2 -0.000651 0.010105 0.000353 0.000000 -0.004983 0.000000
# 3 0.000393 0.000353 0.020235 0.000000 -0.008558 0.000000
# 4 0.000000 0.000000 0.000000 -0.237457 0.000000 -0.043569
# 5 -0.004014 -0.004983 -0.008558 0.000000 0.035203 0.000000
# 6 0.000000 0.000000 0.000000 -0.043569 0.000000 -0.014665
#
#
# Mechanical properties :
#
#
# Convention : Reuss Voigt Hill
#
# Bulk Modulus (GPa) = 21.19148 28.66513 24.92830
# Shear Modulus (GPa) = -32.38714 -10.76413 -21.57563
#
# Velocity S-wave (km/s) = -3.95544 -2.28033 -3.22842
# Velocity P-wave (km/s) = 3.25938 2.62950 1.36185
#
# Compressibility (1/GPa) = 0.04718879
#
# Stress axis : x y z
#
# Youngs Moduli (GPa) = 60.02851 98.96478 49.41995
#
# Poissons Ratio (x) = 0.06443 -0.01942
# Poissons Ratio (y) = 0.03908 -0.01747
# Poissons Ratio (z) = -0.02359 -0.03497
#
# Static dielectric constant tensor:
#      x y z
#    x 1.752120 0.000000 -0.002710 
#    y 0.000000 1.702370 0.000000 
#    z -0.002710 0.000000 1.778130 
# 
# From -- ./inp_files/59000.got.cif
#   From: 2010.05.17/outbox.cif.g08.bks.cpg/sg12_30_cif.got.tgz:59000.got - 2010.06.03 13:09:07.
