data_PCOD9204491
_publ_section_title
;
Structure prediction by ZEFSAII (Michael W. Deem and Ramdas Pophale) SiO2 
 PCOD9204491
Probable space group: C 2/M
;
_chemical_formula_sum "Si O2"
_cell_formula_units_Z 40
_cell_length_a 9.479675
_cell_length_b 21.877343
_cell_length_c 8.215368
_cell_angle_alpha 90.000000
_cell_angle_beta 105.982602
_cell_angle_gamma 90.000000
_cell_volume 1637.926751
_symmetry_space_group_name_H-M "C 2/M"
_symmetry_group_IT_number 12
_symmetry_cell_setting 'monoclinic'
loop_
_space_group_symop_operation_xyz
x,y,z
-x,y,-z
-x,-y,-z
x,-y,z
1/2+x,1/2+y,z
1/2-x,1/2+y,-z
1/2-x,1/2-y,-z
1/2+x,1/2-y,z
loop_
_atom_site_type_symbol
_atom_site_label
_atom_site_fract_x
_atom_site_fract_y
_atom_site_fract_z
Si Si1 0.353500 0.000000 0.078656
Si Si2 0.822050 0.798470 0.745201
Si Si3 0.948866 0.877654 0.304484
Si Si4 0.391987 0.137771 0.108813
Si Si5 0.082536 0.000000 0.201963
Si Si6 0.669084 0.841027 0.368591
O O1 0.321672 0.072319 0.045792
O O2 0.257112 0.000000 0.224367
O O3 0.500000 0.000000 0.000000
O O4 0.730121 0.814661 0.875041
O O5 0.733207 0.833415 0.570331
O O6 0.830245 0.728289 0.698961
O O7 0.983866 0.827578 0.794440
O O8 0.777259 0.878776 0.285113
O O9 0.000000 0.856981 0.500000
O O10 0.022776 0.941054 0.278273
O O11 0.509015 0.130547 0.294527
O O12 0.500000 0.158627 0.000000
O O13 0.000000 0.000000 0.000000
#
# Coordination Sequence:
#
# PCOD9204491 Si02
#       6
#     4   8   8   8   4   8
#     4  10  24  43  60  85 125 163 202 249 305 362
#     4  10  20  42  63  90 125 160 202 246 303 364
#     4  10  22  39  63  92 123 155 204 256 297 360
#     4  11  23  39  62  88 127 160 201 254 300 363
#     4  12  25  41  67  86 120 168 204 252 311 363
#     4  10  22  38  66  92 121 163 199 246 308 366
#
# _framework density 24.421116999999999
#
# number of rings (size 3 to 8) (size 9 to 14) (size 15 to 20)
#    0.000    1.600    2.000    2.100    5.600    4.000 
#    0.000    5.000    0.000    0.000    0.000    0.000 
#    0.000    0.000    0.000    0.000    0.000    0.000 
#
# Total GULP energy -111355.565098 kJ/mol
# GULP energy per Si atom -5567.778255 kJ/mol
# Density = 2.436553 g / cm^3
# Si number density = 24.421117 Si / 1000 Ang^3
#
#
#
# Elastic Constant Matrix: (Units=GPa)
#
#
# Indices 1 2 3 4 5 6 
#
# 1 122.8032 22.6406 15.9769 0.0000 -42.3561 0.0000
# 2 22.6406 61.0594 7.5588 0.0000 -24.1355 0.0000
# 3 15.9769 7.5588 64.0848 0.0000 -2.4806 0.0000
# 4 0.0000 0.0000 0.0000 23.5724 0.0000 -11.3090
# 5 -42.3561 -24.1355 -2.4806 0.0000 54.5688 0.0000
# 6 0.0000 0.0000 0.0000 -11.3090 0.0000 18.3006
#
#
#
# Elastic Compliance Matrix: (Units=1/GPa)
#
#
# Indices 1 2 3 4 5 6 
#
# 1 0.011532 -0.000577 -0.002475 0.000000 0.008583 0.000000
# 2 -0.000577 0.020137 -0.001907 0.000000 0.008372 0.000000
# 3 -0.002475 -0.001907 0.016368 0.000000 -0.002020 0.000000
# 4 0.000000 0.000000 0.000000 0.060300 0.000000 0.037263
# 5 0.008583 0.008372 -0.002020 0.000000 0.028599 0.000000
# 6 0.000000 0.000000 0.000000 0.037263 0.000000 0.077670
#
#
# Mechanical properties :
#
#
# Convention : Reuss Voigt Hill
#
# Bulk Modulus (GPa) = 26.23352 37.81110 32.02231
# Shear Modulus (GPa) = 21.07666 32.73975 26.90820
#
# Velocity S-wave (km/s) = 2.94096 3.66544 3.32300
# Velocity P-wave (km/s) = 4.72205 5.78191 5.27865
#
# Compressibility (1/GPa) = 0.03811917
#
# Stress axis : x y z
#
# Youngs Moduli (GPa) = 86.71569 49.66050 61.09457
#
# Poissons Ratio (x) = 0.02864 0.15119
# Poissons Ratio (y) = 0.05002 0.11652
# Poissons Ratio (z) = 0.21460 0.09472
#
# Static dielectric constant tensor:
#      x y z
#    x 2.569360 0.000000 0.274700 
#    y 0.000000 1.812260 0.000000 
#    z 0.274700 0.000000 2.152890 
# 
# From -- ./inp_files/39486.got.cif
#   From: 2010.05.17/outbox.cif.g08.bks.cpg/sg12_20_cif.got.tgz:39486.got - 2010.06.03 13:09:07.
