data_PCOD9204366
_publ_section_title
;
Structure prediction by ZEFSAII (Michael W. Deem and Ramdas Pophale) SiO2 
 PCOD9204366
Probable space group: C 2/M
;
_chemical_formula_sum "Si O2"
_cell_formula_units_Z 46
_cell_length_a 10.895505
_cell_length_b 22.513811
_cell_length_c 8.944918
_cell_angle_alpha 90.000000
_cell_angle_beta 77.516216
_cell_angle_gamma 90.000000
_cell_volume 2142.305923
_symmetry_space_group_name_H-M "C 2/M"
_symmetry_group_IT_number 12
_symmetry_cell_setting 'monoclinic'
loop_
_space_group_symop_operation_xyz
x,y,z
-x,y,-z
-x,-y,-z
x,-y,z
1/2+x,1/2+y,z
1/2-x,1/2+y,-z
1/2-x,1/2-y,-z
1/2+x,1/2-y,z
loop_
_atom_site_type_symbol
_atom_site_label
_atom_site_fract_x
_atom_site_fract_y
_atom_site_fract_z
Si Si1 0.363613 0.194930 0.813398
Si Si2 0.808327 0.000000 0.318255
Si Si3 0.500000 0.500000 0.000000
Si Si4 0.000000 0.603643 0.000000
Si Si5 0.231684 0.398370 0.754631
Si Si6 0.859079 0.612288 0.540989
Si Si7 0.117149 0.816158 0.056473
Si Si8 0.582063 0.500000 0.317486
O O1 0.430950 0.145548 0.897503
O O2 0.362718 0.169479 0.647554
O O3 0.425895 0.257567 0.842037
O O4 0.219128 0.201194 0.904552
O O5 0.866657 0.000000 0.136798
O O6 0.729663 0.940001 0.370477
O O7 0.933861 0.000000 0.389474
O O8 0.577322 0.500000 0.135816
O O9 0.113715 0.573951 0.877560
O O10 0.178125 0.369671 0.617452
O O11 0.307537 0.356077 0.846636
O O12 0.334678 0.443597 0.668969
O O13 0.000000 0.587066 0.500000
O O14 0.000000 0.845748 0.000000
#
# Coordination Sequence:
#
# PCOD9204366 Si02
#       8
#     8   4   2   4   8   8   8   4
#     4  10  22  41  68  97 136 179 230 285 336 402
#     4  10  26  45  69 100 143 179 229 283 345 410
#     4   8  24  42  64  96 126 182 222 282 324 392
#     4  10  20  41  65  96 134 180 238 278 324 416
#     4  11  25  41  68 102 137 186 228 279 350 407
#     4  12  25  44  70 101 145 187 223 287 348 408
#     4  10  23  42  70 100 134 182 231 283 345 405
#     4  10  25  43  66  96 138 173 231 287 330 407
#
# _framework density 21.472189
#
# number of rings (size 3 to 8) (size 9 to 14) (size 15 to 20)
#    0.522    1.043    2.609    0.783    8.522    2.435 
#    0.000    0.000    0.000    0.000    0.000    0.000 
#    0.000    0.000    0.000    0.000    0.000    0.000 
#
# Total GULP energy -128050.724798 kJ/mol
# GULP energy per Si atom -5567.422817 kJ/mol
# Density = 2.142332 g / cm^3
# Si number density = 21.472189 Si / 1000 Ang^3
#
#
#
# Elastic Constant Matrix: (Units=GPa)
#
#
# Indices 1 2 3 4 5 6 
#
# 1 138.8744 23.1370 55.2975 0.0000 -0.0177 0.0000
# 2 23.1370 45.8926 28.0518 0.0000 -11.0924 0.0000
# 3 55.2975 28.0518 133.8435 0.0000 0.8378 0.0000
# 4 0.0000 0.0000 0.0000 13.1188 0.0000 -5.3666
# 5 -0.0177 -11.0924 0.8378 0.0000 52.4861 0.0000
# 6 0.0000 0.0000 0.0000 -5.3666 0.0000 22.6115
#
#
#
# Elastic Compliance Matrix: (Units=1/GPa)
#
#
# Indices 1 2 3 4 5 6 
#
# 1 0.008887 -0.002711 -0.003100 0.000000 -0.000520 0.000000
# 2 -0.002711 0.027427 -0.004665 0.000000 0.005870 0.000000
# 3 -0.003100 -0.004665 0.009737 0.000000 -0.001142 0.000000
# 4 0.000000 0.000000 0.000000 0.084423 0.000000 0.020037
# 5 -0.000520 0.005870 -0.001142 0.000000 0.020311 0.000000
# 6 0.000000 0.000000 0.000000 0.020037 0.000000 0.048981
#
#
# Mechanical properties :
#
#
# Convention : Reuss Voigt Hill
#
# Bulk Modulus (GPa) = 39.84306 59.06478 49.45392
# Shear Modulus (GPa) = 21.82598 31.78490 26.80544
#
# Velocity S-wave (km/s) = 3.19168 3.85162 3.53707
# Velocity P-wave (km/s) = 5.67260 6.88093 6.30578
#
# Compressibility (1/GPa) = 0.02509848
#
# Stress axis : x y z
#
# Youngs Moduli (GPa) = 112.52663 36.46029 102.70018
#
# Poissons Ratio (x) = 0.09885 0.31838
# Poissons Ratio (y) = 0.30508 0.47909
# Poissons Ratio (z) = 0.34884 0.17009
#
# Static dielectric constant tensor:
#      x y z
#    x 1.811160 0.000000 0.002570 
#    y 0.000000 1.811530 0.000000 
#    z 0.002570 0.000000 1.829790 
# 
# From -- ./inp_files/50680.got.cif
#   From: 2010.05.17/outbox.cif.g08.bks.cpg/sg12_26_cif.got.tgz:50680.got - 2010.06.03 13:09:07.
