data_PCOD9204440
_publ_section_title
;
Structure prediction by ZEFSAII (Michael W. Deem and Ramdas Pophale) SiO2 
 PCOD9204440
Probable space group: C 2/M
;
_chemical_formula_sum "Si O2"
_cell_formula_units_Z 30
_cell_length_a 13.706327
_cell_length_b 16.822971
_cell_length_c 5.874338
_cell_angle_alpha 90.000000
_cell_angle_beta 61.216788
_cell_angle_gamma 90.000000
_cell_volume 1187.158678
_symmetry_space_group_name_H-M "C 2/M"
_symmetry_group_IT_number 12
_symmetry_cell_setting 'monoclinic'
loop_
_space_group_symop_operation_xyz
x,y,z
-x,y,-z
-x,-y,-z
x,-y,z
1/2+x,1/2+y,z
1/2-x,1/2+y,-z
1/2-x,1/2-y,-z
1/2+x,1/2-y,z
loop_
_atom_site_type_symbol
_atom_site_label
_atom_site_fract_x
_atom_site_fract_y
_atom_site_fract_z
Si Si1 0.000000 0.000000 0.500000
Si Si2 0.832932 0.128813 0.825296
Si Si3 0.500000 0.333854 0.000000
Si Si4 0.106168 0.719027 0.503977
Si Si5 0.129791 0.590792 0.805946
O O1 0.903590 0.930009 0.584382
O O2 0.839689 0.220264 0.735309
O O3 0.705510 0.103958 0.943899
O O4 0.902291 0.118857 0.980561
O O5 0.558216 0.277661 0.750648
O O6 0.171852 0.651773 0.565127
O O7 0.000000 0.680751 0.500000
O O8 0.138875 0.500000 0.721844
O O9 0.000000 0.607515 0.000000
#
# Coordination Sequence:
#
# PCOD9204440 Si02
#       5
#     2   8   4   8   8
#     4  12  20  42  66 100 130 158 230 274 328 372
#     4  11  23  43  69  99 131 170 216 281 325 386
#     4  10  20  41  69  96 128 166 216 278 329 379
#     4  10  21  43  68  96 127 173 222 267 326 387
#     4  11  24  43  66  95 138 177 216 264 321 399
#
# _framework density 25.270420999999999
#
# number of rings (size 3 to 8) (size 9 to 14) (size 15 to 20)
#    0.000    1.333    6.667    0.800    0.000    2.133 
#    4.800    0.000    5.867    0.000    0.000    0.000 
#    0.000    0.000    0.000    0.000    0.000    0.000 
#
# Total GULP energy -83646.681939 kJ/mol
# GULP energy per Si atom -5576.445463 kJ/mol
# Density = 2.521290 g / cm^3
# Si number density = 25.270421 Si / 1000 Ang^3
#
#
#
# Elastic Constant Matrix: (Units=GPa)
#
#
# Indices 1 2 3 4 5 6 
#
# 1 224.1595 42.0311 31.5224 0.0000 10.8500 0.0000
# 2 42.0311 137.4887 12.7331 0.0000 4.2464 0.0000
# 3 31.5224 12.7331 48.7665 0.0000 -1.0305 0.0000
# 4 0.0000 0.0000 0.0000 -7.7157 0.0000 5.4271
# 5 10.8500 4.2464 -1.0305 0.0000 45.4751 0.0000
# 6 0.0000 0.0000 0.0000 5.4271 0.0000 35.3881
#
#
#
# Elastic Compliance Matrix: (Units=1/GPa)
#
#
# Indices 1 2 3 4 5 6 
#
# 1 0.005184 -0.001266 -0.003046 0.000000 -0.001188 0.000000
# 2 -0.001266 0.007788 -0.001225 0.000000 -0.000453 0.000000
# 3 -0.003046 -0.001225 0.022823 0.000000 0.001358 0.000000
# 4 0.000000 0.000000 0.000000 -0.116986 0.000000 0.017941
# 5 -0.001188 -0.000453 0.001358 0.000000 0.022346 0.000000
# 6 0.000000 0.000000 0.000000 0.017941 0.000000 0.025507
#
#
# Mechanical properties :
#
#
# Convention : Reuss Voigt Hill
#
# Bulk Modulus (GPa) = 40.44906 64.77646 52.61276
# Shear Modulus (GPa) = -356.53024 36.23803 -160.14611
#
# Velocity S-wave (km/s) = -11.89085 3.79094 -7.96935
# Velocity P-wave (km/s) = 13.13323 6.69706 7.98847
#
# Compressibility (1/GPa) = 0.02472246
#
# Stress axis : x y z
#
# Youngs Moduli (GPa) = 192.89035 128.40622 43.81545
#
# Poissons Ratio (x) = 0.16258 0.13344
# Poissons Ratio (y) = 0.24422 0.05366
# Poissons Ratio (z) = 0.58747 0.15724
#
# Static dielectric constant tensor:
#      x y z
#    x 2.029840 0.000000 -0.012580 
#    y 0.000000 1.977880 0.000000 
#    z -0.012580 0.000000 2.151510 
# 
# From -- ./inp_files/10196.got.cif
#   From: 2010.05.17/outbox.cif.g08.bks.cpg/sg12_6_cif.got.tgz:10196.got - 2010.06.03 13:09:07.
