data_PCOD9204935
_publ_section_title
;
Structure prediction by ZEFSAII (Michael W. Deem and Ramdas Pophale) SiO2 
 PCOD9204935
Probable space group: C 2/M
;
_chemical_formula_sum "Si O2"
_cell_formula_units_Z 56
_cell_length_a 15.892401
_cell_length_b 20.405741
_cell_length_c 9.203502
_cell_angle_alpha 90.000000
_cell_angle_beta 97.055060
_cell_angle_gamma 90.000000
_cell_volume 2962.062775
_symmetry_space_group_name_H-M "C 2/M"
_symmetry_group_IT_number 12
_symmetry_cell_setting 'monoclinic'
loop_
_space_group_symop_operation_xyz
x,y,z
-x,y,-z
-x,-y,-z
x,-y,z
1/2+x,1/2+y,z
1/2-x,1/2+y,-z
1/2-x,1/2-y,-z
1/2+x,1/2-y,z
loop_
_atom_site_type_symbol
_atom_site_label
_atom_site_fract_x
_atom_site_fract_y
_atom_site_fract_z
Si Si1 0.237976 0.078589 0.296045
Si Si2 0.071576 0.071698 0.117308
Si Si3 0.778799 0.922737 0.361172
Si Si4 0.489583 0.249258 0.824773
Si Si5 0.302879 0.197519 0.818212
Si Si6 0.032534 0.882607 0.667427
Si Si7 0.334134 0.188539 0.170004
O O1 0.160499 0.103257 0.175581
O O2 0.220281 0.088100 0.463594
O O3 0.313077 0.123603 0.255902
O O4 0.247222 0.000000 0.276720
O O5 0.026404 0.066438 0.262076
O O6 0.089641 0.000000 0.056777
O O7 0.000000 0.101977 0.000000
O O8 0.718744 0.869217 0.272030
O O9 0.871347 0.906361 0.315821
O O10 0.758851 0.000000 0.332331
O O11 0.392534 0.226954 0.780963
O O12 0.513225 0.315879 0.748211
O O13 0.566004 0.201970 0.793849
O O14 0.500000 0.256091 0.000000
O O15 0.226134 0.250874 0.788487
O O16 0.313484 0.182888 0.993059
O O17 0.000000 0.874233 0.500000
#
# Coordination Sequence:
#
# PCOD9204935 Si02
#       7
#     8   8   8   8   8   8   8
#     4  10  22  39  58  85 123 162 200 253 308 362
#     4  10  21  34  52  80 116 157 196 238 295 364
#     4  11  24  40  58  88 131 168 205 253 306 367
#     4  10  22  41  63  90 125 155 201 260 313 361
#     4  10  22  39  65  92 118 162 205 258 305 368
#     4  12  22  35  57  91 121 161 197 247 307 371
#     4  10  21  40  63  91 119 156 207 257 310 360
#
# _framework density 18.905743000000001
#
# number of rings (size 3 to 8) (size 9 to 14) (size 15 to 20)
#    0.000    1.571    2.857    1.714    2.000    2.857 
#    0.000    0.714    0.000    4.286    0.000    0.000 
#    0.000    0.000    0.000    0.000    0.000    0.000 
#
# Total GULP energy -156088.012665 kJ/mol
# GULP energy per Si atom -5574.571881 kJ/mol
# Density = 1.886271 g / cm^3
# Si number density = 18.905743 Si / 1000 Ang^3
#
#
#
# Elastic Constant Matrix: (Units=GPa)
#
#
# Indices 1 2 3 4 5 6 
#
# 1 106.5814 47.6091 27.1832 0.0000 -9.5981 0.0000
# 2 47.6091 101.9725 39.4788 0.0000 -1.9996 0.0000
# 3 27.1832 39.4788 56.5983 0.0000 -0.7337 0.0000
# 4 0.0000 0.0000 0.0000 49.2124 0.0000 -1.3503
# 5 -9.5981 -1.9996 -0.7337 0.0000 24.8297 0.0000
# 6 0.0000 0.0000 0.0000 -1.3503 0.0000 41.5238
#
#
#
# Elastic Compliance Matrix: (Units=1/GPa)
#
#
# Indices 1 2 3 4 5 6 
#
# 1 0.012584 -0.004755 -0.002670 0.000000 0.004403 0.000000
# 2 -0.004755 0.015248 -0.008363 0.000000 -0.000857 0.000000
# 3 -0.002670 -0.008363 0.024771 0.000000 -0.000974 0.000000
# 4 0.000000 0.000000 0.000000 0.020338 0.000000 0.000661
# 5 0.004403 -0.000857 -0.000974 0.000000 0.041878 0.000000
# 6 0.000000 0.000000 0.000000 0.000661 0.000000 0.024104
#
#
# Mechanical properties :
#
#
# Convention : Reuss Voigt Hill
#
# Bulk Modulus (GPa) = 47.55794 54.85494 51.20644
# Shear Modulus (GPa) = 28.16762 33.17191 30.66976
#
# Velocity S-wave (km/s) = 3.86411 4.19333 4.03208
# Velocity P-wave (km/s) = 6.71702 7.24730 6.98719
#
# Compressibility (1/GPa) = 0.02102698
#
# Stress axis : x y z
#
# Youngs Moduli (GPa) = 79.46549 65.58409 40.36918
#
# Poissons Ratio (x) = 0.31187 0.10778
# Poissons Ratio (y) = 0.37788 0.33760
# Poissons Ratio (z) = 0.21217 0.54847
#
# Static dielectric constant tensor:
#      x y z
#    x 1.654750 0.000000 -0.205440 
#    y 0.000000 1.689200 0.000000 
#    z -0.205440 0.000000 -0.706360 
# 
# From -- ./inp_files/64068.got.cif
#   From: 2010.05.17/outbox.cif.g08.bks.cpg/sg12_33_cif.got.tgz:64068.got - 2010.06.03 13:09:07.
