data_PCOD9204123
_publ_section_title
;
Structure prediction by ZEFSAII (Michael W. Deem and Ramdas Pophale) SiO2 
 PCOD9204123
Probable space group: C 2/M
;
_chemical_formula_sum "Si O2"
_cell_formula_units_Z 40
_cell_length_a 17.530568
_cell_length_b 15.102000
_cell_length_c 18.381847
_cell_angle_alpha 90.000000
_cell_angle_beta 22.819892
_cell_angle_gamma 90.000000
_cell_volume 1887.414512
_symmetry_space_group_name_H-M "C 2/M"
_symmetry_group_IT_number 12
_symmetry_cell_setting 'monoclinic'
loop_
_space_group_symop_operation_xyz
x,y,z
-x,y,-z
-x,-y,-z
x,-y,z
1/2+x,1/2+y,z
1/2-x,1/2+y,-z
1/2-x,1/2-y,-z
1/2+x,1/2-y,z
loop_
_atom_site_type_symbol
_atom_site_label
_atom_site_fract_x
_atom_site_fract_y
_atom_site_fract_z
Si Si1 0.999834 0.310882 0.846602
Si Si2 0.515334 0.500000 0.234086
Si Si3 0.512374 0.000000 0.202813
Si Si4 0.937148 0.317854 0.632237
Si Si5 0.473837 0.693279 0.734766
Si Si6 0.500000 0.276644 0.000000
Si Si7 0.370608 0.000000 0.494423
O O1 0.057737 0.410515 0.775056
O O2 0.059426 0.242037 0.730822
O O3 0.762597 0.310059 0.050734
O O4 0.049202 0.280714 0.884674
O O5 0.467337 0.590699 0.318609
O O6 0.366277 0.500000 0.297142
O O7 0.746471 0.500000 0.010292
O O8 0.441619 0.000000 0.347950
O O9 0.003753 0.252761 0.637818
O O10 0.700211 0.328506 0.842833
O O11 0.000000 0.278526 0.500000
O O12 0.043347 0.411536 0.546866
#
# Coordination Sequence:
#
# PCOD9204123 Si02
#       7
#     8   4   4   8   8   4   4
#     4   9  18  37  65  91 119 164 207 242 312 368
#     4  10  24  37  66  95 120 160 206 258 307 354
#     4  10  20  40  65  92 126 156 204 263 295 363
#     4  11  25  42  61  91 129 161 207 256 303 366
#     4   9  19  40  63  88 123 162 208 250 300 370
#     4  10  24  40  62  92 124 168 202 250 316 354
#     4  12  25  39  60  99 120 162 216 242 306 380
#
# _framework density 21.193014000000002
#
# number of rings (size 3 to 8) (size 9 to 14) (size 15 to 20)
#    0.000    2.000    2.000    0.300    5.600    3.200 
#    0.000    1.500    0.000    0.000    0.000    0.000 
#    0.000    0.000    0.000    0.000    0.000    0.000 
#
# Total GULP energy -111726.258983 kJ/mol
# GULP energy per Si atom -5586.312949 kJ/mol
# Density = 2.114478 g / cm^3
# Si number density = 21.193014 Si / 1000 Ang^3
#
#
#
# Elastic Constant Matrix: (Units=GPa)
#
#
# Indices 1 2 3 4 5 6 
#
# 1 126.5344 56.8728 15.8537 -0.0143 17.7220 -0.0130
# 2 56.8728 152.1609 10.1772 -0.0033 1.9095 -0.0050
# 3 15.8537 10.1772 85.4196 -0.0088 -16.9328 -0.0110
# 4 -0.0143 -0.0033 -0.0088 -5.7446 0.0019 -8.2243
# 5 17.7220 1.9095 -16.9328 0.0019 47.6355 0.0010
# 6 -0.0130 -0.0050 -0.0110 -8.2243 0.0010 16.4886
#
#
#
# Elastic Compliance Matrix: (Units=1/GPa)
#
#
# Indices 1 2 3 4 5 6 
#
# 1 0.010525 -0.003713 -0.002429 -0.000018 -0.004630 -0.000003
# 2 -0.003713 0.007950 -0.000051 0.000003 0.001045 0.000001
# 3 -0.002429 -0.000051 0.013279 -0.000013 0.005626 0.000000
# 4 -0.000018 0.000003 -0.000013 -0.101556 0.000007 -0.050655
# 5 -0.004630 0.001045 0.005626 0.000007 0.024673 0.000002
# 6 -0.000003 0.000001 0.000000 -0.050655 0.000002 0.035382
#
#
# Mechanical properties :
#
#
# Convention : Reuss Voigt Hill
#
# Bulk Modulus (GPa) = 51.63177 58.88026 55.25601
# Shear Modulus (GPa) = 549.71730 30.42328 290.07029
#
# Velocity S-wave (km/s) = 16.12294 3.79295 11.71187
# Velocity P-wave (km/s) = 19.26174 6.85749 14.45752
#
# Compressibility (1/GPa) = 0.01936792
#
# Stress axis : x y z
#
# Youngs Moduli (GPa) = 95.01407 125.78318 75.30688
#
# Poissons Ratio (x) = 0.46707 0.18291
# Poissons Ratio (y) = 0.35281 0.00384
# Poissons Ratio (z) = 0.23077 0.00641
#
# Static dielectric constant tensor:
#      x y z
#    x 1.752640 0.000000 -0.021680 
#    y 0.000000 1.739910 0.000010 
#    z -0.021680 0.000010 1.824710 
# 
# From -- ./inp_files/270554.got.cif
#   From: 2010.05.17/outbox.cif.g08.bks.cpg/sg12_136_cif.got.tgz:270554.got - 2010.06.03 13:09:07.
