data_PCOD9204041
_publ_section_title
;
Structure prediction by ZEFSAII (Michael W. Deem and Ramdas Pophale) SiO2 
 PCOD9204041
Probable space group: C 2/M
;
_chemical_formula_sum "Si O2"
_cell_formula_units_Z 56
_cell_length_a 20.910908
_cell_length_b 8.723103
_cell_length_c 18.057840
_cell_angle_alpha 90.000000
_cell_angle_beta 71.594003
_cell_angle_gamma 90.000000
_cell_volume 3125.388688
_symmetry_space_group_name_H-M "C 2/M"
_symmetry_group_IT_number 12
_symmetry_cell_setting 'monoclinic'
loop_
_space_group_symop_operation_xyz
x,y,z
-x,y,-z
-x,-y,-z
x,-y,z
1/2+x,1/2+y,z
1/2-x,1/2+y,-z
1/2-x,1/2-y,-z
1/2+x,1/2-y,z
loop_
_atom_site_type_symbol
_atom_site_label
_atom_site_fract_x
_atom_site_fract_y
_atom_site_fract_z
Si Si1 0.834685 0.817740 0.170595
Si Si2 0.313951 0.683948 0.758820
Si Si3 0.918963 0.684558 0.837094
Si Si4 0.093563 0.814128 0.407606
Si Si5 0.928152 0.316654 0.264696
Si Si6 0.941551 0.814593 0.418038
Si Si7 0.076729 0.684636 0.992676
O O1 0.759244 0.753776 0.202517
O O2 0.877633 0.755983 0.224270
O O3 0.833610 0.000000 0.172062
O O4 0.871881 0.759869 0.082988
O O5 0.309176 0.500000 0.759375
O O6 0.364900 0.734982 0.804707
O O7 0.347985 0.736958 0.668926
O O8 0.912505 0.500000 0.832083
O O9 0.909994 0.723975 0.926712
O O10 0.994982 0.726174 0.785070
O O11 0.096009 0.766588 0.492527
O O12 0.020201 0.770850 0.401877
O O13 0.093943 0.000000 0.408072
O O14 0.922877 0.500000 0.262276
O O15 0.915585 0.259610 0.352485
O O16 0.938720 0.000000 0.413115
O O17 0.081226 0.500000 0.983316
O O18 0.000000 0.728092 0.000000
#
# Coordination Sequence:
#
# PCOD9204041 Si02
#       7
#     8   8   8   8   8   8   8
#     4  12  26  41  59  85 118 155 195 242 293 346
#     4  11  22  39  61  86 118 158 197 235 289 349
#     4  10  21  37  61  88 118 151 189 238 289 342
#     4   8  16  31  56  86 118 152 189 237 289 341
#     4  11  21  37  59  88 119 153 194 238 288 346
#     4   9  16  32  57  88 118 148 192 241 288 338
#     4  10  20  40  64  87 116 152 191 239 293 341
#
# _framework density 17.917771999999999
#
# number of rings (size 3 to 8) (size 9 to 14) (size 15 to 20)
#    0.000    1.857    2.857    3.000    0.000    2.000 
#    0.000    3.571    0.000    0.000    0.000    0.000 
#    0.000    0.000    0.000    0.000    0.000    0.000 
#
# Total GULP energy -156357.196904 kJ/mol
# GULP energy per Si atom -5584.185604 kJ/mol
# Density = 1.787699 g / cm^3
# Si number density = 17.917772 Si / 1000 Ang^3
#
#
#
# Elastic Constant Matrix: (Units=GPa)
#
#
# Indices 1 2 3 4 5 6 
#
# 1 128.1762 53.1563 90.9601 0.0000 -8.2554 0.0000
# 2 53.1563 51.6155 58.6854 0.0000 -1.0747 0.0000
# 3 90.9601 58.6854 180.3252 0.0000 -0.9021 0.0000
# 4 0.0000 0.0000 0.0000 24.5139 0.0000 5.5703
# 5 -8.2554 -1.0747 -0.9021 0.0000 29.4332 0.0000
# 6 0.0000 0.0000 0.0000 5.5703 0.0000 25.3251
#
#
#
# Elastic Compliance Matrix: (Units=1/GPa)
#
#
# Indices 1 2 3 4 5 6 
#
# 1 0.015760 -0.011323 -0.004245 0.000000 0.003877 0.000000
# 2 -0.011323 0.038908 -0.006961 0.000000 -0.001968 0.000000
# 3 -0.004245 -0.006961 0.009947 0.000000 -0.001140 0.000000
# 4 0.000000 0.000000 0.000000 0.042939 0.000000 -0.009445
# 5 0.003877 -0.001968 -0.001140 0.000000 0.034956 0.000000
# 6 0.000000 0.000000 0.000000 -0.009445 0.000000 0.041564
#
#
# Mechanical properties :
#
#
# Convention : Reuss Voigt Hill
#
# Bulk Modulus (GPa) = 51.13310 85.08003 68.10657
# Shear Modulus (GPa) = 21.21796 26.34213 23.78004
#
# Velocity S-wave (km/s) = 3.44493 3.83844 3.64700
# Velocity P-wave (km/s) = 6.66506 8.19948 7.47176
#
# Compressibility (1/GPa) = 0.01955680
#
# Stress axis : x y z
#
# Youngs Moduli (GPa) = 63.45249 25.70176 100.53739
#
# Poissons Ratio (x) = 0.29101 0.42681
# Poissons Ratio (y) = 0.71846 0.69980
# Poissons Ratio (z) = 0.26938 0.17890
#
# Static dielectric constant tensor:
#      x y z
#    x 1.575610 0.000000 -0.003220 
#    y 0.000000 1.600720 0.000000 
#    z -0.003220 0.000000 1.616510 
# 
# From -- ./inp_files/275318.got.cif
#   From: 2010.05.17/outbox.cif.g08.bks.cpg/sg12_138_cif.got.tgz:275318.got - 2010.06.03 13:09:07.
