data_PCOD9204019
_publ_section_title
;
Structure prediction by ZEFSAII (Michael W. Deem and Ramdas Pophale) SiO2 
 PCOD9204019
Probable space group: C 2/M
;
_chemical_formula_sum "Si O2"
_cell_formula_units_Z 58
_cell_length_a 19.540444
_cell_length_b 26.670131
_cell_length_c 13.819534
_cell_angle_alpha 90.000000
_cell_angle_beta 157.951540
_cell_angle_gamma 90.000000
_cell_volume 2703.562643
_symmetry_space_group_name_H-M "C 2/M"
_symmetry_group_IT_number 12
_symmetry_cell_setting 'monoclinic'
loop_
_space_group_symop_operation_xyz
x,y,z
-x,y,-z
-x,-y,-z
x,-y,z
1/2+x,1/2+y,z
1/2-x,1/2+y,-z
1/2-x,1/2-y,-z
1/2+x,1/2-y,z
loop_
_atom_site_type_symbol
_atom_site_label
_atom_site_fract_x
_atom_site_fract_y
_atom_site_fract_z
Si Si1 0.873072 0.185184 0.927344
Si Si2 0.500000 0.000000 0.500000
Si Si3 0.676568 0.555389 0.387643
Si Si4 0.073955 0.444239 0.996584
Si Si5 0.320629 0.867721 0.012964
Si Si6 0.538060 0.647787 0.330003
Si Si7 0.300925 0.292170 0.289238
Si Si8 0.658173 0.906657 0.581407
O O1 0.758531 0.235866 0.768726
O O2 0.745368 0.135906 0.763174
O O3 0.990527 0.184454 0.179103
O O4 0.000000 0.181658 0.000000
O O5 0.586332 0.955326 0.542845
O O6 0.590296 0.500000 0.280942
O O7 0.598076 0.595804 0.359055
O O8 0.689118 0.576338 0.296063
O O9 0.889013 0.550388 0.693583
O O10 0.149063 0.500000 0.116294
O O11 0.203148 0.411199 0.099348
O O12 0.000000 0.421774 0.000000
O O13 0.144239 0.862829 0.848082
O O14 0.334831 0.818051 0.965900
O O15 0.493779 0.880638 0.305736
O O16 0.679023 0.674082 0.588079
O O17 0.500000 0.292135 0.500000
#
# Coordination Sequence:
#
# PCOD9204019 Si02
#       8
#     8   2   8   8   8   8   8   8
#     4  12  27  45  68 101 135 179 229 283 339 404
#     4  12  24  44  74 104 140 180 232 270 342 402
#     4  10  20  40  63  93 138 173 215 275 337 399
#     4   9  18  34  62  94 130 174 219 272 332 398
#     4  10  23  42  68  99 134 173 230 274 340 405
#     4  11  24  44  66  99 137 178 226 279 343 408
#     4  10  26  45  70  96 134 179 227 285 345 400
#     4  11  24  44  67 101 136 175 227 278 329 411
#
# _framework density 21.453173
#
# number of rings (size 3 to 8) (size 9 to 14) (size 15 to 20)
#    0.000    1.517    2.069    1.655    5.793    4.966 
#    3.724    1.034    0.000    4.966    0.000    0.000 
#    0.000    0.000    0.000    0.000    0.000    0.000 
#
# Total GULP energy -161733.845211 kJ/mol
# GULP energy per Si atom -5577.029145 kJ/mol
# Density = 2.140434 g / cm^3
# Si number density = 21.453173 Si / 1000 Ang^3
#
#
#
# Elastic Constant Matrix: (Units=GPa)
#
#
# Indices 1 2 3 4 5 6 
#
# 1 129.7101 53.1248 21.5339 0.0000 -8.6844 0.0000
# 2 53.1248 147.9319 42.4715 0.0000 -9.8390 0.0000
# 3 21.5339 42.4715 56.3287 0.0000 -14.1565 -0.0001
# 4 0.0000 0.0000 0.0000 18.4275 0.0000 -0.2374
# 5 -8.6844 -9.8390 -14.1565 0.0000 14.3640 0.0000
# 6 0.0000 0.0000 -0.0001 -0.2374 0.0000 21.9753
#
#
#
# Elastic Compliance Matrix: (Units=1/GPa)
#
#
# Indices 1 2 3 4 5 6 
#
# 1 0.009210 -0.002953 -0.000536 0.000000 0.003017 0.000000
# 2 -0.002953 0.009579 -0.006504 0.000000 -0.001634 0.000000
# 3 -0.000536 -0.006504 0.028793 0.000000 0.023597 0.000000
# 4 0.000000 0.000000 0.000000 0.054274 0.000000 0.000586
# 5 0.003017 -0.001634 0.023597 0.000000 0.093579 0.000000
# 6 0.000000 0.000000 0.000000 0.000586 0.000000 0.045512
#
#
# Mechanical properties :
#
#
# Convention : Reuss Voigt Hill
#
# Bulk Modulus (GPa) = 36.23874 63.13678 49.68776
# Shear Modulus (GPa) = 18.50945 25.40939 21.95942
#
# Velocity S-wave (km/s) = 2.94050 3.44526 3.20284
# Velocity P-wave (km/s) = 5.33455 6.73204 6.07362
#
# Compressibility (1/GPa) = 0.02759478
#
# Stress axis : x y z
#
# Youngs Moduli (GPa) = 108.57894 104.39493 34.73105
#
# Poissons Ratio (x) = 0.30826 0.01862
# Poissons Ratio (y) = 0.32061 0.22591
# Poissons Ratio (z) = 0.05821 0.67903
#
# Static dielectric constant tensor:
#      x y z
#    x 1.771900 0.000000 -0.034890 
#    y 0.000000 1.788080 0.000000 
#    z -0.034890 0.000000 1.813980 
# 
# From -- ./inp_files/235831.got.cif
#   From: 2010.05.17/outbox.cif.g08.bks.cpg/sg12_118_cif.got.tgz:235831.got - 2010.06.03 13:09:07.
