data_PCOD9204190
_publ_section_title
;
Structure prediction by ZEFSAII (Michael W. Deem and Ramdas Pophale) SiO2 
 PCOD9204190
Probable space group: C 2/M
;
_chemical_formula_sum "Si O2"
_cell_formula_units_Z 42
_cell_length_a 15.039303
_cell_length_b 27.481543
_cell_length_c 5.068632
_cell_angle_alpha 90.000000
_cell_angle_beta 58.211674
_cell_angle_gamma 90.000000
_cell_volume 1780.649865
_symmetry_space_group_name_H-M "C 2/M"
_symmetry_group_IT_number 12
_symmetry_cell_setting 'monoclinic'
loop_
_space_group_symop_operation_xyz
x,y,z
-x,y,-z
-x,-y,-z
x,-y,z
1/2+x,1/2+y,z
1/2-x,1/2+y,-z
1/2-x,1/2-y,-z
1/2+x,1/2-y,z
loop_
_atom_site_type_symbol
_atom_site_label
_atom_site_fract_x
_atom_site_fract_y
_atom_site_fract_z
Si Si1 0.500000 0.000000 0.000000
Si Si2 0.891730 0.945580 0.503853
Si Si3 0.162888 0.584105 0.914678
Si Si4 0.428416 0.251917 0.367643
Si Si5 0.174161 0.649117 0.366975
Si Si6 0.120191 0.844952 0.776900
O O1 0.417003 0.042213 0.033561
O O2 0.776442 0.939323 0.814298
O O3 0.888429 0.899320 0.319777
O O4 0.000000 0.941636 0.500000
O O5 0.893296 0.000000 0.380506
O O6 0.171905 0.620331 0.648926
O O7 0.125164 0.616073 0.218764
O O8 0.500000 0.268042 0.500000
O O9 0.374027 0.201927 0.535974
O O10 0.348439 0.296607 0.436849
O O11 0.500000 0.239346 0.000000
O O12 0.298703 0.653873 0.111850
O O13 0.000000 0.832459 0.000000
#
# Coordination Sequence:
#
# PCOD9204190 Si02
#       6
#     2   8   8   8   8   8
#     4  12  28  50  70 102 148 182 236 288 346 414
#     4  10  20  40  66  99 136 176 230 287 348 418
#     4  11  26  45  70 103 135 186 228 288 348 409
#     4  11  24  42  68 102 140 187 232 287 350 415
#     4  11  25  44  71 101 137 180 237 281 345 415
#     4  10  22  42  67 101 140 181 229 291 354 413
#
# _framework density 23.586891999999999
#
# number of rings (size 3 to 8) (size 9 to 14) (size 15 to 20)
#    0.000    1.333    0.952    3.429    4.000    6.476 
#    1.714    9.524    0.000    0.000    0.000    0.000 
#    0.000    0.000    0.000    0.000    0.000    0.000 
#
# Total GULP energy -116941.460571 kJ/mol
# GULP energy per Si atom -5568.640980 kJ/mol
# Density = 2.353321 g / cm^3
# Si number density = 23.586892 Si / 1000 Ang^3
#
#
#
# Elastic Constant Matrix: (Units=GPa)
#
#
# Indices 1 2 3 4 5 6 
#
# 1 105.0045 31.0528 23.2100 0.0000 -16.8095 0.0000
# 2 31.0528 183.8691 16.5304 0.0000 -11.8926 0.0000
# 3 23.2100 16.5304 48.6687 0.0000 1.6299 0.0000
# 4 0.0000 0.0000 0.0000 18.1518 0.0000 1.4211
# 5 -16.8095 -11.8926 1.6299 0.0000 30.3848 0.0000
# 6 0.0000 0.0000 0.0000 1.4211 0.0000 28.9845
#
#
#
# Elastic Compliance Matrix: (Units=1/GPa)
#
#
# Indices 1 2 3 4 5 6 
#
# 1 0.012155 -0.001120 -0.005637 0.000000 0.006589 0.000000
# 2 -0.001120 0.005879 -0.001522 0.000000 0.001763 0.000000
# 3 -0.005637 -0.001522 0.023920 0.000000 -0.004997 0.000000
# 4 0.000000 0.000000 0.000000 0.055303 0.000000 -0.002711
# 5 0.006589 0.001763 -0.004997 0.000000 0.037514 0.000000
# 6 0.000000 0.000000 0.000000 -0.002711 0.000000 0.034634
#
#
# Mechanical properties :
#
#
# Convention : Reuss Voigt Hill
#
# Bulk Modulus (GPa) = 39.37597 53.23653 46.30625
# Shear Modulus (GPa) = 25.71648 33.28750 29.50199
#
# Velocity S-wave (km/s) = 3.30553 3.76076 3.54047
# Velocity P-wave (km/s) = 5.59455 6.44028 6.03225
#
# Compressibility (1/GPa) = 0.02539620
#
# Stress axis : x y z
#
# Youngs Moduli (GPa) = 82.26837 170.10812 41.80675
#
# Poissons Ratio (x) = 0.19051 0.23567
# Poissons Ratio (y) = 0.09213 0.06361
# Poissons Ratio (z) = 0.46376 0.25884
#
# Static dielectric constant tensor:
#      x y z
#    x 1.912200 0.000000 -0.082060 
#    y 0.000000 1.873980 0.000000 
#    z -0.082060 0.000000 2.096720 
# 
# From -- ./inp_files/12327.got.cif
#   From: 2010.05.17/outbox.cif.g08.bks.cpg/sg12_7_cif.got.tgz:12327.got - 2010.06.03 13:09:07.
