data_PCOD9204988
_publ_section_title
;
Structure prediction by ZEFSAII (Michael W. Deem and Ramdas Pophale) SiO2 
 PCOD9204988
Probable space group: C 2/M
;
_chemical_formula_sum "Si O2"
_cell_formula_units_Z 40
_cell_length_a 20.260433
_cell_length_b 7.583044
_cell_length_c 20.870437
_cell_angle_alpha 90.000000
_cell_angle_beta 141.609919
_cell_angle_gamma 90.000000
_cell_volume 1991.241352
_symmetry_space_group_name_H-M "C 2/M"
_symmetry_group_IT_number 12
_symmetry_cell_setting 'monoclinic'
loop_
_space_group_symop_operation_xyz
x,y,z
-x,y,-z
-x,-y,-z
x,-y,z
1/2+x,1/2+y,z
1/2-x,1/2+y,-z
1/2-x,1/2-y,-z
1/2+x,1/2-y,z
loop_
_atom_site_type_symbol
_atom_site_label
_atom_site_fract_x
_atom_site_fract_y
_atom_site_fract_z
Si Si1 0.470237 0.500000 0.084629
Si Si2 0.989452 0.297176 0.643022
Si Si3 0.966765 0.284940 0.767991
Si Si4 0.278467 0.300404 0.421208
Si Si5 0.672770 0.500000 0.144220
Si Si6 0.146525 0.701522 0.659051
O O1 0.476139 0.672973 0.133782
O O2 0.574958 0.500000 0.119182
O O3 0.371715 0.500000 0.961009
O O4 0.025375 0.500000 0.671283
O O5 0.007300 0.231589 0.728225
O O6 0.864955 0.292358 0.531460
O O7 0.056131 0.216807 0.635157
O O8 0.973599 0.500000 0.780625
O O9 0.841651 0.232921 0.673565
O O10 0.272375 0.500000 0.440249
O O11 0.324092 0.295793 0.383854
O O12 0.748134 0.666409 0.218287
O O13 0.115250 0.500000 0.615083
#
# Coordination Sequence:
#
# PCOD9204988 Si02
#       6
#     4   8   8   8   4   8
#     4  11  20  40  67  82 110 145 195 247 285 329
#     4  10  21  34  55  78 116 156 183 221 286 343
#     4  10  22  38  56  86 117 150 188 236 281 339
#     4  11  21  33  52  84 117 151 190 228 272 341
#     4   9  20  38  64  87  98 146 199 239 285 341
#     4   9  18  37  56  76 112 147 187 230 281 334
#
# _framework density 20.087972000000001
#
# number of rings (size 3 to 8) (size 9 to 14) (size 15 to 20)
#    0.600    1.400    2.000    1.800    2.800    3.200 
#    0.000    4.000    0.000    0.000    0.000    0.000 
#    0.000    0.000    0.000    0.000    0.000    0.000 
#
# Total GULP energy -111530.259890 kJ/mol
# GULP energy per Si atom -5576.512994 kJ/mol
# Density = 2.004225 g / cm^3
# Si number density = 20.087972 Si / 1000 Ang^3
#
#
#
# Elastic Constant Matrix: (Units=GPa)
#
#
# Indices 1 2 3 4 5 6 
#
# 1 54.5633 4.7539 1.9366 0.0000 -15.9365 0.0000
# 2 4.7539 53.5092 13.6433 -0.0001 -5.9712 0.0001
# 3 1.9366 13.6433 104.6225 0.0000 -9.9826 0.0000
# 4 0.0000 -0.0001 0.0000 14.4120 0.0000 6.8705
# 5 -15.9365 -5.9712 -9.9826 0.0000 27.2655 0.0000
# 6 0.0000 0.0001 0.0000 6.8705 0.0000 -4.5828
#
#
#
# Elastic Compliance Matrix: (Units=1/GPa)
#
#
# Indices 1 2 3 4 5 6 
#
# 1 0.022202 -0.000744 0.000942 0.000000 0.013159 0.000000
# 2 -0.000744 0.019671 -0.002261 0.000000 0.003045 0.000000
# 3 0.000942 -0.002261 0.010197 0.000000 0.003789 0.000000
# 4 0.000000 0.000000 0.000000 0.040466 0.000000 0.060666
# 5 0.013159 0.003045 0.003789 0.000000 0.046422 0.000000
# 6 0.000000 0.000000 0.000000 0.060666 0.000000 -0.127258
#
#
# Mechanical properties :
#
#
# Convention : Reuss Voigt Hill
#
# Bulk Modulus (GPa) = 20.85803 28.15141 24.50472
# Shear Modulus (GPa) = 157.19810 20.24302 88.72056
#
# Velocity S-wave (km/s) = 8.85577 3.17790 6.65296
# Velocity P-wave (km/s) = 10.72251 5.24499 8.44044
#
# Compressibility (1/GPa) = 0.04794316
#
# Stress axis : x y z
#
# Youngs Moduli (GPa) = 45.04079 50.83682 98.06741
#
# Poissons Ratio (x) = 0.03783 -0.09234
# Poissons Ratio (y) = 0.03352 0.22171
# Poissons Ratio (z) = -0.04241 0.11493
#
# Static dielectric constant tensor:
#      x y z
#    x 1.760000 0.000000 0.005000 
#    y 0.000000 1.722490 0.000000 
#    z 0.005000 0.000000 1.687610 
# 
# From -- ./inp_files/281910.got.cif
#   From: 2010.05.17/outbox.cif.g08.bks.cpg/sg12_141_cif.got.tgz:281910.got - 2010.06.03 13:09:07.
