data_PCOD9204928
_publ_section_title
;
Structure prediction by ZEFSAII (Michael W. Deem and Ramdas Pophale) SiO2 
 PCOD9204928
Probable space group: C 2/M
;
_chemical_formula_sum "Si O2"
_cell_formula_units_Z 28
_cell_length_a 31.475970
_cell_length_b 5.526083
_cell_length_c 6.997598
_cell_angle_alpha 90.000000
_cell_angle_beta 69.578108
_cell_angle_gamma 90.000000
_cell_volume 1140.654293
_symmetry_space_group_name_H-M "C 2/M"
_symmetry_group_IT_number 12
_symmetry_cell_setting 'monoclinic'
loop_
_space_group_symop_operation_xyz
x,y,z
-x,y,-z
-x,-y,-z
x,-y,z
1/2+x,1/2+y,z
1/2-x,1/2+y,-z
1/2-x,1/2-y,-z
1/2+x,1/2-y,z
loop_
_atom_site_type_symbol
_atom_site_label
_atom_site_fract_x
_atom_site_fract_y
_atom_site_fract_z
Si Si1 0.458555 0.500000 0.788607
Si Si2 0.390413 0.000000 0.313187
Si Si3 0.818589 0.500000 0.720110
Si Si4 0.439774 0.500000 0.275197
Si Si5 0.765105 0.248805 0.254195
Si Si6 0.091972 0.500000 0.167037
O O1 0.512884 0.500000 0.686835
O O2 0.436128 0.248510 0.753787
O O3 0.450078 0.500000 0.031861
O O4 0.339867 0.000000 0.473335
O O5 0.413249 0.249265 0.350357
O O6 0.395384 0.000000 0.077617
O O7 0.782646 0.719402 0.782839
O O8 0.862341 0.500000 0.781539
O O9 0.787259 0.500000 0.168661
O O10 0.750000 0.250000 0.500000
O O11 0.791958 0.000000 0.182198
#
# Coordination Sequence:
#
# PCOD9204928 Si02
#       6
#     4   4   4   4   8   4
#     4   9  18  35  54  71 100 138 171 206 248 298
#     4  10  21  34  52  78 101 130 170 208 253 297
#     4  10  22  32  57  74 108 130 162 210 259 286
#     4   9  18  35  54  71 100 138 171 206 248 298
#     4   8  16  30  50  75  94 131 170 192 238 304
#     4  10  21  34  52  78 101 130 170 208 253 297
#
# _framework density 24.547315999999999
#
# number of rings (size 3 to 8) (size 9 to 14) (size 15 to 20)
#    0.857    2.000    0.000    0.857    4.000    3.429 
#    0.000    4.286    0.000    1.714    0.000    0.000 
#    0.000    0.000    0.000    0.000    0.000    0.000 
#
# Total GULP energy -78190.215389 kJ/mol
# GULP energy per Si atom -5585.015385 kJ/mol
# Density = 2.449144 g / cm^3
# Si number density = 24.547316 Si / 1000 Ang^3
#
#
#
# Elastic Constant Matrix: (Units=GPa)
#
#
# Indices 1 2 3 4 5 6 
#
# 1 161.0957 71.5404 28.2653 0.0000 9.4559 0.0000
# 2 71.5404 267.2298 22.1822 0.0000 -10.5131 0.0000
# 3 28.2653 22.1822 79.8200 0.0000 3.4782 0.0000
# 4 0.0000 0.0000 0.0000 0.7692 0.0000 -6.5389
# 5 9.4559 -10.5131 3.4782 0.0000 51.1681 0.0000
# 6 0.0000 0.0000 0.0000 -6.5389 0.0000 20.3637
#
#
#
# Elastic Compliance Matrix: (Units=1/GPa)
#
#
# Indices 1 2 3 4 5 6 
#
# 1 0.007511 -0.001904 -0.002059 0.000000 -0.001639 0.000000
# 2 -0.001904 0.004352 -0.000591 0.000000 0.001286 0.000000
# 3 -0.002059 -0.000591 0.013450 0.000000 -0.000655 0.000000
# 4 0.000000 0.000000 0.000000 -0.751615 0.000000 -0.241348
# 5 -0.001639 0.001286 -0.000655 0.000000 0.020155 0.000000
# 6 0.000000 0.000000 0.000000 -0.241348 0.000000 -0.028391
#
#
# Mechanical properties :
#
#
# Convention : Reuss Voigt Hill
#
# Bulk Modulus (GPa) = 61.71418 83.56904 72.64161
# Shear Modulus (GPa) = -6.94417 40.20404 16.62993
#
# Velocity S-wave (km/s) = -1.68376 4.05139 2.60564
# Velocity P-wave (km/s) = 4.62768 7.48351 6.22167
#
# Compressibility (1/GPa) = 0.01620373
#
# Stress axis : x y z
#
# Youngs Moduli (GPa) = 133.14464 229.80333 74.34892
#
# Poissons Ratio (x) = 0.43760 0.15308
# Poissons Ratio (y) = 0.25354 0.04394
# Poissons Ratio (z) = 0.27414 0.13582
#
# Static dielectric constant tensor:
#      x y z
#    x 1.869770 0.000000 0.100060 
#    y 0.000000 1.971100 0.000000 
#    z 0.100060 0.000000 1.997830 
# 
# From -- ./inp_files/100372.got.cif
#   From: 2010.05.17/outbox.cif.g08.bks.cpg/sg12_51_cif.got.tgz:100372.got - 2010.06.03 13:09:07.
