data_PCOD9204262
_publ_section_title
;
Structure prediction by ZEFSAII (Michael W. Deem and Ramdas Pophale) SiO2 
 PCOD9204262
Probable space group: C 2/M
;
_chemical_formula_sum "Si O2"
_cell_formula_units_Z 48
_cell_length_a 10.283614
_cell_length_b 22.971326
_cell_length_c 10.906651
_cell_angle_alpha 90.000000
_cell_angle_beta 120.152050
_cell_angle_gamma 90.000000
_cell_volume 2227.852489
_symmetry_space_group_name_H-M "C 2/M"
_symmetry_group_IT_number 12
_symmetry_cell_setting 'monoclinic'
loop_
_space_group_symop_operation_xyz
x,y,z
-x,y,-z
-x,-y,-z
x,-y,z
1/2+x,1/2+y,z
1/2-x,1/2+y,-z
1/2-x,1/2-y,-z
1/2+x,1/2-y,z
loop_
_atom_site_type_symbol
_atom_site_label
_atom_site_fract_x
_atom_site_fract_y
_atom_site_fract_z
Si Si1 0.409398 0.434723 0.075973
Si Si2 0.383667 0.835215 0.233161
Si Si3 0.154242 0.120221 0.326187
Si Si4 0.822745 0.658485 0.941448
Si Si5 0.086566 0.432668 0.408287
Si Si6 0.439782 0.289856 0.337396
O O1 0.363244 0.500000 0.022283
O O2 0.539788 0.431035 0.238638
O O3 0.269919 0.399516 0.064707
O O4 0.500000 0.410247 0.000000
O O5 0.258066 0.862317 0.261399
O O6 0.498951 0.889210 0.276421
O O7 0.453560 0.779443 0.332334
O O8 0.322763 0.811418 0.075560
O O9 0.256692 0.098135 0.485442
O O10 0.054159 0.176632 0.303557
O O11 0.726459 0.689863 0.788212
O O12 0.000000 0.651304 0.000000
O O13 0.097292 0.500000 0.373660
O O14 0.000000 0.433121 0.500000
O O15 0.500000 0.306840 0.500000
#
# Coordination Sequence:
#
# PCOD9204262 Si02
#       6
#     8   8   8   8   8   8
#     4  10  20  40  69  96 128 173 226 276 323 390
#     4  11  23  41  65  99 129 172 223 271 333 391
#     4  10  21  39  67  93 133 170 225 270 327 392
#     4  11  26  44  65  96 140 175 217 277 338 389
#     4   9  19  35  61  97 129 160 207 274 332 382
#     4  11  26  43  67  95 133 178 217 271 329 401
#
# _framework density 21.545411999999999
#
# number of rings (size 3 to 8) (size 9 to 14) (size 15 to 20)
#    0.000    1.667    1.667    2.500    4.667    3.000 
#    0.000    0.000    0.000    2.500    0.000    0.000 
#    0.000    0.000    0.000    0.000    0.000    0.000 
#
# Total GULP energy -133776.913458 kJ/mol
# GULP energy per Si atom -5574.038061 kJ/mol
# Density = 2.149637 g / cm^3
# Si number density = 21.545412 Si / 1000 Ang^3
#
#
#
# Elastic Constant Matrix: (Units=GPa)
#
#
# Indices 1 2 3 4 5 6 
#
# 1 73.7377 41.5841 36.8124 0.0000 22.5586 0.0000
# 2 41.5841 104.5174 31.0599 0.0000 22.3382 0.0000
# 3 36.8124 31.0599 134.9283 0.0000 15.1388 0.0000
# 4 0.0000 0.0000 0.0000 29.7103 0.0000 -11.6853
# 5 22.5586 22.3382 15.1388 0.0000 30.7447 0.0000
# 6 0.0000 0.0000 0.0000 -11.6853 0.0000 22.2861
#
#
#
# Elastic Compliance Matrix: (Units=1/GPa)
#
#
# Indices 1 2 3 4 5 6 
#
# 1 0.021391 -0.005314 -0.003477 0.000000 -0.010122 0.000000
# 2 -0.005314 0.013067 -0.000985 0.000000 -0.005110 0.000000
# 3 -0.003477 -0.000985 0.008701 0.000000 -0.001018 0.000000
# 4 0.000000 0.000000 0.000000 0.042403 0.000000 0.022233
# 5 -0.010122 -0.005110 -0.001018 0.000000 0.044167 0.000000
# 6 0.000000 0.000000 0.000000 0.022233 0.000000 0.056529
#
#
# Mechanical properties :
#
#
# Convention : Reuss Voigt Hill
#
# Bulk Modulus (GPa) = 42.36066 59.12180 50.74123
# Shear Modulus (GPa) = 23.39970 30.13003 26.76486
#
# Velocity S-wave (km/s) = 3.29912 3.74363 3.52839
# Velocity P-wave (km/s) = 5.84945 6.79607 6.34045
#
# Compressibility (1/GPa) = 0.02360681
#
# Stress axis : x y z
#
# Youngs Moduli (GPa) = 46.74845 76.52939 114.93120
#
# Poissons Ratio (x) = 0.40669 0.39963
# Poissons Ratio (y) = 0.24843 0.11318
# Poissons Ratio (z) = 0.16255 0.07536
#
# Static dielectric constant tensor:
#      x y z
#    x 1.785370 0.000000 0.014700 
#    y 0.000000 1.792190 0.000000 
#    z 0.014700 0.000000 1.854760 
# 
# From -- ./inp_files/135543.got.cif
#   From: 2010.05.17/outbox.cif.g08.bks.cpg/sg12_68_cif.got.tgz:135543.got - 2010.06.03 13:09:07.
