data_PCOD9204779
_publ_section_title
;
Structure prediction by ZEFSAII (Michael W. Deem and Ramdas Pophale) SiO2 
 PCOD9204779
Probable space group: C 2/M
;
_chemical_formula_sum "Si O2"
_cell_formula_units_Z 56
_cell_length_a 8.745668
_cell_length_b 24.904578
_cell_length_c 12.236731
_cell_angle_alpha 90.000000
_cell_angle_beta 63.002065
_cell_angle_gamma 90.000000
_cell_volume 2374.796751
_symmetry_space_group_name_H-M "C 2/M"
_symmetry_group_IT_number 12
_symmetry_cell_setting 'monoclinic'
loop_
_space_group_symop_operation_xyz
x,y,z
-x,y,-z
-x,-y,-z
x,-y,z
1/2+x,1/2+y,z
1/2-x,1/2+y,-z
1/2-x,1/2-y,-z
1/2+x,1/2-y,z
loop_
_atom_site_type_symbol
_atom_site_label
_atom_site_fract_x
_atom_site_fract_y
_atom_site_fract_z
Si Si1 0.453104 0.935856 0.179213
Si Si2 0.517731 0.670171 0.154292
Si Si3 0.617125 0.637330 0.565800
Si Si4 0.291462 0.565279 0.942713
Si Si5 0.136843 0.563916 0.548742
Si Si6 0.264691 0.748372 0.790237
Si Si7 0.869308 0.709563 0.390605
O O1 0.302633 0.922386 0.142626
O O2 0.410684 0.917190 0.312969
O O3 0.459989 0.000000 0.171120
O O4 0.642056 0.919927 0.077505
O O5 0.446534 0.660656 0.301103
O O6 0.563418 0.610980 0.096627
O O7 0.676350 0.710650 0.128939
O O8 0.371541 0.704602 0.140401
O O9 0.500000 0.651170 0.500000
O O10 0.665496 0.575378 0.552255
O O11 0.808616 0.657119 0.473333
O O12 0.331565 0.500000 0.936370
O O13 0.124311 0.500000 0.565132
O O14 0.000000 0.577073 0.500000
O O15 0.185444 0.712389 0.718489
O O16 0.432513 0.775290 0.679349
O O17 0.750000 0.750000 0.500000
#
# Coordination Sequence:
#
# PCOD9204779 Si02
#       7
#     8   8   8   8   8   8   8
#     4   8  16  36  65  92 123 167 222 275 321 381
#     4  11  22  34  56  93 129 171 213 267 325 386
#     4  12  22  32  55  88 124 163 209 262 325 379
#     4   9  18  36  66  99 125 166 229 282 318 374
#     4  10  23  39  57  91 135 168 200 257 341 408
#     4  10  21  33  52  83 126 169 214 260 324 385
#     4  11  18  32  52  77 113 162 213 267 302 382
#
# _framework density 23.580964999999999
#
# number of rings (size 3 to 8) (size 9 to 14) (size 15 to 20)
#    0.000    1.857    4.286    2.143    2.000    0.857 
#    0.000    0.000    0.000    4.286    0.000    9.000 
#    0.000    5.143    0.000    0.000    0.000    0.000 
#
# Total GULP energy -156215.522680 kJ/mol
# GULP energy per Si atom -5579.125810 kJ/mol
# Density = 2.352729 g / cm^3
# Si number density = 23.580965 Si / 1000 Ang^3
#
#
#
# Elastic Constant Matrix: (Units=GPa)
#
#
# Indices 1 2 3 4 5 6 
#
# 1 75.1251 51.0138 21.2272 0.0000 -4.2967 0.0000
# 2 51.0138 88.3208 41.2110 0.0000 -12.5918 0.0000
# 3 21.2272 41.2110 69.8791 0.0000 4.8851 0.0000
# 4 0.0000 0.0000 0.0000 21.9214 0.0000 -21.4527
# 5 -4.2967 -12.5918 4.8851 0.0000 19.2864 0.0000
# 6 0.0000 0.0000 0.0000 -21.4527 0.0000 35.0725
#
#
#
# Elastic Compliance Matrix: (Units=1/GPa)
#
#
# Indices 1 2 3 4 5 6 
#
# 1 0.022365 -0.014702 0.002239 0.000000 -0.005183 0.000000
# 2 -0.014702 0.029127 -0.014061 0.000000 0.019303 0.000000
# 3 0.002239 -0.014061 0.022936 0.000000 -0.014491 0.000000
# 4 0.000000 0.000000 0.000000 0.113642 0.000000 0.069511
# 5 -0.005183 0.019303 -0.014491 0.000000 0.066968 0.000000
# 6 0.000000 0.000000 0.000000 0.069511 0.000000 0.071030
#
#
# Mechanical properties :
#
#
# Convention : Reuss Voigt Hill
#
# Bulk Modulus (GPa) = 46.77244 51.13655 48.95449
# Shear Modulus (GPa) = 12.94520 23.24758 18.09639
#
# Velocity S-wave (km/s) = 2.34555 3.14325 2.77323
# Velocity P-wave (km/s) = 5.21664 5.90813 5.57312
#
# Compressibility (1/GPa) = 0.02138011
#
# Stress axis : x y z
#
# Youngs Moduli (GPa) = 44.71206 34.33251 43.59985
#
# Poissons Ratio (x) = 0.50474 -0.09760
# Poissons Ratio (y) = 0.65734 0.61306
# Poissons Ratio (z) = -0.10009 0.48275
#
# Static dielectric constant tensor:
#      x y z
#    x 1.933780 0.000000 -0.019750 
#    y 0.000000 3.905000 0.000000 
#    z -0.019750 0.000000 1.903870 
# 
# From -- ./inp_files/124233.got.cif
#   From: 2010.05.17/outbox.cif.g08.bks.cpg/sg12_63_cif.got.tgz:124233.got - 2010.06.03 13:09:07.
