data_PCOD9204803
_publ_section_title
;
Structure prediction by ZEFSAII (Michael W. Deem and Ramdas Pophale) SiO2 
 PCOD9204803
Probable space group: C 2/M
;
_chemical_formula_sum "Si O2"
_cell_formula_units_Z 40
_cell_length_a 21.996129
_cell_length_b 11.686904
_cell_length_c 9.052461
_cell_angle_alpha 90.000000
_cell_angle_beta 46.455634
_cell_angle_gamma 90.000000
_cell_volume 1686.767524
_symmetry_space_group_name_H-M "C 2/M"
_symmetry_group_IT_number 12
_symmetry_cell_setting 'monoclinic'
loop_
_space_group_symop_operation_xyz
x,y,z
-x,y,-z
-x,-y,-z
x,-y,z
1/2+x,1/2+y,z
1/2-x,1/2+y,-z
1/2-x,1/2-y,-z
1/2+x,1/2-y,z
loop_
_atom_site_type_symbol
_atom_site_label
_atom_site_fract_x
_atom_site_fract_y
_atom_site_fract_z
Si Si1 0.598002 0.867765 0.555231
Si Si2 0.072657 0.000000 0.715550
Si Si3 0.694531 0.500000 0.248088
Si Si4 0.152598 0.771153 0.716345
Si Si5 0.741256 0.751403 0.840074
Si Si6 0.412750 0.500000 0.815094
Si Si7 0.500000 0.296437 0.500000
O O1 0.601226 0.828248 0.720352
O O2 0.689687 0.836686 0.336869
O O3 0.540737 0.784678 0.554036
O O4 0.577575 0.000000 0.572492
O O5 0.112398 0.887905 0.723199
O O6 0.108002 0.000000 0.487851
O O7 0.971451 0.000000 0.863595
O O8 0.738635 0.384569 0.227016
O O9 0.683214 0.500000 0.087336
O O10 0.250000 0.750000 0.500000
O O11 0.158128 0.773908 0.884288
O O12 0.750000 0.750000 0.000000
O O13 0.439692 0.382312 0.688579
#
# Coordination Sequence:
#
# PCOD9204803 Si02
#       7
#     8   4   4   8   8   4   4
#     4  11  22  35  56  85 112 145 182 236 277 331
#     4  12  17  35  61  86 109 143 186 245 282 319
#     4  12  19  37  61  80 113 153 189 226 281 335
#     4  10  21  33  55  81 112 143 189 229 277 331
#     4  11  25  37  54  83 116 152 185 225 280 341
#     4  11  16  32  60  85 110 139 192 236 277 331
#     4  11  17  34  56  88 109 135 186 236 284 325
#
# _framework density 23.713998
#
# number of rings (size 3 to 8) (size 9 to 14) (size 15 to 20)
#    0.000    1.000   10.000    0.300    8.400    0.000 
#    0.000    0.000    0.000    6.000    0.000    2.800 
#    0.000    0.000    0.000    0.000    0.000    0.000 
#
# Total GULP energy -111602.580744 kJ/mol
# GULP energy per Si atom -5580.129037 kJ/mol
# Density = 2.366002 g / cm^3
# Si number density = 23.713998 Si / 1000 Ang^3
#
#
#
# Elastic Constant Matrix: (Units=GPa)
#
#
# Indices 1 2 3 4 5 6 
#
# 1 139.0661 54.9749 32.5465 0.0000 58.3092 0.0000
# 2 54.9749 178.0710 19.2803 0.0000 17.1691 0.0000
# 3 32.5465 19.2803 90.4511 0.0000 37.8504 0.0000
# 4 0.0000 0.0000 0.0000 2.9994 0.0000 -3.2835
# 5 58.3092 17.1691 37.8504 0.0000 42.3931 0.0000
# 6 0.0000 0.0000 0.0000 -3.2835 0.0000 36.1358
#
#
#
# Elastic Compliance Matrix: (Units=1/GPa)
#
#
# Indices 1 2 3 4 5 6 
#
# 1 0.021797 -0.004175 0.007799 0.000000 -0.035254 0.000000
# 2 -0.004175 0.006653 -0.001902 0.000000 0.004746 0.000000
# 3 0.007799 -0.001902 0.020469 0.000000 -0.028232 0.000000
# 4 0.000000 0.000000 0.000000 0.370234 0.000000 0.033642
# 5 -0.035254 0.004746 -0.028232 0.000000 0.095363 0.000000
# 6 0.000000 0.000000 0.000000 0.033642 0.000000 0.030730
#
#
# Mechanical properties :
#
#
# Convention : Reuss Voigt Hill
#
# Bulk Modulus (GPa) = 19.09714 69.02131 44.05922
# Shear Modulus (GPa) = 8.94044 36.35810 22.64927
#
# Velocity S-wave (km/s) = 1.94378 3.91985 3.09382
# Velocity P-wave (km/s) = 3.62054 7.04669 5.60197
#
# Compressibility (1/GPa) = 0.05236386
#
# Stress axis : x y z
#
# Youngs Moduli (GPa) = 45.87693 150.30956 48.85440
#
# Poissons Ratio (x) = 0.62751 -0.38101
# Poissons Ratio (y) = 0.19153 0.09292
# Poissons Ratio (z) = -0.35779 0.28587
#
# Static dielectric constant tensor:
#      x y z
#    x 1.997950 0.000000 0.018610 
#    y 0.000000 1.859470 0.000000 
#    z 0.018610 0.000000 2.027350 
# 
# From -- ./inp_files/83534.got.cif
#   From: 2010.05.17/outbox.cif.g08.bks.cpg/sg12_42_cif.got.tgz:83534.got - 2010.06.03 13:09:07.
