data_PCOD9204917
_publ_section_title
;
Structure prediction by ZEFSAII (Michael W. Deem and Ramdas Pophale) SiO2 
 PCOD9204917
Probable space group: C 2/M
;
_chemical_formula_sum "Si O2"
_cell_formula_units_Z 56
_cell_length_a 19.529488
_cell_length_b 9.327808
_cell_length_c 29.432576
_cell_angle_alpha 90.000000
_cell_angle_beta 26.958632
_cell_angle_gamma 90.000000
_cell_volume 2430.689814
_symmetry_space_group_name_H-M "C 2/M"
_symmetry_group_IT_number 12
_symmetry_cell_setting 'monoclinic'
loop_
_space_group_symop_operation_xyz
x,y,z
-x,y,-z
-x,-y,-z
x,-y,z
1/2+x,1/2+y,z
1/2-x,1/2+y,-z
1/2-x,1/2-y,-z
1/2+x,1/2-y,z
loop_
_atom_site_type_symbol
_atom_site_label
_atom_site_fract_x
_atom_site_fract_y
_atom_site_fract_z
Si Si1 0.192910 0.340240 0.351476
Si Si2 0.047718 0.836112 0.116028
Si Si3 0.445695 0.165750 0.417562
Si Si4 0.064436 0.164174 0.911232
Si Si5 0.608261 0.835836 0.166912
Si Si6 0.251436 0.837667 0.401735
Si Si7 0.155157 0.169410 0.227976
O O1 0.176200 0.500000 0.381977
O O2 0.365586 0.330824 0.232042
O O3 0.175507 0.224244 0.401011
O O4 0.074919 0.328208 0.380486
O O5 0.056115 0.807502 0.057248
O O6 0.118051 0.726265 0.110221
O O7 0.096229 0.000000 0.096932
O O8 0.300759 0.237882 0.526160
O O9 0.514577 0.253784 0.335265
O O10 0.421079 0.000000 0.419651
O O11 0.198029 0.278539 0.831163
O O12 0.121950 0.000000 0.869503
O O13 0.000000 0.167166 0.000000
O O14 0.429250 0.836013 0.285556
O O15 0.674772 0.732721 0.165930
O O16 0.662456 0.000000 0.138735
O O17 0.203870 0.000000 0.439195
O O18 0.138832 0.000000 0.237165
#
# Coordination Sequence:
#
# PCOD9204917 Si02
#       7
#     8   8   8   8   8   8   8
#     4   9  17  31  52  78 112 154 197 240 289 347
#     4   9  17  35  61  89 119 153 195 239 288 349
#     4  11  21  35  55  80 115 158 202 245 296 353
#     4  10  21  41  69  97 124 154 189 234 294 362
#     4  10  22  40  60  83 119 163 204 244 293 352
#     4  10  21  34  51  81 116 154 200 250 296 342
#     4  12  25  40  61  88 120 156 198 249 300 350
#
# _framework density 23.038727999999999
#
# number of rings (size 3 to 8) (size 9 to 14) (size 15 to 20)
#    0.000    1.857    1.429    3.000    0.000    6.000 
#    0.000    0.714    0.000    0.000    0.000    0.000 
#    0.000    0.000    0.000    0.000    0.000    0.000 
#
# Total GULP energy -156744.940271 kJ/mol
# GULP energy per Si atom -5598.033581 kJ/mol
# Density = 2.298629 g / cm^3
# Si number density = 23.038728 Si / 1000 Ang^3
#
#
#
# Elastic Constant Matrix: (Units=GPa)
#
#
# Indices 1 2 3 4 5 6 
#
# 1 109.5553 70.9712 19.5319 0.0001 15.7986 0.0005
# 2 70.9712 187.1728 49.5625 0.0003 22.0183 0.0011
# 3 19.5319 49.5625 88.8666 0.0005 21.1370 -0.0001
# 4 0.0001 0.0003 0.0005 29.8629 0.0001 3.9340
# 5 15.7986 22.0183 21.1370 0.0001 43.6799 0.0000
# 6 0.0005 0.0011 -0.0001 3.9340 0.0000 33.2279
#
#
#
# Elastic Compliance Matrix: (Units=1/GPa)
#
#
# Indices 1 2 3 4 5 6 
#
# 1 0.012310 -0.004484 0.000358 0.000000 -0.002365 0.000000
# 2 -0.004484 0.008010 -0.003285 0.000000 -0.000826 0.000000
# 3 0.000358 -0.003285 0.014288 0.000000 -0.005387 0.000000
# 4 0.000000 0.000000 0.000000 0.034017 0.000000 -0.004027
# 5 -0.002365 -0.000826 -0.005387 0.000000 0.026773 0.000000
# 6 0.000000 0.000000 0.000000 -0.004027 0.000000 0.030572
#
#
# Mechanical properties :
#
#
# Convention : Reuss Voigt Hill
#
# Bulk Modulus (GPa) = 50.54418 73.96954 62.25686
# Shear Modulus (GPa) = 33.92415 37.72273 35.82344
#
# Velocity S-wave (km/s) = 3.84146 4.05082 3.94753
# Velocity P-wave (km/s) = 6.45462 7.35222 6.91800
#
# Compressibility (1/GPa) = 0.01978467
#
# Stress axis : x y z
#
# Youngs Moduli (GPa) = 81.23490 124.84327 69.98960
#
# Poissons Ratio (x) = 0.55982 -0.02505
# Poissons Ratio (y) = 0.36427 0.22994
# Poissons Ratio (z) = -0.02907 0.41015
#
# Static dielectric constant tensor:
#      x y z
#    x 1.876930 0.000000 -0.016300 
#    y 0.000000 1.780590 0.000000 
#    z -0.016300 0.000000 1.937260 
# 
# From -- ./inp_files/380578.got.cif
#   From: 2010.05.17/outbox.cif.g08.bks.cpg/sg12_191_cif.got.tgz:380578.got - 2010.06.03 13:09:07.
