data_PCOD9204035
_publ_section_title
;
Structure prediction by ZEFSAII (Michael W. Deem and Ramdas Pophale) SiO2 
 PCOD9204035
Probable space group: C 2/M
;
_chemical_formula_sum "Si O2"
_cell_formula_units_Z 56
_cell_length_a 15.429980
_cell_length_b 27.605172
_cell_length_c 8.801694
_cell_angle_alpha 90.000000
_cell_angle_beta 48.335907
_cell_angle_gamma 90.000000
_cell_volume 2800.751801
_symmetry_space_group_name_H-M "C 2/M"
_symmetry_group_IT_number 12
_symmetry_cell_setting 'monoclinic'
loop_
_space_group_symop_operation_xyz
x,y,z
-x,y,-z
-x,-y,-z
x,-y,z
1/2+x,1/2+y,z
1/2-x,1/2+y,-z
1/2-x,1/2-y,-z
1/2+x,1/2-y,z
loop_
_atom_site_type_symbol
_atom_site_label
_atom_site_fract_x
_atom_site_fract_y
_atom_site_fract_z
Si Si1 0.403203 0.000000 0.798326
Si Si2 0.930188 0.396807 0.727859
Si Si3 0.095957 0.342573 0.756723
Si Si4 0.196133 0.096110 0.578377
Si Si5 0.881879 0.768212 0.236972
Si Si6 0.511707 0.655205 0.665404
Si Si7 0.679439 0.000000 0.451030
Si Si8 0.210329 0.841528 0.863024
O O1 0.381601 0.056102 0.874960
O O2 0.543840 0.000000 0.653279
O O3 0.332988 0.000000 0.718383
O O4 0.827904 0.361557 0.796234
O O5 0.000000 0.417441 0.500000
O O6 0.026010 0.364412 0.697417
O O7 0.208577 0.376046 0.635533
O O8 0.135833 0.287082 0.696182
O O9 0.000000 0.345511 0.000000
O O10 0.252392 0.045568 0.559881
O O11 0.178875 0.122830 0.760606
O O12 0.075315 0.104433 0.632654
O O13 0.788443 0.790289 0.227727
O O14 0.909213 0.802984 0.347579
O O15 0.000000 0.769443 0.000000
O O16 0.500000 0.661688 0.500000
O O17 0.388798 0.658166 0.894301
#
# Coordination Sequence:
#
# PCOD9204035 Si02
#       8
#     4   8   8   8   8   8   4   8
#     4  11  16  34  61  92 123 142 204 259 298 359
#     4  12  20  37  62  94 119 152 202 257 305 360
#     4  11  23  38  59  92 128 159 195 246 309 363
#     4  11  21  40  63  86 119 161 201 245 299 362
#     4   8  19  41  59  84 119 163 204 240 292 359
#     4  10  23  41  61  86 121 159 200 249 302 353
#     4  11  18  36  63  91 116 157 201 249 300 353
#     4  10  20  40  64  85 119 161 203 251 295 358
#
# _framework density 19.994631999999999
#
# number of rings (size 3 to 8) (size 9 to 14) (size 15 to 20)
#    0.000    1.571    5.714    1.286    2.000    2.857 
#    2.571    6.071    0.000    0.000    0.000    0.000 
#    0.000    0.000    0.000    0.000    0.000    0.000 
#
# Total GULP energy -155973.471619 kJ/mol
# GULP energy per Si atom -5570.481129 kJ/mol
# Density = 1.994912 g / cm^3
# Si number density = 19.994632 Si / 1000 Ang^3
#
#
#
# Elastic Constant Matrix: (Units=GPa)
#
#
# Indices 1 2 3 4 5 6 
#
# 1 57.4722 30.8393 5.0545 0.0000 -4.6647 0.0000
# 2 30.8393 135.7995 11.3124 0.0000 4.8581 0.0000
# 3 5.0545 11.3124 91.3684 0.0000 -0.8473 0.0000
# 4 0.0000 0.0000 0.0000 35.7551 0.0000 -11.3554
# 5 -4.6647 4.8581 -0.8473 0.0000 18.7781 0.0000
# 6 0.0000 0.0000 0.0000 -11.3554 0.0000 9.6932
#
#
#
# Elastic Compliance Matrix: (Units=1/GPa)
#
#
# Indices 1 2 3 4 5 6 
#
# 1 0.020563 -0.004857 -0.000477 0.000000 0.006343 0.000000
# 2 -0.004857 0.008661 -0.000836 0.000000 -0.003485 0.000000
# 3 -0.000477 -0.000836 0.011080 0.000000 0.000598 0.000000
# 4 0.000000 0.000000 0.000000 0.044539 0.000000 0.052176
# 5 0.006343 -0.003485 0.000598 0.000000 0.055758 0.000000
# 6 0.000000 0.000000 0.000000 0.052176 0.000000 0.164289
#
#
# Mechanical properties :
#
#
# Convention : Reuss Voigt Hill
#
# Bulk Modulus (GPa) = 35.76082 42.11693 38.93888
# Shear Modulus (GPa) = 15.31154 28.67420 21.99287
#
# Velocity S-wave (km/s) = 2.77028 3.79105 3.32013
# Velocity P-wave (km/s) = 5.30628 6.34607 5.84933
#
# Compressibility (1/GPa) = 0.02796356
#
# Stress axis : x y z
#
# Youngs Moduli (GPa) = 48.63178 115.45933 90.25139
#
# Poissons Ratio (x) = 0.56076 0.04309
# Poissons Ratio (y) = 0.23620 0.07545
# Poissons Ratio (z) = 0.02322 0.09652
#
# Static dielectric constant tensor:
#      x y z
#    x 1.695730 0.000000 0.013630 
#    y 0.000000 1.771810 0.000000 
#    z 0.013630 0.000000 1.781360 
# 
# From -- ./inp_files/68178.got.cif
#   From: 2010.05.17/outbox.cif.g08.bks.cpg/sg12_35_cif.got.tgz:68178.got - 2010.06.03 13:09:07.
