data_PCOD9204495
_publ_section_title
;
Structure prediction by ZEFSAII (Michael W. Deem and Ramdas Pophale) SiO2 
 PCOD9204495
Probable space group: C 2/M
;
_chemical_formula_sum "Si O2"
_cell_formula_units_Z 38
_cell_length_a 11.662126
_cell_length_b 14.573178
_cell_length_c 17.751286
_cell_angle_alpha 90.000000
_cell_angle_beta 144.130750
_cell_angle_gamma 90.000000
_cell_volume 1767.718624
_symmetry_space_group_name_H-M "C 2/M"
_symmetry_group_IT_number 12
_symmetry_cell_setting 'monoclinic'
loop_
_space_group_symop_operation_xyz
x,y,z
-x,y,-z
-x,-y,-z
x,-y,z
1/2+x,1/2+y,z
1/2-x,1/2+y,-z
1/2-x,1/2-y,-z
1/2+x,1/2-y,z
loop_
_atom_site_type_symbol
_atom_site_label
_atom_site_fract_x
_atom_site_fract_y
_atom_site_fract_z
Si Si1 0.453917 0.605811 0.825980
Si Si2 0.312784 0.000000 0.630289
Si Si3 0.500474 0.863709 0.377276
Si Si4 0.111342 0.000000 0.674788
Si Si5 0.500000 0.000000 0.500000
Si Si6 0.500000 0.297942 0.000000
Si Si7 0.397239 0.310472 0.244831
O O1 0.503555 0.500000 0.834720
O O2 0.223248 0.608210 0.723086
O O3 0.552510 0.640463 0.955424
O O4 0.501848 0.672523 0.782164
O O5 0.429140 0.912587 0.661223
O O6 0.277049 0.000000 0.699221
O O7 0.099877 0.000000 0.478097
O O8 0.508689 0.756280 0.363722
O O9 0.601124 0.918432 0.499549
O O10 0.127486 0.091056 0.731693
O O11 0.687553 0.236946 0.120127
#
# Coordination Sequence:
#
# PCOD9204495 Si02
#       7
#     8   4   8   4   2   4   8
#     4  11  21  44  68 101 129 169 226 283 327 402
#     4  10  24  45  63  99 132 176 218 266 328 406
#     4  10  24  40  72  96 134 172 217 271 330 386
#     4  11  26  44  66  95 143 177 220 260 337 396
#     4  10  20  42  64 100 126 168 216 254 330 386
#     4  10  25  43  64  96 134 178 222 270 350 380
#     4  11  25  44  66 100 133 178 219 280 324 403
#
# _framework density 21.496632000000002
#
# number of rings (size 3 to 8) (size 9 to 14) (size 15 to 20)
#    0.000    1.474    3.158    0.947   11.789    2.947 
#    0.000    0.000    0.000    0.000    0.000    0.000 
#    0.000    0.000    0.000    0.000    0.000    0.000 
#
# Total GULP energy -105862.557863 kJ/mol
# GULP energy per Si atom -5571.713572 kJ/mol
# Density = 2.144770 g / cm^3
# Si number density = 21.496632 Si / 1000 Ang^3
#
#
#
# Elastic Constant Matrix: (Units=GPa)
#
#
# Indices 1 2 3 4 5 6 
#
# 1 144.7627 49.2161 10.3279 0.0004 -24.6522 0.0000
# 2 49.2161 157.9089 22.0610 0.0005 -21.2755 0.0000
# 3 10.3279 22.0610 55.8276 0.0014 -5.2348 0.0002
# 4 0.0004 0.0005 0.0014 -7.7060 0.0006 -0.5275
# 5 -24.6522 -21.2755 -5.2348 0.0006 37.7008 0.0000
# 6 0.0000 0.0000 0.0002 -0.5275 0.0000 36.5151
#
#
#
# Elastic Compliance Matrix: (Units=1/GPa)
#
#
# Indices 1 2 3 4 5 6 
#
# 1 0.008333 -0.001969 -0.000361 0.000001 0.004288 0.000000
# 2 -0.001969 0.007645 -0.002404 0.000000 0.002693 0.000000
# 3 -0.000361 -0.002404 0.019028 0.000003 0.001049 0.000000
# 4 0.000001 0.000000 0.000003 -0.129641 0.000003 -0.001873
# 5 0.004288 0.002693 0.001049 0.000003 0.030994 0.000000
# 6 0.000000 0.000000 0.000000 -0.001873 0.000000 0.027359
#
#
# Mechanical properties :
#
#
# Convention : Reuss Voigt Hill
#
# Bulk Modulus (GPa) = 39.15993 57.96770 48.56381
# Shear Modulus (GPa) = -273.21683 31.76159 -120.72762
#
# Velocity S-wave (km/s) = -11.28598 3.84802 -7.50221
# Velocity P-wave (km/s) = 12.31158 6.83867 7.23904
#
# Compressibility (1/GPa) = 0.02553631
#
# Stress axis : x y z
#
# Youngs Moduli (GPa) = 120.00132 130.80089 52.55527
#
# Poissons Ratio (x) = 0.25756 0.01900
# Poissons Ratio (y) = 0.23629 0.12636
# Poissons Ratio (z) = 0.04338 0.31449
#
# Static dielectric constant tensor:
#      x y z
#    x 1.765920 0.000000 -0.024310 
#    y 0.000000 1.919110 0.000000 
#    z -0.024310 0.000000 1.934410 
# 
# From -- ./inp_files/204716.got.cif
#   From: 2010.05.17/outbox.cif.g08.bks.cpg/sg12_103_cif.got.tgz:204716.got - 2010.06.03 13:09:07.
