data_PCOD9204299
_publ_section_title
;
Structure prediction by ZEFSAII (Michael W. Deem and Ramdas Pophale) SiO2 
 PCOD9204299
Probable space group: C 2/M
;
_chemical_formula_sum "Si O2"
_cell_formula_units_Z 50
_cell_length_a 11.551166
_cell_length_b 13.763989
_cell_length_c 15.150526
_cell_angle_alpha 90.000000
_cell_angle_beta 59.648200
_cell_angle_gamma 90.000000
_cell_volume 2078.633788
_symmetry_space_group_name_H-M "C 2/M"
_symmetry_group_IT_number 12
_symmetry_cell_setting 'monoclinic'
loop_
_space_group_symop_operation_xyz
x,y,z
-x,y,-z
-x,-y,-z
x,-y,z
1/2+x,1/2+y,z
1/2-x,1/2+y,-z
1/2-x,1/2-y,-z
1/2+x,1/2-y,z
loop_
_atom_site_type_symbol
_atom_site_label
_atom_site_fract_x
_atom_site_fract_y
_atom_site_fract_z
Si Si1 0.810183 0.393618 0.674097
Si Si2 0.612477 0.108957 0.779503
Si Si3 0.743789 0.133956 0.108681
Si Si4 0.487833 0.676152 0.233025
Si Si5 0.900780 0.816527 0.612501
Si Si6 0.774288 0.637649 0.074928
Si Si7 0.000000 0.000000 0.000000
O O1 0.852469 0.500000 0.626387
O O2 0.832772 0.385899 0.771000
O O3 0.650401 0.380079 0.725127
O O4 0.871690 0.297888 0.606678
O O5 0.535333 0.212565 0.792555
O O6 0.757532 0.130453 0.676779
O O7 0.647401 0.102106 0.870302
O O8 0.567461 0.000000 0.768937
O O9 0.775856 0.246941 0.086958
O O10 0.677929 0.106515 0.039937
O O11 0.884686 0.081880 0.061501
O O12 0.528266 0.678988 0.319863
O O13 0.613026 0.620013 0.140010
O O14 0.000000 0.855598 0.500000
#
# Coordination Sequence:
#
# PCOD9204299 Si02
#       7
#     8   8   8   8   8   8   2
#     4  11  22  39  60  93 124 154 209 250 299 360
#     4  10  22  39  60  92 122 158 204 246 301 363
#     4  11  21  37  57  92 122 160 199 249 287 345
#     4  10  20  41  60  88 117 163 191 256 300 360
#     4  10  23  44  65  86 118 158 198 253 317 367
#     4  10  22  39  59  83 129 167 200 238 301 355
#     4  12  24  32  64  92 114 156 214 252 284 340
#
# _framework density 24.054259999999999
#
# number of rings (size 3 to 8) (size 9 to 14) (size 15 to 20)
#    0.000    1.600    5.600    0.960    1.120    6.400 
#    1.440    1.600    0.000    3.840    0.000    0.000 
#    0.000    0.000    0.000    0.000    0.000    0.000 
#
# Total GULP energy -139523.936677 kJ/mol
# GULP energy per Si atom -5580.957467 kJ/mol
# Density = 2.399951 g / cm^3
# Si number density = 24.054260 Si / 1000 Ang^3
#
#
#
# Elastic Constant Matrix: (Units=GPa)
#
#
# Indices 1 2 3 4 5 6 
#
# 1 82.5281 1.3755 12.8920 0.0000 -2.9568 0.0000
# 2 1.3755 138.7531 -9.7500 0.0000 1.0910 0.0000
# 3 12.8920 -9.7500 59.9261 0.0000 -13.3136 0.0000
# 4 0.0000 0.0000 0.0000 2.7291 0.0000 -10.0921
# 5 -2.9568 1.0910 -13.3136 0.0000 17.2138 0.0000
# 6 0.0000 0.0000 0.0000 -10.0921 0.0000 25.8324
#
#
#
# Elastic Compliance Matrix: (Units=1/GPa)
#
#
# Indices 1 2 3 4 5 6 
#
# 1 0.012552 -0.000317 -0.002739 0.000000 0.000058 0.000000
# 2 -0.000317 0.007303 0.001378 0.000000 0.000549 0.000000
# 3 -0.002739 0.001378 0.020982 0.000000 0.015670 0.000000
# 4 0.000000 0.000000 0.000000 -0.823919 0.000000 -0.321886
# 5 0.000058 0.000549 0.015670 0.000000 0.070188 0.000000
# 6 0.000000 0.000000 0.000000 -0.321886 0.000000 -0.087043
#
#
# Mechanical properties :
#
#
# Convention : Reuss Voigt Hill
#
# Bulk Modulus (GPa) = 26.68040 32.24915 29.46478
# Shear Modulus (GPa) = -6.37685 27.60104 10.61210
#
# Velocity S-wave (km/s) = -1.62996 3.39108 2.10269
# Velocity P-wave (km/s) = 2.75199 5.36363 4.26274
#
# Compressibility (1/GPa) = 0.03748070
#
# Stress axis : x y z
#
# Youngs Moduli (GPa) = 79.66638 136.93505 47.65953
#
# Poissons Ratio (x) = 0.04346 0.13055
# Poissons Ratio (y) = 0.02528 -0.06569
# Poissons Ratio (z) = 0.21822 -0.18874
#
# Static dielectric constant tensor:
#      x y z
#    x 1.966490 0.000000 0.002930 
#    y 0.000000 1.921650 0.000000 
#    z 0.002930 0.000000 1.904660 
# 
# From -- ./inp_files/204945.got.cif
#   From: 2010.05.17/outbox.cif.g08.bks.cpg/sg12_103_cif.got.tgz:204945.got - 2010.06.03 13:09:07.
