data_PCOD9204162
_publ_section_title
;
Structure prediction by ZEFSAII (Michael W. Deem and Ramdas Pophale) SiO2 
 PCOD9204162
Probable space group: C 2/M
;
_chemical_formula_sum "Si O2"
_cell_formula_units_Z 40
_cell_length_a 11.525505
_cell_length_b 26.373487
_cell_length_c 7.359392
_cell_angle_alpha 90.000000
_cell_angle_beta 131.665948
_cell_angle_gamma 90.000000
_cell_volume 1671.127090
_symmetry_space_group_name_H-M "C 2/M"
_symmetry_group_IT_number 12
_symmetry_cell_setting 'monoclinic'
loop_
_space_group_symop_operation_xyz
x,y,z
-x,y,-z
-x,-y,-z
x,-y,z
1/2+x,1/2+y,z
1/2-x,1/2+y,-z
1/2-x,1/2-y,-z
1/2+x,1/2-y,z
loop_
_atom_site_type_symbol
_atom_site_label
_atom_site_fract_x
_atom_site_fract_y
_atom_site_fract_z
Si Si1 0.372205 0.090398 0.253619
Si Si2 0.879530 0.646028 0.721721
Si Si3 0.838072 0.177142 0.931180
Si Si4 0.315004 0.558674 0.293145
Si Si5 0.676471 0.283353 0.692295
O O1 0.500000 0.058617 0.500000
O O2 0.493054 0.130443 0.291057
O O3 0.252940 0.127467 0.232511
O O4 0.266908 0.063270 0.991572
O O5 0.791112 0.595204 0.694479
O O6 0.746391 0.688616 0.588809
O O7 0.000000 0.666510 0.000000
O O8 0.770406 0.232622 0.824759
O O9 0.828963 0.176791 0.143591
O O10 0.000000 0.174891 0.000000
O O11 0.500000 0.572166 0.500000
O O12 0.303898 0.500000 0.339516
O O13 0.500000 0.266409 0.500000
#
# Coordination Sequence:
#
# PCOD9204162 Si02
#       5
#     8   8   8   8   8
#     4  11  25  41  63 100 135 168 211 271 331 378
#     4  10  20  40  66  90 127 167 217 263 312 388
#     4  11  25  39  59  90 132 170 217 268 318 381
#     4  10  22  43  71  98 125 168 219 261 318 397
#     4  11  23  39  62  90 122 176 222 263 316 375
#
# _framework density 23.935942000000001
#
# number of rings (size 3 to 8) (size 9 to 14) (size 15 to 20)
#    0.000    1.400    4.000    1.800    5.600    4.800 
#    0.000    0.000    0.000    3.000    0.000    0.000 
#    0.000    0.000    0.000    0.000    0.000    0.000 
#
# Total GULP energy -111572.933587 kJ/mol
# GULP energy per Si atom -5578.646679 kJ/mol
# Density = 2.388146 g / cm^3
# Si number density = 23.935942 Si / 1000 Ang^3
#
#
#
# Elastic Constant Matrix: (Units=GPa)
#
#
# Indices 1 2 3 4 5 6 
#
# 1 128.1115 38.4074 43.9337 0.0000 46.7882 0.0000
# 2 38.4074 97.4532 16.3397 0.0000 18.9243 0.0000
# 3 43.9337 16.3397 136.3051 0.0000 25.9177 0.0000
# 4 0.0000 0.0000 0.0000 19.2592 0.0000 13.3955
# 5 46.7882 18.9243 25.9177 0.0000 46.4449 0.0000
# 6 0.0000 0.0000 0.0000 13.3955 0.0000 1.0443
#
#
#
# Elastic Compliance Matrix: (Units=1/GPa)
#
#
# Indices 1 2 3 4 5 6 
#
# 1 0.013415 -0.002773 -0.001831 0.000000 -0.011362 0.000000
# 2 -0.002773 0.011751 -0.000152 0.000000 -0.001909 0.000000
# 3 -0.001831 -0.000152 0.008482 0.000000 -0.002827 0.000000
# 4 0.000000 0.000000 0.000000 -0.006554 0.000000 0.084075
# 5 -0.011362 -0.001909 -0.002827 0.000000 0.035333 0.000000
# 6 0.000000 0.000000 0.000000 0.084075 0.000000 -0.120878
#
#
# Mechanical properties :
#
#
# Convention : Reuss Voigt Hill
#
# Bulk Modulus (GPa) = 41.43261 62.13682 51.78471
# Shear Modulus (GPa) = -122.26484 30.89560 -45.68462
#
# Velocity S-wave (km/s) = -7.15478 3.59661 -4.37352
# Velocity P-wave (km/s) = 7.13493 6.57750 1.95495
#
# Compressibility (1/GPa) = 0.02413558
#
# Stress axis : x y z
#
# Youngs Moduli (GPa) = 74.54542 85.10218 117.89152
#
# Poissons Ratio (x) = 0.23603 0.21585
# Poissons Ratio (y) = 0.20675 0.01788
# Poissons Ratio (z) = 0.13648 0.01290
#
# Static dielectric constant tensor:
#      x y z
#    x 2.004790 0.000000 -0.160340 
#    y 0.000000 1.832670 0.000000 
#    z -0.160340 0.000000 2.183160 
# 
# From -- ./inp_files/53972.got.cif
#   From: 2010.05.17/outbox.cif.g08.bks.cpg/sg12_27_cif.got.tgz:53972.got - 2010.06.03 13:09:07.
