data_PCOD9204613
_publ_section_title
;
Structure prediction by ZEFSAII (Michael W. Deem and Ramdas Pophale) SiO2 
 PCOD9204613
Probable space group: C 2/M
;
_chemical_formula_sum "Si O2"
_cell_formula_units_Z 48
_cell_length_a 11.217478
_cell_length_b 14.899485
_cell_length_c 22.083470
_cell_angle_alpha 90.000000
_cell_angle_beta 141.394323
_cell_angle_gamma 90.000000
_cell_volume 2302.971060
_symmetry_space_group_name_H-M "C 2/M"
_symmetry_group_IT_number 12
_symmetry_cell_setting 'monoclinic'
loop_
_space_group_symop_operation_xyz
x,y,z
-x,y,-z
-x,-y,-z
x,-y,z
1/2+x,1/2+y,z
1/2-x,1/2+y,-z
1/2-x,1/2-y,-z
1/2+x,1/2-y,z
loop_
_atom_site_type_symbol
_atom_site_label
_atom_site_fract_x
_atom_site_fract_y
_atom_site_fract_z
Si Si1 0.000000 0.219367 0.000000
Si Si2 0.842346 0.664359 0.833190
Si Si3 0.133706 0.677372 0.494854
Si Si4 0.232654 0.500000 0.590633
Si Si5 0.859970 0.342265 0.278890
Si Si6 0.781926 0.500000 0.890526
Si Si7 0.880025 0.603344 0.159461
Si Si8 0.595436 0.500000 0.205912
O O1 0.020168 0.281335 0.066762
O O2 0.191097 0.161192 0.072759
O O3 0.705301 0.739372 0.750151
O O4 0.746169 0.588220 0.836012
O O5 0.966216 0.618304 0.831102
O O6 0.250000 0.750000 0.500000
O O7 0.268204 0.595563 0.571507
O O8 0.000000 0.707823 0.500000
O O9 0.984686 0.638505 0.386852
O O10 0.333918 0.500000 0.695937
O O11 0.000000 0.500000 0.500000
O O12 0.963238 0.364262 0.256970
O O13 0.681141 0.410408 0.210284
O O14 0.632271 0.500000 0.885552
O O15 0.000000 0.500000 0.000000
O O16 0.827785 0.500000 0.142620
#
# Coordination Sequence:
#
# PCOD9204613 Si02
#       8
#     4   8   8   4   8   4   8   4
#     4  10  23  41  62  90 118 172 220 270 338 408
#     4  11  25  43  63  91 131 170 220 282 341 393
#     4  11  24  43  71 105 141 181 231 279 340 412
#     4  10  20  44  71  99 135 182 228 275 335 431
#     4  11  25  42  67 101 132 179 222 279 340 411
#     4  12  28  45  67  96 134 187 233 284 343 411
#     4  11  23  40  62  90 128 164 217 277 339 395
#     4  12  24  45  71  98 135 185 237 270 339 423
#
# _framework density 20.842642000000001
#
# number of rings (size 3 to 8) (size 9 to 14) (size 15 to 20)
#    0.000    1.000    5.833    0.750    9.333    2.667 
#    0.000    0.417    0.000    0.000    0.000    0.000 
#    0.000    0.000    0.000    0.000    0.000    0.000 
#
# Total GULP energy -134068.590827 kJ/mol
# GULP energy per Si atom -5586.191284 kJ/mol
# Density = 2.079520 g / cm^3
# Si number density = 20.842642 Si / 1000 Ang^3
#
#
#
# Elastic Constant Matrix: (Units=GPa)
#
#
# Indices 1 2 3 4 5 6 
#
# 1 84.5671 18.8238 -4.9032 0.0000 -3.4436 0.0000
# 2 18.8238 120.3128 -4.7524 0.0000 -1.0598 0.0000
# 3 -4.9032 -4.7524 49.2630 0.0000 -14.7236 0.0000
# 4 0.0000 0.0000 0.0000 25.8034 0.0000 -5.0122
# 5 -3.4436 -1.0598 -14.7236 0.0000 26.3711 0.0000
# 6 0.0000 0.0000 0.0000 -5.0122 0.0000 46.0973
#
#
#
# Elastic Compliance Matrix: (Units=1/GPa)
#
#
# Indices 1 2 3 4 5 6 
#
# 1 0.012448 -0.001853 0.001829 0.000000 0.002572 0.000000
# 2 -0.001853 0.008639 0.000817 0.000000 0.000561 0.000000
# 3 0.001829 0.000817 0.024776 0.000000 0.014104 0.000000
# 4 0.000000 0.000000 0.000000 0.039591 0.000000 0.004305
# 5 0.002572 0.000561 0.014104 0.000000 0.046154 0.000000
# 6 0.000000 0.000000 0.000000 0.004305 0.000000 0.022161
#
#
# Mechanical properties :
#
#
# Convention : Reuss Voigt Hill
#
# Bulk Modulus (GPa) = 21.07548 30.27549 25.67548
# Shear Modulus (GPa) = 29.76223 35.98600 32.87412
#
# Velocity S-wave (km/s) = 3.78292 4.15969 3.97577
# Velocity P-wave (km/s) = 5.40503 6.13417 5.78110
#
# Compressibility (1/GPa) = 0.04744850
#
# Stress axis : x y z
#
# Youngs Moduli (GPa) = 80.33349 115.75765 40.36236
#
# Poissons Ratio (x) = 0.21446 -0.07382
# Poissons Ratio (y) = 0.14883 -0.03296
# Poissons Ratio (z) = -0.14693 -0.09454
#
# Static dielectric constant tensor:
#      x y z
#    x 1.740530 0.000000 0.001530 
#    y 0.000000 1.775680 0.000000 
#    z 0.001530 0.000000 1.750660 
# 
# From -- ./inp_files/305727.got.cif
#   From: 2010.05.17/outbox.cif.g08.bks.cpg/sg12_153_cif.got.tgz:305727.got - 2010.06.03 13:09:07.
