data_PCOD9204998
_publ_section_title
;
Structure prediction by ZEFSAII (Michael W. Deem and Ramdas Pophale) SiO2 
 PCOD9204998
Probable space group: C 2/M
;
_chemical_formula_sum "Si O2"
_cell_formula_units_Z 56
_cell_length_a 7.714698
_cell_length_b 27.343617
_cell_length_c 15.120754
_cell_angle_alpha 90.000000
_cell_angle_beta 131.770540
_cell_angle_gamma 90.000000
_cell_volume 2378.929428
_symmetry_space_group_name_H-M "C 2/M"
_symmetry_group_IT_number 12
_symmetry_cell_setting 'monoclinic'
loop_
_space_group_symop_operation_xyz
x,y,z
-x,y,-z
-x,-y,-z
x,-y,z
1/2+x,1/2+y,z
1/2-x,1/2+y,-z
1/2-x,1/2-y,-z
1/2+x,1/2-y,z
loop_
_atom_site_type_symbol
_atom_site_label
_atom_site_fract_x
_atom_site_fract_y
_atom_site_fract_z
Si Si1 0.739126 0.123283 0.052578
Si Si2 0.741727 0.795856 0.932202
Si Si3 0.344121 0.555565 0.793996
Si Si4 0.655649 0.100058 0.360080
Si Si5 0.525067 0.314165 0.297560
Si Si6 0.912510 0.916679 0.617495
Si Si7 0.338426 0.789282 0.674643
O O1 0.883626 0.162799 0.164318
O O2 0.932340 0.084216 0.093640
O O3 0.500000 0.097425 0.000000
O O4 0.631586 0.158025 0.941278
O O5 0.603738 0.784797 0.797556
O O6 0.750000 0.750000 0.000000
O O7 0.000000 0.810405 0.000000
O O8 0.325996 0.500000 0.818394
O O9 0.382419 0.555354 0.699379
O O10 0.111115 0.585065 0.740153
O O11 0.752369 0.071574 0.479205
O O12 0.680506 0.159210 0.383197
O O13 0.825834 0.086223 0.335460
O O14 0.653714 0.361857 0.376026
O O15 0.699283 0.267683 0.360688
O O16 0.326638 0.299490 0.298990
#
# Coordination Sequence:
#
# PCOD9204998 Si02
#       7
#     8   8   8   8   8   8   8
#     4  11  22  41  60  86 128 161 203 259 311 369
#     4  12  21  31  54  87 121 165 208 246 300 360
#     4  11  25  44  69  94 117 158 213 266 320 375
#     4  10  22  42  64  92 128 164 203 260 315 373
#     4  10  21  34  55  89 125 165 207 242 298 369
#     4   9  22  42  64  92 128 162 204 257 316 373
#     4  11  21  33  55  87 126 167 204 247 295 363
#
# _framework density 23.540002000000001
#
# number of rings (size 3 to 8) (size 9 to 14) (size 15 to 20)
#    0.000    1.429    2.857    2.571    4.000    2.571 
#    0.000    1.429    0.000    1.286    0.000    0.000 
#    0.000    0.000    0.000    0.000    0.000    0.000 
#
# Total GULP energy -156118.805250 kJ/mol
# GULP energy per Si atom -5575.671616 kJ/mol
# Density = 2.348642 g / cm^3
# Si number density = 23.540002 Si / 1000 Ang^3
#
#
#
# Elastic Constant Matrix: (Units=GPa)
#
#
# Indices 1 2 3 4 5 6 
#
# 1 36.8879 17.9971 4.2377 0.0000 12.9517 0.0000
# 2 17.9971 115.4055 2.0254 0.0000 3.0000 0.0000
# 3 4.2377 2.0254 40.6502 0.0000 9.5904 0.0000
# 4 0.0000 0.0000 0.0000 1.9067 0.0000 -8.5711
# 5 12.9517 3.0000 9.5904 0.0000 32.9712 0.0000
# 6 0.0000 0.0000 0.0000 -8.5711 0.0000 17.3808
#
#
#
# Elastic Compliance Matrix: (Units=1/GPa)
#
#
# Indices 1 2 3 4 5 6 
#
# 1 0.034082 -0.004976 -0.000272 0.000000 -0.012856 0.000000
# 2 -0.004976 0.009415 -0.000225 0.000000 0.001163 0.000000
# 3 -0.000272 -0.000225 0.026423 0.000000 -0.007558 0.000000
# 4 0.000000 0.000000 0.000000 -0.431033 0.000000 -0.212557
# 5 -0.012856 0.001163 -0.007558 0.000000 0.037472 0.000000
# 6 0.000000 0.000000 0.000000 -0.212557 0.000000 -0.047285
#
#
# Mechanical properties :
#
#
# Convention : Reuss Voigt Hill
#
# Bulk Modulus (GPa) = 16.95659 26.82933 21.89296
# Shear Modulus (GPa) = -14.69199 21.69731 3.50266
#
# Velocity S-wave (km/s) = -2.50097 3.03928 1.22114
# Velocity P-wave (km/s) = 1.05869 4.87220 3.36285
#
# Compressibility (1/GPa) = 0.05897411
#
# Stress axis : x y z
#
# Youngs Moduli (GPa) = 29.34098 106.21590 37.84599
#
# Poissons Ratio (x) = 0.52853 0.01029
# Poissons Ratio (y) = 0.14600 0.00851
# Poissons Ratio (z) = 0.00798 0.02388
#
# Static dielectric constant tensor:
#      x y z
#    x 1.999180 0.000000 -0.028740 
#    y 0.000000 2.355610 0.000000 
#    z -0.028740 0.000000 1.906550 
# 
# From -- ./inp_files/259877.got.cif
#   From: 2010.05.17/outbox.cif.g08.bks.cpg/sg12_130_cif.got.tgz:259877.got - 2010.06.03 13:09:07.
