data_PCOD9204508
_publ_section_title
;
Structure prediction by ZEFSAII (Michael W. Deem and Ramdas Pophale) SiO2 
 PCOD9204508
Probable space group: C 2/M
;
_chemical_formula_sum "Si O2"
_cell_formula_units_Z 52
_cell_length_a 21.962991
_cell_length_b 8.134429
_cell_length_c 13.012762
_cell_angle_alpha 90.000000
_cell_angle_beta 63.735426
_cell_angle_gamma 90.000000
_cell_volume 2084.799879
_symmetry_space_group_name_H-M "C 2/M"
_symmetry_group_IT_number 12
_symmetry_cell_setting 'monoclinic'
loop_
_space_group_symop_operation_xyz
x,y,z
-x,y,-z
-x,-y,-z
x,-y,z
1/2+x,1/2+y,z
1/2-x,1/2+y,-z
1/2-x,1/2-y,-z
1/2+x,1/2-y,z
loop_
_atom_site_type_symbol
_atom_site_label
_atom_site_fract_x
_atom_site_fract_y
_atom_site_fract_z
Si Si1 0.868435 0.000000 0.483239
Si Si2 0.348078 0.682195 0.752038
Si Si3 0.859204 0.698127 0.964487
Si Si4 0.212672 0.317846 0.402378
Si Si5 0.656127 0.199323 0.793727
Si Si6 0.995011 0.746860 0.391213
Si Si7 0.011059 0.317350 0.836802
O O1 0.812939 0.847858 0.523304
O O2 0.930218 0.862943 0.447093
O O3 0.323033 0.500000 0.740697
O O4 0.329798 0.723443 0.882932
O O5 0.321716 0.804908 0.685762
O O6 0.429685 0.679172 0.682208
O O7 0.860904 0.500000 0.947189
O O8 0.937738 0.758526 0.914100
O O9 0.826647 0.729757 0.099265
O O10 0.291620 0.291858 0.317357
O O11 0.302931 0.000000 0.543565
O O12 0.579902 0.260356 0.826697
O O13 0.658183 0.000000 0.776448
O O14 0.983602 0.665314 0.289699
O O15 0.000000 0.666952 0.500000
O O16 0.008779 0.500000 0.883696
#
# Coordination Sequence:
#
# PCOD9204508 Si02
#       7
#     4   8   8   8   8   8   8
#     4  12  23  46  68  98 128 179 211 276 330 388
#     4  11  20  38  64  95 131 168 210 266 332 389
#     4   9  19  35  63 100 128 168 218 272 328 389
#     4  12  25  41  66  93 132 175 223 269 319 395
#     4  10  20  42  65  86 135 181 215 269 329 382
#     4  11  20  38  69  91 127 169 206 269 335 378
#     4   9  20  37  64 100 130 166 223 270 324 395
#
# _framework density 24.942440999999999
#
# number of rings (size 3 to 8) (size 9 to 14) (size 15 to 20)
#    0.000    1.538    3.846    1.154    0.000    4.615 
#    1.385    0.769    0.000    2.769    0.000    0.000 
#    0.000    0.000    0.000    0.000    0.000    0.000 
#
# Total GULP energy -144735.932291 kJ/mol
# GULP energy per Si atom -5566.766627 kJ/mol
# Density = 2.488567 g / cm^3
# Si number density = 24.942441 Si / 1000 Ang^3
#
#
#
# Elastic Constant Matrix: (Units=GPa)
#
#
# Indices 1 2 3 4 5 6 
#
# 1 66.3346 15.6104 25.5776 0.0000 13.2972 0.0000
# 2 15.6104 128.3188 39.3292 0.0000 1.7604 0.0000
# 3 25.5776 39.3292 134.6904 0.0000 27.8292 0.0000
# 4 0.0000 0.0000 0.0000 22.3626 0.0000 3.1186
# 5 13.2972 1.7604 27.8292 0.0000 34.5913 0.0000
# 6 0.0000 0.0000 0.0000 3.1186 0.0000 4.3028
#
#
#
# Elastic Compliance Matrix: (Units=1/GPa)
#
#
# Indices 1 2 3 4 5 6 
#
# 1 0.017123 -0.001470 -0.001772 0.000000 -0.005081 0.000000
# 2 -0.001470 0.008789 -0.002773 0.000000 0.002348 0.000000
# 3 -0.001772 -0.002773 0.010075 0.000000 -0.007283 0.000000
# 4 0.000000 0.000000 0.000000 0.049746 0.000000 -0.036055
# 5 -0.005081 0.002348 -0.007283 0.000000 0.036602 0.000000
# 6 0.000000 0.000000 0.000000 -0.036055 0.000000 0.258537
#
#
# Mechanical properties :
#
#
# Convention : Reuss Voigt Hill
#
# Bulk Modulus (GPa) = 41.74009 54.48647 48.11328
# Shear Modulus (GPa) = 12.47226 28.83978 20.65602
#
# Velocity S-wave (km/s) = 2.23859 3.40406 2.88088
# Velocity P-wave (km/s) = 4.84279 6.11085 5.51340
#
# Compressibility (1/GPa) = 0.02395778
#
# Stress axis : x y z
#
# Youngs Moduli (GPa) = 58.40064 113.77222 99.25098
#
# Poissons Ratio (x) = 0.16726 0.17592
# Poissons Ratio (y) = 0.08586 0.27518
# Poissons Ratio (z) = 0.10351 0.31544
#
# Static dielectric constant tensor:
#      x y z
#    x 1.989300 0.000000 0.010510 
#    y 0.000000 16.350290 0.000000 
#    z 0.010510 0.000000 1.994430 
# 
# From -- ./inp_files/164798.got.cif
#   From: 2010.05.17/outbox.cif.g08.bks.cpg/sg12_83_cif.got.tgz:164798.got - 2010.06.03 13:09:07.
