data_PCOD9204066
_publ_section_title
;
Structure prediction by ZEFSAII (Michael W. Deem and Ramdas Pophale) SiO2 
 PCOD9204066
Probable space group: C 2/M
;
_chemical_formula_sum "Si O2"
_cell_formula_units_Z 48
_cell_length_a 20.469406
_cell_length_b 8.665642
_cell_length_c 24.997442
_cell_angle_alpha 90.000000
_cell_angle_beta 144.808299
_cell_angle_gamma 90.000000
_cell_volume 2555.410562
_symmetry_space_group_name_H-M "C 2/M"
_symmetry_group_IT_number 12
_symmetry_cell_setting 'monoclinic'
loop_
_space_group_symop_operation_xyz
x,y,z
-x,y,-z
-x,-y,-z
x,-y,z
1/2+x,1/2+y,z
1/2-x,1/2+y,-z
1/2-x,1/2-y,-z
1/2+x,1/2-y,z
loop_
_atom_site_type_symbol
_atom_site_label
_atom_site_fract_x
_atom_site_fract_y
_atom_site_fract_z
Si Si1 0.753539 0.315313 0.245133
Si Si2 0.107018 0.814035 0.250591
Si Si3 0.737921 0.685940 0.551474
Si Si4 0.493026 0.680850 0.431595
Si Si5 0.376862 0.319103 0.944950
Si Si6 0.367410 0.182960 0.055993
O O1 0.740089 0.500000 0.235151
O O2 0.679272 0.261046 0.246447
O O3 0.883611 0.271697 0.339089
O O4 0.706980 0.258602 0.157096
O O5 0.169619 0.751370 0.345196
O O6 0.978723 0.755502 0.158288
O O7 0.107446 0.000000 0.251825
O O8 0.744707 0.500000 0.556347
O O9 0.750000 0.750000 0.500000
O O10 0.612844 0.732417 0.488205
O O11 0.500000 0.695027 0.500000
O O12 0.477452 0.500000 0.408016
O O13 0.352173 0.500000 0.940671
O O14 0.500000 0.314428 0.000000
O O15 0.374340 0.226635 0.998031
O O16 0.369490 0.000000 0.064690
O O17 0.250000 0.250000 0.000000
#
# Coordination Sequence:
#
# PCOD9204066 Si02
#       6
#     8   8   8   8   8   8
#     4  10  21  36  63  95 124 162 206 256 312 370
#     4  11  22  41  66  93 124 164 208 258 319 381
#     4  11  24  42  63  91 127 169 209 259 316 376
#     4  10  21  38  60  88 123 159 202 256 306 359
#     4  10  20  40  64  91 127 164 206 259 314 372
#     4  12  26  43  65  94 128 169 212 261 317 380
#
# _framework density 18.783674999999999
#
# number of rings (size 3 to 8) (size 9 to 14) (size 15 to 20)
#    0.000    1.333    3.333    2.500    0.000    4.667 
#    0.000    3.333    0.000    0.000    0.000    0.000 
#    0.000    0.000    0.000    0.000    0.000    0.000 
#
# Total GULP energy -134114.378186 kJ/mol
# GULP energy per Si atom -5588.099091 kJ/mol
# Density = 1.874092 g / cm^3
# Si number density = 18.783675 Si / 1000 Ang^3
#
#
#
# Elastic Constant Matrix: (Units=GPa)
#
#
# Indices 1 2 3 4 5 6 
#
# 1 120.4495 37.5427 63.2401 0.0000 9.5883 0.0000
# 2 37.5427 62.8894 44.6091 0.0000 1.0156 0.0000
# 3 63.2401 44.6091 162.2960 0.0000 4.0104 0.0000
# 4 0.0000 0.0000 0.0000 37.2130 0.0000 -0.7917
# 5 9.5883 1.0156 4.0104 0.0000 30.5188 0.0000
# 6 0.0000 0.0000 0.0000 -0.7917 0.0000 19.0806
#
#
#
# Elastic Compliance Matrix: (Units=1/GPa)
#
#
# Indices 1 2 3 4 5 6 
#
# 1 0.011676 -0.004655 -0.003194 0.000000 -0.003094 0.000000
# 2 -0.004655 0.021608 -0.004157 0.000000 0.001290 0.000000
# 3 -0.003194 -0.004157 0.008548 0.000000 0.000018 0.000000
# 4 0.000000 0.000000 0.000000 0.026896 0.000000 0.001116
# 5 -0.003094 0.001290 0.000018 0.000000 0.033693 0.000000
# 6 0.000000 0.000000 0.000000 0.001116 0.000000 0.052456
#
#
# Mechanical properties :
#
#
# Convention : Reuss Voigt Hill
#
# Bulk Modulus (GPa) = 56.11545 70.71318 63.41432
# Shear Modulus (GPa) = 27.05198 30.71200 28.88199
#
# Velocity S-wave (km/s) = 3.79910 4.04795 3.92549
# Velocity P-wave (km/s) = 7.01310 7.71852 7.37425
#
# Compressibility (1/GPa) = 0.01782040
#
# Stress axis : x y z
#
# Youngs Moduli (GPa) = 85.64376 46.27979 116.98225
#
# Poissons Ratio (x) = 0.21543 0.37363
# Poissons Ratio (y) = 0.39866 0.48632
# Poissons Ratio (z) = 0.27353 0.19239
#
# Static dielectric constant tensor:
#      x y z
#    x 1.618090 0.000000 -0.020570 
#    y 0.000000 1.643870 0.000000 
#    z -0.020570 0.000000 1.605870 
# 
# From -- ./inp_files/365575.got.cif
#   From: 2010.05.17/outbox.cif.g08.bks.cpg/sg12_183_cif.got.tgz:365575.got - 2010.06.03 13:09:07.
