data_PCOD9204082
_publ_section_title
;
Structure prediction by ZEFSAII (Michael W. Deem and Ramdas Pophale) SiO2 
 PCOD9204082
Probable space group: C 2/M
;
_chemical_formula_sum "Si O2"
_cell_formula_units_Z 32
_cell_length_a 14.810566
_cell_length_b 13.418392
_cell_length_c 21.752288
_cell_angle_alpha 90.000000
_cell_angle_beta 160.790884
_cell_angle_gamma 90.000000
_cell_volume 1422.313321
_symmetry_space_group_name_H-M "C 2/M"
_symmetry_group_IT_number 12
_symmetry_cell_setting 'monoclinic'
loop_
_space_group_symop_operation_xyz
x,y,z
-x,y,-z
-x,-y,-z
x,-y,z
1/2+x,1/2+y,z
1/2-x,1/2+y,-z
1/2-x,1/2-y,-z
1/2+x,1/2-y,z
loop_
_atom_site_type_symbol
_atom_site_label
_atom_site_fract_x
_atom_site_fract_y
_atom_site_fract_z
Si Si1 0.412170 0.000000 0.874058
Si Si2 0.749311 0.806568 0.063974
Si Si3 0.513583 0.825858 0.322022
Si Si4 0.328432 0.500000 0.455414
Si Si5 0.635953 0.884265 0.528626
O O1 0.086160 0.000000 0.666308
O O2 0.500000 0.000000 0.000000
O O3 0.533348 0.897365 0.924189
O O4 0.756221 0.726928 0.124171
O O5 0.050582 0.850526 0.270458
O O6 0.750000 0.750000 0.000000
O O7 0.750000 0.750000 0.500000
O O8 0.457562 0.875196 0.351995
O O9 0.649405 0.902818 0.359765
O O10 0.500000 0.500000 0.500000
O O11 0.500000 0.831585 0.500000
O O12 0.660617 0.000000 0.556127
#
# Coordination Sequence:
#
# PCOD9204082 Si02
#       5
#     4   8   8   4   8
#     4  12  24  42  66  93 134 171 210 270 340 387
#     4  11  24  40  63  97 133 166 212 278 338 389
#     4  10  22  40  65  95 128 168 222 272 321 400
#     4  12  24  42  68  97 128 175 224 268 324 403
#     4  10  20  40  65  85 119 171 218 257 319 393
#
# _framework density 22.498557999999999
#
# number of rings (size 3 to 8) (size 9 to 14) (size 15 to 20)
#    0.000    1.250    2.500    4.500    0.000   10.000 
#    0.000    0.000    0.000    3.000    0.000    0.000 
#    0.000    0.000    0.000    0.000    0.000    0.000 
#
# Total GULP energy -89115.359635 kJ/mol
# GULP energy per Si atom -5569.709977 kJ/mol
# Density = 2.244735 g / cm^3
# Si number density = 22.498558 Si / 1000 Ang^3
#
#
#
# Elastic Constant Matrix: (Units=GPa)
#
#
# Indices 1 2 3 4 5 6 
#
# 1 112.5656 35.4874 11.5189 0.0488 -13.4196 -0.0017
# 2 35.4874 110.5494 27.6501 0.1448 1.5119 0.0106
# 3 11.5189 27.6501 69.1366 0.2214 -12.2243 0.0319
# 4 0.0488 0.1448 0.2214 -45.5430 0.0212 -31.1352
# 5 -13.4196 1.5119 -12.2243 0.0212 38.4271 0.0001
# 6 -0.0017 0.0106 0.0319 -31.1352 0.0001 24.7720
#
#
#
# Elastic Compliance Matrix: (Units=1/GPa)
#
#
# Indices 1 2 3 4 5 6 
#
# 1 0.010408 -0.003480 0.000344 0.000001 0.003881 0.000003
# 2 -0.003480 0.011330 -0.004498 0.000005 -0.003092 0.000006
# 3 0.000344 -0.004498 0.017227 0.000046 0.005777 0.000038
# 4 0.000001 0.000005 0.000046 -0.011810 0.000022 -0.014843
# 5 0.003881 -0.003092 0.005777 0.000022 0.029338 0.000021
# 6 0.000003 0.000006 0.000038 -0.014843 0.000021 0.021712
#
#
# Mechanical properties :
#
#
# Convention : Reuss Voigt Hill
#
# Bulk Modulus (GPa) = 42.19998 49.06270 45.63134
# Shear Modulus (GPa) = 49.32189 18.03756 33.67972
#
# Velocity S-wave (km/s) = 4.68720 2.83454 3.87327
# Velocity P-wave (km/s) = 6.93474 5.70677 6.35050
#
# Compressibility (1/GPa) = 0.02369669
#
# Stress axis : x y z
#
# Youngs Moduli (GPa) = 96.07605 88.25876 58.04787
#
# Poissons Ratio (x) = 0.30717 -0.01997
# Poissons Ratio (y) = 0.33438 0.26112
# Poissons Ratio (z) = -0.03305 0.39701
#
# Static dielectric constant tensor:
#      x y z
#    x 5.881050 0.002980 -0.205040 
#    y 0.002980 1.801870 0.000850 
#    z -0.205040 0.000850 1.624790 
# 
# From -- ./inp_files/58743.got.cif
#   From: 2010.05.17/outbox.cif.g08.bks.cpg/sg12_30_cif.got.tgz:58743.got - 2010.06.03 13:09:07.
