data_PCOD9204876
_publ_section_title
;
Structure prediction by ZEFSAII (Michael W. Deem and Ramdas Pophale) SiO2 
 PCOD9204876
Probable space group: C 2/M
;
_chemical_formula_sum "Si O2"
_cell_formula_units_Z 48
_cell_length_a 27.634998
_cell_length_b 9.012410
_cell_length_c 20.782505
_cell_angle_alpha 90.000000
_cell_angle_beta 33.705515
_cell_angle_gamma 90.000000
_cell_volume 2872.315719
_symmetry_space_group_name_H-M "C 2/M"
_symmetry_group_IT_number 12
_symmetry_cell_setting 'monoclinic'
loop_
_space_group_symop_operation_xyz
x,y,z
-x,y,-z
-x,-y,-z
x,-y,z
1/2+x,1/2+y,z
1/2-x,1/2+y,-z
1/2-x,1/2-y,-z
1/2+x,1/2-y,z
loop_
_atom_site_type_symbol
_atom_site_label
_atom_site_fract_x
_atom_site_fract_y
_atom_site_fract_z
Si Si1 0.801025 0.178967 0.004248
Si Si2 0.006954 0.828178 0.245949
Si Si3 0.824886 0.322681 0.459742
Si Si4 0.664976 0.824499 0.402184
Si Si5 0.012936 0.831513 0.392354
Si Si6 0.792644 0.174899 0.771433
O O1 0.760502 0.238805 0.115131
O O2 0.794353 0.000000 0.007284
O O3 0.750000 0.250000 0.000000
O O4 0.903530 0.219118 0.886750
O O5 0.920143 0.733278 0.332078
O O6 0.026739 0.823395 0.300462
O O7 0.988557 0.000000 0.249535
O O8 0.821008 0.500000 0.460095
O O9 0.750000 0.250000 0.500000
O O10 0.814115 0.280551 0.547229
O O11 0.563195 0.781556 0.506350
O O12 0.717675 0.739577 0.288655
O O13 0.676845 0.000000 0.382182
O O14 0.105214 0.806751 0.323343
O O15 0.982535 0.000000 0.441089
O O16 0.773008 0.000000 0.795711
#
# Coordination Sequence:
#
# PCOD9204876 Si02
#       6
#     8   8   8   8   8   8
#     4  11  21  34  52  76 109 149 186 220 256 305
#     4   9  18  34  53  76 107 141 178 217 261 310
#     4  10  21  37  59  83 105 132 171 221 275 323
#     4  10  21  34  49  76 105 134 174 219 267 317
#     4   9  17  31  48  70 103 142 178 212 254 309
#     4  11  21  33  49  73 106 147 183 214 258 310
#
# _framework density 16.711254
#
# number of rings (size 3 to 8) (size 9 to 14) (size 15 to 20)
#    0.000    2.000    1.667    2.500    0.000    6.667 
#    0.000    0.000    0.000    1.000    0.000    7.000 
#    0.000    0.000    0.000    0.000    0.000    0.000 
#
# Total GULP energy -133927.449912 kJ/mol
# GULP energy per Si atom -5580.310413 kJ/mol
# Density = 1.667322 g / cm^3
# Si number density = 16.711254 Si / 1000 Ang^3
#
#
#
# Elastic Constant Matrix: (Units=GPa)
#
#
# Indices 1 2 3 4 5 6 
#
# 1 87.8568 55.2154 66.5100 0.0001 -5.1226 -0.0001
# 2 55.2154 67.2612 54.5158 0.0012 1.2842 -0.0011
# 3 66.5100 54.5158 102.6225 0.0012 13.1974 -0.0004
# 4 0.0001 0.0012 0.0012 31.0366 -0.0005 0.3425
# 5 -5.1226 1.2842 13.1974 -0.0005 21.5725 0.0002
# 6 -0.0001 -0.0011 -0.0004 0.3425 0.0002 24.2261
#
#
#
# Elastic Compliance Matrix: (Units=1/GPa)
#
#
# Indices 1 2 3 4 5 6 
#
# 1 0.035204 -0.015314 -0.017228 0.000001 0.019811 -0.000001
# 2 -0.015314 0.033946 -0.008011 -0.000001 -0.000756 0.000001
# 3 -0.017228 -0.008011 0.027819 -0.000001 -0.020633 0.000000
# 4 0.000001 -0.000001 -0.000001 0.032225 0.000002 -0.000456
# 5 0.019811 -0.000756 -0.020633 0.000002 0.063727 -0.000001
# 6 -0.000001 0.000001 0.000000 -0.000456 -0.000001 0.041284
#
#
# Mechanical properties :
#
#
# Convention : Reuss Voigt Hill
#
# Bulk Modulus (GPa) = 63.03921 67.80253 65.42087
# Shear Modulus (GPa) = 15.59584 20.80033 18.19808
#
# Velocity S-wave (km/s) = 3.05823 3.53184 3.30354
# Velocity P-wave (km/s) = 7.09048 7.56921 7.33375
#
# Compressibility (1/GPa) = 0.01586314
#
# Stress axis : x y z
#
# Youngs Moduli (GPa) = 28.40612 29.45871 35.94637
#
# Poissons Ratio (x) = 0.45112 0.61930
# Poissons Ratio (y) = 0.43500 0.28796
# Poissons Ratio (z) = 0.48939 0.23599
#
# Static dielectric constant tensor:
#      x y z
#    x 1.552210 0.000000 0.019850 
#    y 0.000000 1.567910 0.000000 
#    z 0.019850 0.000000 1.560600 
# 
# From -- ./inp_files/323499.got.cif
#   From: 2010.05.17/outbox.cif.g08.bks.cpg/sg12_162_cif.got.tgz:323499.got - 2010.06.03 13:09:07.
