data_PCOD9204937
_publ_section_title
;
Structure prediction by ZEFSAII (Michael W. Deem and Ramdas Pophale) SiO2 
 PCOD9204937
Probable space group: C 2/M
;
_chemical_formula_sum "Si O2"
_cell_formula_units_Z 58
_cell_length_a 8.711660
_cell_length_b 27.467689
_cell_length_c 12.153331
_cell_angle_alpha 90.000000
_cell_angle_beta 94.885613
_cell_angle_gamma 90.000000
_cell_volume 2897.594276
_symmetry_space_group_name_H-M "C 2/M"
_symmetry_group_IT_number 12
_symmetry_cell_setting 'monoclinic'
loop_
_space_group_symop_operation_xyz
x,y,z
-x,y,-z
-x,-y,-z
x,-y,z
1/2+x,1/2+y,z
1/2-x,1/2+y,-z
1/2-x,1/2-y,-z
1/2+x,1/2-y,z
loop_
_atom_site_type_symbol
_atom_site_label
_atom_site_fract_x
_atom_site_fract_y
_atom_site_fract_z
Si Si1 0.824388 0.197736 0.019988
Si Si2 0.878024 0.912266 0.632946
Si Si3 0.657637 0.637522 0.757406
Si Si4 0.149007 0.943699 0.936266
Si Si5 0.862018 0.378629 0.563714
Si Si6 0.500000 0.500000 0.500000
Si Si7 0.376014 0.115982 0.077024
Si Si8 0.563459 0.943796 0.719351
O O1 0.818404 0.177212 0.144884
O O2 0.750000 0.250000 0.000000
O O3 0.749708 0.158263 0.931624
O O4 0.000000 0.201658 0.000000
O O5 0.776516 0.890386 0.527405
O O6 0.743612 0.935363 0.700785
O O7 0.987395 0.871618 0.694597
O O8 0.977033 0.956829 0.592036
O O9 0.672472 0.587406 0.828188
O O10 0.779151 0.644294 0.665583
O O11 0.133265 0.000000 0.910042
O O12 0.294403 0.931523 0.021153
O O13 0.000000 0.928486 0.000000
O O14 0.000000 0.353740 0.500000
O O15 0.948580 0.427263 0.614988
O O16 0.459215 0.096892 0.189251
O O17 0.500000 0.135691 0.000000
O O18 0.536808 0.000000 0.746652
#
# Coordination Sequence:
#
# PCOD9204937 Si02
#       8
#     8   8   8   8   8   2   8   8
#     4  11  24  44  70  97 121 145 191 253 319 389
#     4  11  22  35  53  81 120 163 217 255 287 339
#     4  11  21  38  61  87 119 162 201 251 311 360
#     4  10  21  34  52  80 120 166 214 258 308 373
#     4  10  23  36  52  83 123 164 211 250 285 342
#     4  12  20  32  54  80 120 166 226 256 280 332
#     4  11  22  38  56  85 120 156 201 248 304 378
#     4  11  22  33  52  80 121 169 206 250 299 338
#
# _framework density 20.016605999999999
#
# number of rings (size 3 to 8) (size 9 to 14) (size 15 to 20)
#    0.000    1.241    2.069    5.793    1.931    4.690 
#    0.000    0.000    0.000    0.000    0.000   32.828 
#    0.000    0.000    0.000    0.000    0.000    0.000 
#
# Total GULP energy -161453.281180 kJ/mol
# GULP energy per Si atom -5567.354523 kJ/mol
# Density = 1.997105 g / cm^3
# Si number density = 20.016606 Si / 1000 Ang^3
#
#
#
# Elastic Constant Matrix: (Units=GPa)
#
#
# Indices 1 2 3 4 5 6 
#
# 1 90.0610 33.3161 34.9576 0.0000 9.0164 0.0000
# 2 33.3161 95.7424 48.7793 0.0000 1.4197 0.0000
# 3 34.9576 48.7793 110.9800 0.0000 11.8930 0.0000
# 4 0.0000 0.0000 0.0000 11.1251 0.0000 5.3532
# 5 9.0164 1.4197 11.8930 0.0000 43.3864 0.0000
# 6 0.0000 0.0000 0.0000 5.3532 0.0000 15.9895
#
#
#
# Elastic Compliance Matrix: (Units=1/GPa)
#
#
# Indices 1 2 3 4 5 6 
#
# 1 0.013550 -0.003376 -0.002570 0.000000 -0.002001 0.000000
# 2 -0.003376 0.014362 -0.005434 0.000000 0.001721 0.000000
# 3 -0.002570 -0.005434 0.012499 0.000000 -0.002714 0.000000
# 4 0.000000 0.000000 0.000000 0.107148 0.000000 -0.035873
# 5 -0.002001 0.001721 -0.002714 0.000000 0.024152 0.000000
# 6 0.000000 0.000000 0.000000 -0.035873 0.000000 0.074551
#
#
# Mechanical properties :
#
#
# Convention : Reuss Voigt Hill
#
# Bulk Modulus (GPa) = 56.64916 58.98772 57.81844
# Shear Modulus (GPa) = 18.18797 26.08223 22.13510
#
# Velocity S-wave (km/s) = 3.01764 3.61367 3.32902
# Velocity P-wave (km/s) = 6.36428 6.85163 6.61245
#
# Compressibility (1/GPa) = 0.01765251
#
# Stress axis : x y z
#
# Youngs Moduli (GPa) = 73.79863 69.62616 80.00463
#
# Poissons Ratio (x) = 0.23508 0.20560
# Poissons Ratio (y) = 0.24916 0.43472
# Poissons Ratio (z) = 0.18965 0.37833
#
# Static dielectric constant tensor:
#      x y z
#    x 1.877870 0.000000 0.006710 
#    y 0.000000 1.651520 0.000000 
#    z 0.006710 0.000000 1.809350 
# 
# From -- ./inp_files/124310.got.cif
#   From: 2010.05.17/outbox.cif.g08.bks.cpg/sg12_63_cif.got.tgz:124310.got - 2010.06.03 13:09:07.
