data_PCOD9204994
_publ_section_title
;
Structure prediction by ZEFSAII (Michael W. Deem and Ramdas Pophale) SiO2 
 PCOD9204994
Probable space group: C 2/M
;
_chemical_formula_sum "Si O2"
_cell_formula_units_Z 56
_cell_length_a 9.088492
_cell_length_b 30.919978
_cell_length_c 21.139337
_cell_angle_alpha 90.000000
_cell_angle_beta 147.385934
_cell_angle_gamma 90.000000
_cell_volume 3201.791706
_symmetry_space_group_name_H-M "C 2/M"
_symmetry_group_IT_number 12
_symmetry_cell_setting 'monoclinic'
loop_
_space_group_symop_operation_xyz
x,y,z
-x,y,-z
-x,-y,-z
x,-y,z
1/2+x,1/2+y,z
1/2-x,1/2+y,-z
1/2-x,1/2-y,-z
1/2+x,1/2-y,z
loop_
_atom_site_type_symbol
_atom_site_label
_atom_site_fract_x
_atom_site_fract_y
_atom_site_fract_z
Si Si1 0.661603 0.673150 0.772357
Si Si2 0.706579 0.795987 0.516091
Si Si3 0.554192 0.907536 0.879670
Si Si4 0.525600 0.500000 0.853662
Si Si5 0.879573 0.500000 0.862776
Si Si6 0.846584 0.914030 0.850232
Si Si7 0.449816 0.263634 0.909814
Si Si8 0.764663 0.334099 0.269494
O O1 0.480854 0.684289 0.644977
O O2 0.785681 0.718604 0.842736
O O3 0.462030 0.660420 0.757656
O O4 0.871924 0.634755 0.830171
O O5 0.500000 0.790886 0.500000
O O6 0.750000 0.750000 0.500000
O O7 0.546872 0.823148 0.405881
O O8 0.395005 0.952858 0.834875
O O9 0.679429 0.912694 0.854878
O O10 0.832532 0.903421 0.021518
O O11 0.618855 0.500000 0.814736
O O12 0.360675 0.459107 0.819037
O O13 0.824248 0.500000 0.995229
O O14 0.715169 0.878321 0.759446
O O15 0.324938 0.297936 0.814958
O O16 0.500000 0.280167 0.000000
O O17 0.750000 0.250000 0.000000
#
# Coordination Sequence:
#
# PCOD9204994 Si02
#       8
#     8   8   8   4   4   8   8   8
#     4  11  23  39  56  80 111 152 192 234 281 338
#     4  10  22  40  59  78 105 149 199 240 279 328
#     4  10  21  34  56  84 118 148 187 228 282 339
#     4   9  17  33  55  82 117 150 185 221 279 341
#     4   9  17  33  55  82 115 152 181 223 278 344
#     4  10  21  34  55  85 116 149 185 231 280 336
#     4  12  24  35  54  81 114 147 183 229 286 340
#     4  11  23  38  57  80 112 149 193 235 280 337
#
# _framework density 17.490206000000001
#
# number of rings (size 3 to 8) (size 9 to 14) (size 15 to 20)
#    0.000    1.571    2.857    2.143    4.000    4.000 
#    0.000    0.000    0.000    0.857    0.000    6.000 
#    0.000    0.000    0.000    0.000    0.000    0.000 
#
# Total GULP energy -156025.983340 kJ/mol
# GULP energy per Si atom -5572.356548 kJ/mol
# Density = 1.745040 g / cm^3
# Si number density = 17.490206 Si / 1000 Ang^3
#
#
#
# Elastic Constant Matrix: (Units=GPa)
#
#
# Indices 1 2 3 4 5 6 
#
# 1 60.5710 42.2556 36.0627 -0.0005 -13.3469 -0.0001
# 2 42.2556 128.0956 46.7872 -0.0004 -10.7109 -0.0001
# 3 36.0627 46.7872 87.3465 0.0049 -19.7081 0.0013
# 4 -0.0005 -0.0004 0.0049 9.8478 0.0003 -4.7951
# 5 -13.3469 -10.7109 -19.7081 0.0003 24.1799 0.0000
# 6 -0.0001 -0.0001 0.0013 -4.7951 0.0000 31.3308
#
#
#
# Elastic Compliance Matrix: (Units=1/GPa)
#
#
# Indices 1 2 3 4 5 6 
#
# 1 0.025499 -0.005667 -0.005983 0.000004 0.006688 0.000001
# 2 -0.005667 0.010965 -0.003852 0.000002 -0.001410 0.000001
# 3 -0.005983 -0.003852 0.018199 -0.000011 0.009824 -0.000002
# 4 0.000004 0.000002 -0.000011 0.109723 -0.000007 0.016793
# 5 0.006688 -0.001410 0.009824 -0.000007 0.052431 -0.000001
# 6 0.000001 0.000001 -0.000002 0.016793 -0.000001 0.034488
#
#
# Mechanical properties :
#
#
# Convention : Reuss Voigt Hill
#
# Bulk Modulus (GPa) = 42.26777 58.46934 50.36856
# Shear Modulus (GPa) = 17.22983 23.13220 20.18101
#
# Velocity S-wave (km/s) = 3.14206 3.64067 3.40052
# Velocity P-wave (km/s) = 6.11411 7.15367 6.65422
#
# Compressibility (1/GPa) = 0.02365869
#
# Stress axis : x y z
#
# Youngs Moduli (GPa) = 39.21742 91.19898 54.94820
#
# Poissons Ratio (x) = 0.51681 0.32877
# Poissons Ratio (y) = 0.22224 0.21166
# Poissons Ratio (z) = 0.23465 0.35130
#
# Static dielectric constant tensor:
#      x y z
#    x 1.538460 0.000000 0.251510 
#    y 0.000000 1.561910 -0.000010 
#    z 0.251510 -0.000010 1.032680 
# 
# From -- ./inp_files/200864.got.cif
#   From: 2010.05.17/outbox.cif.g08.bks.cpg/sg12_101_cif.got.tgz:200864.got - 2010.06.03 13:09:07.
