data_PCOD9204797
_publ_section_title
;
Structure prediction by ZEFSAII (Michael W. Deem and Ramdas Pophale) SiO2 
 PCOD9204797
Probable space group: C 2/M
;
_chemical_formula_sum "Si O2"
_cell_formula_units_Z 48
_cell_length_a 25.430600
_cell_length_b 7.763948
_cell_length_c 18.689888
_cell_angle_alpha 90.000000
_cell_angle_beta 46.677870
_cell_angle_gamma 90.000000
_cell_volume 2684.624720
_symmetry_space_group_name_H-M "C 2/M"
_symmetry_group_IT_number 12
_symmetry_cell_setting 'monoclinic'
loop_
_space_group_symop_operation_xyz
x,y,z
-x,y,-z
-x,-y,-z
x,-y,z
1/2+x,1/2+y,z
1/2-x,1/2+y,-z
1/2-x,1/2-y,-z
1/2+x,1/2-y,z
loop_
_atom_site_type_symbol
_atom_site_label
_atom_site_fract_x
_atom_site_fract_y
_atom_site_fract_z
Si Si1 0.979475 0.198194 0.629239
Si Si2 0.878435 0.500000 0.114899
Si Si3 0.184082 0.293963 0.613579
Si Si4 0.778242 0.201107 0.260408
Si Si5 0.612829 0.803001 0.414737
Si Si6 0.495380 0.000000 0.883948
Si Si7 0.021700 0.201770 0.746537
O O1 0.058838 0.208097 0.519018
O O2 0.985186 0.255301 0.705639
O O3 0.925975 0.296676 0.626145
O O4 0.956108 0.000000 0.650179
O O5 0.829091 0.330558 0.169410
O O6 0.935786 0.500000 0.126996
O O7 0.924840 0.500000 0.999417
O O8 0.177827 0.500000 0.625524
O O9 0.250000 0.250000 0.500000
O O10 0.199077 0.217689 0.677859
O O11 0.108091 0.221746 0.656710
O O12 0.694661 0.259707 0.333902
O O13 0.783471 0.000000 0.233714
O O14 0.616268 0.000000 0.437041
O O15 0.499688 0.168862 0.830080
O O16 0.005810 0.000000 0.775545
#
# Coordination Sequence:
#
# PCOD9204797 Si02
#       7
#     8   4   8   8   8   4   8
#     4  10  21  33  54  85 118 159 195 228 280 342
#     4  11  24  42  64  87 112 150 196 244 299 347
#     4  12  22  34  54  84 121 159 188 224 282 345
#     4  11  22  38  58  86 117 151 193 238 290 342
#     4  10  21  33  54  85 118 159 195 228 280 342
#     4  11  24  42  64  87 112 150 196 244 299 347
#     4  11  22  38  58  86 117 151 193 238 290 342
#
# _framework density 17.879594000000001
#
# number of rings (size 3 to 8) (size 9 to 14) (size 15 to 20)
#    0.000    1.167    3.333    4.500    4.667    3.333 
#    0.000    1.667    0.000    1.000    0.000    0.000 
#    0.000    0.000    0.000    0.000    0.000    0.000 
#
# Total GULP energy -134076.737064 kJ/mol
# GULP energy per Si atom -5586.530711 kJ/mol
# Density = 1.783890 g / cm^3
# Si number density = 17.879594 Si / 1000 Ang^3
#
#
#
# Elastic Constant Matrix: (Units=GPa)
#
#
# Indices 1 2 3 4 5 6 
#
# 1 51.1324 3.2326 3.2473 -0.0051 7.0093 -0.0039
# 2 3.2326 78.7908 17.3364 -0.0216 5.9119 -0.0127
# 3 3.2473 17.3364 58.7381 -0.0068 9.7566 -0.0028
# 4 -0.0051 -0.0216 -0.0068 25.8106 0.0067 -2.2406
# 5 7.0093 5.9119 9.7566 0.0067 26.1302 -0.0007
# 6 -0.0039 -0.0127 -0.0028 -2.2406 -0.0007 21.5846
#
#
#
# Elastic Compliance Matrix: (Units=1/GPa)
#
#
# Indices 1 2 3 4 5 6 
#
# 1 0.020319 -0.000409 -0.000120 0.000005 -0.005313 0.000004
# 2 -0.000409 0.013651 -0.003744 0.000012 -0.001581 0.000009
# 3 -0.000120 -0.003744 0.019180 0.000004 -0.006282 0.000000
# 4 0.000005 0.000012 0.000004 0.039096 -0.000015 0.004058
# 5 -0.005313 -0.001581 -0.006282 -0.000015 0.042398 -0.000003
# 6 0.000004 0.000009 0.000000 0.004058 -0.000003 0.046751
#
#
# Mechanical properties :
#
#
# Convention : Reuss Voigt Hill
#
# Bulk Modulus (GPa) = 22.41927 26.25489 24.33708
# Shear Modulus (GPa) = 24.41309 25.69475 25.05392
#
# Velocity S-wave (km/s) = 3.69916 3.79502 3.74740
# Velocity P-wave (km/s) = 5.55079 5.82401 5.68904
#
# Compressibility (1/GPa) = 0.04460448
#
# Stress axis : x y z
#
# Youngs Moduli (GPa) = 49.21536 73.25474 52.13811
#
# Poissons Ratio (x) = 0.02993 0.00627
# Poissons Ratio (y) = 0.02011 0.19520
# Poissons Ratio (z) = 0.00592 0.27425
#
# Static dielectric constant tensor:
#      x y z
#    x 1.614510 0.000000 -0.002230 
#    y 0.000000 1.622240 0.000000 
#    z -0.002230 0.000000 1.582380 
# 
# From -- ./inp_files/287288.got.cif
#   From: 2010.05.17/outbox.cif.g08.bks.cpg/sg12_144_cif.got.tgz:287288.got - 2010.06.03 13:09:07.
