data_PCOD9204383
_publ_section_title
;
Structure prediction by ZEFSAII (Michael W. Deem and Ramdas Pophale) SiO2 
 PCOD9204383
Probable space group: C 2/M
;
_chemical_formula_sum "Si O2"
_cell_formula_units_Z 64
_cell_length_a 19.196340
_cell_length_b 8.841105
_cell_length_c 31.949267
_cell_angle_alpha 90.000000
_cell_angle_beta 37.335194
_cell_angle_gamma 90.000000
_cell_volume 3288.517437
_symmetry_space_group_name_H-M "C 2/M"
_symmetry_group_IT_number 12
_symmetry_cell_setting 'monoclinic'
loop_
_space_group_symop_operation_xyz
x,y,z
-x,y,-z
-x,-y,-z
x,-y,z
1/2+x,1/2+y,z
1/2-x,1/2+y,-z
1/2-x,1/2-y,-z
1/2+x,1/2-y,z
loop_
_atom_site_type_symbol
_atom_site_label
_atom_site_fract_x
_atom_site_fract_y
_atom_site_fract_z
Si Si1 0.375611 0.318423 0.283484
Si Si2 0.719636 0.179906 0.210477
Si Si3 0.706457 0.822089 0.978065
Si Si4 0.321935 0.680692 0.679871
Si Si5 0.618886 0.181290 0.170446
Si Si6 0.694057 0.682036 0.589623
Si Si7 0.581382 0.317694 0.556630
Si Si8 0.482463 0.674831 0.058104
O O1 0.382141 0.500000 0.278359
O O2 0.274123 0.260240 0.302302
O O3 0.498284 0.248303 0.212959
O O4 0.349000 0.271252 0.344163
O O5 0.694710 0.272654 0.263942
O O6 0.641018 0.222490 0.208434
O O7 0.851450 0.202984 0.133294
O O8 0.704839 0.000000 0.225697
O O9 0.777194 0.746007 0.906586
O O10 0.726241 0.000000 0.968241
O O11 0.750000 0.750000 0.000000
O O12 0.572644 0.783730 0.036885
O O13 0.312156 0.500000 0.680030
O O14 0.452471 0.726845 0.606138
O O15 0.619222 0.000000 0.167206
O O16 0.700416 0.500000 0.586264
O O17 0.611835 0.727657 0.590108
O O18 0.819148 0.748105 0.519388
O O19 0.588381 0.500000 0.551280
O O20 0.510037 0.500000 0.055944
O O21 0.500000 0.689958 0.000000
#
# Coordination Sequence:
#
# PCOD9204383 Si02
#       8
#     8   8   8   8   8   8   8   8
#     4  11  24  41  60  87 124 162 201 248 303 358
#     4  10  22  40  65  90 118 157 199 248 304 360
#     4  12  26  42  63  91 124 162 202 248 302 360
#     4  11  24  40  59  87 124 162 202 251 299 353
#     4  11  23  43  66  90 119 157 203 248 301 362
#     4   9  19  37  62  89 118 155 197 245 297 355
#     4   9  19  37  61  88 118 154 199 247 297 351
#     4  10  20  41  66  90 122 156 197 251 304 359
#
# _framework density 19.461656999999999
#
# number of rings (size 3 to 8) (size 9 to 14) (size 15 to 20)
#    0.000    1.625    1.250    3.000    1.750    5.250 
#    0.000    5.000    0.000    0.000    0.000    0.000 
#    0.000    0.000    0.000    0.000    0.000    0.000 
#
# Total GULP energy -178875.861961 kJ/mol
# GULP energy per Si atom -5589.870686 kJ/mol
# Density = 1.941736 g / cm^3
# Si number density = 19.461657 Si / 1000 Ang^3
#
#
#
# Elastic Constant Matrix: (Units=GPa)
#
#
# Indices 1 2 3 4 5 6 
#
# 1 85.7036 34.5510 13.3565 0.0000 -20.2269 -0.0006
# 2 34.5510 47.5706 12.8679 0.0007 -6.4683 0.0011
# 3 13.3565 12.8679 38.0726 -0.0008 -13.7433 0.0005
# 4 0.0000 0.0007 -0.0008 33.3501 0.0005 -0.6314
# 5 -20.2269 -6.4683 -13.7433 0.0005 32.4564 0.0000
# 6 -0.0006 0.0011 0.0005 -0.6314 0.0000 27.8457
#
#
#
# Elastic Compliance Matrix: (Units=1/GPa)
#
#
# Indices 1 2 3 4 5 6 
#
# 1 0.018920 -0.012737 0.001189 0.000000 0.009756 0.000001
# 2 -0.012737 0.031776 -0.008087 -0.000001 -0.005029 -0.000001
# 3 0.001189 -0.008087 0.033368 0.000001 0.013259 0.000000
# 4 0.000000 -0.000001 0.000001 0.029998 0.000000 0.000680
# 5 0.009756 -0.005029 0.013259 0.000000 0.041503 0.000000
# 6 0.000001 -0.000001 0.000000 0.000680 0.000000 0.035928
#
#
# Mechanical properties :
#
#
# Convention : Reuss Voigt Hill
#
# Bulk Modulus (GPa) = 22.32420 32.54419 27.43420
# Shear Modulus (GPa) = 20.35062 26.10188 23.22625
#
# Velocity S-wave (km/s) = 3.23720 3.66621 3.45836
# Velocity P-wave (km/s) = 5.04662 5.88897 5.48399
#
# Compressibility (1/GPa) = 0.04479443
#
# Stress axis : x y z
#
# Youngs Moduli (GPa) = 52.85343 31.47026 29.96916
#
# Poissons Ratio (x) = 0.40084 -0.03564
# Poissons Ratio (y) = 0.67320 0.24236
# Poissons Ratio (z) = -0.06285 0.25450
#
# Static dielectric constant tensor:
#      x y z
#    x 1.677110 0.000000 0.005580 
#    y 0.000000 1.650580 0.000000 
#    z 0.005580 0.000000 1.663030 
# 
# From -- ./inp_files/377982.got.cif
#   From: 2010.05.17/outbox.cif.g08.bks.cpg/sg12_189_cif.got.tgz:377982.got - 2010.06.03 13:09:07.
