data_PCOD9204502
_publ_section_title
;
Structure prediction by ZEFSAII (Michael W. Deem and Ramdas Pophale) SiO2 
 PCOD9204502
Probable space group: C 2/M
;
_chemical_formula_sum "Si O2"
_cell_formula_units_Z 48
_cell_length_a 14.170710
_cell_length_b 11.321763
_cell_length_c 26.567925
_cell_angle_alpha 90.000000
_cell_angle_beta 150.986284
_cell_angle_gamma 90.000000
_cell_volume 2067.388239
_symmetry_space_group_name_H-M "C 2/M"
_symmetry_group_IT_number 12
_symmetry_cell_setting 'monoclinic'
loop_
_space_group_symop_operation_xyz
x,y,z
-x,y,-z
-x,-y,-z
x,-y,z
1/2+x,1/2+y,z
1/2-x,1/2+y,-z
1/2-x,1/2-y,-z
1/2+x,1/2-y,z
loop_
_atom_site_type_symbol
_atom_site_label
_atom_site_fract_x
_atom_site_fract_y
_atom_site_fract_z
Si Si1 0.824908 0.500000 0.501875
Si Si2 0.482951 0.500000 0.567471
Si Si3 0.425026 0.000000 0.278334
Si Si4 0.002148 0.255445 0.436837
Si Si5 0.898143 0.860881 0.717712
Si Si6 0.441713 0.000000 0.768725
Si Si7 0.949951 0.275021 0.120834
Si Si8 0.664087 0.741712 0.752951
O O1 0.605686 0.500000 0.418117
O O2 0.953213 0.500000 0.613113
O O3 0.875465 0.375538 0.500163
O O4 0.418257 0.625230 0.513524
O O5 0.715266 0.500000 0.678240
O O6 0.306695 0.120398 0.220937
O O7 0.556209 0.000000 0.290191
O O8 0.798441 0.282416 0.369323
O O9 0.956123 0.242906 0.355655
O O10 0.993438 0.835022 0.816818
O O11 0.042878 0.818981 0.741008
O O12 0.851788 0.000000 0.691299
O O13 0.548421 0.885719 0.840525
O O14 0.123135 0.304655 0.162257
O O15 0.750000 0.250000 0.000000
#
# Coordination Sequence:
#
# PCOD9204502 Si02
#       8
#     4   4   4   8   8   4   8   8
#     4  10  22  37  63  99 131 174 213 266 313 386
#     4  12  20  37  66  95 132 168 218 264 321 374
#     4  10  20  42  64  91 120 164 216 250 318 380
#     4  10  21  39  62  95 132 168 212 258 320 376
#     4  11  22  39  64  88 125 166 208 261 314 381
#     4  12  22  44  63  90 127 168 209 265 324 373
#     4  11  26  42  61  93 124 161 209 264 318 385
#     4  10  21  38  65  89 120 168 207 251 322 376
#
# _framework density 23.217701000000002
#
# number of rings (size 3 to 8) (size 9 to 14) (size 15 to 20)
#    0.000    1.333    5.833    0.500    7.000    1.000 
#    0.000    1.667    0.000    4.000    0.000    0.000 
#    0.000    0.000    0.000    0.000    0.000    0.000 
#
# Total GULP energy -134307.514200 kJ/mol
# GULP energy per Si atom -5596.146425 kJ/mol
# Density = 2.316486 g / cm^3
# Si number density = 23.217701 Si / 1000 Ang^3
#
#
#
# Elastic Constant Matrix: (Units=GPa)
#
#
# Indices 1 2 3 4 5 6 
#
# 1 149.7896 36.3478 35.9260 0.0001 6.1430 0.0001
# 2 36.3478 201.3577 36.5779 0.0002 -2.5723 0.0000
# 3 35.9260 36.5779 48.7163 0.0006 -9.0540 0.0003
# 4 0.0001 0.0002 0.0006 20.8784 0.0005 -5.4694
# 5 6.1430 -2.5723 -9.0540 0.0005 16.9191 0.0003
# 6 0.0001 0.0000 0.0003 -5.4694 0.0003 40.0618
#
#
#
# Elastic Compliance Matrix: (Units=1/GPa)
#
#
# Indices 1 2 3 4 5 6 
#
# 1 0.008904 -0.000300 -0.007718 0.000000 -0.007408 0.000000
# 2 -0.000300 0.005800 -0.004386 0.000000 -0.001356 0.000000
# 3 -0.007718 -0.004386 0.033211 -0.000001 0.019908 -0.000001
# 4 0.000000 0.000000 -0.000001 0.049673 -0.000002 0.006781
# 5 -0.007408 -0.001356 0.019908 -0.000002 0.072242 -0.000001
# 6 0.000000 0.000000 -0.000001 0.006781 -0.000001 0.025887
#
#
# Mechanical properties :
#
#
# Convention : Reuss Voigt Hill
#
# Bulk Modulus (GPa) = 43.27455 68.61855 55.94655
# Shear Modulus (GPa) = 21.90817 34.97267 28.44042
#
# Velocity S-wave (km/s) = 3.07514 3.88531 3.50372
# Velocity P-wave (km/s) = 5.59354 7.05309 6.36529
#
# Compressibility (1/GPa) = 0.02310827
#
# Stress axis : x y z
#
# Youngs Moduli (GPa) = 112.31334 172.42094 30.11036
#
# Poissons Ratio (x) = 0.05171 0.23238
# Poissons Ratio (y) = 0.03368 0.13205
# Poissons Ratio (z) = 0.86680 0.75616
#
# Static dielectric constant tensor:
#      x y z
#    x 1.908570 0.000000 -0.018920 
#    y 0.000000 1.907590 0.000000 
#    z -0.018920 0.000000 1.838380 
# 
# From -- ./inp_files/376192.got.cif
#   From: 2010.05.17/outbox.cif.g08.bks.cpg/sg12_189_cif.got.tgz:376192.got - 2010.06.03 13:09:07.
