data_PCOD9204984
_publ_section_title
;
Structure prediction by ZEFSAII (Michael W. Deem and Ramdas Pophale) SiO2 
 PCOD9204984
Probable space group: C 2/M
;
_chemical_formula_sum "Si O2"
_cell_formula_units_Z 56
_cell_length_a 10.136558
_cell_length_b 21.995101
_cell_length_c 18.736158
_cell_angle_alpha 90.000000
_cell_angle_beta 37.700004
_cell_angle_gamma 90.000000
_cell_volume 2554.540043
_symmetry_space_group_name_H-M "C 2/M"
_symmetry_group_IT_number 12
_symmetry_cell_setting 'monoclinic'
loop_
_space_group_symop_operation_xyz
x,y,z
-x,y,-z
-x,-y,-z
x,-y,z
1/2+x,1/2+y,z
1/2-x,1/2+y,-z
1/2-x,1/2-y,-z
1/2+x,1/2-y,z
loop_
_atom_site_type_symbol
_atom_site_label
_atom_site_fract_x
_atom_site_fract_y
_atom_site_fract_z
Si Si1 0.328637 0.927969 0.786261
Si Si2 0.417267 0.740250 0.364805
Si Si3 0.125820 0.757415 0.778818
Si Si4 0.466455 0.401882 0.695120
Si Si5 0.577679 0.388800 0.123958
Si Si6 0.422554 0.068784 0.458796
Si Si7 0.508002 0.123123 0.136611
O O1 0.480430 0.906174 0.655492
O O2 0.387076 0.892432 0.832487
O O3 0.085851 0.916778 0.863389
O O4 0.362988 0.000000 0.783801
O O5 0.250000 0.750000 0.500000
O O6 0.646301 0.771539 0.282071
O O7 0.332127 0.756485 0.322866
O O8 0.475351 0.669091 0.337640
O O9 0.975453 0.816494 0.849202
O O10 0.028830 0.695840 0.853163
O O11 0.470249 0.416153 0.777692
O O12 0.664850 0.433003 0.570450
O O13 0.224553 0.408932 0.770477
O O14 0.823133 0.397055 0.995634
O O15 0.500000 0.099642 0.500000
O O16 0.510986 0.000000 0.423342
#
# Coordination Sequence:
#
# PCOD9204984 Si02
#       7
#     8   8   8   8   8   8   8
#     4  11  25  43  67  97 126 167 216 265 323 374
#     4  10  21  34  54  86 124 156 199 260 315 374
#     4  10  22  38  58  89 121 170 215 248 316 379
#     4  10  23  38  62  90 121 161 206 258 319 374
#     4  11  22  41  66  88 125 173 220 260 304 378
#     4  10  21  41  67  89 118 159 211 261 307 385
#     4  11  24  41  60  93 133 165 209 267 318 378
#
# _framework density 21.921755000000001
#
# number of rings (size 3 to 8) (size 9 to 14) (size 15 to 20)
#    0.000    1.571    1.429    2.571    4.000    2.286 
#    0.000    5.714    0.000    2.571    0.000    0.000 
#    0.000    0.000    0.000    0.000    0.000    0.000 
#
# Total GULP energy -156559.152937 kJ/mol
# GULP energy per Si atom -5591.398319 kJ/mol
# Density = 2.187186 g / cm^3
# Si number density = 21.921755 Si / 1000 Ang^3
#
#
#
# Elastic Constant Matrix: (Units=GPa)
#
#
# Indices 1 2 3 4 5 6 
#
# 1 69.9706 4.5885 -2.9697 -0.0019 -10.7040 -0.0001
# 2 4.5885 45.9404 11.6706 -0.0012 -2.0824 -0.0002
# 3 -2.9697 11.6706 101.1458 -0.0101 -15.2726 -0.0012
# 4 -0.0019 -0.0012 -0.0101 12.7261 0.0005 -11.6397
# 5 -10.7040 -2.0824 -15.2726 0.0005 29.0865 0.0006
# 6 -0.0001 -0.0002 -0.0012 -11.6397 0.0006 16.2110
#
#
#
# Elastic Compliance Matrix: (Units=1/GPa)
#
#
# Indices 1 2 3 4 5 6 
#
# 1 0.015450 -0.001662 0.001614 0.000009 0.006414 0.000007
# 2 -0.001662 0.022605 -0.002721 0.000000 -0.000422 0.000000
# 3 0.001614 -0.002721 0.011196 0.000027 0.006278 0.000020
# 4 0.000009 0.000000 0.000027 0.228907 0.000010 0.164359
# 5 0.006414 -0.000422 0.006278 0.000010 0.040007 0.000006
# 6 0.000007 0.000000 0.000020 0.164359 0.000006 0.179698
#
#
# Mechanical properties :
#
#
# Convention : Reuss Voigt Hill
#
# Bulk Modulus (GPa) = 22.87631 27.07062 24.97346
# Shear Modulus (GPa) = 9.65300 25.18920 17.42110
#
# Velocity S-wave (km/s) = 2.10070 3.39344 2.82209
# Velocity P-wave (km/s) = 4.04253 5.26588 4.69423
#
# Compressibility (1/GPa) = 0.04371335
#
# Stress axis : x y z
#
# Youngs Moduli (GPa) = 64.72285 44.23711 89.31768
#
# Poissons Ratio (x) = 0.07354 -0.14416
# Poissons Ratio (y) = 0.10760 0.24302
# Poissons Ratio (z) = -0.10446 0.12036
#
# Static dielectric constant tensor:
#      x y z
#    x 1.791260 0.000000 0.007120 
#    y 0.000000 1.852950 0.000000 
#    z 0.007120 0.000000 1.783810 
# 
# From -- ./inp_files/124347.got.cif
#   From: 2010.05.17/outbox.cif.g08.bks.cpg/sg12_63_cif.got.tgz:124347.got - 2010.06.03 13:09:07.
