data_PCOD9204580
_publ_section_title
;
Structure prediction by ZEFSAII (Michael W. Deem and Ramdas Pophale) SiO2 
 PCOD9204580
Probable space group: C 2/M
;
_chemical_formula_sum "Si O2"
_cell_formula_units_Z 36
_cell_length_a 14.841307
_cell_length_b 10.360945
_cell_length_c 19.841346
_cell_angle_alpha 90.000000
_cell_angle_beta 142.502227
_cell_angle_gamma 90.000000
_cell_volume 1857.238918
_symmetry_space_group_name_H-M "C 2/M"
_symmetry_group_IT_number 12
_symmetry_cell_setting 'monoclinic'
loop_
_space_group_symop_operation_xyz
x,y,z
-x,y,-z
-x,-y,-z
x,-y,z
1/2+x,1/2+y,z
1/2-x,1/2+y,-z
1/2-x,1/2-y,-z
1/2+x,1/2-y,z
loop_
_atom_site_type_symbol
_atom_site_label
_atom_site_fract_x
_atom_site_fract_y
_atom_site_fract_z
Si Si1 0.075950 0.000000 0.617566
Si Si2 0.565723 0.500000 0.326326
Si Si3 0.446199 0.147741 0.076339
Si Si4 0.755412 0.735665 0.246478
Si Si5 0.134523 0.757727 0.831839
Si Si6 0.174087 0.500000 0.614594
O O1 0.173514 0.128622 0.686871
O O2 0.000000 0.000000 0.500000
O O3 0.955098 0.000000 0.605806
O O4 0.479329 0.375174 0.246629
O O5 0.731794 0.500000 0.398136
O O6 0.581332 0.237340 0.133648
O O7 0.424860 0.167013 0.144062
O O8 0.480856 0.000000 0.080623
O O9 0.291371 0.185689 0.950487
O O10 0.832328 0.698448 0.221551
O O11 0.781195 0.625725 0.316321
O O12 0.000000 0.500000 0.500000
#
# Coordination Sequence:
#
# PCOD9204580 Si02
#       6
#     4   4   8   8   8   4
#     4  10  22  43  65  91 115 157 211 263 305 364
#     4  10  20  43  65  85 125 157 202 253 316 363
#     4  11  21  37  63  95 130 163 205 243 307 381
#     4  11  23  41  64  89 128 160 209 255 305 372
#     4  10  22  38  61  95 126 163 195 250 309 377
#     4  12  26  46  61  89 123 169 210 266 319 356
#
# _framework density 19.383611999999999
#
# number of rings (size 3 to 8) (size 9 to 14) (size 15 to 20)
#    0.000    1.333    4.444    1.333    1.556    0.889 
#    4.000    4.444    0.000    0.000    0.000    0.000 
#    0.000    0.000    0.000    0.000    0.000    0.000 
#
# Total GULP energy -100591.457498 kJ/mol
# GULP energy per Si atom -5588.414305 kJ/mol
# Density = 1.933949 g / cm^3
# Si number density = 19.383612 Si / 1000 Ang^3
#
#
#
# Elastic Constant Matrix: (Units=GPa)
#
#
# Indices 1 2 3 4 5 6 
#
# 1 112.1302 17.1025 36.0690 0.0000 8.9229 0.0000
# 2 17.1025 67.1433 3.5372 0.0000 1.4916 0.0000
# 3 36.0690 3.5372 69.7542 0.0000 7.5946 0.0000
# 4 0.0000 0.0000 0.0000 9.3142 0.0000 10.5200
# 5 8.9229 1.4916 7.5946 0.0000 41.2341 0.0000
# 6 0.0000 0.0000 0.0000 10.5200 0.0000 20.2649
#
#
#
# Elastic Compliance Matrix: (Units=1/GPa)
#
#
# Indices 1 2 3 4 5 6 
#
# 1 0.011181 -0.002528 -0.005510 0.000000 -0.001313 0.000000
# 2 -0.002528 0.015512 0.000533 0.000000 -0.000112 0.000000
# 3 -0.005510 0.000533 0.017379 0.000000 -0.002028 0.000000
# 4 0.000000 0.000000 0.000000 0.259536 0.000000 -0.134731
# 5 -0.001313 -0.000112 -0.002028 0.000000 0.024913 0.000000
# 6 0.000000 0.000000 0.000000 -0.134731 0.000000 0.119288
#
#
# Mechanical properties :
#
#
# Convention : Reuss Voigt Hill
#
# Bulk Modulus (GPa) = 34.41100 40.27169 37.34135
# Shear Modulus (GPa) = 10.58185 26.98390 18.78287
#
# Velocity S-wave (km/s) = 2.33902 3.73513 3.11627
# Velocity P-wave (km/s) = 5.00858 6.27876 5.67929
#
# Compressibility (1/GPa) = 0.02906047
#
# Stress axis : x y z
#
# Youngs Moduli (GPa) = 89.43861 64.46633 57.54040
#
# Poissons Ratio (x) = 0.16300 0.31706
# Poissons Ratio (y) = 0.22614 -0.03067
# Poissons Ratio (z) = 0.49283 -0.03436
#
# Static dielectric constant tensor:
#      x y z
#    x 1.686200 0.000000 -0.007830 
#    y 0.000000 1.650310 0.000000 
#    z -0.007830 0.000000 1.645610 
# 
# From -- ./inp_files/139572.got.cif
#   From: 2010.05.17/outbox.cif.g08.bks.cpg/sg12_70_cif.got.tgz:139572.got - 2010.06.03 13:09:07.
