data_PCOD9204350
_publ_section_title
;
Structure prediction by ZEFSAII (Michael W. Deem and Ramdas Pophale) SiO2 
 PCOD9204350
Probable space group: C 2/M
;
_chemical_formula_sum "Si O2"
_cell_formula_units_Z 56
_cell_length_a 21.319189
_cell_length_b 9.131654
_cell_length_c 15.706918
_cell_angle_alpha 90.000000
_cell_angle_beta 85.397728
_cell_angle_gamma 90.000000
_cell_volume 3047.954957
_symmetry_space_group_name_H-M "C 2/M"
_symmetry_group_IT_number 12
_symmetry_cell_setting 'monoclinic'
loop_
_space_group_symop_operation_xyz
x,y,z
-x,y,-z
-x,-y,-z
x,-y,z
1/2+x,1/2+y,z
1/2-x,1/2+y,-z
1/2-x,1/2-y,-z
1/2+x,1/2-y,z
loop_
_atom_site_type_symbol
_atom_site_label
_atom_site_fract_x
_atom_site_fract_y
_atom_site_fract_z
Si Si1 0.156474 0.169084 0.967668
Si Si2 0.686443 0.675208 0.475066
Si Si3 0.850700 0.825338 0.713701
Si Si4 0.703361 0.830891 0.123646
Si Si5 0.051406 0.823484 0.568505
Si Si6 0.959986 0.674521 0.089198
Si Si7 0.015438 0.324548 0.268236
O O1 0.225108 0.175216 0.917094
O O2 0.104435 0.237148 0.912382
O O3 0.142579 0.000000 0.989261
O O4 0.160714 0.263327 0.053428
O O5 0.692841 0.500000 0.483210
O O6 0.750000 0.750000 0.500000
O O7 0.675035 0.708487 0.377083
O O8 0.621758 0.716866 0.530616
O O9 0.805452 0.763639 0.791338
O O10 0.917412 0.747661 0.720269
O O11 0.858273 0.000000 0.719847
O O12 0.685956 0.000000 0.140557
O O13 0.000000 0.789062 0.500000
O O14 0.031874 0.742561 0.656926
O O15 0.048908 0.000000 0.580691
O O16 0.947567 0.500000 0.089469
O O17 0.994865 0.708865 0.173607
O O18 0.000000 0.709241 0.000000
O O19 0.018607 0.500000 0.276809
#
# Coordination Sequence:
#
# PCOD9204350 Si02
#       7
#     8   8   8   8   8   8   8
#     4  10  21  37  58  84 114 154 199 241 293 354
#     4  10  23  41  62  88 120 158 197 248 307 364
#     4  11  22  39  61  86 116 154 200 243 295 360
#     4  10  21  37  58  85 117 152 194 243 297 354
#     4  10  20  41  65  85 119 162 203 249 306 365
#     4  10  22  39  57  81 120 159 193 244 303 353
#     4  11  23  37  60  93 120 154 203 253 304 357
#
# _framework density 18.372975
#
# number of rings (size 3 to 8) (size 9 to 14) (size 15 to 20)
#    0.000    1.714    1.429    2.571    0.000    7.429 
#    0.000    5.714    0.000    0.000    0.000    0.000 
#    0.000    0.000    0.000    0.000    0.000    0.000 
#
# Total GULP energy -156434.925765 kJ/mol
# GULP energy per Si atom -5586.961634 kJ/mol
# Density = 1.833116 g / cm^3
# Si number density = 18.372975 Si / 1000 Ang^3
#
#
#
# Elastic Constant Matrix: (Units=GPa)
#
#
# Indices 1 2 3 4 5 6 
#
# 1 102.2001 56.4281 56.0305 0.0000 25.7694 0.0000
# 2 56.4281 65.5978 70.1423 0.0000 16.3143 0.0000
# 3 56.0305 70.1423 142.2375 0.0000 10.2533 0.0000
# 4 0.0000 0.0000 0.0000 35.0283 0.0000 -0.1497
# 5 25.7694 16.3143 10.2533 0.0000 28.5985 0.0000
# 6 0.0000 0.0000 0.0000 -0.1497 0.0000 34.8907
#
#
#
# Elastic Compliance Matrix: (Units=1/GPa)
#
#
# Indices 1 2 3 4 5 6 
#
# 1 0.020818 -0.015749 0.000277 0.000000 -0.009874 0.000000
# 2 -0.015749 0.049708 -0.017747 0.000000 -0.007803 0.000000
# 3 0.000277 -0.017747 0.015358 0.000000 0.004368 0.000000
# 4 0.000000 0.000000 0.000000 0.028549 0.000000 0.000122
# 5 -0.009874 -0.007803 0.004368 0.000000 0.046749 0.000000
# 6 0.000000 0.000000 0.000000 0.000122 0.000000 0.028661
#
#
# Mechanical properties :
#
#
# Convention : Reuss Voigt Hill
#
# Bulk Modulus (GPa) = 51.41887 75.02635 63.22261
# Shear Modulus (GPa) = 19.02862 28.19916 23.61389
#
# Velocity S-wave (km/s) = 3.22170 3.92192 3.58893
# Velocity P-wave (km/s) = 6.47194 7.83789 7.18744
#
# Compressibility (1/GPa) = 0.01944811
#
# Stress axis : x y z
#
# Youngs Moduli (GPa) = 48.03629 20.11731 65.11296
#
# Poissons Ratio (x) = 0.31682 -0.01807
# Poissons Ratio (y) = 0.75650 1.15554
# Poissons Ratio (z) = -0.01333 0.35702
#
# Static dielectric constant tensor:
#      x y z
#    x 1.623940 0.000000 -0.019370 
#    y 0.000000 1.615660 0.000000 
#    z -0.019370 0.000000 1.618190 
# 
# From -- ./inp_files/230912.got.cif
#   From: 2010.05.17/outbox.cif.g08.bks.cpg/sg12_116_cif.got.tgz:230912.got - 2010.06.03 13:09:07.
