data_PCOD9204472
_publ_section_title
;
Structure prediction by ZEFSAII (Michael W. Deem and Ramdas Pophale) SiO2 
 PCOD9204472
Probable space group: C 2/M
;
_chemical_formula_sum "Si O2"
_cell_formula_units_Z 46
_cell_length_a 25.392202
_cell_length_b 7.697146
_cell_length_c 11.491043
_cell_angle_alpha 90.000000
_cell_angle_beta 95.060584
_cell_angle_gamma 90.000000
_cell_volume 2237.140929
_symmetry_space_group_name_H-M "C 2/M"
_symmetry_group_IT_number 12
_symmetry_cell_setting 'monoclinic'
loop_
_space_group_symop_operation_xyz
x,y,z
-x,y,-z
-x,-y,-z
x,-y,z
1/2+x,1/2+y,z
1/2-x,1/2+y,-z
1/2-x,1/2-y,-z
1/2+x,1/2-y,z
loop_
_atom_site_type_symbol
_atom_site_label
_atom_site_fract_x
_atom_site_fract_y
_atom_site_fract_z
Si Si1 0.599551 0.699402 0.725453
Si Si2 0.568944 0.000000 0.248390
Si Si3 0.824500 0.208677 0.458452
Si Si4 0.500000 0.000000 0.000000
Si Si5 0.381152 0.000000 0.093989
Si Si6 0.281425 0.300284 0.692925
Si Si7 0.018311 0.800554 0.374290
Si Si8 0.682064 0.000000 0.146934
O O1 0.615511 0.500000 0.752328
O O2 0.622201 0.745129 0.601778
O O3 0.536178 0.704633 0.709520
O O4 0.621068 0.831729 0.824037
O O5 0.525546 0.000000 0.136741
O O6 0.558396 0.169066 0.324456
O O7 0.626051 0.000000 0.202882
O O8 0.777054 0.288754 0.373656
O O9 0.817888 0.261852 0.590948
O O10 0.816732 0.000000 0.458058
O O11 0.438500 0.000000 0.042468
O O12 0.334396 0.000000 0.990576
O O13 0.293898 0.500000 0.724582
O O14 0.287792 0.170284 0.801132
O O15 0.000000 0.751430 0.500000
O O16 0.038019 0.000000 0.381986
#
# Coordination Sequence:
#
# PCOD9204472 Si02
#       8
#     8   4   8   2   4   8   8   4
#     4  10  21  38  63  89 119 156 201 243 296 359
#     4  11  22  39  60  83 115 167 193 247 296 346
#     4   9  19  37  64  92 120 152 192 246 298 364
#     4  10  20  42  60  78 116 154 210 254 276 336
#     4  11  23  42  61  83 116 162 210 249 289 349
#     4  10  21  39  61  90 123 153 194 243 304 361
#     4  10  21  37  58  90 126 148 189 247 302 363
#     4  11  26  39  59  83 124 156 205 251 291 343
#
# _framework density 20.561958000000001
#
# number of rings (size 3 to 8) (size 9 to 14) (size 15 to 20)
#    0.000    1.913    2.609    0.261    4.870    1.391 
#    0.000    4.348    0.000    0.000    0.000    0.000 
#    0.000    0.000    0.000    0.000    0.000    0.000 
#
# Total GULP energy -128237.009989 kJ/mol
# GULP energy per Si atom -5575.522173 kJ/mol
# Density = 2.051516 g / cm^3
# Si number density = 20.561958 Si / 1000 Ang^3
#
#
#
# Elastic Constant Matrix: (Units=GPa)
#
#
# Indices 1 2 3 4 5 6 
#
# 1 38.4390 3.1226 -13.7050 0.0000 2.0259 0.0000
# 2 3.1226 67.1126 38.7436 0.0000 10.1796 0.0000
# 3 -13.7050 38.7436 76.1117 0.0000 19.8857 0.0000
# 4 0.0000 0.0000 0.0000 19.9332 0.0000 13.4479
# 5 2.0259 10.1796 19.8857 0.0000 40.0320 0.0000
# 6 0.0000 0.0000 0.0000 13.4479 0.0000 116.3351
#
#
#
# Elastic Compliance Matrix: (Units=1/GPa)
#
#
# Indices 1 2 3 4 5 6 
#
# 1 0.030376 -0.006467 0.010036 0.000000 -0.004878 0.000000
# 2 -0.006467 0.022478 -0.012869 0.000000 0.001004 0.000000
# 3 0.010036 -0.012869 0.023873 0.000000 -0.009094 0.000000
# 4 0.000000 0.000000 0.000000 0.054411 0.000000 -0.006290
# 5 -0.004878 0.001004 -0.009094 0.000000 0.029489 0.000000
# 6 0.000000 0.000000 0.000000 -0.006290 0.000000 0.009323
#
#
# Mechanical properties :
#
#
# Convention : Reuss Voigt Hill
#
# Bulk Modulus (GPa) = 17.20384 26.44284 21.82334
# Shear Modulus (GPa) = 24.04713 45.49354 34.77033
#
# Velocity S-wave (km/s) = 3.42350 4.70884 4.11664
# Velocity P-wave (km/s) = 4.90022 6.51553 5.76473
#
# Compressibility (1/GPa) = 0.05812657
#
# Stress axis : x y z
#
# Youngs Moduli (GPa) = 32.92073 44.48765 41.88911
#
# Poissons Ratio (x) = 0.28771 -0.42041
# Poissons Ratio (y) = 0.21291 0.53907
# Poissons Ratio (z) = -0.33040 0.57251
#
# Static dielectric constant tensor:
#      x y z
#    x 1.751030 0.000000 -0.000050 
#    y 0.000000 1.734230 0.000000 
#    z -0.000050 0.000000 1.715020 
# 
# From -- ./inp_files/172365.got.cif
#   From: 2010.05.17/outbox.cif.g08.bks.cpg/sg12_87_cif.got.tgz:172365.got - 2010.06.03 13:09:07.
