data_PCOD9204259
_publ_section_title
;
Structure prediction by ZEFSAII (Michael W. Deem and Ramdas Pophale) SiO2 
 PCOD9204259
Probable space group: C 2/M
;
_chemical_formula_sum "Si O2"
_cell_formula_units_Z 64
_cell_length_a 11.911953
_cell_length_b 14.554567
_cell_length_c 27.115269
_cell_angle_alpha 90.000000
_cell_angle_beta 36.676133
_cell_angle_gamma 90.000000
_cell_volume 2807.903825
_symmetry_space_group_name_H-M "C 2/M"
_symmetry_group_IT_number 12
_symmetry_cell_setting 'monoclinic'
loop_
_space_group_symop_operation_xyz
x,y,z
-x,y,-z
-x,-y,-z
x,-y,z
1/2+x,1/2+y,z
1/2-x,1/2+y,-z
1/2-x,1/2-y,-z
1/2+x,1/2-y,z
loop_
_atom_site_type_symbol
_atom_site_label
_atom_site_fract_x
_atom_site_fract_y
_atom_site_fract_z
Si Si1 0.040734 0.607494 0.883545
Si Si2 0.784355 0.895392 0.433112
Si Si3 0.352809 0.603973 0.932193
Si Si4 0.216564 0.895182 0.298074
Si Si5 0.707369 0.608915 0.453226
Si Si6 0.845763 0.214023 0.836158
Si Si7 0.339539 0.397743 0.096092
Si Si8 0.308379 0.250547 0.347831
O O1 0.071246 0.500000 0.884749
O O2 0.130142 0.620663 0.798337
O O3 0.159201 0.670025 0.878683
O O4 0.820434 0.625955 0.969999
O O5 0.771016 0.869352 0.496102
O O6 0.709212 0.825964 0.417908
O O7 0.010582 0.896449 0.346700
O O8 0.714928 0.000000 0.451973
O O9 0.317705 0.500000 0.925809
O O10 0.365166 0.673533 0.883337
O O11 0.546684 0.602559 0.893198
O O12 0.217303 0.812000 0.336819
O O13 0.242369 0.000000 0.310211
O O14 0.500000 0.626491 0.500000
O O15 0.736831 0.500000 0.438038
O O16 0.854644 0.670972 0.371485
O O17 0.817491 0.322562 0.846968
O O18 0.023660 0.197622 0.738978
O O19 0.269673 0.500000 0.108926
O O20 0.500000 0.374143 0.000000
#
# Coordination Sequence:
#
# PCOD9204259 Si02
#       8
#     8   8   8   8   8   8   8   8
#     4  10  21  40  65  91 122 161 215 268 307 355
#     4  10  21  41  66  92 126 164 199 245 306 370
#     4  10  23  43  65  87 119 169 217 259 309 363
#     4  10  21  39  62  91 125 162 208 258 306 362
#     4  10  20  40  69  96 122 157 204 255 301 361
#     4  12  25  36  62  93 128 158 204 257 317 367
#     4  10  24  43  59  81 119 165 209 256 311 367
#     4  12  24  36  63  99 126 159 202 254 308 370
#
# _framework density 22.792802999999999
#
# number of rings (size 3 to 8) (size 9 to 14) (size 15 to 20)
#    0.000    1.500    2.500    2.250    3.500    3.500 
#    0.000    0.000    0.000    1.875    0.000    0.000 
#    0.000    0.000    0.000    0.000    0.000    0.000 
#
# Total GULP energy -178801.202927 kJ/mol
# GULP energy per Si atom -5587.537591 kJ/mol
# Density = 2.274093 g / cm^3
# Si number density = 22.792803 Si / 1000 Ang^3
#
#
#
# Elastic Constant Matrix: (Units=GPa)
#
#
# Indices 1 2 3 4 5 6 
#
# 1 50.5959 22.9678 19.2979 -0.0006 9.5292 0.0008
# 2 22.9678 37.5208 26.6116 -0.0002 11.5513 0.0005
# 3 19.2979 26.6116 89.9890 0.0004 18.8827 0.0017
# 4 -0.0006 -0.0002 0.0004 23.0136 0.0005 17.8991
# 5 9.5292 11.5513 18.8827 0.0005 28.6425 -0.0007
# 6 0.0008 0.0005 0.0017 17.8991 -0.0007 25.9050
#
#
#
# Elastic Compliance Matrix: (Units=1/GPa)
#
#
# Indices 1 2 3 4 5 6 
#
# 1 0.027596 -0.015590 -0.000813 0.000002 -0.002358 -0.000002
# 2 -0.015590 0.044258 -0.008226 0.000001 -0.007239 -0.000001
# 3 -0.000813 -0.008226 0.015048 0.000001 -0.006333 -0.000002
# 4 0.000002 0.000001 0.000001 0.093931 -0.000005 -0.064902
# 5 -0.002358 -0.007239 -0.006333 -0.000005 0.042792 0.000005
# 6 -0.000002 -0.000001 -0.000002 -0.064902 0.000005 0.083447
#
#
# Mechanical properties :
#
#
# Convention : Reuss Voigt Hill
#
# Bulk Modulus (GPa) = 26.56414 35.09558 30.82986
# Shear Modulus (GPa) = 13.55468 22.79411 18.17440
#
# Velocity S-wave (km/s) = 2.44128 3.16580 2.82685
# Velocity P-wave (km/s) = 4.43016 5.36602 4.92039
#
# Compressibility (1/GPa) = 0.03764473
#
# Stress axis : x y z
#
# Youngs Moduli (GPa) = 36.23778 22.59486 66.45355
#
# Poissons Ratio (x) = 0.35225 0.05401
# Poissons Ratio (y) = 0.56494 0.54663
# Poissons Ratio (z) = 0.02945 0.18586
#
# Static dielectric constant tensor:
#      x y z
#    x 1.856920 0.000000 -0.003930 
#    y 0.000000 1.873730 0.000000 
#    z -0.003930 0.000000 1.851180 
# 
# From -- ./inp_files/358437.got.cif
#   From: 2010.05.17/outbox.cif.g08.bks.cpg/sg12_180_cif.got.tgz:358437.got - 2010.06.03 13:09:07.
