data_PCOD9204464
_publ_section_title
;
Structure prediction by ZEFSAII (Michael W. Deem and Ramdas Pophale) SiO2 
 PCOD9204464
Probable space group: C 2/M
;
_chemical_formula_sum "Si O2"
_cell_formula_units_Z 32
_cell_length_a 9.374760
_cell_length_b 13.164843
_cell_length_c 11.655834
_cell_angle_alpha 90.000000
_cell_angle_beta 116.388316
_cell_angle_gamma 90.000000
_cell_volume 1288.639455
_symmetry_space_group_name_H-M "C 2/M"
_symmetry_group_IT_number 12
_symmetry_cell_setting 'monoclinic'
loop_
_space_group_symop_operation_xyz
x,y,z
-x,y,-z
-x,-y,-z
x,-y,z
1/2+x,1/2+y,z
1/2-x,1/2+y,-z
1/2-x,1/2-y,-z
1/2+x,1/2-y,z
loop_
_atom_site_type_symbol
_atom_site_label
_atom_site_fract_x
_atom_site_fract_y
_atom_site_fract_z
Si Si1 0.848199 0.117693 0.504517
Si Si2 0.174843 0.614970 0.207228
Si Si3 0.346991 0.117448 0.361710
Si Si4 0.880873 0.749866 0.146718
O O1 0.719203 0.112850 0.357784
O O2 0.787594 0.162704 0.601368
O O3 0.000000 0.167973 0.500000
O O4 0.888668 0.000000 0.545704
O O5 0.121260 0.500000 0.158013
O O6 0.335659 0.643214 0.193656
O O7 0.042261 0.703519 0.148741
O O8 0.500000 0.115839 0.500000
O O9 0.357383 0.175040 0.246779
O O10 0.312312 0.000000 0.323086
O O11 0.750000 0.750000 0.000000
#
# Coordination Sequence:
#
# PCOD9204464 Si02
#       4
#     8   8   8   8
#     4   9  19  38  69 108 144 187 244 307 385 455
#     4  11  26  50  75 106 156 204 253 324 389 457
#     4  10  20  41  74 109 148 195 252 321 390 456
#     4  12  27  45  72 109 147 204 265 307 382 471
#
# _framework density 24.832391000000001
#
# number of rings (size 3 to 8) (size 9 to 14) (size 15 to 20)
#    0.000    1.500    2.500    1.500    3.500    5.000 
#    0.000    1.250    0.000    7.500    0.000    0.000 
#    0.000    0.000    0.000    0.000    0.000    0.000 
#
# Total GULP energy -89386.058582 kJ/mol
# GULP energy per Si atom -5586.628661 kJ/mol
# Density = 2.477587 g / cm^3
# Si number density = 24.832391 Si / 1000 Ang^3
#
#
#
# Elastic Constant Matrix: (Units=GPa)
#
#
# Indices 1 2 3 4 5 6 
#
# 1 134.0067 24.4951 28.0801 0.0000 -1.3018 0.0000
# 2 24.4951 128.0275 17.3456 0.0000 1.2780 0.0000
# 3 28.0801 17.3456 128.5671 0.0000 -12.9734 0.0000
# 4 0.0000 0.0000 0.0000 -0.7670 0.0000 9.0406
# 5 -1.3018 1.2780 -12.9734 0.0000 44.4289 0.0000
# 6 0.0000 0.0000 0.0000 9.0406 0.0000 26.4291
#
#
#
# Elastic Compliance Matrix: (Units=1/GPa)
#
#
# Indices 1 2 3 4 5 6 
#
# 1 0.008036 -0.001319 -0.001597 0.000000 -0.000193 0.000000
# 2 -0.001319 0.008186 -0.000870 0.000000 -0.000528 0.000000
# 3 -0.001597 -0.000870 0.008492 0.000000 0.002458 0.000000
# 4 0.000000 0.000000 0.000000 -0.259101 0.000000 0.088631
# 5 -0.000193 -0.000528 0.002458 0.000000 0.023235 0.000000
# 6 0.000000 0.000000 0.000000 0.088631 0.000000 0.007519
#
#
# Mechanical properties :
#
#
# Convention : Reuss Voigt Hill
#
# Bulk Modulus (GPa) = 58.33096 58.93809 58.63452
# Shear Modulus (GPa) = -26.26778 35.39689 4.56456
#
# Velocity S-wave (km/s) = -3.25592 3.77959 1.35725
# Velocity P-wave (km/s) = 3.06695 6.54469 5.11073
#
# Compressibility (1/GPa) = 0.01714356
#
# Stress axis : x y z
#
# Youngs Moduli (GPa) = 124.43763 122.15492 117.75639
#
# Poissons Ratio (x) = 0.16116 0.18801
# Poissons Ratio (y) = 0.16417 0.10240
# Poissons Ratio (z) = 0.19868 0.10623
#
# Static dielectric constant tensor:
#      x y z
#    x 2.147790 0.000000 0.049670 
#    y 0.000000 1.989270 0.000000 
#    z 0.049670 0.000000 1.940610 
# 
# From -- ./inp_files/117840.got.cif
#   From: 2010.05.17/outbox.cif.g08.bks.cpg/sg12_59_cif.got.tgz:117840.got - 2010.06.03 13:09:07.
