data_PCOD9204883
_publ_section_title
;
Structure prediction by ZEFSAII (Michael W. Deem and Ramdas Pophale) SiO2 
 PCOD9204883
Probable space group: C 2/M
;
_chemical_formula_sum "Si O2"
_cell_formula_units_Z 64
_cell_length_a 5.480414
_cell_length_b 22.520071
_cell_length_c 26.616383
_cell_angle_alpha 90.000000
_cell_angle_beta 76.170324
_cell_angle_gamma 90.000000
_cell_volume 3189.746223
_symmetry_space_group_name_H-M "C 2/M"
_symmetry_group_IT_number 12
_symmetry_cell_setting 'monoclinic'
loop_
_space_group_symop_operation_xyz
x,y,z
-x,y,-z
-x,-y,-z
x,-y,z
1/2+x,1/2+y,z
1/2-x,1/2+y,-z
1/2-x,1/2-y,-z
1/2+x,1/2-y,z
loop_
_atom_site_type_symbol
_atom_site_label
_atom_site_fract_x
_atom_site_fract_y
_atom_site_fract_z
Si Si1 0.707424 0.235341 0.840618
Si Si2 0.140860 0.072432 0.383235
Si Si3 0.574809 0.927670 0.439975
Si Si4 0.786360 0.117156 0.881668
Si Si5 0.191454 0.071490 0.793148
Si Si6 0.629056 0.063091 0.048209
Si Si7 0.432958 0.683645 0.055784
Si Si8 0.752492 0.072149 0.736149
O O1 0.498009 0.257707 0.813428
O O2 0.670038 0.166146 0.851332
O O3 0.673922 0.273693 0.894763
O O4 0.360520 0.091218 0.410856
O O5 0.202732 0.091067 0.323363
O O6 0.858831 0.091097 0.412436
O O7 0.140775 0.000000 0.383782
O O8 0.500000 0.909659 0.500000
O O9 0.576055 0.000000 0.438938
O O10 0.595989 0.064940 0.900340
O O11 0.058224 0.097285 0.849189
O O12 0.824374 0.153886 0.930868
O O13 0.475690 0.091305 0.768512
O O14 0.990045 0.088036 0.759434
O O15 0.193715 0.000000 0.796621
O O16 0.771453 0.125099 0.049562
O O17 0.771004 0.000000 0.047497
O O18 0.500000 0.062303 0.000000
O O19 0.500000 0.714801 0.000000
O O20 0.745850 0.000000 0.736791
#
# Coordination Sequence:
#
# PCOD9204883 Si02
#       8
#     8   8   8   8   8   8   8   8
#     4  10  22  38  60  82 104 129 163 201 243 294
#     4   9  15  24  38  53  78 114 154 201 248 300
#     4   9  15  21  32  54  82 113 151 199 256 304
#     4  11  23  38  55  77 102 130 164 204 261 303
#     4  10  21  34  50  70  94 123 159 206 256 310
#     4  11  23  38  55  78 107 135 165 196 243 314
#     4  11  23  39  58  80 105 133 164 202 244 309
#     4   9  18  32  47  65  87 121 166 206 253 305
#
# _framework density 20.064291000000001
#
# number of rings (size 3 to 8) (size 9 to 14) (size 15 to 20)
#    0.000    2.000    2.500    1.500    1.750    8.250 
#    0.000    0.000    0.000    0.000    0.000    0.000 
#    0.000    0.000    0.000    0.000    0.000    0.000 
#
# Total GULP energy -178489.397721 kJ/mol
# GULP energy per Si atom -5577.793679 kJ/mol
# Density = 2.001862 g / cm^3
# Si number density = 20.064291 Si / 1000 Ang^3
#
#
#
# Elastic Constant Matrix: (Units=GPa)
#
#
# Indices 1 2 3 4 5 6 
#
# 1 137.7200 20.8647 42.4776 0.0000 -7.2575 0.0000
# 2 20.8647 61.6534 9.2273 0.0000 -3.4013 0.0000
# 3 42.4776 9.2273 82.9381 0.0000 -6.1276 0.0000
# 4 0.0000 0.0000 0.0000 13.5640 0.0000 -2.8770
# 5 -7.2575 -3.4013 -6.1276 0.0000 35.9537 0.0000
# 6 0.0000 0.0000 0.0000 -2.8770 0.0000 21.5148
#
#
#
# Elastic Compliance Matrix: (Units=1/GPa)
#
#
# Indices 1 2 3 4 5 6 
#
# 1 0.008981 -0.002352 -0.004274 0.000000 0.000862 0.000000
# 2 -0.002352 0.017167 -0.000628 0.000000 0.001042 0.000000
# 3 -0.004274 -0.000628 0.014430 0.000000 0.001537 0.000000
# 4 0.000000 0.000000 0.000000 0.075877 0.000000 0.010147
# 5 0.000862 0.001042 0.001537 0.000000 0.028348 0.000000
# 6 0.000000 0.000000 0.000000 0.010147 0.000000 0.047837
#
#
# Mechanical properties :
#
#
# Convention : Reuss Voigt Hill
#
# Bulk Modulus (GPa) = 38.36038 47.49452 42.92745
# Shear Modulus (GPa) = 23.16538 28.18927 25.67733
#
# Velocity S-wave (km/s) = 3.40156 3.75233 3.58124
# Velocity P-wave (km/s) = 5.88114 6.51888 6.20820
#
# Compressibility (1/GPa) = 0.02606857
#
# Stress axis : x y z
#
# Youngs Moduli (GPa) = 111.34262 58.25045 69.30070
#
# Poissons Ratio (x) = 0.13701 0.29623
# Poissons Ratio (y) = 0.26189 0.04354
# Poissons Ratio (z) = 0.47593 0.03660
#
# Static dielectric constant tensor:
#      x y z
#    x 1.789900 0.000000 -0.008840 
#    y 0.000000 1.715410 0.000000 
#    z -0.008840 0.000000 1.739700 
# 
# From -- ./inp_files/331399.got.cif
#   From: 2010.05.17/outbox.cif.g08.bks.cpg/sg12_166_cif.got.tgz:331399.got - 2010.06.03 13:09:07.
