data_PCOD9204270
_publ_section_title
;
Structure prediction by ZEFSAII (Michael W. Deem and Ramdas Pophale) SiO2 
 PCOD9204270
Probable space group: C 2/M
;
_chemical_formula_sum "Si O2"
_cell_formula_units_Z 52
_cell_length_a 10.983794
_cell_length_b 12.150299
_cell_length_c 20.905420
_cell_angle_alpha 90.000000
_cell_angle_beta 52.216987
_cell_angle_gamma 90.000000
_cell_volume 2205.009102
_symmetry_space_group_name_H-M "C 2/M"
_symmetry_group_IT_number 12
_symmetry_cell_setting 'monoclinic'
loop_
_space_group_symop_operation_xyz
x,y,z
-x,y,-z
-x,-y,-z
x,-y,z
1/2+x,1/2+y,z
1/2-x,1/2+y,-z
1/2-x,1/2-y,-z
1/2+x,1/2-y,z
loop_
_atom_site_type_symbol
_atom_site_label
_atom_site_fract_x
_atom_site_fract_y
_atom_site_fract_z
Si Si1 0.054915 0.000000 0.869764
Si Si2 0.729579 0.121030 0.424144
Si Si3 0.086944 0.879332 0.341150
Si Si4 0.000000 0.798628 0.500000
Si Si5 0.139067 0.371232 0.905723
Si Si6 0.274459 0.500000 0.049627
Si Si7 0.309849 0.695010 0.261014
Si Si8 0.419533 0.218658 0.866307
O O1 0.113969 0.897564 0.808704
O O2 0.131663 0.000000 0.914519
O O3 0.877181 0.000000 0.951702
O O4 0.625468 0.214735 0.488298
O O5 0.730521 0.137611 0.347216
O O6 0.908340 0.127686 0.382630
O O7 0.674627 0.000000 0.460317
O O8 0.182854 0.781930 0.278792
O O9 0.087389 0.866136 0.417822
O O10 0.144840 0.000000 0.304477
O O11 0.176531 0.500000 0.875302
O O12 0.284997 0.308365 0.892335
O O13 0.051317 0.294009 0.880822
O O14 0.000000 0.381037 0.000000
O O15 0.173645 0.608904 0.088325
O O16 0.459564 0.769323 0.230972
#
# Coordination Sequence:
#
# PCOD9204270 Si02
#       8
#     4   8   8   4   8   4   8   8
#     4  11  26  48  69  99 141 189 253 311 387 451
#     4  10  21  41  66 103 137 184 227 290 350 428
#     4  10  23  42  69 100 144 183 230 280 360 435
#     4  10  20  40  70 104 140 177 229 278 346 434
#     4  11  27  47  72 105 140 187 250 317 395 471
#     4  11  28  46  72 101 138 195 252 324 396 459
#     4  11  26  42  69  97 138 187 243 299 372 444
#     4  12  27  48  73 103 147 190 254 322 390 463
#
# _framework density 23.582667000000001
#
# number of rings (size 3 to 8) (size 9 to 14) (size 15 to 20)
#    0.000    1.231    1.538    2.308   12.923    0.000 
#    1.385    0.000    1.692    0.000    0.000    0.000 
#    0.000    0.000    0.000    0.000    0.000    0.000 
#
# Total GULP energy -144877.184180 kJ/mol
# GULP energy per Si atom -5572.199392 kJ/mol
# Density = 2.352899 g / cm^3
# Si number density = 23.582667 Si / 1000 Ang^3
#
#
#
# Elastic Constant Matrix: (Units=GPa)
#
#
# Indices 1 2 3 4 5 6 
#
# 1 111.4395 60.3343 8.7224 0.0000 -13.1257 0.0000
# 2 60.3343 168.0428 32.3879 0.0000 -11.8061 0.0000
# 3 8.7224 32.3879 92.3221 0.0000 -9.9124 0.0000
# 4 0.0000 0.0000 0.0000 27.3312 0.0000 10.3925
# 5 -13.1257 -11.8061 -9.9124 0.0000 33.6905 0.0000
# 6 0.0000 0.0000 0.0000 10.3925 0.0000 2.2236
#
#
#
# Elastic Compliance Matrix: (Units=1/GPa)
#
#
# Indices 1 2 3 4 5 6 
#
# 1 0.011484 -0.004024 0.000677 0.000000 0.003263 0.000000
# 2 -0.004024 0.007881 -0.002330 0.000000 0.000508 0.000000
# 3 0.000677 -0.002330 0.011902 0.000000 0.002949 0.000000
# 4 0.000000 0.000000 0.000000 -0.047078 0.000000 0.220034
# 5 0.003263 0.000508 0.002949 0.000000 0.031999 0.000000
# 6 0.000000 0.000000 0.000000 0.220034 0.000000 -0.578666
#
#
# Mechanical properties :
#
#
# Convention : Reuss Voigt Hill
#
# Bulk Modulus (GPa) = 50.22148 63.85484 57.03816
# Shear Modulus (GPa) = -9.18293 30.67304 10.74506
#
# Velocity S-wave (km/s) = -1.97545 3.61038 2.13687
# Velocity P-wave (km/s) = 4.01734 6.67200 5.50702
#
# Compressibility (1/GPa) = 0.01991180
#
# Stress axis : x y z
#
# Youngs Moduli (GPa) = 87.08058 126.89513 84.02204
#
# Poissons Ratio (x) = 0.51067 -0.05690
# Poissons Ratio (y) = 0.35044 0.19576
# Poissons Ratio (z) = -0.05897 0.29564
#
# Static dielectric constant tensor:
#      x y z
#    x 1.994180 0.000000 0.061120 
#    y 0.000000 1.994820 0.000000 
#    z 0.061120 0.000000 1.920290 
# 
# From -- ./inp_files/335596.got.cif
#   From: 2010.05.17/outbox.cif.g08.bks.cpg/sg12_168_cif.got.tgz:335596.got - 2010.06.03 13:09:07.
