data_PCOD9204526
_publ_section_title
;
Structure prediction by ZEFSAII (Michael W. Deem and Ramdas Pophale) SiO2 
 PCOD9204526
Probable space group: C 2/M
;
_chemical_formula_sum "Si O2"
_cell_formula_units_Z 48
_cell_length_a 10.917940
_cell_length_b 23.924419
_cell_length_c 7.531852
_cell_angle_alpha 90.000000
_cell_angle_beta 84.847824
_cell_angle_gamma 90.000000
_cell_volume 1959.411475
_symmetry_space_group_name_H-M "C 2/M"
_symmetry_group_IT_number 12
_symmetry_cell_setting 'monoclinic'
loop_
_space_group_symop_operation_xyz
x,y,z
-x,y,-z
-x,-y,-z
x,-y,z
1/2+x,1/2+y,z
1/2-x,1/2+y,-z
1/2-x,1/2-y,-z
1/2+x,1/2-y,z
loop_
_atom_site_type_symbol
_atom_site_label
_atom_site_fract_x
_atom_site_fract_y
_atom_site_fract_z
Si Si1 0.695627 0.333973 0.008825
Si Si2 0.500000 0.729257 0.500000
Si Si3 0.696125 0.594353 0.336716
Si Si4 0.573841 0.619268 0.704094
Si Si5 0.031967 0.561609 0.784628
Si Si6 0.923494 0.324909 0.720362
Si Si7 0.500000 0.759824 0.000000
O O1 0.620316 0.378927 0.898205
O O2 0.813391 0.327796 0.872405
O O3 0.614207 0.279441 0.022452
O O4 0.715201 0.352382 0.206847
O O5 0.542440 0.683620 0.643139
O O6 0.401325 0.776458 0.577932
O O7 0.679801 0.602178 0.549909
O O8 0.551120 0.582944 0.304578
O O9 0.820563 0.561825 0.271141
O O10 0.983849 0.500000 0.743944
O O11 0.968402 0.612181 0.686430
O O12 0.000000 0.570303 0.000000
O O13 0.029531 0.296982 0.826288
#
# Coordination Sequence:
#
# PCOD9204526 Si02
#       7
#     8   4   8   8   8   8   4
#     4  12  21  38  61  93 137 170 205 254 307 389
#     4  10  22  40  53  96 135 170 206 248 308 394
#     4  10  20  42  66  91 125 167 211 261 319 379
#     4  10  22  40  63 100 135 166 201 255 322 388
#     4  11  24  45  68  90 120 169 225 278 327 371
#     4  12  24  37  61  94 125 173 216 258 319 377
#     4  12  20  38  57  94 131 168 210 242 306 394
#
# _framework density 24.497152
#
# number of rings (size 3 to 8) (size 9 to 14) (size 15 to 20)
#    0.000    1.167    5.833    1.500    2.333    3.333 
#    0.000    2.083    0.000    4.000    0.000    0.000 
#    0.000    0.000    0.000    0.000    0.000    0.000 
#
# Total GULP energy -133708.599465 kJ/mol
# GULP energy per Si atom -5571.191644 kJ/mol
# Density = 2.444140 g / cm^3
# Si number density = 24.497152 Si / 1000 Ang^3
#
#
#
# Elastic Constant Matrix: (Units=GPa)
#
#
# Indices 1 2 3 4 5 6 
#
# 1 72.7507 19.3479 26.3133 0.0000 -35.5550 0.0000
# 2 19.3479 100.2135 5.4864 0.0000 -9.8608 0.0000
# 3 26.3133 5.4864 126.4502 0.0000 -38.4978 0.0000
# 4 0.0000 0.0000 0.0000 12.8864 0.0000 -18.4257
# 5 -35.5550 -9.8608 -38.4978 0.0000 49.9100 0.0000
# 6 0.0000 0.0000 0.0000 -18.4257 0.0000 27.5637
#
#
#
# Elastic Compliance Matrix: (Units=1/GPa)
#
#
# Indices 1 2 3 4 5 6 
#
# 1 0.021801 -0.002730 0.000191 0.000000 0.015139 0.000000
# 2 -0.002730 0.010523 0.000199 0.000000 0.000288 0.000000
# 3 0.000191 0.000199 0.010342 0.000000 0.008152 0.000000
# 4 0.000000 0.000000 0.000000 1.756790 0.000000 1.174373
# 5 0.015139 0.000288 0.008152 0.000000 0.037166 0.000000
# 6 0.000000 0.000000 0.000000 1.174373 0.000000 0.821320
#
#
# Mechanical properties :
#
#
# Convention : Reuss Voigt Hill
#
# Bulk Modulus (GPa) = 26.32536 44.63442 35.47989
# Shear Modulus (GPa) = 1.86896 34.62312 18.24604
#
# Velocity S-wave (km/s) = 0.87441 3.76354 2.73211
# Velocity P-wave (km/s) = 3.43352 6.09470 4.94644
#
# Compressibility (1/GPa) = 0.03798619
#
# Stress axis : x y z
#
# Youngs Moduli (GPa) = 45.86907 95.02830 96.69384
#
# Poissons Ratio (x) = 0.25942 -0.01844
# Poissons Ratio (y) = 0.12522 -0.01926
# Poissons Ratio (z) = -0.00875 -0.01893
#
# Static dielectric constant tensor:
#      x y z
#    x 2.072810 0.000000 0.044860 
#    y 0.000000 1.960290 0.000000 
#    z 0.044860 0.000000 2.069550 
# 
# From -- ./inp_files/51391.got.cif
#   From: 2010.05.17/outbox.cif.g08.bks.cpg/sg12_26_cif.got.tgz:51391.got - 2010.06.03 13:09:07.
