data_PCOD9204852
_publ_section_title
;
Structure prediction by ZEFSAII (Michael W. Deem and Ramdas Pophale) SiO2 
 PCOD9204852
Probable space group: C 2/M
;
_chemical_formula_sum "Si O2"
_cell_formula_units_Z 64
_cell_length_a 12.793871
_cell_length_b 13.355256
_cell_length_c 28.287540
_cell_angle_alpha 90.000000
_cell_angle_beta 42.277275
_cell_angle_gamma 90.000000
_cell_volume 3251.495269
_symmetry_space_group_name_H-M "C 2/M"
_symmetry_group_IT_number 12
_symmetry_cell_setting 'monoclinic'
loop_
_space_group_symop_operation_xyz
x,y,z
-x,y,-z
-x,-y,-z
x,-y,z
1/2+x,1/2+y,z
1/2-x,1/2+y,-z
1/2-x,1/2-y,-z
1/2+x,1/2-y,z
loop_
_atom_site_type_symbol
_atom_site_label
_atom_site_fract_x
_atom_site_fract_y
_atom_site_fract_z
Si Si1 0.263008 0.119504 0.551985
Si Si2 0.470944 0.621454 0.699435
Si Si3 0.675515 0.881016 0.846661
Si Si4 0.315707 0.120365 0.953683
Si Si5 0.362791 0.622408 0.257731
Si Si6 0.012751 0.120260 0.109804
Si Si7 0.156980 0.780251 0.919883
Si Si8 0.561244 0.119399 0.405400
O O1 0.387502 0.160553 0.472441
O O2 0.348246 0.128908 0.574595
O O3 0.088428 0.158757 0.619507
O O4 0.250281 0.000000 0.546947
O O5 0.477764 0.500000 0.694543
O O6 0.289266 0.646344 0.765287
O O7 0.544952 0.650294 0.725446
O O8 0.495038 0.852959 0.901577
O O9 0.729120 0.820090 0.874539
O O10 0.686682 0.000000 0.850471
O O11 0.260883 0.159137 0.921366
O O12 0.310419 0.000000 0.955222
O O13 0.187170 0.152841 0.035790
O O14 0.361413 0.500000 0.257522
O O15 0.444412 0.656405 0.182419
O O16 0.183790 0.656486 0.325390
O O17 0.897419 0.152285 0.106181
O O18 0.017120 0.000000 0.110452
O O19 0.000000 0.752724 0.000000
O O20 0.544262 0.000000 0.402937
#
# Coordination Sequence:
#
# PCOD9204852 Si02
#       8
#     8   8   8   8   8   8   8   8
#     4   7   9  15  29  49  78 115 149 177 213 264
#     4   8  14  24  37  57  87 121 152 185 225 269
#     4  10  21  34  48  69  96 124 155 193 235 277
#     4   9  19  36  53  68  91 124 159 194 232 277
#     4   8  13  21  36  61  92 118 143 183 233 275
#     4   9  17  30  48  68  90 119 155 194 235 278
#     4  10  21  34  51  69  89 119 159 198 235 277
#     4   7   9  14  27  51  82 114 143 175 219 268
#
# _framework density 19.683253000000001
#
# number of rings (size 3 to 8) (size 9 to 14) (size 15 to 20)
#    0.000    3.500    0.000    2.625    0.000    5.750 
#    0.000    2.500    0.000    0.750    0.000    0.875 
#    0.000    1.000    0.000   11.625    0.000    0.500 
#
# Total GULP energy -178219.900934 kJ/mol
# GULP energy per Si atom -5569.371904 kJ/mol
# Density = 1.963845 g / cm^3
# Si number density = 19.683253 Si / 1000 Ang^3
#
#
#
# Elastic Constant Matrix: (Units=GPa)
#
#
# Indices 1 2 3 4 5 6 
#
# 1 50.6135 9.4752 66.4245 0.0000 -17.8782 0.0000
# 2 9.4752 29.6954 34.1270 0.0000 -5.6072 0.0000
# 3 66.4245 34.1270 192.3185 0.0001 -30.8453 0.0000
# 4 0.0000 0.0000 0.0001 20.7499 0.0000 4.0941
# 5 -17.8782 -5.6072 -30.8453 0.0000 23.7718 0.0000
# 6 0.0000 0.0000 0.0000 4.0941 0.0000 13.6446
#
#
#
# Elastic Compliance Matrix: (Units=1/GPa)
#
#
# Indices 1 2 3 4 5 6 
#
# 1 0.040548 0.004054 -0.012223 0.000000 0.015590 0.000000
# 2 0.004054 0.042709 -0.008681 0.000000 0.001859 0.000000
# 3 -0.012223 -0.008681 0.011566 0.000000 0.003767 0.000000
# 4 0.000000 0.000000 0.000000 0.051226 0.000000 -0.015371
# 5 0.015590 0.001859 0.003767 0.000000 0.059118 0.000000
# 6 0.000000 0.000000 0.000000 -0.015371 0.000000 0.077901
#
#
# Mechanical properties :
#
#
# Convention : Reuss Voigt Hill
#
# Bulk Modulus (GPa) = 16.36082 54.74231 35.55157
# Shear Modulus (GPa) = 14.83050 22.47330 18.65190
#
# Velocity S-wave (km/s) = 2.74790 3.38264 3.08166
# Velocity P-wave (km/s) = 4.28929 6.56722 5.54646
#
# Compressibility (1/GPa) = 0.06112162
#
# Stress axis : x y z
#
# Youngs Moduli (GPa) = 24.66241 23.41426 86.45930
#
# Poissons Ratio (x) = -0.09491 1.05683
# Poissons Ratio (y) = -0.09997 0.75052
# Poissons Ratio (z) = 0.30146 0.20325
#
# Static dielectric constant tensor:
#      x y z
#    x 1.706210 0.000000 -0.050350 
#    y 0.000000 1.684790 0.000000 
#    z -0.050350 0.000000 1.757460 
# 
# From -- ./inp_files/361236.got.cif
#   From: 2010.05.17/outbox.cif.g08.bks.cpg/sg12_181_cif.got.tgz:361236.got - 2010.06.03 13:09:07.
