data_PCOD9204574
_publ_section_title
;
Structure prediction by ZEFSAII (Michael W. Deem and Ramdas Pophale) SiO2 
 PCOD9204574
Probable space group: C 2/M
;
_chemical_formula_sum "Si O2"
_cell_formula_units_Z 50
_cell_length_a 5.436494
_cell_length_b 14.511664
_cell_length_c 29.001326
_cell_angle_alpha 90.000000
_cell_angle_beta 74.873588
_cell_angle_gamma 90.000000
_cell_volume 2208.716024
_symmetry_space_group_name_H-M "C 2/M"
_symmetry_group_IT_number 12
_symmetry_cell_setting 'monoclinic'
loop_
_space_group_symop_operation_xyz
x,y,z
-x,y,-z
-x,-y,-z
x,-y,z
1/2+x,1/2+y,z
1/2-x,1/2+y,-z
1/2-x,1/2-y,-z
1/2+x,1/2-y,z
loop_
_atom_site_type_symbol
_atom_site_label
_atom_site_fract_x
_atom_site_fract_y
_atom_site_fract_z
Si Si1 0.120074 0.157139 0.097142
Si Si2 0.826459 0.364840 0.940732
Si Si3 0.211021 0.607678 0.301958
Si Si4 0.500000 0.000000 0.000000
Si Si5 0.851034 0.109373 0.653389
Si Si6 0.978793 0.198960 0.209319
Si Si7 0.893290 0.808700 0.552452
O O1 0.890271 0.106493 0.083755
O O2 0.035330 0.179565 0.153046
O O3 0.166405 0.253307 0.066137
O O4 0.387185 0.105504 0.086775
O O5 0.807121 0.417138 0.989769
O O6 0.180389 0.500000 0.313469
O O7 0.402535 0.646941 0.331399
O O8 0.352233 0.620403 0.246453
O O9 0.923864 0.645957 0.316190
O O10 0.870537 0.128214 0.598255
O O11 0.853515 0.000000 0.661934
O O12 0.748786 0.273357 0.218459
O O13 0.615545 0.765422 0.554779
O O14 0.000000 0.853064 0.500000
#
# Coordination Sequence:
#
# PCOD9204574 Si02
#       7
#     8   8   8   2   8   8   8
#     4  10  20  43  64  84 118 167 186 239 286 355
#     4  10  22  41  64  88 124 149 197 233 289 336
#     4  10  23  39  55  88 122 155 192 250 309 349
#     4  12  28  42  64 106 120 156 200 254 284 354
#     4  10  21  39  58  80 123 160 197 245 303 367
#     4  12  21  38  65  91 113 154 207 239 285 362
#     4  10  21  36  57  85 117 154 202 257 308 353
#
# _framework density 22.637584
#
# number of rings (size 3 to 8) (size 9 to 14) (size 15 to 20)
#    0.000    1.600    3.200    1.920    0.000    8.640 
#    2.880    0.000    0.000    5.760    0.000    0.000 
#    0.000    0.000    0.000    0.000    0.000    0.000 
#
# Total GULP energy -139216.812302 kJ/mol
# GULP energy per Si atom -5568.672492 kJ/mol
# Density = 2.258606 g / cm^3
# Si number density = 22.637584 Si / 1000 Ang^3
#
#
#
# Elastic Constant Matrix: (Units=GPa)
#
#
# Indices 1 2 3 4 5 6 
#
# 1 176.6774 9.6049 30.9043 0.0000 -4.5090 0.0000
# 2 9.6049 65.9794 5.6627 0.0000 7.5175 0.0000
# 3 30.9043 5.6627 69.8078 0.0000 1.4804 0.0000
# 4 0.0000 0.0000 0.0000 128.1061 0.0000 8.6147
# 5 -4.5090 7.5175 1.4804 0.0000 39.5089 0.0000
# 6 0.0000 0.0000 0.0000 8.6147 0.0000 2.8993
#
#
#
# Elastic Compliance Matrix: (Units=1/GPa)
#
#
# Indices 1 2 3 4 5 6 
#
# 1 0.006199 -0.000780 -0.002702 0.000000 0.000957 0.000000
# 2 -0.000780 0.015690 -0.000863 0.000000 -0.003042 0.000000
# 3 -0.002702 -0.000863 0.015607 0.000000 -0.000729 0.000000
# 4 0.000000 0.000000 0.000000 0.009755 0.000000 -0.028986
# 5 0.000957 -0.003042 -0.000729 0.000000 0.026026 0.000000
# 6 0.000000 0.000000 0.000000 -0.028986 0.000000 0.431044
#
#
# Mechanical properties :
#
#
# Convention : Reuss Voigt Hill
#
# Bulk Modulus (GPa) = 34.71294 44.97870 39.84582
# Shear Modulus (GPa) = 9.56730 51.85571 30.71150
#
# Velocity S-wave (km/s) = 2.05802 4.79131 3.68728
# Velocity P-wave (km/s) = 4.58419 7.10781 5.98063
#
# Compressibility (1/GPa) = 0.02880770
#
# Stress axis : x y z
#
# Youngs Moduli (GPa) = 161.30597 63.73308 64.07577
#
# Poissons Ratio (x) = 0.04969 0.17310
# Poissons Ratio (y) = 0.12576 0.05530
# Poissons Ratio (z) = 0.43578 0.05501
#
# Static dielectric constant tensor:
#      x y z
#    x 1.881510 0.000000 -0.000850 
#    y 0.000000 1.853650 0.000000 
#    z -0.000850 0.000000 1.894860 
# 
# From -- ./inp_files/354903.got.cif
#   From: 2010.05.17/outbox.cif.g08.bks.cpg/sg12_178_cif.got.tgz:354903.got - 2010.06.03 13:09:07.
