data_PCOD9204246
_publ_section_title
;
Structure prediction by ZEFSAII (Michael W. Deem and Ramdas Pophale) SiO2 
 PCOD9204246
Probable space group: C 2/M
;
_chemical_formula_sum "Si O2"
_cell_formula_units_Z 64
_cell_length_a 15.311503
_cell_length_b 17.924968
_cell_length_c 16.179783
_cell_angle_alpha 90.000000
_cell_angle_beta 135.835136
_cell_angle_gamma 90.000000
_cell_volume 3093.930175
_symmetry_space_group_name_H-M "C 2/M"
_symmetry_group_IT_number 12
_symmetry_cell_setting 'monoclinic'
loop_
_space_group_symop_operation_xyz
x,y,z
-x,y,-z
-x,-y,-z
x,-y,z
1/2+x,1/2+y,z
1/2-x,1/2+y,-z
1/2-x,1/2-y,-z
1/2+x,1/2-y,z
loop_
_atom_site_type_symbol
_atom_site_label
_atom_site_fract_x
_atom_site_fract_y
_atom_site_fract_z
Si Si1 0.713996 0.831573 0.780641
Si Si2 0.204228 0.584608 0.341745
Si Si3 0.472972 0.410809 0.263475
Si Si4 0.393412 0.683736 0.366680
Si Si5 0.055622 0.410434 0.403638
Si Si6 0.720101 0.587773 0.329619
Si Si7 0.962556 0.415297 0.062095
Si Si8 0.267747 0.661869 0.003965
O O1 0.683227 0.746139 0.736101
O O2 0.577689 0.871355 0.688322
O O3 0.797628 0.864774 0.764231
O O4 0.774116 0.849164 0.909922
O O5 0.253632 0.500000 0.388667
O O6 0.304801 0.637207 0.367783
O O7 0.142016 0.611893 0.384404
O O8 0.087932 0.580538 0.200193
O O9 0.449402 0.500000 0.252292
O O10 0.450297 0.371707 0.336130
O O11 0.614006 0.399150 0.326140
O O12 0.381377 0.372507 0.133880
O O13 0.500000 0.716623 0.500000
O O14 0.037078 0.500000 0.385630
O O15 0.142236 0.394754 0.541239
O O16 0.717118 0.500000 0.307733
O O17 0.916972 0.500000 0.014045
O O18 0.856547 0.374698 0.041699
O O19 0.000000 0.379761 0.000000
O O20 0.250000 0.750000 0.000000
#
# Coordination Sequence:
#
# PCOD9204246 Si02
#       8
#     8   8   8   8   8   8   8   8
#     4  12  25  42  65  95 133 176 222 264 322 385
#     4  10  21  38  63  93 121 160 214 270 328 382
#     4  11  25  46  69  96 132 175 220 267 326 395
#     4  12  25  41  64  98 137 176 215 266 332 396
#     4  10  20  40  68  97 129 166 218 278 322 372
#     4  10  23  42  66  97 131 171 220 268 317 380
#     4  10  21  39  66  94 119 157 214 272 322 377
#     4  12  25  45  64  92 133 172 212 265 324 387
#
# _framework density 20.685663000000002
#
# number of rings (size 3 to 8) (size 9 to 14) (size 15 to 20)
#    0.000    1.125    2.500    3.750    0.000    8.000 
#    0.000    3.750    0.000    0.000    0.000    0.000 
#    0.000    0.000    0.000    0.000    0.000    0.000 
#
# Total GULP energy -178899.737057 kJ/mol
# GULP energy per Si atom -5590.616783 kJ/mol
# Density = 2.063858 g / cm^3
# Si number density = 20.685663 Si / 1000 Ang^3
#
#
#
# Elastic Constant Matrix: (Units=GPa)
#
#
# Indices 1 2 3 4 5 6 
#
# 1 68.0321 23.0053 -6.7922 0.0000 -18.9835 0.0000
# 2 23.0053 50.8178 3.8794 0.0000 -4.4130 0.0000
# 3 -6.7922 3.8794 64.1604 0.0000 -13.7611 0.0000
# 4 0.0000 0.0000 0.0000 21.2142 0.0000 -9.9274
# 5 -18.9835 -4.4130 -13.7611 0.0000 41.3255 0.0000
# 6 0.0000 0.0000 0.0000 -9.9274 0.0000 24.9666
#
#
#
# Elastic Compliance Matrix: (Units=1/GPa)
#
#
# Indices 1 2 3 4 5 6 
#
# 1 0.021178 -0.009065 0.005028 0.000000 0.010435 0.000000
# 2 -0.009065 0.023781 -0.002957 0.000000 -0.002609 0.000000
# 3 0.005028 -0.002957 0.018011 0.000000 0.007992 0.000000
# 4 0.000000 0.000000 0.000000 0.057915 0.000000 0.023029
# 5 0.010435 -0.002609 0.007992 0.000000 0.031374 0.000000
# 6 0.000000 0.000000 0.000000 0.023029 0.000000 0.049210
#
#
# Mechanical properties :
#
#
# Convention : Reuss Voigt Hill
#
# Bulk Modulus (GPa) = 20.41571 24.79948 22.60760
# Shear Modulus (GPa) = 21.57173 28.36243 24.96708
#
# Velocity S-wave (km/s) = 3.23280 3.70687 3.47792
# Velocity P-wave (km/s) = 4.88114 5.50781 5.20392
#
# Compressibility (1/GPa) = 0.04898188
#
# Stress axis : x y z
#
# Youngs Moduli (GPa) = 47.21876 42.05030 55.52148
#
# Poissons Ratio (x) = 0.38119 -0.27917
# Poissons Ratio (y) = 0.42804 0.16419
# Poissons Ratio (z) = -0.23742 0.12435
#
# Static dielectric constant tensor:
#      x y z
#    x 1.725350 0.000000 -0.023530 
#    y 0.000000 2.925290 0.000000 
#    z -0.023530 0.000000 1.758130 
# 
# From -- ./inp_files/216813.got.cif
#   From: 2010.05.17/outbox.cif.g08.bks.cpg/sg12_109_cif.got.tgz:216813.got - 2010.06.03 13:09:07.
