data_PCOD9204147
_publ_section_title
;
Structure prediction by ZEFSAII (Michael W. Deem and Ramdas Pophale) SiO2 
 PCOD9204147
Probable space group: C 2/M
;
_chemical_formula_sum "Si O2"
_cell_formula_units_Z 36
_cell_length_a 7.288917
_cell_length_b 25.199637
_cell_length_c 13.398090
_cell_angle_alpha 90.000000
_cell_angle_beta 38.918795
_cell_angle_gamma 90.000000
_cell_volume 1546.004572
_symmetry_space_group_name_H-M "C 2/M"
_symmetry_group_IT_number 12
_symmetry_cell_setting 'monoclinic'
loop_
_space_group_symop_operation_xyz
x,y,z
-x,y,-z
-x,-y,-z
x,-y,z
1/2+x,1/2+y,z
1/2-x,1/2+y,-z
1/2-x,1/2-y,-z
1/2+x,1/2-y,z
loop_
_atom_site_type_symbol
_atom_site_label
_atom_site_fract_x
_atom_site_fract_y
_atom_site_fract_z
Si Si1 0.500000 0.623323 0.500000
Si Si2 0.842761 0.198527 0.719883
Si Si3 0.618900 0.937861 0.805173
Si Si4 0.406100 0.617304 0.858797
Si Si5 0.708813 0.187944 0.187059
O O1 0.747987 0.584767 0.352627
O O2 0.577513 0.663983 0.557724
O O3 0.368942 0.238754 0.712243
O O4 0.825612 0.172692 0.836528
O O5 0.551637 0.185777 0.781363
O O6 0.867517 0.924111 0.783873
O O7 0.329342 0.906809 0.964537
O O8 0.561096 0.000000 0.826651
O O9 0.698977 0.635248 0.790920
O O10 0.000000 0.201244 0.000000
#
# Coordination Sequence:
#
# PCOD9204147 Si02
#       5
#     4   8   8   8   8
#     4  10  23  38  58  90 122 158 201 238 300 350
#     4  11  24  38  58  88 129 162 193 236 288 357
#     4  10  20  40  66  86 114 156 203 254 299 343
#     4  10  21  39  63  92 115 155 202 241 299 351
#     4  12  22  35  61  88 127 161 192 239 290 348
#
# _framework density 23.285829
#
# number of rings (size 3 to 8) (size 9 to 14) (size 15 to 20)
#    0.000    1.333    2.222    6.333    6.222    0.889 
#    0.000    0.000    0.000   48.000    0.000    0.000 
#    0.000    0.000    0.000    0.000    0.000    0.000 
#
# Total GULP energy -100418.611711 kJ/mol
# GULP energy per Si atom -5578.811762 kJ/mol
# Density = 2.323283 g / cm^3
# Si number density = 23.285829 Si / 1000 Ang^3
#
#
#
# Elastic Constant Matrix: (Units=GPa)
#
#
# Indices 1 2 3 4 5 6 
#
# 1 142.9083 36.7415 28.9433 0.0000 4.1277 0.0000
# 2 36.7415 164.1081 55.3469 0.0000 -9.0487 0.0000
# 3 28.9433 55.3469 119.8895 0.0000 0.9839 0.0000
# 4 0.0000 0.0000 0.0000 38.2571 0.0000 4.0821
# 5 4.1277 -9.0487 0.9839 0.0000 12.3010 0.0000
# 6 0.0000 0.0000 0.0000 4.0821 0.0000 20.8373
#
#
#
# Elastic Compliance Matrix: (Units=1/GPa)
#
#
# Indices 1 2 3 4 5 6 
#
# 1 0.007729 -0.001554 -0.001118 0.000000 -0.003647 0.000000
# 2 -0.001554 0.007934 -0.003342 0.000000 0.006625 0.000000
# 3 -0.001118 -0.003342 0.010178 0.000000 -0.002897 0.000000
# 4 0.000000 0.000000 0.000000 0.026697 0.000000 -0.005230
# 5 -0.003647 0.006625 -0.002897 0.000000 0.087623 0.000000
# 6 0.000000 0.000000 0.000000 -0.005230 0.000000 0.049016
#
#
# Mechanical properties :
#
#
# Convention : Reuss Voigt Hill
#
# Bulk Modulus (GPa) = 72.40445 74.32991 73.36718
# Shear Modulus (GPa) = 24.29442 34.67071 29.48256
#
# Velocity S-wave (km/s) = 3.23354 3.86284 3.56211
# Velocity P-wave (km/s) = 6.71583 7.20315 6.96375
#
# Compressibility (1/GPa) = 0.01381131
#
# Stress axis : x y z
#
# Youngs Moduli (GPa) = 129.38335 126.04172 98.25571
#
# Poissons Ratio (x) = 0.19591 0.10989
# Poissons Ratio (y) = 0.20110 0.32835
# Poissons Ratio (z) = 0.14470 0.42121
#
# Static dielectric constant tensor:
#      x y z
#    x 1.902250 0.000000 -0.005080 
#    y 0.000000 1.882150 0.000000 
#    z -0.005080 0.000000 2.031300 
# 
# From -- ./inp_files/115364.got.cif
#   From: 2010.05.17/outbox.cif.g08.bks.cpg/sg12_58_cif.got.tgz:115364.got - 2010.06.03 13:09:07.
