data_PCOD9204146
_publ_section_title
;
Structure prediction by ZEFSAII (Michael W. Deem and Ramdas Pophale) SiO2 
 PCOD9204146
Probable space group: C 2/M
;
_chemical_formula_sum "Si O2"
_cell_formula_units_Z 46
_cell_length_a 8.975378
_cell_length_b 25.983755
_cell_length_c 14.733682
_cell_angle_alpha 90.000000
_cell_angle_beta 139.802870
_cell_angle_gamma 90.000000
_cell_volume 2217.726504
_symmetry_space_group_name_H-M "C 2/M"
_symmetry_group_IT_number 12
_symmetry_cell_setting 'monoclinic'
loop_
_space_group_symop_operation_xyz
x,y,z
-x,y,-z
-x,-y,-z
x,-y,z
1/2+x,1/2+y,z
1/2-x,1/2+y,-z
1/2-x,1/2-y,-z
1/2+x,1/2-y,z
loop_
_atom_site_type_symbol
_atom_site_label
_atom_site_fract_x
_atom_site_fract_y
_atom_site_fract_z
Si Si1 0.958908 0.194659 0.712438
Si Si2 0.777452 0.558367 0.959802
Si Si3 0.190788 0.298235 0.293000
Si Si4 0.500000 0.000000 0.500000
Si Si5 0.877632 0.918484 0.631506
Si Si6 0.000000 0.885152 0.500000
Si Si7 0.189641 0.163335 0.009768
O O1 0.149094 0.202757 0.722058
O O2 0.801740 0.244660 0.650275
O O3 0.829350 0.141419 0.630785
O O4 0.088360 0.184870 0.868319
O O5 0.796593 0.500000 0.004303
O O6 0.554676 0.562318 0.790997
O O7 0.750656 0.603225 0.020825
O O8 0.000000 0.569096 0.000000
O O9 0.283597 0.346123 0.394611
O O10 0.925982 0.308217 0.144063
O O11 0.661597 0.955062 0.529972
O O12 0.998806 0.917930 0.590206
O O13 0.000000 0.169125 0.000000
#
# Coordination Sequence:
#
# PCOD9204146 Si02
#       7
#     8   8   8   2   8   4   8
#     4  10  22  39  64  88 129 159 210 257 310 366
#     4  10  20  40  66  85 118 160 209 262 313 361
#     4  11  22  40  62  96 125 169 201 253 312 369
#     4  12  24  40  62  84 126 160 208 252 312 356
#     4  10  23  42  61  91 120 168 206 253 306 368
#     4  10  24  40  64  88 128 160 214 246 300 388
#     4  11  22  37  62  92 126 161 205 259 308 370
#
# _framework density 20.741961
#
# number of rings (size 3 to 8) (size 9 to 14) (size 15 to 20)
#    0.000    1.565    0.870    5.217    0.000    8.348 
#    0.000    0.000    9.565    0.000    0.000    0.000 
#    0.000    0.000    0.000    0.000    0.000    0.000 
#
# Total GULP energy -128311.637660 kJ/mol
# GULP energy per Si atom -5578.766855 kJ/mol
# Density = 2.069475 g / cm^3
# Si number density = 20.741961 Si / 1000 Ang^3
#
#
#
# Elastic Constant Matrix: (Units=GPa)
#
#
# Indices 1 2 3 4 5 6 
#
# 1 90.2231 65.1221 13.6535 0.0000 6.4094 0.0000
# 2 65.1221 128.6301 5.7808 0.0000 12.3000 0.0000
# 3 13.6535 5.7808 18.4572 0.0000 -13.1685 0.0000
# 4 0.0000 0.0000 0.0000 12.1982 0.0000 13.6514
# 5 6.4094 12.3000 -13.1685 0.0000 16.6770 0.0000
# 6 0.0000 0.0000 0.0000 13.6514 0.0000 51.6754
#
#
#
# Elastic Compliance Matrix: (Units=1/GPa)
#
#
# Indices 1 2 3 4 5 6 
#
# 1 0.026553 -0.007222 -0.047776 0.000000 -0.042603 0.000000
# 2 -0.007222 0.013103 -0.008420 0.000000 -0.013537 0.000000
# 3 -0.047776 -0.008420 0.251213 0.000000 0.222934 0.000000
# 4 0.000000 0.000000 0.000000 0.116390 0.000000 -0.030747
# 5 -0.042603 -0.013537 0.222934 0.000000 0.262354 0.000000
# 6 0.000000 0.000000 0.000000 -0.030747 0.000000 0.027474
#
#
# Mechanical properties :
#
#
# Convention : Reuss Voigt Hill
#
# Bulk Modulus (GPa) = 6.09631 45.15812 25.62722
# Shear Modulus (GPa) = 5.69087 26.29372 15.99229
#
# Velocity S-wave (km/s) = 1.65819 3.56428 2.77972
# Velocity P-wave (km/s) = 2.57131 6.22555 4.76283
#
# Compressibility (1/GPa) = 0.16403371
#
# Stress axis : x y z
#
# Youngs Moduli (GPa) = 37.66070 76.31574 3.98069
#
# Poissons Ratio (x) = 0.55116 0.19018
# Poissons Ratio (y) = 0.27199 0.03352
# Poissons Ratio (z) = 1.79927 0.64257
#
# Static dielectric constant tensor:
#      x y z
#    x 1.702700 0.000000 -0.002280 
#    y 0.000000 1.759140 0.000000 
#    z -0.002280 0.000000 1.747900 
# 
# From -- ./inp_files/123922.got.cif
#   From: 2010.05.17/outbox.cif.g08.bks.cpg/sg12_62_cif.got.tgz:123922.got - 2010.06.03 13:09:07.
