data_PCOD9204130
_publ_section_title
;
Structure prediction by ZEFSAII (Michael W. Deem and Ramdas Pophale) SiO2 
 PCOD9204130
Probable space group: C 2/M
;
_chemical_formula_sum "Si O2"
_cell_formula_units_Z 50
_cell_length_a 14.724218
_cell_length_b 7.524371
_cell_length_c 17.574225
_cell_angle_alpha 90.000000
_cell_angle_beta 96.527199
_cell_angle_gamma 90.000000
_cell_volume 1934.435991
_symmetry_space_group_name_H-M "C 2/M"
_symmetry_group_IT_number 12
_symmetry_cell_setting 'monoclinic'
loop_
_space_group_symop_operation_xyz
x,y,z
-x,y,-z
-x,-y,-z
x,-y,z
1/2+x,1/2+y,z
1/2-x,1/2+y,-z
1/2-x,1/2-y,-z
1/2+x,1/2-y,z
loop_
_atom_site_type_symbol
_atom_site_label
_atom_site_fract_x
_atom_site_fract_y
_atom_site_fract_z
Si Si1 0.719810 0.291849 0.186318
Si Si2 0.325541 0.284162 0.648783
Si Si3 0.147837 0.289428 0.023976
Si Si4 0.863555 0.793523 0.425651
Si Si5 0.518456 0.711536 0.700643
Si Si6 0.591173 0.211277 0.863569
Si Si7 0.000000 0.500000 0.500000
O O1 0.736098 0.500000 0.200231
O O2 0.693699 0.222194 0.266146
O O3 0.648108 0.279827 0.109944
O O4 0.814500 0.213235 0.163156
O O5 0.324494 0.500000 0.644731
O O6 0.245697 0.220078 0.586736
O O7 0.429399 0.221615 0.647782
O O8 0.135201 0.500000 0.031227
O O9 0.250000 0.250000 0.000000
O O10 0.082610 0.222024 0.949330
O O11 0.894405 0.740604 0.341588
O O12 0.920705 0.656296 0.479836
O O13 0.888703 0.000000 0.442576
O O14 0.514047 0.500000 0.702117
O O15 0.520663 0.766032 0.788631
O O16 0.602696 0.000000 0.874148
#
# Coordination Sequence:
#
# PCOD9204130 Si02
#       7
#     8   8   8   8   8   8   2
#     4   9  17  30  53  80 112 163 213 259 321 377
#     4  10  20  40  65  93 131 170 208 265 322 369
#     4   9  17  28  44  72 113 156 210 265 319 371
#     4  11  24  45  73 103 131 169 214 252 310 390
#     4  10  22  37  63  96 128 163 215 264 311 378
#     4   9  17  30  51  79 113 164 211 260 320 374
#     4  12  26  48  80  98 136 174 194 264 320 370
#
# _framework density 25.847327
#
# number of rings (size 3 to 8) (size 9 to 14) (size 15 to 20)
#    0.000    2.240    2.400    1.680    1.120    4.480 
#    0.000    1.600    0.000    4.800    0.000    0.000 
#    0.000    0.000    0.000    0.000    0.000    0.000 
#
# Total GULP energy -139458.354735 kJ/mol
# GULP energy per Si atom -5578.334189 kJ/mol
# Density = 2.578850 g / cm^3
# Si number density = 25.847327 Si / 1000 Ang^3
#
#
#
# Elastic Constant Matrix: (Units=GPa)
#
#
# Indices 1 2 3 4 5 6 
#
# 1 92.8223 0.0808 38.8143 0.0000 31.8490 0.0000
# 2 0.0808 93.2164 1.7873 0.0000 11.8841 0.0000
# 3 38.8143 1.7873 158.8738 0.0000 21.1736 0.0000
# 4 0.0000 0.0000 0.0000 17.6219 0.0000 20.0623
# 5 31.8490 11.8841 21.1736 0.0000 45.2846 0.0000
# 6 0.0000 0.0000 0.0000 20.0623 0.0000 10.4803
#
#
#
# Elastic Compliance Matrix: (Units=1/GPa)
#
#
# Indices 1 2 3 4 5 6 
#
# 1 0.015168 0.001293 -0.002403 0.000000 -0.009884 0.000000
# 2 0.001293 0.011221 0.000076 0.000000 -0.003890 0.000000
# 3 -0.002403 0.000076 0.007100 0.000000 -0.001650 0.000000
# 4 0.000000 0.000000 0.000000 -0.048116 0.000000 0.092108
# 5 -0.009884 -0.003890 -0.001650 0.000000 0.030826 0.000000
# 6 0.000000 0.000000 0.000000 0.092108 0.000000 -0.080904
#
#
# Mechanical properties :
#
#
# Convention : Reuss Voigt Hill
#
# Bulk Modulus (GPa) = 31.82471 47.36415 39.59443
# Shear Modulus (GPa) = -95.85333 34.95937 -30.44698
#
# Velocity S-wave (km/s) = -6.09630 3.68167 -3.43586
# Velocity P-wave (km/s) = 6.10032 6.03633 0.62316
#
# Compressibility (1/GPa) = 0.03142213
#
# Stress axis : x y z
#
# Youngs Moduli (GPa) = 65.92706 89.11828 140.83684
#
# Poissons Ratio (x) = -0.11523 0.33844
# Poissons Ratio (y) = -0.08524 -0.01074
# Poissons Ratio (z) = 0.15843 -0.00680
#
# Static dielectric constant tensor:
#      x y z
#    x 2.062110 0.000000 -0.002080 
#    y 0.000000 1.857730 0.000000 
#    z -0.002080 0.000000 2.069760 
# 
# From -- ./inp_files/230305.got.cif
#   From: 2010.05.17/outbox.cif.g08.bks.cpg/sg12_116_cif.got.tgz:230305.got - 2010.06.03 13:09:07.
