data_PCOD9204122
_publ_section_title
;
Structure prediction by ZEFSAII (Michael W. Deem and Ramdas Pophale) SiO2 
 PCOD9204122
Probable space group: C 2/M
;
_chemical_formula_sum "Si O2"
_cell_formula_units_Z 60
_cell_length_a 22.805946
_cell_length_b 11.971675
_cell_length_c 25.974028
_cell_angle_alpha 90.000000
_cell_angle_beta 154.370219
_cell_angle_gamma 90.000000
_cell_volume 3067.489539
_symmetry_space_group_name_H-M "C 2/M"
_symmetry_group_IT_number 12
_symmetry_cell_setting 'monoclinic'
loop_
_space_group_symop_operation_xyz
x,y,z
-x,y,-z
-x,-y,-z
x,-y,z
1/2+x,1/2+y,z
1/2-x,1/2+y,-z
1/2-x,1/2-y,-z
1/2+x,1/2-y,z
loop_
_atom_site_type_symbol
_atom_site_label
_atom_site_fract_x
_atom_site_fract_y
_atom_site_fract_z
Si Si1 0.729159 0.629099 0.280174
Si Si2 0.636634 0.337604 0.578926
Si Si3 0.336995 0.774920 0.871314
Si Si4 0.746941 0.872144 0.895746
Si Si5 0.523281 0.628233 0.841630
Si Si6 0.339227 0.377793 0.521102
Si Si7 0.232105 0.500000 0.239967
Si Si8 0.542267 0.792200 0.304296
O O1 0.766987 0.500000 0.305255
O O2 0.838306 0.706187 0.395300
O O3 0.704418 0.686511 0.205692
O O4 0.593697 0.636730 0.207566
O O5 0.500000 0.371081 0.500000
O O6 0.626705 0.368625 0.511946
O O7 0.752553 0.403382 0.701692
O O8 0.286620 0.719527 0.884490
O O9 0.279954 0.897897 0.812408
O O10 0.500000 0.785024 0.000000
O O11 0.589356 0.861842 0.784790
O O12 0.778768 0.000000 0.903816
O O13 0.836643 0.851028 0.017648
O O14 0.522499 0.500000 0.821943
O O15 0.493302 0.713695 0.772367
O O16 0.376845 0.500000 0.570384
O O17 0.415454 0.285040 0.614189
O O18 0.177749 0.360561 0.398514
#
# Coordination Sequence:
#
# PCOD9204122 Si02
#       8
#     8   8   8   8   8   8   4   8
#     4  10  21  38  63  91 126 163 204 254 315 379
#     4  11  23  40  64  91 122 163 209 260 320 373
#     4  11  22  40  63  96 127 163 203 253 318 374
#     4  11  24  41  66  94 130 164 209 259 312 383
#     4  10  20  40  65  92 125 168 211 260 311 375
#     4  11  24  42  65  88 122 169 213 261 319 375
#     4  10  24  40  64  92 130 162 206 262 307 388
#     4  11  24  42  62  92 125 166 215 264 311 368
#
# _framework density 19.559967
#
# number of rings (size 3 to 8) (size 9 to 14) (size 15 to 20)
#    0.000    1.333    3.333    2.000    3.733    0.800 
#    1.200    0.667    1.467    0.000    0.000    0.000 
#    0.000    0.000    0.000    0.000    0.000    0.000 
#
# Total GULP energy -167036.239044 kJ/mol
# GULP energy per Si atom -5567.874635 kJ/mol
# Density = 1.951545 g / cm^3
# Si number density = 19.559967 Si / 1000 Ang^3
#
#
#
# Elastic Constant Matrix: (Units=GPa)
#
#
# Indices 1 2 3 4 5 6 
#
# 1 48.6075 22.0519 20.0423 -0.0027 -6.4308 -0.0001
# 2 22.0519 135.3145 19.5035 -0.0050 -14.5374 -0.0001
# 3 20.0423 19.5035 47.7894 -0.0040 -3.1690 -0.0003
# 4 -0.0027 -0.0050 -0.0040 33.5546 -0.0013 -17.2218
# 5 -6.4308 -14.5374 -3.1690 -0.0013 27.7621 0.0001
# 6 -0.0001 -0.0001 -0.0003 -17.2218 0.0001 32.6115
#
#
#
# Elastic Compliance Matrix: (Units=1/GPa)
#
#
# Indices 1 2 3 4 5 6 
#
# 1 0.026192 -0.002472 -0.009733 0.000001 0.003662 0.000000
# 2 -0.002472 0.008499 -0.002191 0.000001 0.003627 0.000001
# 3 -0.009733 -0.002191 0.025871 0.000003 -0.000449 0.000002
# 4 0.000001 0.000001 0.000003 0.040883 0.000003 0.021590
# 5 0.003662 0.003627 -0.000449 0.000003 0.038717 0.000002
# 6 0.000000 0.000001 0.000002 0.021590 0.000002 0.042066
#
#
# Mechanical properties :
#
#
# Convention : Reuss Voigt Hill
#
# Bulk Modulus (GPa) = 31.47642 39.43410 35.45526
# Shear Modulus (GPa) = 22.56217 30.12655 26.34436
#
# Velocity S-wave (km/s) = 3.39999 3.92881 3.67393
# Velocity P-wave (km/s) = 5.61609 6.38633 6.01355
#
# Compressibility (1/GPa) = 0.03176981
#
# Stress axis : x y z
#
# Youngs Moduli (GPa) = 38.17941 117.66635 38.65266
#
# Poissons Ratio (x) = 0.29090 0.37620
# Poissons Ratio (y) = 0.09439 0.08469
# Poissons Ratio (z) = 0.37160 0.25781
#
# Static dielectric constant tensor:
#      x y z
#    x 1.661310 0.000000 0.021260 
#    y 0.000000 1.706990 0.000000 
#    z 0.021260 0.000000 1.700510 
# 
# From -- ./inp_files/347202.got.cif
#   From: 2010.05.17/outbox.cif.g08.bks.cpg/sg12_174_cif.got.tgz:347202.got - 2010.06.03 13:09:07.
