data_PCOD9204379
_publ_section_title
;
Structure prediction by ZEFSAII (Michael W. Deem and Ramdas Pophale) SiO2 
 PCOD9204379
Probable space group: C 2/M
;
_chemical_formula_sum "Si O2"
_cell_formula_units_Z 64
_cell_length_a 31.483585
_cell_length_b 8.618726
_cell_length_c 20.206942
_cell_angle_alpha 90.000000
_cell_angle_beta 37.725071
_cell_angle_gamma 90.000000
_cell_volume 3354.974926
_symmetry_space_group_name_H-M "C 2/M"
_symmetry_group_IT_number 12
_symmetry_cell_setting 'monoclinic'
loop_
_space_group_symop_operation_xyz
x,y,z
-x,y,-z
-x,-y,-z
x,-y,z
1/2+x,1/2+y,z
1/2-x,1/2+y,-z
1/2-x,1/2-y,-z
1/2+x,1/2-y,z
loop_
_atom_site_type_symbol
_atom_site_label
_atom_site_fract_x
_atom_site_fract_y
_atom_site_fract_z
Si Si1 0.194400 0.683510 0.763433
Si Si2 0.311506 0.687004 0.878031
Si Si3 0.943386 0.821500 0.011967
Si Si4 0.189182 0.186046 0.621871
Si Si5 0.554764 0.178671 0.491896
Si Si6 0.032837 0.187767 0.774416
Si Si7 0.194588 0.184865 0.266658
Si Si8 0.037198 0.686364 0.271277
O O1 0.205398 0.500000 0.740781
O O2 0.119624 0.716452 0.887282
O O3 0.198925 0.760873 0.685756
O O4 0.249207 0.745108 0.750049
O O5 0.310265 0.500000 0.880289
O O6 0.301658 0.742518 0.813822
O O7 0.386510 0.743150 0.811551
O O8 0.250000 0.750000 0.000000
O O9 0.918642 0.000000 0.033851
O O10 0.000000 0.823119 0.000000
O O11 0.983217 0.771229 0.897035
O O12 0.250000 0.250000 0.500000
O O13 0.112305 0.236189 0.691504
O O14 0.190630 0.000000 0.618131
O O15 0.500000 0.177995 0.500000
O O16 0.620023 0.277187 0.388985
O O17 0.513908 0.236283 0.606404
O O18 0.577166 0.000000 0.475862
O O19 0.999246 0.260941 0.751050
O O20 0.032916 0.000000 0.768742
O O21 0.204354 0.000000 0.250648
O O22 0.043496 0.500000 0.266103
#
# Coordination Sequence:
#
# PCOD9204379 Si02
#       8
#     8   8   8   8   8   8   8   8
#     4  11  24  41  62  94 127 162 205 255 311 366
#     4  11  24  43  64  90 125 167 209 254 309 366
#     4  10  20  41  66  89 119 160 207 255 307 364
#     4  11  24  44  65  90 126 166 208 257 308 371
#     4  10  21  40  64  90 120 156 203 254 305 360
#     4  10  23  42  64  90 123 163 206 252 308 369
#     4  10  24  42  62  90 124 161 204 252 304 364
#     4  11  24  41  63  93 126 160 203 256 308 367
#
# _framework density 19.076149999999998
#
# number of rings (size 3 to 8) (size 9 to 14) (size 15 to 20)
#    0.000    1.500    2.500    1.500    3.500    4.500 
#    0.000    0.000    0.000    0.000    0.000    0.000 
#    0.000    0.000    0.000    0.000    0.000    0.000 
#
# Total GULP energy -178754.285595 kJ/mol
# GULP energy per Si atom -5586.071425 kJ/mol
# Density = 1.903273 g / cm^3
# Si number density = 19.076150 Si / 1000 Ang^3
#
#
#
# Elastic Constant Matrix: (Units=GPa)
#
#
# Indices 1 2 3 4 5 6 
#
# 1 163.7423 35.8411 93.7628 0.0251 12.7036 0.0204
# 2 35.8411 28.9702 33.5522 0.0286 4.2981 0.0267
# 3 93.7628 33.5522 171.4356 0.0244 19.8597 0.0288
# 4 0.0251 0.0286 0.0244 57.3572 -0.0145 14.1797
# 5 12.7036 4.2981 19.8597 -0.0145 34.3435 -0.0168
# 6 0.0204 0.0267 0.0288 14.1797 -0.0168 41.8109
#
#
#
# Elastic Compliance Matrix: (Units=1/GPa)
#
#
# Indices 1 2 3 4 5 6 
#
# 1 0.010128 -0.007898 -0.003938 0.000000 -0.000481 0.000002
# 2 -0.007898 0.050806 -0.005601 -0.000015 -0.000198 -0.000020
# 3 -0.003938 -0.005601 0.009467 0.000000 -0.003317 -0.000002
# 4 0.000000 -0.000015 0.000000 0.019030 0.000006 -0.006454
# 5 -0.000481 -0.000198 -0.003317 0.000006 0.031238 0.000013
# 6 0.000002 -0.000020 -0.000002 -0.006454 0.000013 0.026106
#
#
# Mechanical properties :
#
#
# Convention : Reuss Voigt Hill
#
# Bulk Modulus (GPa) = 28.14721 76.71781 52.43251
# Shear Modulus (GPa) = 25.84090 40.10178 32.97134
#
# Velocity S-wave (km/s) = 3.68451 4.58994 4.16192
# Velocity P-wave (km/s) = 5.73481 8.27007 7.11625
#
# Compressibility (1/GPa) = 0.03552750
#
# Stress axis : x y z
#
# Youngs Moduli (GPa) = 98.73386 19.68285 105.62779
#
# Poissons Ratio (x) = 0.15546 0.41595
# Poissons Ratio (y) = 0.77983 0.59158
# Poissons Ratio (z) = 0.38880 0.11024
#
# Static dielectric constant tensor:
#      x y z
#    x 1.668700 -0.000010 0.010290 
#    y -0.000010 1.670810 0.000000 
#    z 0.010290 0.000000 1.612240 
# 
# From -- ./inp_files/295451.got.cif
#   From: 2010.05.17/outbox.cif.g08.bks.cpg/sg12_148_cif.got.tgz:295451.got - 2010.06.03 13:09:07.
