data_PCOD9204561
_publ_section_title
;
Structure prediction by ZEFSAII (Michael W. Deem and Ramdas Pophale) SiO2 
 PCOD9204561
Probable space group: C 2/M
;
_chemical_formula_sum "Si O2"
_cell_formula_units_Z 54
_cell_length_a 17.870630
_cell_length_b 21.166611
_cell_length_c 16.014606
_cell_angle_alpha 90.000000
_cell_angle_beta 154.375164
_cell_angle_gamma 90.000000
_cell_volume 2619.811774
_symmetry_space_group_name_H-M "C 2/M"
_symmetry_group_IT_number 12
_symmetry_cell_setting 'monoclinic'
loop_
_space_group_symop_operation_xyz
x,y,z
-x,y,-z
-x,-y,-z
x,-y,z
1/2+x,1/2+y,z
1/2-x,1/2+y,-z
1/2-x,1/2-y,-z
1/2+x,1/2-y,z
loop_
_atom_site_type_symbol
_atom_site_label
_atom_site_fract_x
_atom_site_fract_y
_atom_site_fract_z
Si Si1 0.201910 0.789486 0.367550
Si Si2 0.676642 0.177616 0.227288
Si Si3 0.508584 0.106058 0.359121
Si Si4 0.000000 0.108695 0.500000
Si Si5 0.851803 0.068278 0.189830
Si Si6 0.959511 0.432327 0.798869
Si Si7 0.184272 0.816574 0.973427
Si Si8 0.500000 0.000000 0.500000
O O1 0.250000 0.750000 0.500000
O O2 0.235489 0.742314 0.326141
O O3 0.320863 0.850112 0.472313
O O4 0.997321 0.803904 0.164095
O O5 0.638768 0.127020 0.262617
O O6 0.830815 0.151322 0.327876
O O7 0.500000 0.185054 0.000000
O O8 0.517005 0.072678 0.276836
O O9 0.501805 0.056117 0.427505
O O10 0.338755 0.151772 0.182875
O O11 0.013209 0.071190 0.599129
O O12 0.861661 0.130043 0.142258
O O13 0.871514 0.000000 0.164891
O O14 0.656716 0.068541 0.030150
O O15 0.880756 0.500000 0.742369
O O16 0.250000 0.750000 0.000000
#
# Coordination Sequence:
#
# PCOD9204561 Si02
#       8
#     8   8   8   4   8   8   8   2
#     4  12  23  43  72 106 139 188 249 294 363 442
#     4  12  26  42  66 101 142 179 228 290 351 427
#     4  11  25  47  75 104 141 188 243 306 357 444
#     4  12  25  39  62  97 138 177 222 284 341 408
#     4  10  22  40  64  99 138 180 225 276 349 418
#     4  10  20  42  70  94 136 187 226 276 357 419
#     4  11  23  43  75 103 140 188 240 301 362 429
#     4  12  28  54  78 110 150 198 258 312 394 444
#
# _framework density 20.612166999999999
#
# number of rings (size 3 to 8) (size 9 to 14) (size 15 to 20)
#    0.000    0.889    5.185    2.000    1.037    3.259 
#    1.333    0.741    0.000    0.000    0.000    0.000 
#    0.000    0.000    0.000    0.000    0.000    0.000 
#
# Total GULP energy -150486.662404 kJ/mol
# GULP energy per Si atom -5573.580089 kJ/mol
# Density = 2.056525 g / cm^3
# Si number density = 20.612167 Si / 1000 Ang^3
#
#
#
# Elastic Constant Matrix: (Units=GPa)
#
#
# Indices 1 2 3 4 5 6 
#
# 1 45.2823 27.5142 26.4857 0.0000 -13.8169 0.0000
# 2 27.5142 146.5015 37.3614 0.0000 -15.0665 0.0000
# 3 26.4857 37.3614 88.6539 0.0000 -3.4529 0.0000
# 4 0.0000 0.0000 0.0000 -6.1031 0.0000 -1.3637
# 5 -13.8169 -15.0665 -3.4529 0.0000 28.0588 0.0000
# 6 0.0000 0.0000 0.0000 -1.3637 0.0000 33.0115
#
#
#
# Elastic Compliance Matrix: (Units=1/GPa)
#
#
# Indices 1 2 3 4 5 6 
#
# 1 0.032583 -0.002657 -0.008084 0.000000 0.013624 0.000000
# 2 -0.002657 0.008273 -0.002583 0.000000 0.002816 0.000000
# 3 -0.008084 -0.002583 0.014645 0.000000 -0.003566 0.000000
# 4 0.000000 0.000000 0.000000 -0.162352 0.000000 -0.006707
# 5 0.013624 0.002816 -0.003566 0.000000 0.043421 0.000000
# 6 0.000000 0.000000 0.000000 -0.006707 0.000000 0.030015
#
#
# Mechanical properties :
#
#
# Convention : Reuss Voigt Hill
#
# Bulk Modulus (GPa) = 34.65825 51.46226 43.06026
# Shear Modulus (GPa) = 1753.27569 23.59853 888.43711
#
# Velocity S-wave (km/s) = 29.19673 3.38728 20.78368
# Velocity P-wave (km/s) = 33.96247 6.34975 24.43122
#
# Compressibility (1/GPa) = 0.02885315
#
# Stress axis : x y z
#
# Youngs Moduli (GPa) = 30.69056 120.87183 68.28385
#
# Poissons Ratio (x) = 0.32112 0.55202
# Poissons Ratio (y) = 0.08154 0.17639
# Poissons Ratio (z) = 0.24811 0.31224
#
# Static dielectric constant tensor:
#      x y z
#    x 1.726950 0.000000 0.006880 
#    y 0.000000 1.792310 0.000000 
#    z 0.006880 0.000000 1.689540 
# 
# From -- ./inp_files/286115.got.cif
#   From: 2010.05.17/outbox.cif.g08.bks.cpg/sg12_144_cif.got.tgz:286115.got - 2010.06.03 13:09:07.
