data_PCOD9204723
_publ_section_title
;
Structure prediction by ZEFSAII (Michael W. Deem and Ramdas Pophale) SiO2 
 PCOD9204723
Probable space group: C 2/M
;
_chemical_formula_sum "Si O2"
_cell_formula_units_Z 64
_cell_length_a 21.327411
_cell_length_b 24.979440
_cell_length_c 9.586720
_cell_angle_alpha 90.000000
_cell_angle_beta 44.313387
_cell_angle_gamma 90.000000
_cell_volume 3567.866309
_symmetry_space_group_name_H-M "C 2/M"
_symmetry_group_IT_number 12
_symmetry_cell_setting 'monoclinic'
loop_
_space_group_symop_operation_xyz
x,y,z
-x,y,-z
-x,-y,-z
x,-y,z
1/2+x,1/2+y,z
1/2-x,1/2+y,-z
1/2-x,1/2-y,-z
1/2+x,1/2-y,z
loop_
_atom_site_type_symbol
_atom_site_label
_atom_site_fract_x
_atom_site_fract_y
_atom_site_fract_z
Si Si1 0.276691 0.630624 0.978049
Si Si2 0.619907 0.731949 0.098133
Si Si3 0.268046 0.360101 0.672015
Si Si4 0.617075 0.436004 0.686716
Si Si5 0.898037 0.326025 0.665350
Si Si6 0.083987 0.064392 0.061969
Si Si7 0.082615 0.232458 0.588923
Si Si8 0.162767 0.268300 0.727948
O O1 0.314861 0.691156 0.928993
O O2 0.260071 0.619146 0.842173
O O3 0.351406 0.593809 0.932318
O O4 0.182035 0.631615 0.210452
O O5 0.618343 0.790772 0.168746
O O6 0.517765 0.712737 0.279498
O O7 0.648772 0.735174 0.891469
O O8 0.302535 0.406143 0.515960
O O9 0.346431 0.314713 0.545341
O O10 0.182232 0.328641 0.747201
O O11 0.624901 0.500000 0.666872
O O12 0.521950 0.421579 0.764579
O O13 0.611486 0.421433 0.859100
O O14 0.893132 0.281481 0.551633
O O15 0.000000 0.347059 0.500000
O O16 0.090911 0.000000 0.066289
O O17 0.085019 0.256042 0.741694
O O18 0.250000 0.250000 0.500000
#
# Coordination Sequence:
#
# PCOD9204723 Si02
#       8
#     8   8   8   8   8   8   8   8
#     4  12  21  33  56  77 106 139 178 215 261 317
#     4  11  20  34  51  73 109 146 172 214 260 305
#     4  11  21  33  50  78 106 141 177 214 257 308
#     4   9  20  39  55  76 109 137 169 217 266 308
#     4  10  21  36  52  75 110 144 173 214 264 310
#     4   9  21  38  57  79 103 135 175 217 261 315
#     4  10  21  33  49  76 107 142 182 212 254 310
#     4  10  21  33  46  72 108 139 183 217 249 300
#
# _framework density 17.937892999999999
#
# number of rings (size 3 to 8) (size 9 to 14) (size 15 to 20)
#    0.000    1.750    2.500    3.750    5.250    2.000 
#    0.000    1.250    0.000    0.375    0.000    0.000 
#    0.000    4.000    0.000    0.000    0.000    0.000 
#
# Total GULP energy -178545.606013 kJ/mol
# GULP energy per Si atom -5579.550188 kJ/mol
# Density = 1.789707 g / cm^3
# Si number density = 17.937893 Si / 1000 Ang^3
#
#
#
# Elastic Constant Matrix: (Units=GPa)
#
#
# Indices 1 2 3 4 5 6 
#
# 1 53.2869 6.8462 3.5924 0.0000 0.4008 0.0000
# 2 6.8462 26.1734 6.9363 0.0000 1.5404 0.0000
# 3 3.5924 6.9363 54.9073 0.0000 13.2400 0.0000
# 4 0.0000 0.0000 0.0000 22.2755 0.0000 -2.1244
# 5 0.4008 1.5404 13.2400 0.0000 32.6683 0.0000
# 6 0.0000 0.0000 0.0000 -2.1244 0.0000 30.8843
#
#
#
# Elastic Compliance Matrix: (Units=1/GPa)
#
#
# Indices 1 2 3 4 5 6 
#
# 1 0.019444 -0.004912 -0.000720 0.000000 0.000285 0.000000
# 2 -0.004912 0.040772 -0.004855 0.000000 0.000105 0.000000
# 3 -0.000720 -0.004855 0.020854 0.000000 -0.008214 0.000000
# 4 0.000000 0.000000 0.000000 0.045189 0.000000 0.003108
# 5 0.000285 0.000105 -0.008214 0.000000 0.033931 0.000000
# 6 0.000000 0.000000 0.000000 0.003108 0.000000 0.032593
#
#
# Mechanical properties :
#
#
# Convention : Reuss Voigt Hill
#
# Bulk Modulus (GPa) = 16.64010 18.79079 17.71544
# Shear Modulus (GPa) = 21.38696 24.96515 23.17605
#
# Velocity S-wave (km/s) = 3.45668 3.73467 3.59836
# Velocity P-wave (km/s) = 5.02277 5.39400 5.21169
#
# Compressibility (1/GPa) = 0.06009579
#
# Stress axis : x y z
#
# Youngs Moduli (GPa) = 51.43029 24.52670 47.95348
#
# Poissons Ratio (x) = 0.12047 0.03454
# Poissons Ratio (y) = 0.25261 0.23279
# Poissons Ratio (z) = 0.03705 0.11907
#
# Static dielectric constant tensor:
#      x y z
#    x 1.662540 0.000000 -0.002600 
#    y 0.000000 1.602510 0.000000 
#    z -0.002600 0.000000 1.634720 
# 
# From -- ./inp_files/91087.got.cif
#   From: 2010.05.17/outbox.cif.g08.bks.cpg/sg12_46_cif.got.tgz:91087.got - 2010.06.03 13:09:07.
