data_PCOD9204645
_publ_section_title
;
Structure prediction by ZEFSAII (Michael W. Deem and Ramdas Pophale) SiO2 
 PCOD9204645
Probable space group: C 2/M
;
_chemical_formula_sum "Si O2"
_cell_formula_units_Z 48
_cell_length_a 17.369123
_cell_length_b 26.588486
_cell_length_c 9.081924
_cell_angle_alpha 90.000000
_cell_angle_beta 30.887312
_cell_angle_gamma 90.000000
_cell_volume 2153.098823
_symmetry_space_group_name_H-M "C 2/M"
_symmetry_group_IT_number 12
_symmetry_cell_setting 'monoclinic'
loop_
_space_group_symop_operation_xyz
x,y,z
-x,y,-z
-x,-y,-z
x,-y,z
1/2+x,1/2+y,z
1/2-x,1/2+y,-z
1/2-x,1/2-y,-z
1/2+x,1/2-y,z
loop_
_atom_site_type_symbol
_atom_site_label
_atom_site_fract_x
_atom_site_fract_y
_atom_site_fract_z
Si Si1 0.789047 0.136535 0.533883
Si Si2 0.738158 0.832344 0.919444
Si Si3 0.687139 0.223039 0.277533
Si Si4 0.675858 0.444456 0.757592
Si Si5 0.471013 0.262430 0.205981
Si Si6 0.565731 0.417099 0.247724
O O1 0.750123 0.101125 0.457957
O O2 0.860970 0.189785 0.367613
O O3 0.925813 0.106957 0.390217
O O4 0.682760 0.148038 0.850511
O O5 0.643011 0.810551 0.211584
O O6 0.833684 0.782319 0.724042
O O7 0.836596 0.874502 0.834431
O O8 0.601455 0.220558 0.571052
O O9 0.866925 0.218408 0.004334
O O10 0.736384 0.500000 0.618879
O O11 0.500000 0.443990 0.000000
O O12 0.667495 0.439517 0.949003
O O13 0.500000 0.239747 0.000000
O O14 0.500000 0.445825 0.500000
#
# Coordination Sequence:
#
# PCOD9204645 Si02
#       6
#     8   8   8   8   8   8
#     4   9  17  28  48  64  95 136 175 209 258 319
#     4   9  18  30  45  69  91 131 180 208 257 293
#     4  10  21  31  51  70 101 139 182 230 244 309
#     4   9  17  28  42  68  97 135 175 216 259 315
#     4  11  20  33  48  76 103 140 184 214 262 301
#     4   9  15  26  44  64  92 132 173 207 255 317
#
# _framework density 22.293451000000001
#
# number of rings (size 3 to 8) (size 9 to 14) (size 15 to 20)
#    0.000    2.500    1.667    2.000    2.333    2.333 
#    0.000    2.500    0.000    0.000    0.000    0.000 
#    0.000    0.000    0.000   49.500    0.000    3.500 
#
# Total GULP energy -133632.422095 kJ/mol
# GULP energy per Si atom -5568.017587 kJ/mol
# Density = 2.224271 g / cm^3
# Si number density = 22.293451 Si / 1000 Ang^3
#
#
#
# Elastic Constant Matrix: (Units=GPa)
#
#
# Indices 1 2 3 4 5 6 
#
# 1 73.6728 31.5560 48.3335 -0.0003 33.8364 -0.0007
# 2 31.5560 107.2334 50.5333 -0.0001 29.1147 -0.0001
# 3 48.3335 50.5333 155.5920 -0.0006 59.8999 -0.0018
# 4 -0.0003 -0.0001 -0.0006 -44.8876 0.0004 -35.2970
# 5 33.8364 29.1147 59.8999 0.0004 52.7574 0.0010
# 6 -0.0007 -0.0001 -0.0018 -35.2970 0.0010 -18.9898
#
#
#
# Elastic Compliance Matrix: (Units=1/GPa)
#
#
# Indices 1 2 3 4 5 6 
#
# 1 0.020205 -0.002513 -0.001786 -0.000001 -0.009544 0.000002
# 2 -0.002513 0.011718 -0.002054 0.000000 -0.002523 0.000000
# 3 -0.001786 -0.002054 0.012030 -0.000002 -0.011379 0.000003
# 4 -0.000001 0.000000 -0.000002 0.048262 0.000005 -0.089706
# 5 -0.009544 -0.002523 -0.011379 0.000005 0.039388 -0.000005
# 6 0.000002 0.000000 0.000003 -0.089706 -0.000005 0.114080
#
#
# Mechanical properties :
#
#
# Convention : Reuss Voigt Hill
#
# Bulk Modulus (GPa) = 32.00304 66.37155 49.18729
# Shear Modulus (GPa) = 18.60090 11.51436 15.05763
#
# Velocity S-wave (km/s) = 2.89167 2.27511 2.60172
# Velocity P-wave (km/s) = 5.05327 6.06118 5.58003
#
# Compressibility (1/GPa) = 0.03124703
#
# Stress axis : x y z
#
# Youngs Moduli (GPa) = 49.49269 85.34030 83.12664
#
# Poissons Ratio (x) = 0.21445 0.14848
# Poissons Ratio (y) = 0.12437 0.17072
# Poissons Ratio (z) = 0.08840 0.17527
#
# Static dielectric constant tensor:
#      x y z
#    x 1.927990 0.000000 0.016440 
#    y 0.000000 1.834600 0.000000 
#    z 0.016440 0.000000 2.026420 
# 
# From -- ./inp_files/53553.got.cif
#   From: 2010.05.17/outbox.cif.g08.bks.cpg/sg12_27_cif.got.tgz:53553.got - 2010.06.03 13:09:07.
