data_PCOD9204933
_publ_section_title
;
Structure prediction by ZEFSAII (Michael W. Deem and Ramdas Pophale) SiO2 
 PCOD9204933
Probable space group: C 2/M
;
_chemical_formula_sum "Si O2"
_cell_formula_units_Z 48
_cell_length_a 10.122264
_cell_length_b 27.489119
_cell_length_c 9.451360
_cell_angle_alpha 90.000000
_cell_angle_beta 104.316736
_cell_angle_gamma 90.000000
_cell_volume 2548.186787
_symmetry_space_group_name_H-M "C 2/M"
_symmetry_group_IT_number 12
_symmetry_cell_setting 'monoclinic'
loop_
_space_group_symop_operation_xyz
x,y,z
-x,y,-z
-x,-y,-z
x,-y,z
1/2+x,1/2+y,z
1/2-x,1/2+y,-z
1/2-x,1/2-y,-z
1/2+x,1/2-y,z
loop_
_atom_site_type_symbol
_atom_site_label
_atom_site_fract_x
_atom_site_fract_y
_atom_site_fract_z
Si Si1 0.297174 0.314568 0.802804
Si Si2 0.468093 0.353669 0.337940
Si Si3 0.498374 0.142700 0.335283
Si Si4 0.139133 0.106569 0.964988
Si Si5 0.736711 0.219544 0.349434
Si Si6 0.916749 0.554705 0.123020
O O1 0.395012 0.339647 0.711189
O O2 0.140511 0.327753 0.732018
O O3 0.310321 0.257264 0.783546
O O4 0.337021 0.339401 0.961481
O O5 0.500000 0.375626 0.500000
O O6 0.383120 0.387222 0.207694
O O7 0.379509 0.305448 0.347327
O O8 0.500000 0.130343 0.500000
O O9 0.626723 0.176889 0.336727
O O10 0.488748 0.093809 0.242420
O O11 0.266180 0.074535 0.046249
O O12 0.000000 0.088137 0.000000
O O13 0.750000 0.250000 0.500000
O O14 0.910782 0.500000 0.180028
O O15 0.000000 0.553671 0.000000
#
# Coordination Sequence:
#
# PCOD9204933 Si02
#       6
#     8   8   8   8   8   8
#     4  10  21  34  52  79 117 157 194 235 277 343
#     4  11  20  34  54  76 110 153 193 235 289 341
#     4  11  21  36  58  86 119 152 197 242 285 342
#     4   9  21  39  57  83 114 149 194 244 298 345
#     4  12  21  32  54  82 116 160 195 232 279 342
#     4  10  22  41  63  85 113 151 196 247 304 354
#
# _framework density 18.836924
#
# number of rings (size 3 to 8) (size 9 to 14) (size 15 to 20)
#    0.000    1.500    3.333    2.000    0.000    1.333 
#    0.000    7.500    0.000    0.500    0.000    0.000 
#    0.000    0.000    0.000    0.000    0.000    0.000 
#
# Total GULP energy -134022.837867 kJ/mol
# GULP energy per Si atom -5584.284911 kJ/mol
# Density = 1.879405 g / cm^3
# Si number density = 18.836924 Si / 1000 Ang^3
#
#
#
# Elastic Constant Matrix: (Units=GPa)
#
#
# Indices 1 2 3 4 5 6 
#
# 1 84.3197 32.3185 17.4990 0.0000 5.4094 0.0000
# 2 32.3185 123.4279 46.0821 0.0000 5.2599 0.0000
# 3 17.4990 46.0821 104.1427 0.0000 9.5129 0.0000
# 4 0.0000 0.0000 0.0000 23.0378 0.0000 -0.4792
# 5 5.4094 5.2599 9.5129 0.0000 23.3241 0.0000
# 6 0.0000 0.0000 0.0000 -0.4792 0.0000 20.7770
#
#
#
# Elastic Compliance Matrix: (Units=1/GPa)
#
#
# Indices 1 2 3 4 5 6 
#
# 1 0.013342 -0.003161 -0.000650 0.000000 -0.002116 0.000000
# 2 -0.003161 0.010459 -0.004101 0.000000 0.000047 0.000000
# 3 -0.000650 -0.004101 0.011870 0.000000 -0.003766 0.000000
# 4 0.000000 0.000000 0.000000 0.043428 0.000000 0.001002
# 5 -0.002116 0.000047 -0.003766 0.000000 0.044890 0.000000
# 6 0.000000 0.000000 0.000000 0.001002 0.000000 0.048153
#
#
# Mechanical properties :
#
#
# Convention : Reuss Voigt Hill
#
# Bulk Modulus (GPa) = 50.38488 55.96550 53.17519
# Shear Modulus (GPa) = 25.69631 27.82716 26.76173
#
# Velocity S-wave (km/s) = 3.69744 3.84769 3.77331
# Velocity P-wave (km/s) = 6.71075 7.03667 6.87564
#
# Compressibility (1/GPa) = 0.01984722
#
# Stress axis : x y z
#
# Youngs Moduli (GPa) = 74.95312 95.61523 84.24539
#
# Poissons Ratio (x) = 0.30220 0.05476
# Poissons Ratio (y) = 0.23689 0.34550
# Poissons Ratio (z) = 0.04872 0.39212
#
# Static dielectric constant tensor:
#      x y z
#    x 1.666490 0.000000 0.014990 
#    y 0.000000 1.639280 0.000000 
#    z 0.014990 0.000000 1.676920 
# 
# From -- ./inp_files/42181.got.cif
#   From: 2010.05.17/outbox.cif.g08.bks.cpg/sg12_22_cif.got.tgz:42181.got - 2010.06.03 13:09:07.
