data_PCOD9204061
_publ_section_title
;
Structure prediction by ZEFSAII (Michael W. Deem and Ramdas Pophale) SiO2 
 PCOD9204061
Probable space group: C 2/M
;
_chemical_formula_sum "Si O2"
_cell_formula_units_Z 40
_cell_length_a 19.524458
_cell_length_b 8.829641
_cell_length_c 25.398340
_cell_angle_alpha 90.000000
_cell_angle_beta 27.149941
_cell_angle_gamma 90.000000
_cell_volume 1998.009328
_symmetry_space_group_name_H-M "C 2/M"
_symmetry_group_IT_number 12
_symmetry_cell_setting 'monoclinic'
loop_
_space_group_symop_operation_xyz
x,y,z
-x,y,-z
-x,-y,-z
x,-y,z
1/2+x,1/2+y,z
1/2-x,1/2+y,-z
1/2-x,1/2-y,-z
1/2+x,1/2-y,z
loop_
_atom_site_type_symbol
_atom_site_label
_atom_site_fract_x
_atom_site_fract_y
_atom_site_fract_z
Si Si1 0.352344 0.317591 0.975138
Si Si2 0.620331 0.679572 0.340836
Si Si3 0.322015 0.681110 0.289529
Si Si4 0.215653 0.181496 0.466382
Si Si5 0.821309 0.178163 0.113843
O O1 0.346358 0.500000 0.978257
O O2 0.525385 0.275653 0.845639
O O3 0.250000 0.250000 0.000000
O O4 0.296175 0.270343 0.071169
O O5 0.623533 0.500000 0.347863
O O6 0.682633 0.760261 0.350331
O O7 0.453148 0.721737 0.436894
O O8 0.730970 0.726520 0.217927
O O9 0.316169 0.500000 0.297525
O O10 0.320293 0.753206 0.348587
O O11 0.250000 0.250000 0.500000
O O12 0.228371 0.000000 0.459999
O O13 0.780096 0.000000 0.147980
O O14 0.000000 0.187392 0.000000
#
# Coordination Sequence:
#
# PCOD9204061 Si02
#       5
#     8   8   8   8   8
#     4  10  23  40  61  91 127 163 202 252 306 364
#     4  11  24  41  64  94 126 161 206 259 306 363
#     4  11  23  43  67  92 124 164 209 254 306 370
#     4  11  26  45  64  92 126 161 206 259 311 366
#     4  10  20  40  64  90 124 162 205 250 301 366
#
# _framework density 20.019926000000002
#
# number of rings (size 3 to 8) (size 9 to 14) (size 15 to 20)
#    0.000    1.400    2.000    2.400    2.800    8.400 
#    0.000    0.000    0.000    0.000    0.000    0.000 
#    0.000    0.000    0.000    0.000    0.000    0.000 
#
# Total GULP energy -111845.133199 kJ/mol
# GULP energy per Si atom -5592.256660 kJ/mol
# Density = 1.997436 g / cm^3
# Si number density = 20.019926 Si / 1000 Ang^3
#
#
#
# Elastic Constant Matrix: (Units=GPa)
#
#
# Indices 1 2 3 4 5 6 
#
# 1 137.2174 30.1631 16.0998 0.0003 19.3535 -0.0001
# 2 30.1631 29.9802 18.1498 0.0000 -0.3351 -0.0003
# 3 16.0998 18.1498 55.0720 0.0002 13.4593 0.0000
# 4 0.0003 0.0000 0.0002 29.6615 -0.0001 0.7806
# 5 19.3535 -0.3351 13.4593 -0.0001 38.3318 0.0000
# 6 -0.0001 -0.0003 0.0000 0.7806 0.0000 40.8958
#
#
#
# Elastic Compliance Matrix: (Units=1/GPa)
#
#
# Indices 1 2 3 4 5 6 
#
# 1 0.010570 -0.012203 0.002474 0.000000 -0.006312 0.000000
# 2 -0.012203 0.056916 -0.018396 0.000000 0.013118 0.000000
# 3 0.002474 -0.018396 0.026080 0.000000 -0.010567 0.000000
# 4 0.000000 0.000000 0.000000 0.033731 0.000000 -0.000644
# 5 -0.006312 0.013118 -0.010567 0.000000 0.033100 0.000000
# 6 0.000000 0.000000 0.000000 -0.000644 0.000000 0.024465
#
#
# Mechanical properties :
#
#
# Convention : Reuss Voigt Hill
#
# Bulk Modulus (GPa) = 26.79771 39.01056 32.90413
# Shear Modulus (GPa) = 19.71988 32.30162 26.01075
#
# Velocity S-wave (km/s) = 3.14190 4.02116 3.60841
# Velocity P-wave (km/s) = 5.15525 6.40998 5.81655
#
# Compressibility (1/GPa) = 0.03731662
#
# Stress axis : x y z
#
# Youngs Moduli (GPa) = 94.60575 17.56962 38.34342
#
# Poissons Ratio (x) = 0.21440 -0.09487
# Poissons Ratio (y) = 1.15449 0.70537
# Poissons Ratio (z) = -0.23408 0.32321
#
# Static dielectric constant tensor:
#      x y z
#    x 1.693940 0.000000 0.000680 
#    y 0.000000 1.669550 0.000000 
#    z 0.000680 0.000000 1.711100 
# 
# From -- ./inp_files/151635.got.cif
#   From: 2010.05.17/outbox.cif.g08.bks.cpg/sg12_76_cif.got.tgz:151635.got - 2010.06.03 13:09:07.
