data_PCOD9204189
_publ_section_title
;
Structure prediction by ZEFSAII (Michael W. Deem and Ramdas Pophale) SiO2 
 PCOD9204189
Probable space group: C 2/M
;
_chemical_formula_sum "Si O2"
_cell_formula_units_Z 38
_cell_length_a 9.522227
_cell_length_b 14.654535
_cell_length_c 21.062196
_cell_angle_alpha 90.000000
_cell_angle_beta 35.649692
_cell_angle_gamma 90.000000
_cell_volume 1712.989059
_symmetry_space_group_name_H-M "C 2/M"
_symmetry_group_IT_number 12
_symmetry_cell_setting 'monoclinic'
loop_
_space_group_symop_operation_xyz
x,y,z
-x,y,-z
-x,-y,-z
x,-y,z
1/2+x,1/2+y,z
1/2-x,1/2+y,-z
1/2-x,1/2-y,-z
1/2+x,1/2-y,z
loop_
_atom_site_type_symbol
_atom_site_label
_atom_site_fract_x
_atom_site_fract_y
_atom_site_fract_z
Si Si1 0.140037 0.500000 0.094173
Si Si2 0.802550 0.664891 0.719695
Si Si3 0.567301 0.500000 0.733248
Si Si4 0.500000 0.000000 0.000000
Si Si5 0.618542 0.500000 0.343446
Si Si6 0.202995 0.182976 0.381988
Si Si7 0.578858 0.679594 0.031026
O O1 0.071854 0.500000 0.045957
O O2 0.904021 0.500000 0.222949
O O3 0.286413 0.592797 0.047941
O O4 0.726853 0.585477 0.698701
O O5 0.750114 0.756380 0.698108
O O6 0.623027 0.653949 0.845011
O O7 0.064584 0.667052 0.657872
O O8 0.516074 0.500000 0.675663
O O9 0.304735 0.500000 0.865039
O O10 0.585022 0.590163 0.397815
O O11 0.000000 0.230304 0.500000
O O12 0.500000 0.738028 0.000000
O O13 0.750000 0.750000 0.000000
#
# Coordination Sequence:
#
# PCOD9204189 Si02
#       7
#     4   8   4   2   4   8   8
#     4  11  22  40  65  95 138 176 214 266 336 412
#     4  12  24  46  69 104 138 190 234 291 353 423
#     4  11  24  43  73 102 145 183 229 280 344 434
#     4  10  20  40  66  98 136 184 214 262 330 400
#     4  11  24  44  71 103 138 187 232 293 355 421
#     4  12  27  49  72  99 139 185 246 308 355 402
#     4  12  25  39  64  99 139 179 220 270 337 419
#
# _framework density 22.183444999999999
#
# number of rings (size 3 to 8) (size 9 to 14) (size 15 to 20)
#    0.000    0.421    2.105    6.947    1.474    1.684 
#    0.000    1.579    0.000    0.000    0.000    0.000 
#    0.000    0.000    0.000    0.000    0.000    0.000 
#
# Total GULP energy -105830.046155 kJ/mol
# GULP energy per Si atom -5570.002429 kJ/mol
# Density = 2.213295 g / cm^3
# Si number density = 22.183445 Si / 1000 Ang^3
#
#
#
# Elastic Constant Matrix: (Units=GPa)
#
#
# Indices 1 2 3 4 5 6 
#
# 1 205.6965 40.6573 25.8706 0.0014 -8.9482 0.0103
# 2 40.6573 86.3671 -14.8501 0.0007 3.2618 0.0056
# 3 25.8706 -14.8501 58.8283 0.0020 8.9950 0.0160
# 4 0.0014 0.0007 0.0020 35.6282 -0.0005 27.9308
# 5 -8.9482 3.2618 8.9950 -0.0005 35.4858 -0.0113
# 6 0.0103 0.0056 0.0160 27.9308 -0.0113 77.5288
#
#
#
# Elastic Compliance Matrix: (Units=1/GPa)
#
#
# Indices 1 2 3 4 5 6 
#
# 1 0.006261 -0.003776 -0.004162 -0.000001 0.002981 0.000001
# 2 -0.003776 0.014514 0.005902 0.000002 -0.003782 -0.000003
# 3 -0.004162 0.005902 0.021391 0.000004 -0.007014 -0.000007
# 4 -0.000001 0.000002 0.000004 0.039115 -0.000005 -0.014092
# 5 0.002981 -0.003782 -0.007014 -0.000005 0.031058 0.000008
# 6 0.000001 -0.000003 -0.000007 -0.014092 0.000008 0.017975
#
#
# Mechanical properties :
#
#
# Convention : Reuss Voigt Hill
#
# Bulk Modulus (GPa) = 26.25011 50.47196 38.36104
# Shear Modulus (GPa) = 33.99450 49.67618 41.83534
#
# Velocity S-wave (km/s) = 3.91887 4.73730 4.34738
# Velocity P-wave (km/s) = 5.68644 7.26114 6.52149
#
# Compressibility (1/GPa) = 0.03809507
#
# Stress axis : x y z
#
# Youngs Moduli (GPa) = 159.72006 68.90125 46.74765
#
# Poissons Ratio (x) = 0.26014 0.19457
# Poissons Ratio (y) = 0.60303 -0.27592
# Poissons Ratio (z) = 0.66479 -0.40668
#
# Static dielectric constant tensor:
#      x y z
#    x 1.732170 0.000000 0.033010 
#    y 0.000000 1.835450 0.000000 
#    z 0.033010 0.000000 1.749880 
# 
# From -- ./inp_files/300117.got.cif
#   From: 2010.05.17/outbox.cif.g08.bks.cpg/sg12_151_cif.got.tgz:300117.got - 2010.06.03 13:09:07.
