data_PCOD9204902
_publ_section_title
;
Structure prediction by ZEFSAII (Michael W. Deem and Ramdas Pophale) SiO2 
 PCOD9204902
Probable space group: C 2/M
;
_chemical_formula_sum "Si O2"
_cell_formula_units_Z 60
_cell_length_a 25.023953
_cell_length_b 15.599156
_cell_length_c 6.979197
_cell_angle_alpha 90.000000
_cell_angle_beta 89.119408
_cell_angle_gamma 90.000000
_cell_volume 2724.025565
_symmetry_space_group_name_H-M "C 2/M"
_symmetry_group_IT_number 12
_symmetry_cell_setting 'monoclinic'
loop_
_space_group_symop_operation_xyz
x,y,z
-x,y,-z
-x,-y,-z
x,-y,z
1/2+x,1/2+y,z
1/2-x,1/2+y,-z
1/2-x,1/2-y,-z
1/2+x,1/2-y,z
loop_
_atom_site_type_symbol
_atom_site_label
_atom_site_fract_x
_atom_site_fract_y
_atom_site_fract_z
Si Si1 0.895493 0.768408 0.879378
Si Si2 0.362196 0.270584 0.330825
Si Si3 0.446865 0.407020 0.377714
Si Si4 0.313429 0.096976 0.291682
Si Si5 0.306736 0.597356 0.807093
Si Si6 0.725398 0.403140 0.740186
Si Si7 0.500000 0.351277 0.000000
Si Si8 0.154799 0.404170 0.162982
O O1 0.854061 0.834546 0.784001
O O2 0.956843 0.797208 0.880993
O O3 0.885506 0.673307 0.803269
O O4 0.877635 0.767633 0.104099
O O5 0.410641 0.324324 0.417800
O O6 0.347180 0.173578 0.382402
O O7 0.310182 0.330379 0.352270
O O8 0.500000 0.404596 0.500000
O O9 0.420015 0.500000 0.411521
O O10 0.465378 0.403245 0.155101
O O11 0.249666 0.115020 0.295071
O O12 0.322413 0.000000 0.362167
O O13 0.329682 0.095991 0.064818
O O14 0.323918 0.500000 0.762708
O O15 0.291169 0.598388 0.033991
O O16 0.714613 0.500000 0.672227
O O17 0.788718 0.388353 0.734487
O O18 0.135444 0.500000 0.208636
#
# Coordination Sequence:
#
# PCOD9204902 Si02
#       8
#     8   8   8   8   8   8   4   8
#     4   9  16  25  38  60  90 123 160 198 238 282
#     4   9  15  24  41  63  90 123 156 194 238 284
#     4  10  21  36  53  74 100 128 159 197 239 282
#     4   8  13  21  35  59  90 122 156 194 237 284
#     4   8  13  20  32  55  88 121 152 191 238 285
#     4   8  12  18  32  57  87 118 152 191 238 289
#     4  10  21  34  51  72  98 130 165 200 235 278
#     4   8  13  21  34  56  89 123 155 197 242 283
#
# _framework density 22.026225
#
# number of rings (size 3 to 8) (size 9 to 14) (size 15 to 20)
#    0.000    3.333    0.000    3.000    0.000    6.933 
#    0.000    0.333    0.000    1.200    0.000    3.733 
#    0.000    4.267    0.000    0.533    0.000    0.000 
#
# Total GULP energy -167610.250080 kJ/mol
# GULP energy per Si atom -5587.008336 kJ/mol
# Density = 2.197609 g / cm^3
# Si number density = 22.026225 Si / 1000 Ang^3
#
#
#
# Elastic Constant Matrix: (Units=GPa)
#
#
# Indices 1 2 3 4 5 6 
#
# 1 81.8814 91.2406 18.4463 0.0000 17.9636 0.0000
# 2 91.2406 184.2417 21.3316 0.0000 39.5123 0.0000
# 3 18.4463 21.3316 77.7659 0.0000 -0.5582 0.0000
# 4 0.0000 0.0000 0.0000 1.6549 0.0000 16.1266
# 5 17.9636 39.5123 -0.5582 0.0000 40.1642 0.0000
# 6 0.0000 0.0000 0.0000 16.1266 0.0000 -31.1305
#
#
#
# Elastic Compliance Matrix: (Units=1/GPa)
#
#
# Indices 1 2 3 4 5 6 
#
# 1 0.027905 -0.013692 -0.002857 0.000000 0.000950 0.000000
# 2 -0.013692 0.013902 -0.000620 0.000000 -0.007561 0.000000
# 3 -0.002857 -0.000620 0.013722 0.000000 0.002078 0.000000
# 4 0.000000 0.000000 0.000000 0.099910 0.000000 0.051757
# 5 0.000950 -0.007561 0.002078 0.000000 0.031940 0.000000
# 6 0.000000 0.000000 0.000000 0.051757 0.000000 -0.005311
#
#
# Mechanical properties :
#
#
# Convention : Reuss Voigt Hill
#
# Bulk Modulus (GPa) = 47.18883 67.32512 57.25698
# Shear Modulus (GPa) = 22.37455 16.32908 19.35181
#
# Velocity S-wave (km/s) = 3.19064 2.72572 2.96730
# Velocity P-wave (km/s) = 5.91980 6.36697 6.14745
#
# Compressibility (1/GPa) = 0.02119146
#
# Stress axis : x y z
#
# Youngs Moduli (GPa) = 35.83553 71.93444 72.87784
#
# Poissons Ratio (x) = 0.98494 0.20818
# Poissons Ratio (y) = 0.49067 0.04516
# Poissons Ratio (z) = 0.10237 0.04458
#
# Static dielectric constant tensor:
#      x y z
#    x 1.753760 0.000000 -0.032010 
#    y 0.000000 1.795580 0.000000 
#    z -0.032010 0.000000 1.909030 
# 
# From -- ./inp_files/111290.got.cif
#   From: 2010.05.17/outbox.cif.g08.bks.cpg/sg12_56_cif.got.tgz:111290.got - 2010.06.03 13:09:07.
