data_PCOD9204844
_publ_section_title
;
Structure prediction by ZEFSAII (Michael W. Deem and Ramdas Pophale) SiO2 
 PCOD9204844
Probable space group: C 2/M
;
_chemical_formula_sum "Si O2"
_cell_formula_units_Z 40
_cell_length_a 17.157157
_cell_length_b 9.737156
_cell_length_c 25.036317
_cell_angle_alpha 90.000000
_cell_angle_beta 147.384296
_cell_angle_gamma 90.000000
_cell_volume 2254.436492
_symmetry_space_group_name_H-M "C 2/M"
_symmetry_group_IT_number 12
_symmetry_cell_setting 'monoclinic'
loop_
_space_group_symop_operation_xyz
x,y,z
-x,y,-z
-x,-y,-z
x,-y,z
1/2+x,1/2+y,z
1/2-x,1/2+y,-z
1/2-x,1/2-y,-z
1/2+x,1/2-y,z
loop_
_atom_site_type_symbol
_atom_site_label
_atom_site_fract_x
_atom_site_fract_y
_atom_site_fract_z
Si Si1 0.783615 0.236180 0.760978
Si Si2 0.316283 0.000000 0.132949
Si Si3 0.933229 0.500000 0.807754
Si Si4 0.457110 0.500000 0.736525
Si Si5 0.664802 0.707874 0.806440
Si Si6 0.513916 0.500000 0.894950
Si Si7 0.654400 0.000000 0.616458
Si Si8 0.383447 0.000000 0.979106
O O1 0.840596 0.361045 0.757783
O O2 0.710188 0.302385 0.770815
O O3 0.680235 0.133693 0.668539
O O4 0.919123 0.135760 0.854571
O O5 0.326722 0.134056 0.174756
O O6 0.456142 0.000000 0.176486
O O7 0.168274 0.000000 0.012828
O O8 0.034272 0.500000 0.918406
O O9 0.517702 0.631188 0.738994
O O10 0.523755 0.500000 0.835642
O O11 0.286826 0.500000 0.650246
O O12 0.783033 0.630853 0.911140
O O13 0.500000 0.000000 0.500000
O O14 0.500000 0.000000 0.000000
#
# Coordination Sequence:
#
# PCOD9204844 Si02
#       8
#     8   4   4   4   8   4   4   4
#     4  10  21  37  57  77 107 142 185 223 278 326
#     4  12  22  28  48  81 115 147 195 232 255 287
#     4  12  21  34  54  81 114 154 187 226 257 313
#     4   9  20  39  56  75 108 143 179 219 282 333
#     4  11  21  34  53  81 114 149 182 229 266 309
#     4  10  21  34  46  75 114 160 191 219 249 315
#     4  10  22  44  66  79 100 139 178 224 291 361
#     4  11  20  33  52  77 115 161 194 206 249 309
#
# _framework density 17.742792000000001
#
# number of rings (size 3 to 8) (size 9 to 14) (size 15 to 20)
#    0.000    1.600    2.000    6.600    0.000    3.200 
#    0.000    1.500    0.000    0.000    0.000    0.000 
#    0.000    0.000    0.000    0.000    0.000    0.000 
#
# Total GULP energy -111641.905497 kJ/mol
# GULP energy per Si atom -5582.095275 kJ/mol
# Density = 1.770241 g / cm^3
# Si number density = 17.742792 Si / 1000 Ang^3
#
#
#
# Elastic Constant Matrix: (Units=GPa)
#
#
# Indices 1 2 3 4 5 6 
#
# 1 73.1625 -10.0276 10.6972 0.0000 14.0433 0.0000
# 2 -10.0276 92.7348 20.3127 0.0000 5.1541 0.0000
# 3 10.6972 20.3127 85.1228 0.0000 9.4980 0.0000
# 4 0.0000 0.0000 0.0000 11.1137 0.0000 2.8754
# 5 14.0433 5.1541 9.4980 0.0000 15.7699 0.0000
# 6 0.0000 0.0000 0.0000 2.8754 0.0000 38.6309
#
#
#
# Elastic Compliance Matrix: (Units=1/GPa)
#
#
# Indices 1 2 3 4 5 6 
#
# 1 0.017247 0.002983 -0.001133 0.000000 -0.015651 0.000000
# 2 0.002983 0.011968 -0.002678 0.000000 -0.004955 0.000000
# 3 -0.001133 -0.002678 0.013206 0.000000 -0.006070 0.000000
# 4 0.000000 0.000000 0.000000 0.091745 0.000000 -0.006829
# 5 -0.015651 -0.004955 -0.006070 0.000000 0.082625 0.000000
# 6 0.000000 0.000000 0.000000 -0.006829 0.000000 0.026394
#
#
# Mechanical properties :
#
#
# Convention : Reuss Voigt Hill
#
# Bulk Modulus (GPa) = 24.53042 32.55385 28.54214
# Shear Modulus (GPa) = 19.34761 28.43877 23.89319
#
# Velocity S-wave (km/s) = 3.30578 4.00789 3.67364
# Velocity P-wave (km/s) = 5.33165 6.30912 5.84087
#
# Compressibility (1/GPa) = 0.04076572
#
# Stress axis : x y z
#
# Youngs Moduli (GPa) = 57.98152 83.55648 75.72086
#
# Poissons Ratio (x) = -0.24925 0.08578
# Poissons Ratio (y) = -0.17296 0.20277
# Poissons Ratio (z) = 0.06568 0.22375
#
# Static dielectric constant tensor:
#      x y z
#    x 1.548840 0.000000 0.033830 
#    y 0.000000 1.616220 0.000000 
#    z 0.033830 0.000000 1.571210 
# 
# From -- ./inp_files/220218.got.cif
#   From: 2010.05.17/outbox.cif.g08.bks.cpg/sg12_111_cif.got.tgz:220218.got - 2010.06.03 13:09:07.
