data_PCOD9204913
_publ_section_title
;
Structure prediction by ZEFSAII (Michael W. Deem and Ramdas Pophale) SiO2 
 PCOD9204913
Probable space group: C 2/M
;
_chemical_formula_sum "Si O2"
_cell_formula_units_Z 64
_cell_length_a 19.751983
_cell_length_b 9.833163
_cell_length_c 17.905624
_cell_angle_alpha 90.000000
_cell_angle_beta 63.697654
_cell_angle_gamma 90.000000
_cell_volume 3117.657001
_symmetry_space_group_name_H-M "C 2/M"
_symmetry_group_IT_number 12
_symmetry_cell_setting 'monoclinic'
loop_
_space_group_symop_operation_xyz
x,y,z
-x,y,-z
-x,-y,-z
x,-y,z
1/2+x,1/2+y,z
1/2-x,1/2+y,-z
1/2-x,1/2-y,-z
1/2+x,1/2-y,z
loop_
_atom_site_type_symbol
_atom_site_label
_atom_site_fract_x
_atom_site_fract_y
_atom_site_fract_z
Si Si1 0.344409 0.160143 0.396067
Si Si2 0.755328 0.157456 0.799903
Si Si3 0.031632 0.648092 0.793037
Si Si4 0.977534 0.147316 0.926013
Si Si5 0.743070 0.163507 0.341213
Si Si6 0.143787 0.648729 0.169596
Si Si7 0.841975 0.650555 0.001537
Si Si8 0.083123 0.663267 0.482380
O O1 0.410726 0.160820 0.302223
O O2 0.281713 0.262335 0.393644
O O3 0.116651 0.292881 0.546048
O O4 0.318989 0.000000 0.416140
O O5 0.728681 0.254223 0.745526
O O6 0.832317 0.226728 0.791314
O O7 0.705132 0.160910 0.899821
O O8 0.761301 0.000000 0.773153
O O9 0.044037 0.500000 0.822464
O O10 0.037142 0.765229 0.850845
O O11 0.945236 0.653178 0.805283
O O12 0.968001 0.000000 0.895415
O O13 0.900250 0.228465 0.967665
O O14 0.000000 0.135072 0.000000
O O15 0.652394 0.185982 0.391603
O O16 0.757111 0.000000 0.333094
O O17 0.159812 0.500000 0.196703
O O18 0.189966 0.651771 0.067960
O O19 0.879438 0.500000 0.987037
O O20 0.074827 0.500000 0.493397
O O21 0.000000 0.716502 0.500000
#
# Coordination Sequence:
#
# PCOD9204913 Si02
#       8
#     8   8   8   8   8   8   8   8
#     4  10  21  40  67  94 124 161 203 249 298 363
#     4  11  23  37  57  86 121 159 202 249 301 362
#     4   9  20  36  58  86 115 157 203 245 295 357
#     4  10  21  34  51  78 114 152 197 252 301 347
#     4  11  24  40  62  93 127 163 200 249 305 361
#     4   9  18  35  57  84 115 152 204 257 304 354
#     4   9  20  37  55  77 108 155 207 248 297 360
#     4   9  20  40  70  99 121 155 202 246 295 363
#
# _framework density 20.528237000000001
#
# number of rings (size 3 to 8) (size 9 to 14) (size 15 to 20)
#    0.000    2.250    0.000    2.625    3.500    4.500 
#    0.000    0.625    0.000    1.875    0.000    0.000 
#    0.000    0.000    0.000    0.000    0.000    0.000 
#
# Total GULP energy -178323.085586 kJ/mol
# GULP energy per Si atom -5572.596425 kJ/mol
# Density = 2.048151 g / cm^3
# Si number density = 20.528237 Si / 1000 Ang^3
#
#
#
# Elastic Constant Matrix: (Units=GPa)
#
#
# Indices 1 2 3 4 5 6 
#
# 1 78.2769 43.1411 28.3182 0.0000 3.1848 0.0000
# 2 43.1411 140.0873 42.8861 0.0000 5.5835 0.0000
# 3 28.3182 42.8861 69.1127 0.0000 2.1644 0.0000
# 4 0.0000 0.0000 0.0000 11.5580 0.0000 12.8861
# 5 3.1848 5.5835 2.1644 0.0000 25.1872 0.0000
# 6 0.0000 0.0000 0.0000 12.8861 0.0000 11.1384
#
#
#
# Elastic Compliance Matrix: (Units=1/GPa)
#
#
# Indices 1 2 3 4 5 6 
#
# 1 0.016436 -0.003671 -0.004429 0.000000 -0.000884 0.000000
# 2 -0.003671 0.009688 -0.004467 0.000000 -0.001300 0.000000
# 3 -0.004429 -0.004467 0.019059 0.000000 -0.000087 0.000000
# 4 0.000000 0.000000 0.000000 -0.298502 0.000000 0.345339
# 5 -0.000884 -0.001300 -0.000087 0.000000 0.040110 0.000000
# 6 0.000000 0.000000 0.000000 0.345339 0.000000 -0.309745
#
#
# Mechanical properties :
#
#
# Convention : Reuss Voigt Hill
#
# Bulk Modulus (GPa) = 49.87679 57.35197 53.61438
# Shear Modulus (GPa) = -10.18046 21.11883 5.46918
#
# Velocity S-wave (km/s) = -2.22935 3.21092 1.63402
# Velocity P-wave (km/s) = 4.20984 6.46107 5.45290
#
# Compressibility (1/GPa) = 0.02004941
#
# Stress axis : x y z
#
# Youngs Moduli (GPa) = 60.84031 103.21918 52.46970
#
# Poissons Ratio (x) = 0.37887 0.23240
# Poissons Ratio (y) = 0.22332 0.23438
# Poissons Ratio (z) = 0.26948 0.46108
#
# Static dielectric constant tensor:
#      x y z
#    x 1.778380 0.000000 0.015960 
#    y 0.000000 1.781510 0.000000 
#    z 0.015960 0.000000 1.767650 
# 
# From -- ./inp_files/348518.got.cif
#   From: 2010.05.17/outbox.cif.g08.bks.cpg/sg12_175_cif.got.tgz:348518.got - 2010.06.03 13:09:07.
