data_PCOD9204832
_publ_section_title
;
Structure prediction by ZEFSAII (Michael W. Deem and Ramdas Pophale) SiO2 
 PCOD9204832
Probable space group: C 2/M
;
_chemical_formula_sum "Si O2"
_cell_formula_units_Z 56
_cell_length_a 17.837473
_cell_length_b 25.301921
_cell_length_c 8.907916
_cell_angle_alpha 90.000000
_cell_angle_beta 133.871258
_cell_angle_gamma 90.000000
_cell_volume 2898.259556
_symmetry_space_group_name_H-M "C 2/M"
_symmetry_group_IT_number 12
_symmetry_cell_setting 'monoclinic'
loop_
_space_group_symop_operation_xyz
x,y,z
-x,y,-z
-x,-y,-z
x,-y,z
1/2+x,1/2+y,z
1/2-x,1/2+y,-z
1/2-x,1/2-y,-z
1/2+x,1/2-y,z
loop_
_atom_site_type_symbol
_atom_site_label
_atom_site_fract_x
_atom_site_fract_y
_atom_site_fract_z
Si Si1 0.025449 0.256263 0.863333
Si Si2 0.818375 0.192735 0.501939
Si Si3 0.743495 0.438651 0.998113
Si Si4 0.593269 0.592684 0.529879
Si Si5 0.771273 0.211061 0.772103
Si Si6 0.054696 0.060581 0.933278
Si Si7 0.600027 0.845666 0.738933
O O1 0.059696 0.306034 0.812002
O O2 0.922599 0.227981 0.658799
O O3 0.116695 0.212224 0.993983
O O4 0.000000 0.271114 0.000000
O O5 0.843397 0.137358 0.465655
O O6 0.774991 0.186446 0.610294
O O7 0.746536 0.227060 0.292948
O O8 0.773220 0.500000 0.066038
O O9 0.837977 0.397589 0.119919
O O10 0.671102 0.437027 0.749185
O O11 0.663726 0.418998 0.018935
O O12 0.500000 0.617205 0.500000
O O13 0.529873 0.560428 0.317168
O O14 0.682040 0.187202 0.750837
O O15 0.078565 0.000000 0.008752
O O16 0.000000 0.087840 0.000000
O O17 0.500000 0.860294 0.500000
#
# Coordination Sequence:
#
# PCOD9204832 Si02
#       7
#     8   8   8   8   8   8   8
#     4  10  22  39  60  88 125 158 190 240 296 359
#     4  10  21  36  56  90 121 152 191 242 287 358
#     4  10  23  42  60  86 118 158 205 251 305 352
#     4  10  21  33  60  88 121 155 188 234 302 369
#     4  10  22  37  57  85 123 158 193 234 296 351
#     4   9  19  36  60  90 121 149 187 245 305 361
#     4  12  24  40  63  86 114 162 210 252 293 349
#
# _framework density 19.321940999999999
#
# number of rings (size 3 to 8) (size 9 to 14) (size 15 to 20)
#    0.000    1.857    1.429    1.714    8.000    2.571 
#    0.000    0.000    0.000    0.429    0.000    0.000 
#    0.000    0.000    0.000    0.000    0.000    0.000 
#
# Total GULP energy -156271.713427 kJ/mol
# GULP energy per Si atom -5581.132622 kJ/mol
# Density = 1.927796 g / cm^3
# Si number density = 19.321941 Si / 1000 Ang^3
#
#
#
# Elastic Constant Matrix: (Units=GPa)
#
#
# Indices 1 2 3 4 5 6 
#
# 1 96.0232 37.8330 22.2718 0.0000 4.6825 0.0000
# 2 37.8330 61.9198 -0.3246 0.0000 -4.2980 0.0000
# 3 22.2718 -0.3246 70.4543 0.0000 8.2138 0.0000
# 4 0.0000 0.0000 0.0000 -1.1045 0.0000 11.9861
# 5 4.6825 -4.2980 8.2138 0.0000 21.2135 0.0000
# 6 0.0000 0.0000 0.0000 11.9861 0.0000 17.3553
#
#
#
# Elastic Compliance Matrix: (Units=1/GPa)
#
#
# Indices 1 2 3 4 5 6 
#
# 1 0.015471 -0.009729 -0.004511 0.000000 -0.003639 0.000000
# 2 -0.009729 0.022506 0.002511 0.000000 0.005735 0.000000
# 3 -0.004511 0.002511 0.016187 0.000000 -0.004763 0.000000
# 4 0.000000 0.000000 0.000000 -0.106581 0.000000 0.073608
# 5 -0.003639 0.005735 -0.004763 0.000000 0.050949 0.000000
# 6 0.000000 0.000000 0.000000 0.073608 0.000000 0.006783
#
#
# Mechanical properties :
#
#
# Convention : Reuss Voigt Hill
#
# Bulk Modulus (GPa) = 32.56923 38.66198 35.61561
# Shear Modulus (GPa) = 128.17609 18.73400 73.45505
#
# Velocity S-wave (km/s) = 8.15359 3.11717 6.17243
# Velocity P-wave (km/s) = 10.27298 5.74530 8.32294
#
# Compressibility (1/GPa) = 0.03070383
#
# Stress axis : x y z
#
# Youngs Moduli (GPa) = 64.63593 44.43315 61.77979
#
# Poissons Ratio (x) = 0.43230 0.27871
# Poissons Ratio (y) = 0.62886 -0.15511
# Poissons Ratio (z) = 0.29159 -0.11156
#
# Static dielectric constant tensor:
#      x y z
#    x 1.699140 0.000000 -0.002960 
#    y 0.000000 1.671640 0.000000 
#    z -0.002960 0.000000 1.690840 
# 
# From -- ./inp_files/65739.got.cif
#   From: 2010.05.17/outbox.cif.g08.bks.cpg/sg12_33_cif.got.tgz:65739.got - 2010.06.03 13:09:07.
