data_PCOD9204273
_publ_section_title
;
Structure prediction by ZEFSAII (Michael W. Deem and Ramdas Pophale) SiO2 
 PCOD9204273
Probable space group: C 2/M
;
_chemical_formula_sum "Si O2"
_cell_formula_units_Z 42
_cell_length_a 11.767569
_cell_length_b 21.106046
_cell_length_c 8.752614
_cell_angle_alpha 90.000000
_cell_angle_beta 118.901217
_cell_angle_gamma 90.000000
_cell_volume 1903.114293
_symmetry_space_group_name_H-M "C 2/M"
_symmetry_group_IT_number 12
_symmetry_cell_setting 'monoclinic'
loop_
_space_group_symop_operation_xyz
x,y,z
-x,y,-z
-x,-y,-z
x,-y,z
1/2+x,1/2+y,z
1/2-x,1/2+y,-z
1/2-x,1/2-y,-z
1/2+x,1/2-y,z
loop_
_atom_site_type_symbol
_atom_site_label
_atom_site_fract_x
_atom_site_fract_y
_atom_site_fract_z
Si Si1 0.116954 0.111884 0.263049
Si Si2 0.372056 0.175709 0.308364
Si Si3 0.224651 0.930073 0.643854
Si Si4 0.500000 0.500000 0.000000
Si Si5 0.519583 0.070768 0.831503
Si Si6 0.092650 0.182136 0.711363
O O1 0.244486 0.152795 0.313595
O O2 0.131906 0.078544 0.438655
O O3 0.994492 0.158507 0.204901
O O4 0.094466 0.056212 0.130128
O O5 0.500000 0.174020 0.500000
O O6 0.399132 0.125839 0.191586
O O7 0.354422 0.247262 0.237617
O O8 0.371089 0.926701 0.676777
O O9 0.195398 0.872868 0.739432
O O10 0.206186 0.000000 0.702586
O O11 0.571993 0.000000 0.834111
O O12 0.500000 0.077130 0.000000
O O13 0.000000 0.185603 0.500000
#
# Coordination Sequence:
#
# PCOD9204273 Si02
#       6
#     8   8   8   2   8   8
#     4  11  24  43  66  99 135 175 228 279 337 395
#     4  11  23  42  74 100 136 179 226 283 335 405
#     4  10  20  40  70  94 132 178 227 275 332 406
#     4  12  28  44  64 100 136 172 218 300 326 400
#     4  10  23  41  64  99 133 176 226 278 336 397
#     4   9  23  39  68 100 130 179 226 274 336 405
#
# _framework density 22.069091
#
# number of rings (size 3 to 8) (size 9 to 14) (size 15 to 20)
#    0.000    1.714    2.857    0.000    5.333    5.333 
#    5.143    1.905    0.000    0.000    0.000    0.000 
#    0.000    0.000    0.000    0.000    0.000    0.000 
#
# Total GULP energy -117090.879884 kJ/mol
# GULP energy per Si atom -5575.756185 kJ/mol
# Density = 2.201886 g / cm^3
# Si number density = 22.069091 Si / 1000 Ang^3
#
#
#
# Elastic Constant Matrix: (Units=GPa)
#
#
# Indices 1 2 3 4 5 6 
#
# 1 86.0414 82.9138 -7.0868 0.0000 -12.0971 0.0000
# 2 82.9138 244.0475 19.3544 0.0000 -21.2647 0.0000
# 3 -7.0868 19.3544 22.3918 0.0000 6.6713 0.0000
# 4 0.0000 0.0000 0.0000 -1.4349 0.0000 -9.7678
# 5 -12.0971 -21.2647 6.6713 0.0000 17.4127 0.0000
# 6 0.0000 0.0000 0.0000 -9.7678 0.0000 23.9192
#
#
#
# Elastic Compliance Matrix: (Units=1/GPa)
#
#
# Indices 1 2 3 4 5 6 
#
# 1 0.020453 -0.008131 0.013802 0.000000 -0.001009 0.000000
# 2 -0.008131 0.008790 -0.013192 0.000000 0.010139 0.000000
# 3 0.013802 -0.013192 0.070410 0.000000 -0.033497 0.000000
# 4 0.000000 0.000000 0.000000 -0.184375 0.000000 -0.075293
# 5 -0.001009 0.010139 -0.033497 0.000000 0.081945 0.000000
# 6 0.000000 0.000000 0.000000 -0.075293 0.000000 0.011060
#
#
# Mechanical properties :
#
#
# Convention : Reuss Voigt Hill
#
# Bulk Modulus (GPa) = 11.81887 60.31595 36.06741
# Shear Modulus (GPa) = 97.03320 25.13269 61.08294
#
# Velocity S-wave (km/s) = 6.63802 3.37830 5.26670
# Velocity P-wave (km/s) = 8.00738 6.52741 7.30497
#
# Compressibility (1/GPa) = 0.08461046
#
# Stress axis : x y z
#
# Youngs Moduli (GPa) = 48.89266 113.76849 14.20254
#
# Poissons Ratio (x) = 0.92508 -0.19602
# Poissons Ratio (y) = 0.39756 0.18736
# Poissons Ratio (z) = -0.67481 1.50081
#
# Static dielectric constant tensor:
#      x y z
#    x 1.803230 0.000000 0.031830 
#    y 0.000000 1.785050 0.000000 
#    z 0.031830 0.000000 1.879440 
# 
# From -- ./inp_files/49471.got.cif
#   From: 2010.05.17/outbox.cif.g08.bks.cpg/sg12_25_cif.got.tgz:49471.got - 2010.06.03 13:09:07.
