data_PCOD9204529
_publ_section_title
;
Structure prediction by ZEFSAII (Michael W. Deem and Ramdas Pophale) SiO2 
 PCOD9204529
Probable space group: C 2/M
;
_chemical_formula_sum "Si O2"
_cell_formula_units_Z 44
_cell_length_a 27.968487
_cell_length_b 12.039747
_cell_length_c 16.678376
_cell_angle_alpha 90.000000
_cell_angle_beta 156.445447
_cell_angle_gamma 90.000000
_cell_volume 2244.344578
_symmetry_space_group_name_H-M "C 2/M"
_symmetry_group_IT_number 12
_symmetry_cell_setting 'monoclinic'
loop_
_space_group_symop_operation_xyz
x,y,z
-x,y,-z
-x,-y,-z
x,-y,z
1/2+x,1/2+y,z
1/2-x,1/2+y,-z
1/2-x,1/2-y,-z
1/2+x,1/2-y,z
loop_
_atom_site_type_symbol
_atom_site_label
_atom_site_fract_x
_atom_site_fract_y
_atom_site_fract_z
Si Si1 0.044352 0.234023 0.477416
Si Si2 0.637397 0.000000 0.183103
Si Si3 0.269687 0.277166 0.437704
Si Si4 0.378745 0.500000 0.365852
Si Si5 0.045214 0.747007 0.822514
Si Si6 0.620110 0.000000 0.965538
Si Si7 0.769464 0.132144 0.773748
O O1 0.114007 0.116401 0.576891
O O2 0.136940 0.331275 0.598797
O O3 0.000000 0.244933 0.500000
O O4 0.941706 0.229660 0.252333
O O5 0.703362 0.108822 0.316145
O O6 0.500000 0.000000 0.000000
O O7 0.642501 0.000000 0.095016
O O8 0.250000 0.250000 0.500000
O O9 0.411657 0.284345 0.640253
O O10 0.219508 0.185020 0.298173
O O11 0.500000 0.500000 0.500000
O O12 0.251297 0.500000 0.125889
O O13 0.054244 0.614206 0.845637
O O14 0.139266 0.807922 0.024530
O O15 0.784697 0.000000 0.797031
#
# Coordination Sequence:
#
# PCOD9204529 Si02
#       7
#     8   4   8   4   8   4   8
#     4  10  23  43  64  95 133 175 224 277 328 388
#     4  12  24  44  72  94 128 174 229 265 324 407
#     4  11  26  43  67  98 130 169 216 271 326 394
#     4  10  20  42  66  93 132 171 231 283 315 385
#     4  11  24  41  67  92 131 172 221 266 334 386
#     4  12  20  44  67  92 127 181 223 274 323 395
#     4  11  25  43  63  96 135 172 217 273 336 394
#
# _framework density 19.604832999999999
#
# number of rings (size 3 to 8) (size 9 to 14) (size 15 to 20)
#    0.000    1.091    3.636    2.182    8.909    1.091 
#    0.000    0.909    0.000    0.000    0.000    0.000 
#    0.000    0.000    0.000    0.000    0.000    0.000 
#
# Total GULP energy -122866.446579 kJ/mol
# GULP energy per Si atom -5584.838481 kJ/mol
# Density = 1.956021 g / cm^3
# Si number density = 19.604833 Si / 1000 Ang^3
#
#
#
# Elastic Constant Matrix: (Units=GPa)
#
#
# Indices 1 2 3 4 5 6 
#
# 1 142.0948 37.8280 47.9848 0.0000 -27.7479 0.0000
# 2 37.8280 169.1979 46.1039 0.0000 -11.4005 0.0000
# 3 47.9848 46.1039 113.5017 0.0000 -12.2982 0.0000
# 4 0.0000 0.0000 0.0000 43.6208 0.0000 -8.2200
# 5 -27.7479 -11.4005 -12.2982 0.0000 44.2200 0.0000
# 6 0.0000 0.0000 0.0000 -8.2200 0.0000 0.5259
#
#
#
# Elastic Compliance Matrix: (Units=1/GPa)
#
#
# Indices 1 2 3 4 5 6 
#
# 1 0.009220 -0.000923 -0.003013 0.000000 0.004710 0.000000
# 2 -0.000923 0.006781 -0.002307 0.000000 0.000527 0.000000
# 3 -0.003013 -0.002307 0.011086 0.000000 0.000598 0.000000
# 4 0.000000 0.000000 0.000000 -0.011785 0.000000 -0.184192
# 5 0.004710 0.000527 0.000598 0.000000 0.025872 0.000000
# 6 0.000000 0.000000 0.000000 -0.184192 0.000000 -0.977445
#
#
# Mechanical properties :
#
#
# Convention : Reuss Voigt Hill
#
# Bulk Modulus (GPa) = 68.48608 76.51421 72.50015
# Shear Modulus (GPa) = -5.44118 37.19854 15.87868
#
# Velocity S-wave (km/s) = -1.66777 4.36066 2.84903
# Velocity P-wave (km/s) = 5.59468 8.02912 6.91980
#
# Compressibility (1/GPa) = 0.01460151
#
# Stress axis : x y z
#
# Youngs Moduli (GPa) = 108.45454 147.47621 90.20396
#
# Poissons Ratio (x) = 0.13614 0.27177
# Poissons Ratio (y) = 0.10012 0.20809
# Poissons Ratio (z) = 0.32675 0.34021
#
# Static dielectric constant tensor:
#      x y z
#    x 1.717860 0.000000 0.004890 
#    y 0.000000 1.690080 0.000000 
#    z 0.004890 0.000000 1.699830 
# 
# From -- ./inp_files/296563.got.cif
#   From: 2010.05.17/outbox.cif.g08.bks.cpg/sg12_149_cif.got.tgz:296563.got - 2010.06.03 13:09:07.
