data_PCOD9204708
_publ_section_title
;
Structure prediction by ZEFSAII (Michael W. Deem and Ramdas Pophale) SiO2 
 PCOD9204708
Probable space group: C 2/M
;
_chemical_formula_sum "Si O2"
_cell_formula_units_Z 58
_cell_length_a 12.639811
_cell_length_b 16.568618
_cell_length_c 23.040307
_cell_angle_alpha 90.000000
_cell_angle_beta 36.957260
_cell_angle_gamma 90.000000
_cell_volume 2901.001167
_symmetry_space_group_name_H-M "C 2/M"
_symmetry_group_IT_number 12
_symmetry_cell_setting 'monoclinic'
loop_
_space_group_symop_operation_xyz
x,y,z
-x,y,-z
-x,-y,-z
x,-y,z
1/2+x,1/2+y,z
1/2-x,1/2+y,-z
1/2-x,1/2-y,-z
1/2+x,1/2-y,z
loop_
_atom_site_type_symbol
_atom_site_label
_atom_site_fract_x
_atom_site_fract_y
_atom_site_fract_z
Si Si1 0.332168 0.855342 0.007769
Si Si2 0.767163 0.855994 0.270210
Si Si3 0.608084 0.155608 0.601171
Si Si4 0.500000 0.000000 0.000000
Si Si5 0.964393 0.174821 0.949117
Si Si6 0.430889 0.588228 0.788369
Si Si7 0.546335 0.651062 0.614553
Si Si8 0.825328 0.198373 0.613899
O O1 0.207136 0.865657 0.006100
O O2 0.193949 0.851149 0.122321
O O3 0.457622 0.928355 0.969419
O O4 0.429210 0.770646 0.961516
O O5 0.574243 0.884587 0.336372
O O6 0.888756 0.913742 0.254886
O O7 0.750902 0.775637 0.318312
O O8 0.871630 0.840514 0.164990
O O9 0.568970 0.251723 0.609810
O O10 0.762177 0.124901 0.491330
O O11 0.688072 0.156592 0.630779
O O12 0.000000 0.151232 0.000000
O O13 0.338442 0.500000 0.831106
O O14 0.478991 0.613818 0.703120
O O15 0.403490 0.638037 0.627183
O O16 0.000000 0.224311 0.500000
#
# Coordination Sequence:
#
# PCOD9204708 Si02
#       8
#     8   8   8   2   8   8   8   8
#     4  10  23  39  61  87 123 159 207 257 314 370
#     4  10  21  32  57  85 117 154 191 244 299 349
#     4   9  17  31  52  81 117 142 188 247 286 337
#     4  12  20  40  66  88 120 160 202 262 316 376
#     4  10  22  39  59  91 123 159 205 261 314 372
#     4  11  22  38  56  81 120 158 196 239 300 362
#     4   9  18  30  53  82 111 150 189 235 291 345
#     4   9  17  31  54  84 115 144 186 247 294 338
#
# _framework density 19.993099000000001
#
# number of rings (size 3 to 8) (size 9 to 14) (size 15 to 20)
#    0.000    2.207    2.759    0.828    3.862    1.103 
#    0.000    1.724    0.000    4.552    0.000    0.000 
#    0.000    0.000    0.000    0.000    0.000    0.000 
#
# Total GULP energy -161470.743112 kJ/mol
# GULP energy per Si atom -5567.956659 kJ/mol
# Density = 1.994759 g / cm^3
# Si number density = 19.993099 Si / 1000 Ang^3
#
#
#
# Elastic Constant Matrix: (Units=GPa)
#
#
# Indices 1 2 3 4 5 6 
#
# 1 125.8247 -0.0338 21.0704 0.0001 15.3398 -0.0002
# 2 -0.0338 28.6128 -2.3775 0.0002 3.4740 -0.0002
# 3 21.0704 -2.3775 45.0032 -0.0001 29.9880 0.0000
# 4 0.0001 0.0002 -0.0001 9.8748 -0.0001 -6.1147
# 5 15.3398 3.4740 29.9880 -0.0001 37.9375 0.0001
# 6 -0.0002 -0.0002 0.0000 -6.1147 0.0001 19.1663
#
#
#
# Elastic Compliance Matrix: (Units=1/GPa)
#
#
# Indices 1 2 3 4 5 6 
#
# 1 0.008632 -0.000228 -0.003680 0.000000 -0.000561 0.000000
# 2 -0.000228 0.036958 0.008986 -0.000001 -0.010395 0.000000
# 3 -0.003680 0.008986 0.050658 0.000000 -0.039378 0.000001
# 4 0.000000 -0.000001 0.000000 0.126198 0.000000 0.040261
# 5 -0.000561 -0.010395 -0.039378 0.000000 0.058664 -0.000001
# 6 0.000000 0.000000 0.000001 0.040261 -0.000001 0.065020
#
#
# Mechanical properties :
#
#
# Convention : Reuss Voigt Hill
#
# Bulk Modulus (GPa) = 9.39810 26.30656 17.85233
# Shear Modulus (GPa) = 13.46111 25.44782 19.45447
#
# Velocity S-wave (km/s) = 2.59759 3.57155 3.12277
# Velocity P-wave (km/s) = 3.70237 5.49493 4.68518
#
# Compressibility (1/GPa) = 0.10640443
#
# Stress axis : x y z
#
# Youngs Moduli (GPa) = 115.84669 27.05784 19.74038
#
# Poissons Ratio (x) = 0.00616 0.07264
# Poissons Ratio (y) = 0.02636 -0.17739
# Poissons Ratio (z) = 0.42631 -0.24314
#
# Static dielectric constant tensor:
#      x y z
#    x 1.947610 0.000000 -0.273770 
#    y 0.000000 1.779660 0.000000 
#    z -0.273770 0.000000 2.029100 
# 
# From -- ./inp_files/306354.got.cif
#   From: 2010.05.17/outbox.cif.g08.bks.cpg/sg12_154_cif.got.tgz:306354.got - 2010.06.03 13:09:07.
