data_PCOD9204737
_publ_section_title
;
Structure prediction by ZEFSAII (Michael W. Deem and Ramdas Pophale) SiO2 
 PCOD9204737
Probable space group: C 2/M
;
_chemical_formula_sum "Si O2"
_cell_formula_units_Z 48
_cell_length_a 13.644474
_cell_length_b 23.899468
_cell_length_c 14.971488
_cell_angle_alpha 90.000000
_cell_angle_beta 152.102534
_cell_angle_gamma 90.000000
_cell_volume 2284.306824
_symmetry_space_group_name_H-M "C 2/M"
_symmetry_group_IT_number 12
_symmetry_cell_setting 'monoclinic'
loop_
_space_group_symop_operation_xyz
x,y,z
-x,y,-z
-x,-y,-z
x,-y,z
1/2+x,1/2+y,z
1/2-x,1/2+y,-z
1/2-x,1/2-y,-z
1/2+x,1/2-y,z
loop_
_atom_site_type_symbol
_atom_site_label
_atom_site_fract_x
_atom_site_fract_y
_atom_site_fract_z
Si Si1 0.237974 0.435759 0.500096
Si Si2 0.258420 0.726880 0.289007
Si Si3 0.301319 0.564838 0.212925
Si Si4 0.575730 0.113683 0.195191
Si Si5 0.883023 0.243913 0.198008
Si Si6 0.265793 0.821123 0.435267
O O1 0.202098 0.500000 0.497450
O O2 0.465234 0.431835 0.635680
O O3 0.084913 0.414686 0.298541
O O4 0.224986 0.387686 0.564195
O O5 0.500000 0.709996 0.500000
O O6 0.125924 0.679146 0.230703
O O7 0.236391 0.730870 0.164933
O O8 0.237874 0.786341 0.321640
O O9 0.237392 0.500000 0.155511
O O10 0.250913 0.585195 0.272181
O O11 0.146443 0.601118 0.027750
O O12 0.060291 0.196381 0.326523
O O13 0.028071 0.295990 0.349124
O O14 0.750000 0.250000 0.000000
#
# Coordination Sequence:
#
# PCOD9204737 Si02
#       6
#     8   8   8   8   8   8
#     4  11  22  36  54  76 108 151 194 234 277 328
#     4  10  21  37  57  84 119 149 179 233 290 336
#     4  10  21  33  48  77 115 151 187 229 278 337
#     4  11  19  32  53  78 110 149 186 223 281 348
#     4  10  21  38  61  86 114 149 185 227 282 341
#     4  10  22  38  55  83 117 147 187 233 281 337
#
# _framework density 21.012938999999999
#
# number of rings (size 3 to 8) (size 9 to 14) (size 15 to 20)
#    0.000    1.667    0.000    7.500    0.000   10.000 
#    0.000    0.000    0.000    4.500    0.000    1.167 
#    0.000    0.000    0.000    0.000    0.000    0.333 
#
# Total GULP energy -134178.829542 kJ/mol
# GULP energy per Si atom -5590.784564 kJ/mol
# Density = 2.096511 g / cm^3
# Si number density = 21.012939 Si / 1000 Ang^3
#
#
#
# Elastic Constant Matrix: (Units=GPa)
#
#
# Indices 1 2 3 4 5 6 
#
# 1 54.3022 24.7774 20.5290 0.0000 -13.0322 0.0000
# 2 24.7774 177.1596 38.8656 -0.0001 -13.0027 -0.0001
# 3 20.5290 38.8656 73.2400 0.0000 -13.4742 0.0001
# 4 0.0000 -0.0001 0.0000 20.0804 -0.0001 -3.7869
# 5 -13.0322 -13.0027 -13.4742 -0.0001 30.3413 0.0000
# 6 0.0000 -0.0001 0.0001 -3.7869 0.0000 31.1979
#
#
#
# Elastic Compliance Matrix: (Units=1/GPa)
#
#
# Indices 1 2 3 4 5 6 
#
# 1 0.022444 -0.001725 -0.004070 0.000000 0.007093 0.000000
# 2 -0.001725 0.006572 -0.002855 0.000000 0.000807 0.000000
# 3 -0.004070 -0.002855 0.017165 0.000000 0.004651 0.000000
# 4 0.000000 0.000000 0.000000 0.050967 0.000000 0.006187
# 5 0.007093 0.000807 0.004651 0.000000 0.038416 0.000000
# 6 0.000000 0.000000 0.000000 0.006187 0.000000 0.032804
#
#
# Mechanical properties :
#
#
# Convention : Reuss Voigt Hill
#
# Bulk Modulus (GPa) = 34.62734 52.56066 43.59400
# Shear Modulus (GPa) = 25.60209 31.02589 28.31399
#
# Velocity S-wave (km/s) = 3.49434 3.84671 3.67475
# Velocity P-wave (km/s) = 5.72673 6.69308 6.22867
#
# Compressibility (1/GPa) = 0.02887891
#
# Stress axis : x y z
#
# Youngs Moduli (GPa) = 44.55561 152.17104 58.25655
#
# Poissons Ratio (x) = 0.26256 0.23713
# Poissons Ratio (y) = 0.07688 0.16633
# Poissons Ratio (z) = 0.18136 0.43447
#
# Static dielectric constant tensor:
#      x y z
#    x 1.785440 0.000000 0.002370 
#    y 0.000000 1.777720 0.000000 
#    z 0.002370 0.000000 1.797440 
# 
# From -- ./inp_files/218561.got.cif
#   From: 2010.05.17/outbox.cif.g08.bks.cpg/sg12_110_cif.got.tgz:218561.got - 2010.06.03 13:09:07.
