data_PCOD9204265
_publ_section_title
;
Structure prediction by ZEFSAII (Michael W. Deem and Ramdas Pophale) SiO2 
 PCOD9204265
Probable space group: C 2/M
;
_chemical_formula_sum "Si O2"
_cell_formula_units_Z 56
_cell_length_a 8.197824
_cell_length_b 24.243126
_cell_length_c 14.484921
_cell_angle_alpha 90.000000
_cell_angle_beta 66.580440
_cell_angle_gamma 90.000000
_cell_volume 2641.591954
_symmetry_space_group_name_H-M "C 2/M"
_symmetry_group_IT_number 12
_symmetry_cell_setting 'monoclinic'
loop_
_space_group_symop_operation_xyz
x,y,z
-x,y,-z
-x,-y,-z
x,-y,z
1/2+x,1/2+y,z
1/2-x,1/2+y,-z
1/2-x,1/2-y,-z
1/2+x,1/2-y,z
loop_
_atom_site_type_symbol
_atom_site_label
_atom_site_fract_x
_atom_site_fract_y
_atom_site_fract_z
Si Si1 0.248239 0.117560 0.879926
Si Si2 0.625327 0.062481 0.795279
Si Si3 0.102720 0.293161 0.568410
Si Si4 0.594157 0.266720 0.883384
Si Si5 0.598895 0.292477 0.257463
Si Si6 0.399976 0.566437 0.897514
Si Si7 0.351800 0.617635 0.607429
O O1 0.449929 0.098910 0.822466
O O2 0.227202 0.183464 0.880835
O O3 0.101416 0.089946 0.844172
O O4 0.182726 0.094996 0.993574
O O5 0.759092 0.078075 0.848175
O O6 0.747098 0.068106 0.677646
O O7 0.565237 0.000000 0.825649
O O8 0.250000 0.250000 0.500000
O O9 0.207032 0.342071 0.593663
O O10 0.000000 0.311897 0.500000
O O11 0.975241 0.259417 0.666621
O O12 0.476784 0.292977 0.828667
O O13 0.694387 0.217488 0.809487
O O14 0.500000 0.250628 0.000000
O O15 0.564192 0.345007 0.329215
O O16 0.410264 0.500000 0.906332
O O17 0.500000 0.602936 0.500000
#
# Coordination Sequence:
#
# PCOD9204265 Si02
#       7
#     8   8   8   8   8   8   8
#     4  11  21  40  65  98 135 177 226 272 324 395
#     4  11  25  44  69 100 132 173 222 279 345 399
#     4  12  20  40  66  97 121 163 227 279 321 384
#     4  12  25  41  59  95 139 183 217 262 329 400
#     4  12  23  41  64  91 135 177 220 267 330 391
#     4  10  20  40  69  97 130 175 228 281 324 389
#     4  12  25  43  68  98 128 171 223 284 336 395
#
# _framework density 21.199337
#
# number of rings (size 3 to 8) (size 9 to 14) (size 15 to 20)
#    0.000    0.571    5.714    4.286    0.000    1.429 
#    2.571    0.000    0.000    0.429    0.000    0.000 
#    0.000    0.000    0.000    0.000    0.000    0.000 
#
# Total GULP energy -156531.900978 kJ/mol
# GULP energy per Si atom -5590.425035 kJ/mol
# Density = 2.115109 g / cm^3
# Si number density = 21.199337 Si / 1000 Ang^3
#
#
#
# Elastic Constant Matrix: (Units=GPa)
#
#
# Indices 1 2 3 4 5 6 
#
# 1 94.0529 0.2070 35.0930 0.0000 -1.5492 0.0000
# 2 0.2070 27.9384 0.5829 0.0000 -8.0797 0.0000
# 3 35.0930 0.5829 114.8988 0.0000 -11.5312 0.0000
# 4 0.0000 0.0000 0.0000 25.1846 0.0000 -1.7719
# 5 -1.5492 -8.0797 -11.5312 0.0000 36.1567 0.0000
# 6 0.0000 0.0000 0.0000 -1.7719 0.0000 20.4159
#
#
#
# Elastic Compliance Matrix: (Units=1/GPa)
#
#
# Indices 1 2 3 4 5 6 
#
# 1 0.012017 -0.000222 -0.003742 0.000000 -0.000728 0.000000
# 2 -0.000222 0.038322 0.000756 0.000000 0.008795 0.000000
# 3 -0.003742 0.000756 0.010169 0.000000 0.003252 0.000000
# 4 0.000000 0.000000 0.000000 0.039951 0.000000 0.003467
# 5 -0.000728 0.008795 0.003252 0.000000 0.030629 0.000000
# 6 0.000000 0.000000 0.000000 0.003467 0.000000 0.049282
#
#
# Mechanical properties :
#
#
# Convention : Reuss Voigt Hill
#
# Bulk Modulus (GPa) = 18.48681 34.29511 26.39096
# Shear Modulus (GPa) = 24.41207 29.75192 27.08199
#
# Velocity S-wave (km/s) = 3.39713 3.75031 3.57808
# Velocity P-wave (km/s) = 4.91190 5.91318 5.43564
#
# Compressibility (1/GPa) = 0.05409261
#
# Stress axis : x y z
#
# Youngs Moduli (GPa) = 83.21455 26.09437 98.34006
#
# Poissons Ratio (x) = 0.00578 0.36802
# Poissons Ratio (y) = 0.01844 -0.07434
# Poissons Ratio (z) = 0.31141 -0.01973
#
# Static dielectric constant tensor:
#      x y z
#    x 1.841590 0.000000 0.020660 
#    y 0.000000 1.776730 0.000000 
#    z 0.020660 0.000000 1.750250 
# 
# From -- ./inp_files/198797.got.cif
#   From: 2010.05.17/outbox.cif.g08.bks.cpg/sg12_100_cif.got.tgz:198797.got - 2010.06.03 13:09:07.
