data_PCOD9204043
_publ_section_title
;
Structure prediction by ZEFSAII (Michael W. Deem and Ramdas Pophale) SiO2 
 PCOD9204043
Probable space group: C 2/M
;
_chemical_formula_sum "Si O2"
_cell_formula_units_Z 48
_cell_length_a 9.119994
_cell_length_b 28.808922
_cell_length_c 17.334065
_cell_angle_alpha 90.000000
_cell_angle_beta 147.274435
_cell_angle_gamma 90.000000
_cell_volume 2462.128242
_symmetry_space_group_name_H-M "C 2/M"
_symmetry_group_IT_number 12
_symmetry_cell_setting 'monoclinic'
loop_
_space_group_symop_operation_xyz
x,y,z
-x,y,-z
-x,-y,-z
x,-y,z
1/2+x,1/2+y,z
1/2-x,1/2+y,-z
1/2-x,1/2-y,-z
1/2+x,1/2-y,z
loop_
_atom_site_type_symbol
_atom_site_label
_atom_site_fract_x
_atom_site_fract_y
_atom_site_fract_z
Si Si1 0.817428 0.445649 0.659588
Si Si2 0.376000 0.055438 0.362829
Si Si3 0.538283 0.295937 0.606061
Si Si4 0.058926 0.126561 0.835584
Si Si5 0.463769 0.191894 0.392874
Si Si6 0.404637 0.129892 0.830608
O O1 0.500000 0.442867 0.500000
O O2 0.883995 0.500000 0.705100
O O3 0.878631 0.413077 0.759909
O O4 0.966199 0.431456 0.645731
O O5 0.500000 0.072652 0.500000
O O6 0.078398 0.076243 0.222906
O O7 0.377065 0.000000 0.366939
O O8 0.500000 0.287942 0.500000
O O9 0.553236 0.244326 0.649447
O O10 0.805716 0.324657 0.741766
O O11 0.265140 0.324941 0.503757
O O12 0.202850 0.129649 0.815568
O O13 0.806704 0.161768 0.738910
O O14 0.293761 0.132732 0.002183
O O15 0.500000 0.194718 0.500000
#
# Coordination Sequence:
#
# PCOD9204043 Si02
#       6
#     8   8   8   8   8   8
#     4  10  22  40  63  91 122 156 200 254 301 352
#     4  10  22  40  64  92 120 157 203 246 298 363
#     4  10  22  38  63  91 116 154 204 251 302 357
#     4  11  24  39  60  87 124 167 201 246 304 359
#     4  10  20  40  64  87 117 158 203 251 299 355
#     4  11  24  40  58  89 127 162 201 249 304 358
#
# _framework density 19.495329000000002
#
# number of rings (size 3 to 8) (size 9 to 14) (size 15 to 20)
#    0.000    1.667    1.667    2.000    4.667    4.000 
#    0.000    3.333    0.000    0.000    0.000    0.000 
#    0.000    0.000    0.000    0.000    0.000    0.000 
#
# Total GULP energy -133749.983516 kJ/mol
# GULP energy per Si atom -5572.915980 kJ/mol
# Density = 1.945096 g / cm^3
# Si number density = 19.495329 Si / 1000 Ang^3
#
#
#
# Elastic Constant Matrix: (Units=GPa)
#
#
# Indices 1 2 3 4 5 6 
#
# 1 55.7833 22.8335 42.6829 0.0000 2.6904 0.0000
# 2 22.8335 72.1612 50.1730 0.0000 -10.6791 0.0000
# 3 42.6829 50.1730 139.3375 0.0000 -2.4781 0.0000
# 4 0.0000 0.0000 0.0000 12.6062 0.0000 -0.5596
# 5 2.6904 -10.6791 -2.4781 0.0000 29.8903 0.0000
# 6 0.0000 0.0000 0.0000 -0.5596 0.0000 29.9026
#
#
#
# Elastic Compliance Matrix: (Units=1/GPa)
#
#
# Indices 1 2 3 4 5 6 
#
# 1 0.024475 -0.004134 -0.006083 0.000000 -0.004184 0.000000
# 2 -0.004134 0.020350 -0.005934 0.000000 0.007151 0.000000
# 3 -0.006083 -0.005934 0.011166 0.000000 -0.000647 0.000000
# 4 0.000000 0.000000 0.000000 0.079392 0.000000 0.001486
# 5 -0.004184 0.007151 -0.000647 0.000000 0.036334 0.000000
# 6 0.000000 0.000000 0.000000 0.001486 0.000000 0.033470
#
#
# Mechanical properties :
#
#
# Convention : Reuss Voigt Hill
#
# Bulk Modulus (GPa) = 42.21575 55.40677 48.81126
# Shear Modulus (GPa) = 20.37612 24.58598 22.48105
#
# Velocity S-wave (km/s) = 3.23643 3.55508 3.39949
# Velocity P-wave (km/s) = 5.97221 6.73303 6.36400
#
# Compressibility (1/GPa) = 0.02368784
#
# Stress axis : x y z
#
# Youngs Moduli (GPa) = 40.85782 49.13943 89.56122
#
# Poissons Ratio (x) = 0.20315 0.54482
# Poissons Ratio (y) = 0.16891 0.53147
# Poissons Ratio (z) = 0.24854 0.29160
#
# Static dielectric constant tensor:
#      x y z
#    x 1.900230 0.000000 0.030850 
#    y 0.000000 1.731500 0.000000 
#    z 0.030850 0.000000 1.644220 
# 
# From -- ./inp_files/200788.got.cif
#   From: 2010.05.17/outbox.cif.g08.bks.cpg/sg12_101_cif.got.tgz:200788.got - 2010.06.03 13:09:07.
