data_PCOD9204827
_publ_section_title
;
Structure prediction by ZEFSAII (Michael W. Deem and Ramdas Pophale) SiO2 
 PCOD9204827
Probable space group: C 2/M
;
_chemical_formula_sum "Si O2"
_cell_formula_units_Z 56
_cell_length_a 16.621488
_cell_length_b 19.135777
_cell_length_c 9.676882
_cell_angle_alpha 90.000000
_cell_angle_beta 67.274147
_cell_angle_gamma 90.000000
_cell_volume 2838.923752
_symmetry_space_group_name_H-M "C 2/M"
_symmetry_group_IT_number 12
_symmetry_cell_setting 'monoclinic'
loop_
_space_group_symop_operation_xyz
x,y,z
-x,y,-z
-x,-y,-z
x,-y,z
1/2+x,1/2+y,z
1/2-x,1/2+y,-z
1/2-x,1/2-y,-z
1/2+x,1/2-y,z
loop_
_atom_site_type_symbol
_atom_site_label
_atom_site_fract_x
_atom_site_fract_y
_atom_site_fract_z
Si Si1 0.193187 0.637387 0.543092
Si Si2 0.855364 0.780787 0.547777
Si Si3 0.615851 0.716155 0.161400
Si Si4 0.907058 0.638558 0.131900
Si Si5 0.294745 0.859238 0.958594
Si Si6 0.205334 0.076819 0.765927
Si Si7 0.928081 0.200194 0.197155
O O1 0.163367 0.698284 0.456888
O O2 0.264840 0.676850 0.591760
O O3 0.117101 0.613209 0.697302
O O4 0.242858 0.583169 0.413312
O O5 0.896978 0.796618 0.667031
O O6 0.907871 0.797799 0.374938
O O7 0.637360 0.798307 0.130137
O O8 0.703284 0.677021 0.058195
O O9 0.532570 0.694003 0.126484
O O10 0.902157 0.723736 0.153549
O O11 0.835832 0.610785 0.070945
O O12 0.000000 0.622842 0.000000
O O13 0.272244 0.909138 0.846809
O O14 0.132713 0.137785 0.815075
O O15 0.166124 0.000000 0.805649
#
# Coordination Sequence:
#
# PCOD9204827 Si02
#       7
#     8   8   8   8   8   8   8
#     4   9  18  35  58  85 118 155 206 243 301 354
#     4   9  16  30  55  90 119 149 193 255 308 355
#     4  11  18  32  57  92 129 150 189 264 313 353
#     4  11  20  36  61  99 122 142 190 275 325 351
#     4  11  22  33  58  87 122 159 200 247 315 351
#     4  11  24  43  61  82 124 174 210 233 280 382
#     4  10  21  33  58  94 124 154 194 248 315 354
#
# _framework density 19.725784999999998
#
# number of rings (size 3 to 8) (size 9 to 14) (size 15 to 20)
#    0.000    1.714    4.286    3.000    0.000    0.000 
#    0.000    2.857    0.000    9.429    0.000    0.000 
#    0.000    0.000    0.000    0.000    0.000    0.000 
#
# Total GULP energy -156184.305879 kJ/mol
# GULP energy per Si atom -5578.010924 kJ/mol
# Density = 1.968089 g / cm^3
# Si number density = 19.725785 Si / 1000 Ang^3
#
#
#
# Elastic Constant Matrix: (Units=GPa)
#
#
# Indices 1 2 3 4 5 6 
#
# 1 106.4337 21.8987 28.9571 0.0000 8.4295 0.0000
# 2 21.8987 25.6493 7.1125 0.0000 3.5338 0.0000
# 3 28.9571 7.1125 100.3343 0.0000 5.3340 0.0000
# 4 0.0000 0.0000 0.0000 5.7856 0.0000 -0.9154
# 5 8.4295 3.5338 5.3340 0.0000 41.3528 0.0000
# 6 0.0000 0.0000 0.0000 -0.9154 0.0000 8.6242
#
#
#
# Elastic Compliance Matrix: (Units=1/GPa)
#
#
# Indices 1 2 3 4 5 6 
#
# 1 0.012204 -0.009467 -0.002781 0.000000 -0.001320 0.000000
# 2 -0.009467 0.047500 -0.000525 0.000000 -0.002062 0.000000
# 3 -0.002781 -0.000525 0.010848 0.000000 -0.000788 0.000000
# 4 0.000000 0.000000 0.000000 0.175795 0.000000 0.018659
# 5 -0.001320 -0.002062 -0.000788 0.000000 0.024729 0.000000
# 6 0.000000 0.000000 0.000000 0.018659 0.000000 0.117933
#
#
# Mechanical properties :
#
#
# Convention : Reuss Voigt Hill
#
# Bulk Modulus (GPa) = 22.21919 38.70598 30.46259
# Shear Modulus (GPa) = 11.63987 22.78244 17.21115
#
# Velocity S-wave (km/s) = 2.43180 3.40215 2.95705
# Velocity P-wave (km/s) = 4.37874 5.92431 5.20917
#
# Compressibility (1/GPa) = 0.04500614
#
# Stress axis : x y z
#
# Youngs Moduli (GPa) = 81.93703 21.05277 92.17935
#
# Poissons Ratio (x) = 0.19930 0.25635
# Poissons Ratio (y) = 0.77568 0.04843
# Poissons Ratio (z) = 0.22787 0.01106
#
# Static dielectric constant tensor:
#      x y z
#    x 1.711320 0.000000 -0.024380 
#    y 0.000000 1.665750 0.000000 
#    z -0.024380 0.000000 1.759890 
# 
# From -- ./inp_files/89085.got.cif
#   From: 2010.05.17/outbox.cif.g08.bks.cpg/sg12_45_cif.got.tgz:89085.got - 2010.06.03 13:09:07.
