data_PCOD9204880
_publ_section_title
;
Structure prediction by ZEFSAII (Michael W. Deem and Ramdas Pophale) SiO2 
 PCOD9204880
Probable space group: C 2/M
;
_chemical_formula_sum "Si O2"
_cell_formula_units_Z 56
_cell_length_a 31.067474
_cell_length_b 9.073483
_cell_length_c 12.702433
_cell_angle_alpha 90.000000
_cell_angle_beta 122.923347
_cell_angle_gamma 90.000000
_cell_volume 3005.626803
_symmetry_space_group_name_H-M "C 2/M"
_symmetry_group_IT_number 12
_symmetry_cell_setting 'monoclinic'
loop_
_space_group_symop_operation_xyz
x,y,z
-x,y,-z
-x,-y,-z
x,-y,z
1/2+x,1/2+y,z
1/2-x,1/2+y,-z
1/2-x,1/2-y,-z
1/2+x,1/2-y,z
loop_
_atom_site_type_symbol
_atom_site_label
_atom_site_fract_x
_atom_site_fract_y
_atom_site_fract_z
Si Si1 0.472804 0.324262 0.074895
Si Si2 0.115763 0.328503 0.765355
Si Si3 0.782311 0.674515 0.690519
Si Si4 0.996777 0.327598 0.674247
Si Si5 0.178307 0.673693 0.488905
Si Si6 0.399545 0.674441 0.464221
Si Si7 0.364728 0.177084 0.975538
O O1 0.471782 0.500000 0.091466
O O2 0.502587 0.244998 0.209556
O O3 0.500000 0.295304 0.000000
O O4 0.415250 0.260088 0.001837
O O5 0.126796 0.500000 0.756637
O O6 0.126312 0.230803 0.677910
O O7 0.054956 0.316408 0.710079
O O8 0.142651 0.286037 0.910987
O O9 0.768774 0.500000 0.674867
O O10 0.815146 0.698356 0.627462
O O11 0.731247 0.769944 0.611012
O O12 0.816659 0.709164 0.837366
O O13 0.983402 0.500000 0.661459
O O14 0.955956 0.244232 0.548545
O O15 0.171128 0.500000 0.497400
O O16 0.132587 0.763311 0.480556
O O17 0.402121 0.500000 0.469797
O O18 0.374665 0.000000 0.984694
#
# Coordination Sequence:
#
# PCOD9204880 Si02
#       7
#     8   8   8   8   8   8   8
#     4  10  21  34  49  79 117 148 183 228 270 320
#     4   9  19  37  57  80 110 145 187 230 273 330
#     4   9  19  38  61  85 111 141 181 228 281 333
#     4  10  21  37  57  79 108 149 190 229 276 329
#     4  10  21  37  58  85 113 145 183 226 277 333
#     4  12  24  36  55  82 114 147 186 233 278 327
#     4   9  19  36  59  82 107 146 186 225 277 334
#
# _framework density 18.631719
#
# number of rings (size 3 to 8) (size 9 to 14) (size 15 to 20)
#    0.000    2.143    0.000    3.857    2.000    6.857 
#    0.000    0.714    0.000    0.000    0.000    0.000 
#    0.000    0.000    0.000    0.000    0.000    0.000 
#
# Total GULP energy -156366.390236 kJ/mol
# GULP energy per Si atom -5584.513937 kJ/mol
# Density = 1.858931 g / cm^3
# Si number density = 18.631719 Si / 1000 Ang^3
#
#
#
# Elastic Constant Matrix: (Units=GPa)
#
#
# Indices 1 2 3 4 5 6 
#
# 1 10.2943 12.0559 2.1506 0.0000 -2.3880 0.0000
# 2 12.0559 70.2782 32.7857 0.0000 -5.9464 0.0000
# 3 2.1506 32.7857 105.1393 0.0000 4.6019 0.0000
# 4 0.0000 0.0000 0.0000 21.9514 0.0000 1.7434
# 5 -2.3880 -5.9464 4.6019 0.0000 14.3917 0.0000
# 6 0.0000 0.0000 0.0000 1.7434 0.0000 24.4521
#
#
#
# Elastic Compliance Matrix: (Units=1/GPa)
#
#
# Indices 1 2 3 4 5 6 
#
# 1 0.124943 -0.022435 0.003994 0.000000 0.010185 0.000000
# 2 -0.022435 0.021817 -0.006669 0.000000 0.007425 0.000000
# 3 0.003994 -0.006669 0.011765 0.000000 -0.005855 0.000000
# 4 0.000000 0.000000 0.000000 0.045815 0.000000 -0.003266
# 5 0.010185 0.007425 -0.005855 0.000000 0.076114 0.000000
# 6 0.000000 0.000000 0.000000 -0.003266 0.000000 0.041129
#
#
# Mechanical properties :
#
#
# Convention : Reuss Voigt Hill
#
# Bulk Modulus (GPa) = 9.23309 31.07736 20.15523
# Shear Modulus (GPa) = 12.25771 21.40700 16.83235
#
# Velocity S-wave (km/s) = 2.56773 3.39330 3.00896
# Velocity P-wave (km/s) = 3.70908 5.66292 4.78675
#
# Compressibility (1/GPa) = 0.10830610
#
# Stress axis : x y z
#
# Youngs Moduli (GPa) = 8.00363 45.83507 84.99443
#
# Poissons Ratio (x) = 1.02832 -0.33951
# Poissons Ratio (y) = 0.17956 0.56686
# Poissons Ratio (z) = -0.03197 0.30569
#
# Static dielectric constant tensor:
#      x y z
#    x 1.627690 0.000000 -0.008470 
#    y 0.000000 1.619010 0.000000 
#    z -0.008470 0.000000 1.655160 
# 
# From -- ./inp_files/187753.got.cif
#   From: 2010.05.17/outbox.cif.g08.bks.cpg/sg12_94_cif.got.tgz:187753.got - 2010.06.03 13:09:07.
