data_PCOD9204834
_publ_section_title
;
Structure prediction by ZEFSAII (Michael W. Deem and Ramdas Pophale) SiO2 
 PCOD9204834
Probable space group: C 2/M
;
_chemical_formula_sum "Si O2"
_cell_formula_units_Z 36
_cell_length_a 23.723225
_cell_length_b 16.563262
_cell_length_c 9.494751
_cell_angle_alpha 90.000000
_cell_angle_beta 21.737993
_cell_angle_gamma 90.000000
_cell_volume 1381.753338
_symmetry_space_group_name_H-M "C 2/M"
_symmetry_group_IT_number 12
_symmetry_cell_setting 'monoclinic'
loop_
_space_group_symop_operation_xyz
x,y,z
-x,y,-z
-x,-y,-z
x,-y,z
1/2+x,1/2+y,z
1/2-x,1/2+y,-z
1/2-x,1/2-y,-z
1/2+x,1/2-y,z
loop_
_atom_site_type_symbol
_atom_site_label
_atom_site_fract_x
_atom_site_fract_y
_atom_site_fract_z
Si Si1 0.158598 0.500000 0.232929
Si Si2 0.577606 0.656035 0.967459
Si Si3 0.396625 0.000000 0.106029
Si Si4 0.837653 0.000000 0.111148
Si Si5 0.184200 0.325239 0.070636
Si Si6 0.358397 0.172503 0.133368
O O1 0.213619 0.500000 0.273217
O O2 0.225491 0.413511 0.031223
O O3 0.000000 0.500000 0.500000
O O4 0.570150 0.584452 0.098003
O O5 0.539138 0.748371 0.096527
O O6 0.758456 0.666445 0.506612
O O7 0.500000 0.633509 0.000000
O O8 0.426893 0.083014 0.955198
O O9 0.232356 0.000000 0.564620
O O10 0.500000 0.000000 0.000000
O O11 0.000000 0.318820 0.500000
O O12 0.250000 0.250000 0.000000
O O13 0.236985 0.318842 0.786790
#
# Coordination Sequence:
#
# PCOD9204834 Si02
#       6
#     4   8   4   4   8   8
#     4  10  23  43  66  90 125 176 216 266 319 388
#     4  10  21  38  64  89 124 161 197 270 320 373
#     4  10  21  33  61  87 117 152 197 270 305 357
#     4  10  21  38  59  91 120 157 215 249 324 381
#     4  11  25  42  67  93 130 176 215 266 320 386
#     4  10  22  38  58  93 120 157 213 250 315 379
#
# _framework density 26.053854999999999
#
# number of rings (size 3 to 8) (size 9 to 14) (size 15 to 20)
#    0.000    1.778    0.000    3.000    9.333    0.000 
#    0.000    0.556    0.000    0.000    0.000    0.000 
#    0.000    0.000    0.000    0.000    0.000    0.000 
#
# Total GULP energy -100423.870636 kJ/mol
# GULP energy per Si atom -5579.103924 kJ/mol
# Density = 2.599455 g / cm^3
# Si number density = 26.053855 Si / 1000 Ang^3
#
#
#
# Elastic Constant Matrix: (Units=GPa)
#
#
# Indices 1 2 3 4 5 6 
#
# 1 160.4080 107.9242 12.7502 0.0002 7.7998 -0.0001
# 2 107.9242 292.3435 35.6910 0.0003 -23.7906 -0.0001
# 3 12.7502 35.6910 66.4738 0.0007 4.1257 -0.0003
# 4 0.0002 0.0003 0.0007 -14.8917 -0.0003 -0.5560
# 5 7.7998 -23.7906 4.1257 -0.0003 31.8544 0.0001
# 6 -0.0001 -0.0001 -0.0003 -0.5560 0.0001 67.5728
#
#
#
# Elastic Compliance Matrix: (Units=1/GPa)
#
#
# Indices 1 2 3 4 5 6 
#
# 1 0.009004 -0.003821 0.000644 0.000000 -0.005142 0.000000
# 2 -0.003821 0.005593 -0.002609 0.000000 0.005451 0.000000
# 3 0.000644 -0.002609 0.016585 0.000001 -0.004254 0.000000
# 4 0.000000 0.000000 0.000001 -0.067131 -0.000001 -0.000552
# 5 -0.005142 0.005451 -0.004254 -0.000001 0.037274 0.000000
# 6 0.000000 0.000000 0.000000 -0.000552 0.000000 0.014794
#
#
# Mechanical properties :
#
#
# Convention : Reuss Voigt Hill
#
# Bulk Modulus (GPa) = 50.99434 92.43956 71.71695
# Shear Modulus (GPa) = 146.08364 41.09776 93.59070
#
# Velocity S-wave (km/s) = 7.49611 3.97598 6.00000
# Velocity P-wave (km/s) = 9.72303 7.52563 8.69403
#
# Compressibility (1/GPa) = 0.01961002
#
# Stress axis : x y z
#
# Youngs Moduli (GPa) = 111.06559 178.78767 60.29670
#
# Poissons Ratio (x) = 0.68313 -0.03881
# Poissons Ratio (y) = 0.42437 0.15729
# Poissons Ratio (z) = -0.07149 0.46637
#
# Static dielectric constant tensor:
#      x y z
#    x 1.961500 0.000000 -0.004530 
#    y 0.000000 2.017010 0.000000 
#    z -0.004530 0.000000 2.274790 
# 
# From -- ./inp_files/86261.got.cif
#   From: 2010.05.17/outbox.cif.g08.bks.cpg/sg12_44_cif.got.tgz:86261.got - 2010.06.03 13:09:07.
