data_PCOD9204861
_publ_section_title
;
Structure prediction by ZEFSAII (Michael W. Deem and Ramdas Pophale) SiO2 
 PCOD9204861
Probable space group: C 2/M
;
_chemical_formula_sum "Si O2"
_cell_formula_units_Z 64
_cell_length_a 23.877582
_cell_length_b 7.440279
_cell_length_c 20.170061
_cell_angle_alpha 90.000000
_cell_angle_beta 123.570286
_cell_angle_gamma 90.000000
_cell_volume 2985.659469
_symmetry_space_group_name_H-M "C 2/M"
_symmetry_group_IT_number 12
_symmetry_cell_setting 'monoclinic'
loop_
_space_group_symop_operation_xyz
x,y,z
-x,y,-z
-x,-y,-z
x,-y,z
1/2+x,1/2+y,z
1/2-x,1/2+y,-z
1/2-x,1/2-y,-z
1/2+x,1/2-y,z
loop_
_atom_site_type_symbol
_atom_site_label
_atom_site_fract_x
_atom_site_fract_y
_atom_site_fract_z
Si Si1 0.942813 0.709479 0.169644
Si Si2 0.273084 0.220009 0.226085
Si Si3 0.010787 0.782097 0.082025
Si Si4 0.561697 0.781117 0.452530
Si Si5 0.589905 0.781202 0.617614
Si Si6 0.293214 0.215316 0.093789
Si Si7 0.849142 0.213296 0.765347
Si Si8 0.583547 0.216175 0.322613
O O1 0.941093 0.500000 0.188202
O O2 0.955780 0.722638 0.099464
O O3 0.869802 0.785899 0.138650
O O4 0.010762 0.784398 0.248086
O O5 0.346835 0.277748 0.298304
O O6 0.261264 0.276523 0.142446
O O7 0.216673 0.282794 0.240846
O O8 0.272914 0.000000 0.227289
O O9 0.082661 0.716848 0.156114
O O10 0.010342 0.000000 0.082330
O O11 0.000000 0.722900 0.000000
O O12 0.593882 0.724110 0.543231
O O13 0.483108 0.727320 0.403087
O O14 0.593678 0.721237 0.404413
O O15 0.562913 0.000000 0.454069
O O16 0.589896 0.000000 0.618358
O O17 0.298160 0.000000 0.101386
O O18 0.250000 0.250000 0.000000
O O19 0.859633 0.240100 0.693970
O O20 0.849087 0.000000 0.776177
O O21 0.579452 0.000000 0.321110
#
# Coordination Sequence:
#
# PCOD9204861 Si02
#       8
#     8   8   8   8   8   8   8   8
#     4   9  18  31  46  67  92 116 148 186 231 278
#     4   9  17  30  47  63  90 125 155 187 227 275
#     4   9  18  30  47  66  85 114 154 196 230 263
#     4   8  13  22  42  71  99 117 145 190 231 269
#     4   8  13  23  42  71  96 119 149 187 230 270
#     4  10  21  34  49  70  93 121 154 191 234 281
#     4   9  18  31  45  65  89 121 160 190 223 272
#     4   9  16  29  48  69  94 122 149 188 234 271
#
# _framework density 21.435801000000001
#
# number of rings (size 3 to 8) (size 9 to 14) (size 15 to 20)
#    0.000    3.125    0.000    1.500    1.750    3.750 
#    0.000    1.250    0.000    0.000    0.000    3.500 
#    0.000    0.000    0.000    0.000    0.000    0.000 
#
# Total GULP energy -178511.518828 kJ/mol
# GULP energy per Si atom -5578.484963 kJ/mol
# Density = 2.138701 g / cm^3
# Si number density = 21.435801 Si / 1000 Ang^3
#
#
#
# Elastic Constant Matrix: (Units=GPa)
#
#
# Indices 1 2 3 4 5 6 
#
# 1 121.0774 -1.4351 59.9560 0.0000 -24.1202 0.0000
# 2 -1.4351 64.0463 -3.3233 0.0000 4.7554 0.0000
# 3 59.9560 -3.3233 95.8448 0.0000 -27.5551 0.0000
# 4 0.0000 0.0000 0.0000 3.7704 0.0000 -3.0182
# 5 -24.1202 4.7554 -27.5551 0.0000 31.2656 0.0000
# 6 0.0000 0.0000 0.0000 -3.0182 0.0000 12.0472
#
#
#
# Elastic Compliance Matrix: (Units=1/GPa)
#
#
# Indices 1 2 3 4 5 6 
#
# 1 0.012271 -0.000342 -0.006632 0.000000 0.003674 0.000000
# 2 -0.000342 0.015804 -0.000007 0.000000 -0.002673 0.000000
# 3 -0.006632 -0.000007 0.017561 0.000000 0.010362 0.000000
# 4 0.000000 0.000000 0.000000 0.331752 0.000000 0.083114
# 5 0.003674 -0.002673 0.010362 0.000000 0.044357 0.000000
# 6 0.000000 0.000000 0.000000 0.083114 0.000000 0.103829
#
#
# Mechanical properties :
#
#
# Convention : Reuss Voigt Hill
#
# Bulk Modulus (GPa) = 31.57058 43.48483 37.52771
# Shear Modulus (GPa) = 9.08936 24.46805 16.77871
#
# Velocity S-wave (km/s) = 2.06143 3.38221 2.80079
# Velocity P-wave (km/s) = 4.51950 5.96511 5.29190
#
# Compressibility (1/GPa) = 0.03167506
#
# Stress axis : x y z
#
# Youngs Moduli (GPa) = 81.49313 63.27432 56.94513
#
# Poissons Ratio (x) = 0.02164 0.37765
# Poissons Ratio (y) = 0.02787 0.00038
# Poissons Ratio (z) = 0.54045 0.00043
#
# Static dielectric constant tensor:
#      x y z
#    x 1.770050 0.000000 -0.019160 
#    y 0.000000 1.852220 0.000000 
#    z -0.019160 0.000000 1.755190 
# 
# From -- ./inp_files/324258.got.cif
#   From: 2010.05.17/outbox.cif.g08.bks.cpg/sg12_163_cif.got.tgz:324258.got - 2010.06.03 13:09:07.
