data_PCOD9204226
_publ_section_title
;
Structure prediction by ZEFSAII (Michael W. Deem and Ramdas Pophale) SiO2 
 PCOD9204226
Probable space group: C 2/M
;
_chemical_formula_sum "Si O2"
_cell_formula_units_Z 60
_cell_length_a 13.816027
_cell_length_b 11.614903
_cell_length_c 17.307046
_cell_angle_alpha 90.000000
_cell_angle_beta 78.442802
_cell_angle_gamma 90.000000
_cell_volume 2720.983964
_symmetry_space_group_name_H-M "C 2/M"
_symmetry_group_IT_number 12
_symmetry_cell_setting 'monoclinic'
loop_
_space_group_symop_operation_xyz
x,y,z
-x,y,-z
-x,-y,-z
x,-y,z
1/2+x,1/2+y,z
1/2-x,1/2+y,-z
1/2-x,1/2-y,-z
1/2+x,1/2-y,z
loop_
_atom_site_type_symbol
_atom_site_label
_atom_site_fract_x
_atom_site_fract_y
_atom_site_fract_z
Si Si1 0.843391 0.310462 0.568887
Si Si2 0.169786 0.000000 0.603165
Si Si3 0.770513 0.631723 0.947161
Si Si4 0.998238 0.627491 0.907393
Si Si5 0.813335 0.866096 0.703856
Si Si6 0.658762 0.702759 0.816006
Si Si7 0.961177 0.165092 0.301222
Si Si8 0.940335 0.632503 0.399046
O O1 0.755169 0.399344 0.594778
O O2 0.820845 0.191799 0.617418
O O3 0.869583 0.310558 0.474347
O O4 0.946255 0.356107 0.590098
O O5 0.081230 0.098112 0.618959
O O6 0.759508 0.500000 0.984384
O O7 0.884364 0.640258 0.903407
O O8 0.704016 0.637931 0.881670
O O9 0.750000 0.750000 0.000000
O O10 0.033220 0.500000 0.879888
O O11 0.068710 0.721408 0.861470
O O12 0.000000 0.635334 0.000000
O O13 0.741241 0.785605 0.765392
O O14 0.923198 0.857376 0.723543
O O15 0.784466 0.000000 0.705569
O O16 0.608801 0.626382 0.757429
O O17 0.939417 0.299016 0.319405
O O18 0.913402 0.500000 0.396405
#
# Coordination Sequence:
#
# PCOD9204226 Si02
#       8
#     8   4   8   8   8   8   8   8
#     4  10  20  40  68  91 125 179 224 278 335 388
#     4  12  20  43  62  89 133 174 214 272 344 391
#     4  11  25  45  73 104 135 175 217 268 331 399
#     4  10  21  42  69  98 134 169 214 268 324 393
#     4  11  24  43  64  95 136 175 224 276 334 391
#     4  12  24  43  68  97 130 178 223 267 328 393
#     4  11  26  41  62  96 134 175 215 274 340 393
#     4  10  20  41  66  95 126 168 234 283 326 392
#
# _framework density 22.050847000000001
#
# number of rings (size 3 to 8) (size 9 to 14) (size 15 to 20)
#    0.000    1.200    4.667    1.600    0.933    2.133 
#    1.200    4.000    0.000    0.000    0.000    0.000 
#    0.000    0.000    0.000    0.000    0.000    0.000 
#
# Total GULP energy -167089.832853 kJ/mol
# GULP energy per Si atom -5569.661095 kJ/mol
# Density = 2.200066 g / cm^3
# Si number density = 22.050847 Si / 1000 Ang^3
#
#
#
# Elastic Constant Matrix: (Units=GPa)
#
#
# Indices 1 2 3 4 5 6 
#
# 1 104.0261 18.5173 22.6327 0.0000 -3.5582 0.0000
# 2 18.5173 152.4225 40.2729 0.0000 -6.0752 0.0000
# 3 22.6327 40.2729 36.7695 0.0000 1.2710 0.0000
# 4 0.0000 0.0000 0.0000 -16.5788 0.0000 10.5076
# 5 -3.5582 -6.0752 1.2710 0.0000 39.6014 0.0000
# 6 0.0000 0.0000 0.0000 10.5076 0.0000 12.2148
#
#
#
# Elastic Compliance Matrix: (Units=1/GPa)
#
#
# Indices 1 2 3 4 5 6 
#
# 1 0.011217 0.000744 -0.007767 0.000000 0.001371 0.000000
# 2 0.000744 0.009404 -0.010822 0.000000 0.001857 0.000000
# 3 -0.007767 -0.010822 0.043961 0.000000 -0.003769 0.000000
# 4 0.000000 0.000000 0.000000 -0.039035 0.000000 0.033580
# 5 0.001371 0.001857 -0.003769 0.000000 0.025781 0.000000
# 6 0.000000 0.000000 0.000000 0.033580 0.000000 0.052982
#
#
# Mechanical properties :
#
#
# Convention : Reuss Voigt Hill
#
# Bulk Modulus (GPa) = 34.61161 50.67376 42.64269
# Shear Modulus (GPa) = 33.41608 21.16714 27.29161
#
# Velocity S-wave (km/s) = 3.89705 3.10163 3.52187
# Velocity P-wave (km/s) = 5.99831 5.98808 5.99319
#
# Compressibility (1/GPa) = 0.02889204
#
# Stress axis : x y z
#
# Youngs Moduli (GPa) = 89.14834 106.34157 22.74768
#
# Poissons Ratio (x) = -0.07913 0.17668
# Poissons Ratio (y) = -0.06633 0.24617
# Poissons Ratio (z) = 0.69241 1.15081
#
# Static dielectric constant tensor:
#      x y z
#    x 1.825520 0.000000 0.051440 
#    y 0.000000 1.870990 0.000000 
#    z 0.051440 0.000000 1.861680 
# 
# From -- ./inp_files/269252.got.cif
#   From: 2010.05.17/outbox.cif.g08.bks.cpg/sg12_135_cif.got.tgz:269252.got - 2010.06.03 13:09:07.
