data_PCOD9204801
_publ_section_title
;
Structure prediction by ZEFSAII (Michael W. Deem and Ramdas Pophale) SiO2 
 PCOD9204801
Probable space group: C 2/M
;
_chemical_formula_sum "Si O2"
_cell_formula_units_Z 58
_cell_length_a 17.572648
_cell_length_b 14.961434
_cell_length_c 13.638957
_cell_angle_alpha 90.000000
_cell_angle_beta 39.706555
_cell_angle_gamma 90.000000
_cell_volume 2290.838422
_symmetry_space_group_name_H-M "C 2/M"
_symmetry_group_IT_number 12
_symmetry_cell_setting 'monoclinic'
loop_
_space_group_symop_operation_xyz
x,y,z
-x,y,-z
-x,-y,-z
x,-y,z
1/2+x,1/2+y,z
1/2-x,1/2+y,-z
1/2-x,1/2-y,-z
1/2+x,1/2-y,z
loop_
_atom_site_type_symbol
_atom_site_label
_atom_site_fract_x
_atom_site_fract_y
_atom_site_fract_z
Si Si1 0.663165 0.653208 0.937143
Si Si2 0.228739 0.596584 0.358153
Si Si3 0.107162 0.406446 0.184043
Si Si4 0.744138 0.858733 0.863709
Si Si5 0.000000 0.500000 0.500000
Si Si6 0.990065 0.103790 0.733560
Si Si7 0.103844 0.281196 0.626911
Si Si8 0.889712 0.602427 0.184944
O O1 0.669537 0.626026 0.818356
O O2 0.770482 0.599964 0.881110
O O3 0.702605 0.755798 0.909696
O O4 0.552092 0.627567 0.113580
O O5 0.259136 0.500000 0.373222
O O6 0.104799 0.577129 0.422062
O O7 0.202610 0.672193 0.462553
O O8 0.046547 0.500000 0.277222
O O9 0.022232 0.323890 0.283220
O O10 0.149816 0.406865 0.029520
O O11 0.874594 0.875692 0.778951
O O12 0.724682 0.890029 0.772454
O O13 0.091238 0.177062 0.616791
O O14 0.019633 0.000000 0.693864
O O15 0.111231 0.324384 0.728356
O O16 0.898415 0.500000 0.214652
O O17 0.000000 0.618395 0.000000
#
# Coordination Sequence:
#
# PCOD9204801 Si02
#       8
#     8   8   8   8   2   8   8   8
#     4  11  19  35  56  88 122 154 195 241 300 354
#     4  10  21  33  54  90 124 154 188 245 306 354
#     4  11  18  30  55  87 120 145 182 243 296 344
#     4  11  20  35  56  87 123 155 196 240 296 353
#     4   8  20  32  52  88 120 160 174 242 314 348
#     4  11  22  38  62  89 119 158 200 247 294 351
#     4  12  22  37  58  90 118 155 201 244 303 351
#     4  11  21  35  56  87 123 159 192 242 299 356
#
# _framework density 25.318241
#
# number of rings (size 3 to 8) (size 9 to 14) (size 15 to 20)
#    0.414    0.690    4.138    6.207    1.931    0.000 
#    0.000    0.690    0.000    8.690    0.000    0.000 
#    0.000    0.000    0.000    0.000    0.000    0.000 
#
# Total GULP energy -162126.450705 kJ/mol
# GULP energy per Si atom -5590.567266 kJ/mol
# Density = 2.526062 g / cm^3
# Si number density = 25.318241 Si / 1000 Ang^3
#
#
#
# Elastic Constant Matrix: (Units=GPa)
#
#
# Indices 1 2 3 4 5 6 
#
# 1 99.2729 30.0539 24.4391 0.0000 -9.6655 0.0000
# 2 30.0539 238.8688 21.1336 0.0000 6.0178 0.0000
# 3 24.4391 21.1336 29.1191 0.0000 6.2884 0.0000
# 4 0.0000 0.0000 0.0000 5.1417 0.0000 19.0782
# 5 -9.6655 6.0178 6.2884 0.0000 39.6071 0.0000
# 6 0.0000 0.0000 0.0000 19.0782 0.0000 10.3448
#
#
#
# Elastic Compliance Matrix: (Units=1/GPa)
#
#
# Indices 1 2 3 4 5 6 
#
# 1 0.013854 -0.000799 -0.012223 0.000000 0.005443 0.000000
# 2 -0.000799 0.004521 -0.002506 0.000000 -0.000484 0.000000
# 3 -0.012223 -0.002506 0.048649 0.000000 -0.010326 0.000000
# 4 0.000000 0.000000 0.000000 -0.033286 0.000000 0.061387
# 5 0.005443 -0.000484 -0.010326 0.000000 0.028289 0.000000
# 6 0.000000 0.000000 0.000000 0.061387 0.000000 -0.016544
#
#
# Mechanical properties :
#
#
# Convention : Reuss Voigt Hill
#
# Bulk Modulus (GPa) = 27.80254 57.61267 42.70761
# Shear Modulus (GPa) = 56.47866 30.46101 43.46983
#
# Velocity S-wave (km/s) = 4.72821 3.47237 4.14809
# Velocity P-wave (km/s) = 6.38850 6.23549 6.31246
#
# Compressibility (1/GPa) = 0.03596793
#
# Stress axis : x y z
#
# Youngs Moduli (GPa) = 72.18067 221.19890 20.55531
#
# Poissons Ratio (x) = 0.17669 0.25125
# Poissons Ratio (y) = 0.05766 0.05151
# Poissons Ratio (z) = 0.88228 0.55436
#
# Static dielectric constant tensor:
#      x y z
#    x 1.997400 0.000000 -0.031490 
#    y 0.000000 2.014330 0.000000 
#    z -0.031490 0.000000 1.923420 
# 
# From -- ./inp_files/316297.got.cif
#   From: 2010.05.17/outbox.cif.g08.bks.cpg/sg12_159_cif.got.tgz:316297.got - 2010.06.03 13:09:07.
