data_PCOD9204553
_publ_section_title
;
Structure prediction by ZEFSAII (Michael W. Deem and Ramdas Pophale) SiO2 
 PCOD9204553
Probable space group: C 2/M
;
_chemical_formula_sum "Si O2"
_cell_formula_units_Z 28
_cell_length_a 10.565175
_cell_length_b 19.566236
_cell_length_c 7.238079
_cell_angle_alpha 90.000000
_cell_angle_beta 134.479142
_cell_angle_gamma 90.000000
_cell_volume 1067.590410
_symmetry_space_group_name_H-M "C 2/M"
_symmetry_group_IT_number 12
_symmetry_cell_setting 'monoclinic'
loop_
_space_group_symop_operation_xyz
x,y,z
-x,y,-z
-x,-y,-z
x,-y,z
1/2+x,1/2+y,z
1/2-x,1/2+y,-z
1/2-x,1/2-y,-z
1/2+x,1/2-y,z
loop_
_atom_site_type_symbol
_atom_site_label
_atom_site_fract_x
_atom_site_fract_y
_atom_site_fract_z
Si Si1 0.750000 0.250000 0.000000
Si Si2 0.457709 0.652643 0.751141
Si Si3 0.955102 0.000000 0.237179
Si Si4 0.056544 0.648446 0.273394
Si Si5 0.964819 0.500000 0.184729
O O1 0.621674 0.316158 0.808605
O O2 0.586397 0.198060 0.783596
O O3 0.469322 0.570778 0.761999
O O4 0.258702 0.672133 0.497616
O O5 0.500000 0.681694 0.000000
O O6 0.000000 0.000000 0.500000
O O7 0.744457 0.000000 0.995947
O O8 0.044475 0.571121 0.334539
O O9 0.000000 0.648480 0.000000
O O10 0.000000 0.500000 0.000000
#
# Coordination Sequence:
#
# PCOD9204553 Si02
#       5
#     4   8   4   8   4
#     4  12  26  46  72 104 156 194 240 286 384 444
#     4  12  28  47  71 111 151 188 242 311 368 427
#     4  12  23  48  80 105 140 198 252 301 366 431
#     4  11  24  45  72 102 141 191 248 296 353 440
#     4  10  20  42  69 104 130 176 248 303 336 418
#
# _framework density 26.227285999999999
#
# number of rings (size 3 to 8) (size 9 to 14) (size 15 to 20)
#    0.000    0.571    2.857    6.429    0.000    3.429 
#    0.000    1.429    0.000    0.000    0.000    0.000 
#    0.000    0.000    0.000    0.000    0.000    0.000 
#
# Total GULP energy -78016.349137 kJ/mol
# GULP energy per Si atom -5572.596367 kJ/mol
# Density = 2.616759 g / cm^3
# Si number density = 26.227286 Si / 1000 Ang^3
#
#
#
# Elastic Constant Matrix: (Units=GPa)
#
#
# Indices 1 2 3 4 5 6 
#
# 1 66.9945 19.4195 73.1887 0.0000 36.2461 0.0000
# 2 19.4195 228.4337 38.2958 0.0000 40.6906 0.0000
# 3 73.1887 38.2958 226.3443 0.0000 66.1823 0.0000
# 4 0.0000 0.0000 0.0000 30.1753 0.0000 57.0186
# 5 36.2461 40.6906 66.1823 0.0000 84.7190 0.0000
# 6 0.0000 0.0000 0.0000 57.0186 0.0000 37.9571
#
#
#
# Elastic Compliance Matrix: (Units=1/GPa)
#
#
# Indices 1 2 3 4 5 6 
#
# 1 0.025027 -0.000041 -0.006429 0.000000 -0.005666 0.000000
# 2 -0.000041 0.004793 -0.000168 0.000000 -0.002153 0.000000
# 3 -0.006429 -0.000168 0.007384 0.000000 -0.002937 0.000000
# 4 0.000000 0.000000 0.000000 -0.018025 0.000000 0.027077
# 5 -0.005666 -0.002153 -0.002937 0.000000 0.017556 0.000000
# 6 0.000000 0.000000 0.000000 0.027077 0.000000 -0.014330
#
#
# Mechanical properties :
#
#
# Convention : Reuss Voigt Hill
#
# Bulk Modulus (GPa) = 41.79112 87.06451 64.42782
# Shear Modulus (GPa) = 114.52884 56.62816 85.57850
#
# Velocity S-wave (km/s) = 6.61533 4.65169 5.71843
# Velocity P-wave (km/s) = 8.62084 7.88157 8.25948
#
# Compressibility (1/GPa) = 0.02392853
#
# Stress axis : x y z
#
# Youngs Moduli (GPa) = 39.95654 208.64457 135.42529
#
# Poissons Ratio (x) = 0.00847 0.87066
# Poissons Ratio (y) = 0.00162 0.02278
# Poissons Ratio (z) = 0.25688 0.03509
#
# Static dielectric constant tensor:
#      x y z
#    x 2.208130 0.000000 -0.129730 
#    y 0.000000 2.044340 0.000000 
#    z -0.129730 0.000000 2.010130 
# 
# From -- ./inp_files/49134.got.cif
#   From: 2010.05.17/outbox.cif.g08.bks.cpg/sg12_25_cif.got.tgz:49134.got - 2010.06.03 13:09:07.
