data_PCOD9204459
_publ_section_title
;
Structure prediction by ZEFSAII (Michael W. Deem and Ramdas Pophale) SiO2 
 PCOD9204459
Probable space group: C 2/M
;
_chemical_formula_sum "Si O2"
_cell_formula_units_Z 44
_cell_length_a 10.268054
_cell_length_b 23.932015
_cell_length_c 10.100842
_cell_angle_alpha 90.000000
_cell_angle_beta 42.417978
_cell_angle_gamma 90.000000
_cell_volume 1674.283026
_symmetry_space_group_name_H-M "C 2/M"
_symmetry_group_IT_number 12
_symmetry_cell_setting 'monoclinic'
loop_
_space_group_symop_operation_xyz
x,y,z
-x,y,-z
-x,-y,-z
x,-y,z
1/2+x,1/2+y,z
1/2-x,1/2+y,-z
1/2-x,1/2-y,-z
1/2+x,1/2-y,z
loop_
_atom_site_type_symbol
_atom_site_label
_atom_site_fract_x
_atom_site_fract_y
_atom_site_fract_z
Si Si1 0.196691 0.000000 0.221192
Si Si2 0.588871 0.000000 0.671439
Si Si3 0.213471 0.590482 0.205574
Si Si4 0.858651 0.876686 0.810706
Si Si5 0.076672 0.000000 0.777448
Si Si6 0.000000 0.312689 0.500000
Si Si7 0.000000 0.301978 0.000000
Si Si8 0.973782 0.761948 0.775446
O O1 0.123293 0.934594 0.284664
O O2 0.369638 0.000000 0.201491
O O3 0.149220 0.000000 0.094572
O O4 0.474190 0.054001 0.701146
O O5 0.802341 0.000000 0.449179
O O6 0.342145 0.551127 0.200641
O O7 0.162712 0.643705 0.331259
O O8 0.313283 0.610992 0.997735
O O9 0.009268 0.825744 0.704589
O O10 0.671202 0.844578 0.900775
O O11 0.024232 0.275568 0.612166
O O12 0.920501 0.261806 0.175263
O O13 0.750000 0.750000 0.000000
#
# Coordination Sequence:
#
# PCOD9204459 Si02
#       8
#     4   4   8   8   4   4   4   8
#     4  12  27  42  68  97 148 194 218 287 383 419
#     4  11  22  41  66 109 137 178 240 298 345 420
#     4  11  21  40  79 100 133 182 246 297 340 418
#     4  11  24  45  67 104 138 180 243 289 352 429
#     4  11  24  41  62 109 143 182 230 289 362 431
#     4  12  20  43  74 103 128 190 242 296 352 408
#     4  10  20  41  72  99 138 184 228 302 346 406
#     4  10  23  42  67 101 139 175 234 295 357 414
#
# _framework density 26.279907000000001
#
# number of rings (size 3 to 8) (size 9 to 14) (size 15 to 20)
#    0.000    1.091    5.455    3.000    0.000    4.000 
#    3.273    3.636    0.000    0.000    0.000    0.000 
#    0.000    0.000    0.000    0.000    0.000    0.000 
#
# Total GULP energy -122732.467938 kJ/mol
# GULP energy per Si atom -5578.748543 kJ/mol
# Density = 2.622009 g / cm^3
# Si number density = 26.279907 Si / 1000 Ang^3
#
#
#
# Elastic Constant Matrix: (Units=GPa)
#
#
# Indices 1 2 3 4 5 6 
#
# 1 140.8570 61.8197 27.6264 0.0000 34.3423 0.0000
# 2 61.8197 259.0216 52.6128 0.0000 21.8069 0.0000
# 3 27.6264 52.6128 139.4135 0.0000 20.8610 0.0000
# 4 0.0000 0.0000 0.0000 46.7845 0.0000 13.7451
# 5 34.3423 21.8069 20.8610 0.0000 41.6261 0.0000
# 6 0.0000 0.0000 0.0000 13.7451 0.0000 53.2976
#
#
#
# Elastic Compliance Matrix: (Units=1/GPa)
#
#
# Indices 1 2 3 4 5 6 
#
# 1 0.009552 -0.001651 -0.000238 0.000000 -0.006897 0.000000
# 2 -0.001651 0.004557 -0.001340 0.000000 -0.000354 0.000000
# 3 -0.000238 -0.001340 0.008207 0.000000 -0.003215 0.000000
# 4 0.000000 0.000000 0.000000 0.023127 0.000000 -0.005964
# 5 -0.006897 -0.000354 -0.003215 0.000000 0.031510 0.000000
# 6 0.000000 0.000000 0.000000 -0.005964 0.000000 0.020301
#
#
# Mechanical properties :
#
#
# Convention : Reuss Voigt Hill
#
# Bulk Modulus (GPa) = 63.05670 91.48997 77.27334
# Shear Modulus (GPa) = 45.87366 54.82387 50.34876
#
# Velocity S-wave (km/s) = 4.18255 4.57240 4.38181
# Velocity P-wave (km/s) = 6.88268 7.92243 7.42079
#
# Compressibility (1/GPa) = 0.01585874
#
# Stress axis : x y z
#
# Youngs Moduli (GPa) = 104.68995 219.46467 121.85318
#
# Poissons Ratio (x) = 0.36229 0.02899
# Poissons Ratio (y) = 0.17282 0.16322
# Poissons Ratio (z) = 0.02491 0.29397
#
# Static dielectric constant tensor:
#      x y z
#    x 2.425280 0.000000 -0.098070 
#    y 0.000000 2.105800 0.000000 
#    z -0.098070 0.000000 2.091250 
# 
# From -- ./inp_files/65216.got.cif
#   From: 2010.05.17/outbox.cif.g08.bks.cpg/sg12_33_cif.got.tgz:65216.got - 2010.06.03 13:09:07.
