data_PCOD9204428
_publ_section_title
;
Structure prediction by ZEFSAII (Michael W. Deem and Ramdas Pophale) SiO2 
 PCOD9204428
Probable space group: C 2/M
;
_chemical_formula_sum "Si O2"
_cell_formula_units_Z 56
_cell_length_a 20.261819
_cell_length_b 8.892907
_cell_length_c 15.837387
_cell_angle_alpha 90.000000
_cell_angle_beta 97.517911
_cell_angle_gamma 90.000000
_cell_volume 2829.152659
_symmetry_space_group_name_H-M "C 2/M"
_symmetry_group_IT_number 12
_symmetry_cell_setting 'monoclinic'
loop_
_space_group_symop_operation_xyz
x,y,z
-x,y,-z
-x,-y,-z
x,-y,z
1/2+x,1/2+y,z
1/2-x,1/2+y,-z
1/2-x,1/2-y,-z
1/2+x,1/2-y,z
loop_
_atom_site_type_symbol
_atom_site_label
_atom_site_fract_x
_atom_site_fract_y
_atom_site_fract_z
Si Si1 0.922212 0.678175 0.203641
Si Si2 0.789396 0.321427 0.428896
Si Si3 0.836546 0.179922 0.846532
Si Si4 0.788378 0.821394 0.250617
Si Si5 0.569335 0.179140 0.468344
Si Si6 0.925473 0.176586 0.023852
Si Si7 0.439024 0.680013 0.713793
O O1 0.921756 0.500000 0.215807
O O2 0.859194 0.751220 0.238783
O O3 0.917398 0.722164 0.104458
O O4 0.990620 0.746390 0.250486
O O5 0.777152 0.500000 0.421930
O O6 0.750000 0.250000 0.500000
O O7 0.769009 0.242918 0.338920
O O8 0.867891 0.297102 0.460036
O O9 0.767688 0.265867 0.823764
O O10 0.885458 0.220424 0.776965
O O11 0.824991 0.000000 0.840340
O O12 0.874335 0.211854 0.940240
O O13 0.792191 0.000000 0.252914
O O14 0.500000 0.226574 0.500000
O O15 0.580757 0.263054 0.382095
O O16 0.564849 0.000000 0.450547
O O17 0.917290 0.000000 0.046333
O O18 0.000000 0.192683 0.000000
O O19 0.445594 0.500000 0.715357
#
# Coordination Sequence:
#
# PCOD9204428 Si02
#       7
#     8   8   8   8   8   8   8
#     4  12  25  41  64  93 129 168 210 260 315 374
#     4  11  23  41  65  92 126 166 210 259 314 374
#     4  10  22  41  66  93 126 163 203 256 314 375
#     4  12  26  43  64  92 128 168 214 262 315 374
#     4  10  22  39  59  86 120 159 204 257 311 364
#     4  10  20  41  68  95 127 163 206 256 313 373
#     4  11  22  39  64  93 123 161 208 257 311 372
#
# _framework density 19.793914000000001
#
# number of rings (size 3 to 8) (size 9 to 14) (size 15 to 20)
#    0.000    1.143    1.429    5.143    0.000    7.429 
#    0.000    0.000    0.000    0.000    0.000    0.000 
#    0.000    0.000    0.000    0.000    0.000    0.000 
#
# Total GULP energy -156703.030140 kJ/mol
# GULP energy per Si atom -5596.536791 kJ/mol
# Density = 1.974886 g / cm^3
# Si number density = 19.793914 Si / 1000 Ang^3
#
#
#
# Elastic Constant Matrix: (Units=GPa)
#
#
# Indices 1 2 3 4 5 6 
#
# 1 63.6085 27.3002 -9.7155 0.0000 8.3248 0.0000
# 2 27.3002 66.9721 19.6567 0.0000 14.5373 0.0000
# 3 -9.7155 19.6567 54.6832 0.0000 14.6507 0.0000
# 4 0.0000 0.0000 0.0000 38.1249 0.0000 2.3244
# 5 8.3248 14.5373 14.6507 0.0000 26.2715 0.0000
# 6 0.0000 0.0000 0.0000 2.3244 0.0000 26.6811
#
#
#
# Elastic Compliance Matrix: (Units=1/GPa)
#
#
# Indices 1 2 3 4 5 6 
#
# 1 0.022605 -0.010588 0.009607 0.000000 -0.006661 0.000000
# 2 -0.010588 0.022798 -0.008929 0.000000 -0.004280 0.000000
# 3 0.009607 -0.008929 0.026682 0.000000 -0.012983 0.000000
# 4 0.000000 0.000000 0.000000 0.026370 0.000000 -0.002297
# 5 -0.006661 -0.004280 -0.012983 0.000000 0.049783 0.000000
# 6 0.000000 0.000000 0.000000 -0.002297 0.000000 0.037680
#
#
# Mechanical properties :
#
#
# Convention : Reuss Voigt Hill
#
# Bulk Modulus (GPa) = 19.13395 28.86074 23.99735
# Shear Modulus (GPa) = 22.40548 28.08366 25.24457
#
# Velocity S-wave (km/s) = 3.36808 3.77079 3.57511
# Velocity P-wave (km/s) = 4.98125 5.79402 5.40294
#
# Compressibility (1/GPa) = 0.05226311
#
# Stress axis : x y z
#
# Youngs Moduli (GPa) = 44.23863 43.86415 37.47831
#
# Poissons Ratio (x) = 0.46444 -0.36005
# Poissons Ratio (y) = 0.46841 0.33466
# Poissons Ratio (z) = -0.42500 0.39168
#
# Static dielectric constant tensor:
#      x y z
#    x 1.687730 0.000000 -0.001180 
#    y 0.000000 1.657600 0.000000 
#    z -0.001180 0.000000 1.693720 
# 
# From -- ./inp_files/230852.got.cif
#   From: 2010.05.17/outbox.cif.g08.bks.cpg/sg12_116_cif.got.tgz:230852.got - 2010.06.03 13:09:07.
