data_PCOD9204484
_publ_section_title
;
Structure prediction by ZEFSAII (Michael W. Deem and Ramdas Pophale) SiO2 
 PCOD9204484
Probable space group: C 2/M
;
_chemical_formula_sum "Si O2"
_cell_formula_units_Z 36
_cell_length_a 10.215872
_cell_length_b 27.978492
_cell_length_c 7.295641
_cell_angle_alpha 90.000000
_cell_angle_beta 132.541447
_cell_angle_gamma 90.000000
_cell_volume 1536.406016
_symmetry_space_group_name_H-M "C 2/M"
_symmetry_group_IT_number 12
_symmetry_cell_setting 'monoclinic'
loop_
_space_group_symop_operation_xyz
x,y,z
-x,y,-z
-x,-y,-z
x,-y,z
1/2+x,1/2+y,z
1/2-x,1/2+y,-z
1/2-x,1/2-y,-z
1/2+x,1/2-y,z
loop_
_atom_site_type_symbol
_atom_site_label
_atom_site_fract_x
_atom_site_fract_y
_atom_site_fract_z
Si Si1 0.794568 0.743142 0.260234
Si Si2 0.500000 0.920486 0.500000
Si Si3 0.669633 0.050972 0.297076
Si Si4 0.714754 0.153295 0.222952
Si Si5 0.172454 0.856613 0.077285
O O1 0.744086 0.792136 0.316018
O O2 0.694619 0.693687 0.204730
O O3 0.000000 0.734676 0.500000
O O4 0.750000 0.750000 0.000000
O O5 0.410185 0.949282 0.576302
O O6 0.348228 0.887102 0.273075
O O7 0.765505 0.000000 0.353577
O O8 0.500000 0.051661 0.000000
O O9 0.761253 0.103139 0.365061
O O10 0.500000 0.151632 0.000000
O O11 0.826137 0.151588 0.139091
O O12 0.000000 0.880740 0.000000
#
# Coordination Sequence:
#
# PCOD9204484 Si02
#       5
#     8   4   8   8   8
#     4  10  22  39  63  97 142 185 232 284 345 418
#     4  12  21  42  72 100 138 178 233 278 356 416
#     4  10  21  39  69  99 131 177 232 287 347 413
#     4  10  20  42  62  94 134 179 229 284 342 409
#     4  11  23  41  65 102 141 182 226 282 344 418
#
# _framework density 23.431307
#
# number of rings (size 3 to 8) (size 9 to 14) (size 15 to 20)
#    0.000    1.556    5.556    1.000    0.000    3.556 
#    0.000    7.778    0.000   10.667    0.000    0.000 
#    0.000    0.000    0.000    0.000    0.000    0.000 
#
# Total GULP energy -100440.323436 kJ/mol
# GULP energy per Si atom -5580.017969 kJ/mol
# Density = 2.337798 g / cm^3
# Si number density = 23.431307 Si / 1000 Ang^3
#
#
#
# Elastic Constant Matrix: (Units=GPa)
#
#
# Indices 1 2 3 4 5 6 
#
# 1 88.4150 17.2729 3.4842 0.0000 -4.2953 0.0000
# 2 17.2729 195.1768 -1.1510 0.0000 0.6859 0.0000
# 3 3.4842 -1.1510 52.4130 0.0000 1.8388 0.0000
# 4 0.0000 0.0000 0.0000 23.8571 0.0000 2.4335
# 5 -4.2953 0.6859 1.8388 0.0000 50.1764 0.0000
# 6 0.0000 0.0000 0.0000 2.4335 0.0000 15.9800
#
#
#
# Elastic Compliance Matrix: (Units=1/GPa)
#
#
# Indices 1 2 3 4 5 6 
#
# 1 0.011596 -0.001035 -0.000830 0.000000 0.001037 0.000000
# 2 -0.001035 0.005217 0.000189 0.000000 -0.000167 0.000000
# 3 -0.000830 0.000189 0.019166 0.000000 -0.000776 0.000000
# 4 0.000000 0.000000 0.000000 0.042578 0.000000 -0.006484
# 5 0.001037 -0.000167 -0.000776 0.000000 0.020049 0.000000
# 6 0.000000 0.000000 0.000000 -0.006484 0.000000 0.063566
#
#
# Mechanical properties :
#
#
# Convention : Reuss Voigt Hill
#
# Bulk Modulus (GPa) = 30.64925 41.69078 36.17001
# Shear Modulus (GPa) = 28.34512 39.09595 33.72054
#
# Velocity S-wave (km/s) = 3.48186 4.08920 3.79769
# Velocity P-wave (km/s) = 5.41049 6.33457 5.89068
#
# Compressibility (1/GPa) = 0.03262723
#
# Stress axis : x y z
#
# Youngs Moduli (GPa) = 86.24013 191.68711 52.17630
#
# Poissons Ratio (x) = 0.19834 0.04330
# Poissons Ratio (y) = 0.08924 -0.00987
# Poissons Ratio (z) = 0.07157 -0.03627
#
# Static dielectric constant tensor:
#      x y z
#    x 1.779620 0.000000 0.039390 
#    y 0.000000 1.949720 0.000000 
#    z 0.039390 0.000000 1.860580 
# 
# From -- ./inp_files/53912.got.cif
#   From: 2010.05.17/outbox.cif.g08.bks.cpg/sg12_27_cif.got.tgz:53912.got - 2010.06.03 13:09:07.
