data_PCOD9204264
_publ_section_title
;
Structure prediction by ZEFSAII (Michael W. Deem and Ramdas Pophale) SiO2 
 PCOD9204264
Probable space group: C 2/M
;
_chemical_formula_sum "Si O2"
_cell_formula_units_Z 52
_cell_length_a 11.580028
_cell_length_b 29.779279
_cell_length_c 8.666036
_cell_angle_alpha 90.000000
_cell_angle_beta 118.146488
_cell_angle_gamma 90.000000
_cell_volume 2635.038668
_symmetry_space_group_name_H-M "C 2/M"
_symmetry_group_IT_number 12
_symmetry_cell_setting 'monoclinic'
loop_
_space_group_symop_operation_xyz
x,y,z
-x,y,-z
-x,-y,-z
x,-y,z
1/2+x,1/2+y,z
1/2-x,1/2+y,-z
1/2-x,1/2-y,-z
1/2+x,1/2-y,z
loop_
_atom_site_type_symbol
_atom_site_label
_atom_site_fract_x
_atom_site_fract_y
_atom_site_fract_z
Si Si1 0.500000 0.334876 0.000000
Si Si2 0.643260 0.946754 0.169704
Si Si3 0.678696 0.878144 0.467974
Si Si4 0.848903 0.814386 0.412111
Si Si5 0.240031 0.233325 0.173204
Si Si6 0.811138 0.118762 0.108157
Si Si7 0.102615 0.650822 0.740046
O O1 0.384603 0.299384 0.886125
O O2 0.564474 0.369023 0.917852
O O3 0.673926 0.921516 0.352674
O O4 0.759495 0.929701 0.129199
O O5 0.644884 0.000000 0.191994
O O6 0.500000 0.935518 0.000000
O O7 0.799421 0.843660 0.525648
O O8 0.549448 0.852742 0.327271
O O9 0.649537 0.882726 0.632037
O O10 0.753257 0.774320 0.299753
O O11 0.835124 0.852204 0.273556
O O12 0.000000 0.799539 0.500000
O O13 0.362155 0.201070 0.283303
O O14 0.250000 0.250000 0.000000
O O15 0.687228 0.139343 0.941133
#
# Coordination Sequence:
#
# PCOD9204264 Si02
#       7
#     4   8   8   8   8   8   8
#     4  10  22  38  63  84 118 170 209 258 292 364
#     4  10  20  40  69  97 120 152 201 255 316 387
#     4  10  23  38  61  87 125 159 201 255 312 368
#     4  11  25  37  56  87 123 168 212 255 297 356
#     4  11  23  38  58  85 121 163 225 252 293 350
#     4  10  21  41  63  86 125 164 204 247 315 372
#     4  10  21  39  57  89 119 166 201 257 307 351
#
# _framework density 19.734055999999999
#
# number of rings (size 3 to 8) (size 9 to 14) (size 15 to 20)
#    0.000    1.692    4.615    0.000    8.615    0.615 
#    0.000    2.692    0.000    7.385    0.000    0.000 
#    0.000    0.000    0.000    0.000    0.000    0.000 
#
# Total GULP energy -144742.411388 kJ/mol
# GULP energy per Si atom -5567.015823 kJ/mol
# Density = 1.968914 g / cm^3
# Si number density = 19.734056 Si / 1000 Ang^3
#
#
#
# Elastic Constant Matrix: (Units=GPa)
#
#
# Indices 1 2 3 4 5 6 
#
# 1 95.9118 44.4577 12.9336 0.0000 8.1716 0.0000
# 2 44.4577 108.1725 13.3065 0.0000 -2.8981 0.0000
# 3 12.9336 13.3065 55.2262 0.0000 6.0031 0.0000
# 4 0.0000 0.0000 0.0000 21.3473 0.0000 3.2202
# 5 8.1716 -2.8981 6.0031 0.0000 15.9330 0.0000
# 6 0.0000 0.0000 0.0000 3.2202 0.0000 29.3191
#
#
#
# Elastic Compliance Matrix: (Units=1/GPa)
#
#
# Indices 1 2 3 4 5 6 
#
# 1 0.013919 -0.005806 -0.001012 0.000000 -0.007814 0.000000
# 2 -0.005806 0.012062 -0.002199 0.000000 0.006000 0.000000
# 3 -0.001012 -0.002199 0.019667 0.000000 -0.007291 0.000000
# 4 0.000000 0.000000 0.000000 0.047634 0.000000 -0.005232
# 5 -0.007814 0.006000 -0.007291 0.000000 0.070609 0.000000
# 6 0.000000 0.000000 0.000000 -0.005232 0.000000 0.034682
#
#
# Mechanical properties :
#
#
# Convention : Reuss Voigt Hill
#
# Bulk Modulus (GPa) = 36.21133 44.52290 40.36711
# Shear Modulus (GPa) = 22.14255 25.89405 24.01830
#
# Velocity S-wave (km/s) = 3.35333 3.62629 3.49248
# Velocity P-wave (km/s) = 5.77777 6.33591 6.06326
#
# Compressibility (1/GPa) = 0.02761567
#
# Stress axis : x y z
#
# Youngs Moduli (GPa) = 71.84184 82.90653 50.84773
#
# Poissons Ratio (x) = 0.48133 0.05144
# Poissons Ratio (y) = 0.41709 0.11180
# Poissons Ratio (z) = 0.07268 0.18229
#
# Static dielectric constant tensor:
#      x y z
#    x 1.876570 0.000000 -0.061120 
#    y 0.000000 1.673390 0.000000 
#    z -0.061120 0.000000 1.752900 
# 
# From -- ./inp_files/54355.got.cif
#   From: 2010.05.17/outbox.cif.g08.bks.cpg/sg12_28_cif.got.tgz:54355.got - 2010.06.03 13:09:07.
