data_PCOD9204227
_publ_section_title
;
Structure prediction by ZEFSAII (Michael W. Deem and Ramdas Pophale) SiO2 
 PCOD9204227
Probable space group: C 2/M
;
_chemical_formula_sum "Si O2"
_cell_formula_units_Z 52
_cell_length_a 9.114296
_cell_length_b 16.963036
_cell_length_c 17.803338
_cell_angle_alpha 90.000000
_cell_angle_beta 91.247370
_cell_angle_gamma 90.000000
_cell_volume 2751.852942
_symmetry_space_group_name_H-M "C 2/M"
_symmetry_group_IT_number 12
_symmetry_cell_setting 'monoclinic'
loop_
_space_group_symop_operation_xyz
x,y,z
-x,y,-z
-x,-y,-z
x,-y,z
1/2+x,1/2+y,z
1/2-x,1/2+y,-z
1/2-x,1/2-y,-z
1/2+x,1/2-y,z
loop_
_atom_site_type_symbol
_atom_site_label
_atom_site_fract_x
_atom_site_fract_y
_atom_site_fract_z
Si Si1 0.838168 0.711767 0.745726
Si Si2 0.758225 0.686314 0.399290
Si Si3 0.332045 0.588140 0.160236
Si Si4 0.500000 0.277555 0.500000
Si Si5 0.407059 0.912666 0.285046
Si Si6 0.833759 0.871681 0.836791
Si Si7 0.676537 0.664926 0.998887
O O1 0.783923 0.753815 0.669036
O O2 0.723641 0.650694 0.779813
O O3 0.858446 0.781679 0.807045
O O4 0.980317 0.658625 0.729912
O O5 0.611545 0.675459 0.447096
O O6 0.821443 0.608932 0.360379
O O7 0.888727 0.724519 0.449586
O O8 0.276166 0.500000 0.172924
O O9 0.507990 0.588605 0.165158
O O10 0.287372 0.617919 0.076517
O O11 0.286188 0.908846 0.218446
O O12 0.473620 0.000000 0.289137
O O13 0.780766 0.874518 0.921970
O O14 0.500000 0.673632 0.000000
O O15 0.750000 0.750000 0.000000
#
# Coordination Sequence:
#
# PCOD9204227 Si02
#       7
#     8   8   8   4   8   8   8
#     4  11  21  38  61  88 116 159 197 234 287 351
#     4  10  21  39  66  91 115 155 193 236 277 354
#     4  11  23  37  57  87 119 152 199 252 297 338
#     4  10  20  40  68  92 114 146 202 234 276 342
#     4  11  23  38  58  90 125 154 189 240 295 344
#     4  10  21  37  61  81 114 160 205 244 286 347
#     4  10  21  36  58  81 113 156 203 246 292 341
#
# _framework density 18.896357999999999
#
# number of rings (size 3 to 8) (size 9 to 14) (size 15 to 20)
#    0.000    1.538    3.077    2.769    4.308    3.385 
#    0.000    0.769    0.000    2.308    0.000    0.000 
#    0.000    0.000    0.000    0.000    0.000    0.000 
#
# Total GULP energy -145122.332355 kJ/mol
# GULP energy per Si atom -5581.628168 kJ/mol
# Density = 1.885335 g / cm^3
# Si number density = 18.896358 Si / 1000 Ang^3
#
#
#
# Elastic Constant Matrix: (Units=GPa)
#
#
# Indices 1 2 3 4 5 6 
#
# 1 52.4211 8.1424 21.7000 0.0000 -4.0803 0.0000
# 2 8.1424 99.4182 10.1697 0.0000 -0.9340 0.0000
# 3 21.7000 10.1697 87.1691 0.0000 1.5032 0.0000
# 4 0.0000 0.0000 0.0000 2.8642 0.0000 2.1122
# 5 -4.0803 -0.9340 1.5032 0.0000 33.2452 0.0000
# 6 0.0000 0.0000 0.0000 2.1122 0.0000 10.2228
#
#
#
# Elastic Compliance Matrix: (Units=1/GPa)
#
#
# Indices 1 2 3 4 5 6 
#
# 1 0.021684 -0.001206 -0.005307 0.000000 0.002867 0.000000
# 2 -0.001206 0.010251 -0.000899 0.000000 0.000181 0.000000
# 3 -0.005307 -0.000899 0.012920 0.000000 -0.001261 0.000000
# 4 0.000000 0.000000 0.000000 0.411893 0.000000 -0.085103
# 5 0.002867 0.000181 -0.001261 0.000000 0.030494 0.000000
# 6 0.000000 0.000000 0.000000 -0.085103 0.000000 0.115404
#
#
# Mechanical properties :
#
#
# Convention : Reuss Voigt Hill
#
# Bulk Modulus (GPa) = 33.29904 35.44808 34.37356
# Shear Modulus (GPa) = 7.96841 22.53285 15.25063
#
# Velocity S-wave (km/s) = 2.05574 3.45692 2.84397
# Velocity P-wave (km/s) = 4.82648 5.89353 5.38649
#
# Compressibility (1/GPa) = 0.03003089
#
# Stress axis : x y z
#
# Youngs Moduli (GPa) = 46.11790 97.55198 77.40172
#
# Poissons Ratio (x) = 0.11766 0.41075
# Poissons Ratio (y) = 0.05562 0.06957
# Poissons Ratio (z) = 0.24473 0.08768
#
# Static dielectric constant tensor:
#      x y z
#    x 1.661680 0.000000 -0.022290 
#    y 0.000000 1.646050 0.000000 
#    z -0.022290 0.000000 1.671140 
# 
# From -- ./inp_files/256623.got.cif
#   From: 2010.05.17/outbox.cif.g08.bks.cpg/sg12_129_cif.got.tgz:256623.got - 2010.06.03 13:09:07.
