data_PCOD9204982
_publ_section_title
;
Structure prediction by ZEFSAII (Michael W. Deem and Ramdas Pophale) SiO2 
 PCOD9204982
Probable space group: C 2/M
;
_chemical_formula_sum "Si O2"
_cell_formula_units_Z 36
_cell_length_a 12.743705
_cell_length_b 27.711287
_cell_length_c 5.700391
_cell_angle_alpha 90.000000
_cell_angle_beta 63.337892
_cell_angle_gamma 90.000000
_cell_volume 1799.009376
_symmetry_space_group_name_H-M "C 2/M"
_symmetry_group_IT_number 12
_symmetry_cell_setting 'monoclinic'
loop_
_space_group_symop_operation_xyz
x,y,z
-x,y,-z
-x,-y,-z
x,-y,z
1/2+x,1/2+y,z
1/2-x,1/2+y,-z
1/2-x,1/2-y,-z
1/2+x,1/2-y,z
loop_
_atom_site_type_symbol
_atom_site_label
_atom_site_fract_x
_atom_site_fract_y
_atom_site_fract_z
Si Si1 0.500000 0.843211 0.500000
Si Si2 0.777955 0.623413 0.981913
Si Si3 0.439822 0.558034 0.810031
Si Si4 0.826933 0.308465 0.302214
Si Si5 0.136774 0.207044 0.874384
O O1 0.605740 0.875191 0.291633
O O2 0.435179 0.809689 0.374154
O O3 0.697786 0.669270 0.985204
O O4 0.692419 0.578360 0.056398
O O5 0.822049 0.639059 0.192447
O O6 0.500000 0.574074 0.500000
O O7 0.441487 0.500000 0.806371
O O8 0.500000 0.573206 0.000000
O O9 0.845975 0.264274 0.104242
O O10 0.705359 0.300736 0.560779
O O11 0.000000 0.196758 0.000000
#
# Coordination Sequence:
#
# PCOD9204982 Si02
#       5
#     4   8   8   8   8
#     4  10  22  38  55  84 120 170 205 258 306 368
#     4  11  22  36  63  85 119 161 210 255 313 375
#     4  10  24  45  70  99 130 159 200 265 331 381
#     4  10  22  37  53  81 124 163 208 254 308 364
#     4  10  21  34  54  85 117 161 207 261 306 367
#
# _framework density 20.011012000000001
#
# number of rings (size 3 to 8) (size 9 to 14) (size 15 to 20)
#    0.000    1.778    0.000    3.333    9.333    3.556 
#    0.000    0.556    0.000    2.667    0.000    0.000 
#    0.000    0.000    0.000    0.000    0.000    0.000 
#
# Total GULP energy -100396.394489 kJ/mol
# GULP energy per Si atom -5577.577472 kJ/mol
# Density = 1.996547 g / cm^3
# Si number density = 20.011012 Si / 1000 Ang^3
#
#
#
# Elastic Constant Matrix: (Units=GPa)
#
#
# Indices 1 2 3 4 5 6 
#
# 1 130.6846 20.6365 56.0756 0.0000 -20.4325 0.0000
# 2 20.6365 25.4583 20.2728 0.0000 -1.0416 0.0000
# 3 56.0756 20.2728 90.6155 0.0000 -19.7289 0.0000
# 4 0.0000 0.0000 0.0000 15.8517 0.0000 -10.4204
# 5 -20.4325 -1.0416 -19.7289 0.0000 42.9473 0.0000
# 6 0.0000 0.0000 0.0000 -10.4204 0.0000 34.4344
#
#
#
# Elastic Compliance Matrix: (Units=1/GPa)
#
#
# Indices 1 2 3 4 5 6 
#
# 1 0.011053 -0.004720 -0.005182 0.000000 0.002763 0.000000
# 2 -0.004720 0.050492 -0.009553 0.000000 -0.005409 0.000000
# 3 -0.005182 -0.009553 0.017548 0.000000 0.005364 0.000000
# 4 0.000000 0.000000 0.000000 0.078751 0.000000 0.023831
# 5 0.002763 -0.005409 0.005364 0.000000 0.026932 0.000000
# 6 0.000000 0.000000 0.000000 0.023831 0.000000 0.036253
#
#
# Mechanical properties :
#
#
# Convention : Reuss Voigt Hill
#
# Bulk Modulus (GPa) = 24.88686 48.96982 36.92834
# Shear Modulus (GPa) = 18.29274 28.63156 23.46215
#
# Velocity S-wave (km/s) = 3.02674 3.78668 3.42784
# Velocity P-wave (km/s) = 4.96775 6.60630 5.84473
#
# Compressibility (1/GPa) = 0.04018185
#
# Stress axis : x y z
#
# Youngs Moduli (GPa) = 90.47230 19.80522 56.98739
#
# Poissons Ratio (x) = 0.09348 0.29533
# Poissons Ratio (y) = 0.42701 0.54441
# Poissons Ratio (z) = 0.46886 0.18920
#
# Static dielectric constant tensor:
#      x y z
#    x 1.719540 0.000000 0.056170 
#    y 0.000000 1.698140 0.000000 
#    z 0.056170 0.000000 1.799160 
# 
# From -- ./inp_files/7512.got.cif
#   From: 2010.05.17/outbox.cif.g08.bks.cpg/sg12_4_cif.got.tgz:7512.got - 2010.06.03 13:09:07.
