data_PCOD9204355
_publ_section_title
;
Structure prediction by ZEFSAII (Michael W. Deem and Ramdas Pophale) SiO2 
 PCOD9204355
Probable space group: C 2/M
;
_chemical_formula_sum "Si O2"
_cell_formula_units_Z 56
_cell_length_a 20.584324
_cell_length_b 8.604901
_cell_length_c 16.660138
_cell_angle_alpha 90.000000
_cell_angle_beta 92.396986
_cell_angle_gamma 90.000000
_cell_volume 2948.362789
_symmetry_space_group_name_H-M "C 2/M"
_symmetry_group_IT_number 12
_symmetry_cell_setting 'monoclinic'
loop_
_space_group_symop_operation_xyz
x,y,z
-x,y,-z
-x,-y,-z
x,-y,z
1/2+x,1/2+y,z
1/2-x,1/2+y,-z
1/2-x,1/2-y,-z
1/2+x,1/2-y,z
loop_
_atom_site_type_symbol
_atom_site_label
_atom_site_fract_x
_atom_site_fract_y
_atom_site_fract_z
Si Si1 0.177408 0.812632 0.979698
Si Si2 0.694064 0.815993 0.440198
Si Si3 0.878386 0.188375 0.856774
Si Si4 0.735220 0.687363 0.271102
Si Si5 0.551466 0.312282 0.435086
Si Si6 0.632377 0.813617 0.805900
Si Si7 0.493312 0.688333 0.745985
O O1 0.150001 0.751104 0.894531
O O2 0.179724 0.000000 0.978359
O O3 0.250000 0.750000 0.000000
O O4 0.132050 0.761879 0.052236
O O5 0.750000 0.750000 0.500000
O O6 0.711516 0.765588 0.350883
O O7 0.623246 0.748830 0.456781
O O8 0.692365 0.000000 0.447119
O O9 0.814103 0.229935 0.802953
O O10 0.941148 0.241858 0.810278
O O11 0.881445 0.000000 0.857911
O O12 0.731831 0.500000 0.280933
O O13 0.808069 0.730331 0.249706
O O14 0.500000 0.262125 0.500000
O O15 0.553536 0.500000 0.435354
O O16 0.529788 0.263357 0.344272
O O17 0.564313 0.749705 0.770792
O O18 0.630491 0.000000 0.809774
O O19 0.494338 0.500000 0.746931
#
# Coordination Sequence:
#
# PCOD9204355 Si02
#       7
#     8   8   8   8   8   8   8
#     4  11  21  37  61  91 122 158 207 253 306 364
#     4  12  26  42  64  95 127 162 207 255 308 364
#     4   9  18  37  64  86 115 161 203 244 301 365
#     4  10  20  41  65  87 120 163 205 249 306 365
#     4  10  22  42  67  94 125 163 205 252 308 371
#     4  11  24  40  60  90 127 162 201 253 309 360
#     4  10  21  40  63  87 121 162 204 247 300 367
#
# _framework density 18.993592
#
# number of rings (size 3 to 8) (size 9 to 14) (size 15 to 20)
#    0.000    1.571    2.857    2.143    2.000    2.571 
#    0.000    4.286    0.000    0.000    0.000    0.000 
#    0.000    0.000    0.000    0.000    0.000    0.000 
#
# Total GULP energy -156460.784286 kJ/mol
# GULP energy per Si atom -5587.885153 kJ/mol
# Density = 1.895036 g / cm^3
# Si number density = 18.993592 Si / 1000 Ang^3
#
#
#
# Elastic Constant Matrix: (Units=GPa)
#
#
# Indices 1 2 3 4 5 6 
#
# 1 182.3417 33.3445 67.4888 0.0000 -12.9877 0.0000
# 2 33.3445 24.6254 26.4345 0.0000 -5.2113 0.0000
# 3 67.4888 26.4345 104.5998 0.0000 -17.3099 0.0000
# 4 0.0000 0.0000 0.0000 25.3159 0.0000 3.7952
# 5 -12.9877 -5.2113 -17.3099 0.0000 40.5605 0.0000
# 6 0.0000 0.0000 0.0000 3.7952 0.0000 36.2014
#
#
#
# Elastic Compliance Matrix: (Units=1/GPa)
#
#
# Indices 1 2 3 4 5 6 
#
# 1 0.008066 -0.007311 -0.003319 0.000000 0.000227 0.000000
# 2 -0.007311 0.062410 -0.010885 0.000000 0.001033 0.000000
# 3 -0.003319 -0.010885 0.015112 0.000000 0.003988 0.000000
# 4 0.000000 0.000000 0.000000 0.040132 0.000000 -0.004207
# 5 0.000227 0.001033 0.003988 0.000000 0.026562 0.000000
# 6 0.000000 0.000000 0.000000 -0.004207 0.000000 0.028064
#
#
# Mechanical properties :
#
#
# Convention : Reuss Voigt Hill
#
# Bulk Modulus (GPa) = 23.49618 62.90027 43.19822
# Shear Modulus (GPa) = 21.04718 32.70216 26.87467
#
# Velocity S-wave (km/s) = 3.33245 4.15390 3.76564
# Velocity P-wave (km/s) = 5.21579 7.49633 6.45753
#
# Compressibility (1/GPa) = 0.04256011
#
# Stress axis : x y z
#
# Youngs Moduli (GPa) = 123.98210 16.02296 66.17080
#
# Poissons Ratio (x) = 0.11714 0.21962
# Poissons Ratio (y) = 0.90640 0.72024
# Poissons Ratio (z) = 0.41149 0.17440
#
# Static dielectric constant tensor:
#      x y z
#    x 1.634730 0.000000 -0.018650 
#    y 0.000000 1.647310 0.000000 
#    z -0.018650 0.000000 1.651230 
# 
# From -- ./inp_files/230855.got.cif
#   From: 2010.05.17/outbox.cif.g08.bks.cpg/sg12_116_cif.got.tgz:230855.got - 2010.06.03 13:09:07.
