data_PCOD9204210
_publ_section_title
;
Structure prediction by ZEFSAII (Michael W. Deem and Ramdas Pophale) SiO2 
 PCOD9204210
Probable space group: C 2/M
;
_chemical_formula_sum "Si O2"
_cell_formula_units_Z 64
_cell_length_a 11.678449
_cell_length_b 28.983963
_cell_length_c 14.569099
_cell_angle_alpha 90.000000
_cell_angle_beta 141.616989
_cell_angle_gamma 90.000000
_cell_volume 3062.020153
_symmetry_space_group_name_H-M "C 2/M"
_symmetry_group_IT_number 12
_symmetry_cell_setting 'monoclinic'
loop_
_space_group_symop_operation_xyz
x,y,z
-x,y,-z
-x,-y,-z
x,-y,z
1/2+x,1/2+y,z
1/2-x,1/2+y,-z
1/2-x,1/2-y,-z
1/2+x,1/2-y,z
loop_
_atom_site_type_symbol
_atom_site_label
_atom_site_fract_x
_atom_site_fract_y
_atom_site_fract_z
Si Si1 0.148933 0.406118 0.174039
Si Si2 0.298874 0.296004 0.593263
Si Si3 0.966259 0.054113 0.252474
Si Si4 0.167401 0.554345 0.903345
Si Si5 0.210156 0.872160 0.161413
Si Si6 0.386222 0.317635 0.336052
Si Si7 0.323904 0.725224 0.824202
Si Si8 0.811003 0.389890 0.424803
O O1 0.323448 0.434020 0.244221
O O2 0.238872 0.357793 0.259904
O O3 0.026999 0.433813 0.170482
O O4 0.000000 0.396856 0.000000
O O5 0.250000 0.250000 0.500000
O O6 0.466280 0.324259 0.651920
O O7 0.350496 0.282075 0.730471
O O8 0.152647 0.338634 0.510410
O O9 0.165294 0.078822 0.387886
O O10 0.001982 0.000000 0.271119
O O11 0.837298 0.064605 0.081069
O O12 0.177238 0.500000 0.886403
O O13 0.185338 0.588957 0.829418
O O14 0.276683 0.819443 0.195899
O O15 0.201745 0.881815 0.262768
O O16 0.000000 0.872166 0.000000
O O17 0.500000 0.310077 0.500000
O O18 0.290882 0.271154 0.244916
O O19 0.500000 0.731387 0.000000
O O20 0.000000 0.409978 0.500000
#
# Coordination Sequence:
#
# PCOD9204210 Si02
#       8
#     8   8   8   8   8   8   8   8
#     4  10  22  40  66  97 134 174 230 284 337 401
#     4  11  24  42  65  93 134 183 227 276 342 414
#     4  10  20  40  67  97 132 173 221 280 342 408
#     4  10  21  39  69 100 131 174 224 280 344 410
#     4  10  21  39  63  94 134 171 217 277 342 395
#     4  12  24  41  67  96 135 183 231 276 343 418
#     4  10  24  40  63  99 135 175 228 284 341 402
#     4  11  24  40  66  94 129 174 220 274 335 402
#
# _framework density 20.901233000000001
#
# number of rings (size 3 to 8) (size 9 to 14) (size 15 to 20)
#    0.000    1.500    3.750    0.750    3.500    5.000 
#    0.000    0.000    0.000    0.750    0.000    0.000 
#    0.000    0.000    0.000    0.000    0.000    0.125 
#
# Total GULP energy -178247.586694 kJ/mol
# GULP energy per Si atom -5570.237084 kJ/mol
# Density = 2.085366 g / cm^3
# Si number density = 20.901233 Si / 1000 Ang^3
#
#
#
# Elastic Constant Matrix: (Units=GPa)
#
#
# Indices 1 2 3 4 5 6 
#
# 1 81.7628 52.7770 29.2662 0.0000 15.7265 0.0000
# 2 52.7770 120.4914 29.9001 0.0000 3.6926 0.0000
# 3 29.2662 29.9001 82.3243 0.0000 13.2274 0.0000
# 4 0.0000 0.0000 0.0000 15.8847 0.0000 -17.6060
# 5 15.7265 3.6926 13.2274 0.0000 32.4957 0.0000
# 6 0.0000 0.0000 0.0000 -17.6060 0.0000 39.6578
#
#
#
# Elastic Compliance Matrix: (Units=1/GPa)
#
#
# Indices 1 2 3 4 5 6 
#
# 1 0.019671 -0.007638 -0.003027 0.000000 -0.007420 0.000000
# 2 -0.007638 0.012090 -0.002193 0.000000 0.003215 0.000000
# 3 -0.003027 -0.002193 0.014706 0.000000 -0.004272 0.000000
# 4 0.000000 0.000000 0.000000 0.123938 0.000000 0.055022
# 5 -0.007420 0.003215 -0.004272 0.000000 0.035738 0.000000
# 6 0.000000 0.000000 0.000000 0.055022 0.000000 0.049643
#
#
# Mechanical properties :
#
#
# Convention : Reuss Voigt Hill
#
# Bulk Modulus (GPa) = 48.18565 56.49614 52.34090
# Shear Modulus (GPa) = 17.33596 29.11667 23.22631
#
# Velocity S-wave (km/s) = 2.88309 3.73642 3.33714
# Velocity P-wave (km/s) = 5.84697 6.76041 6.32021
#
# Compressibility (1/GPa) = 0.02075306
#
# Stress axis : x y z
#
# Youngs Moduli (GPa) = 50.83569 82.71052 68.00006
#
# Poissons Ratio (x) = 0.63172 0.20583
# Poissons Ratio (y) = 0.38827 0.14909
# Poissons Ratio (z) = 0.15387 0.18135
#
# Static dielectric constant tensor:
#      x y z
#    x 1.794990 0.000000 0.010540 
#    y 0.000000 1.814430 0.000000 
#    z 0.010540 0.000000 1.859460 
# 
# From -- ./inp_files/209437.got.cif
#   From: 2010.05.17/outbox.cif.g08.bks.cpg/sg12_105_cif.got.tgz:209437.got - 2010.06.03 13:09:07.
