data_PCOD9204390
_publ_section_title
;
Structure prediction by ZEFSAII (Michael W. Deem and Ramdas Pophale) SiO2 
 PCOD9204390
Probable space group: C 2/M
;
_chemical_formula_sum "Si O2"
_cell_formula_units_Z 56
_cell_length_a 29.115670
_cell_length_b 14.925214
_cell_length_c 8.377721
_cell_angle_alpha 90.000000
_cell_angle_beta 127.953247
_cell_angle_gamma 90.000000
_cell_volume 2870.661819
_symmetry_space_group_name_H-M "C 2/M"
_symmetry_group_IT_number 12
_symmetry_cell_setting 'monoclinic'
loop_
_space_group_symop_operation_xyz
x,y,z
-x,y,-z
-x,-y,-z
x,-y,z
1/2+x,1/2+y,z
1/2-x,1/2+y,-z
1/2-x,1/2-y,-z
1/2+x,1/2-y,z
loop_
_atom_site_type_symbol
_atom_site_label
_atom_site_fract_x
_atom_site_fract_y
_atom_site_fract_z
Si Si1 0.622330 0.101581 0.491411
Si Si2 0.346661 0.900733 0.072051
Si Si3 0.313816 0.762350 0.560770
Si Si4 0.224037 0.169708 0.834761
Si Si5 0.893187 0.102754 0.288584
Si Si6 0.594783 0.730544 0.975465
Si Si7 0.471639 0.754592 0.613034
O O1 0.650046 0.103567 0.728305
O O2 0.666263 0.138333 0.450736
O O3 0.568776 0.169395 0.398140
O O4 0.604563 0.000000 0.419466
O O5 0.382134 0.818976 0.071011
O O6 0.366801 0.000000 0.065826
O O7 0.279040 0.885365 0.889216
O O8 0.250000 0.750000 0.500000
O O9 0.309806 0.711791 0.385387
O O10 0.363813 0.725615 0.783604
O O11 0.175257 0.112958 0.819388
O O12 0.250000 0.250000 0.000000
O O13 0.898572 0.145195 0.124791
O O14 0.932865 0.167443 0.485188
O O15 0.911511 0.000000 0.338538
O O16 0.525716 0.739109 0.846196
O O17 0.500000 0.781401 0.500000
#
# Coordination Sequence:
#
# PCOD9204390 Si02
#       7
#     8   8   8   8   8   8   8
#     4  11  23  41  67  98 128 168 217 259 314 384
#     4  11  21  37  64  93 125 161 209 262 314 385
#     4  12  23  41  65  88 134 171 199 264 325 384
#     4  12  19  41  65  88 119 164 215 258 325 377
#     4  11  22  41  68  93 121 168 226 269 312 373
#     4  11  23  39  63  95 130 166 205 262 325 375
#     4  10  20  41  66  95 125 168 215 264 315 370
#
# _framework density 19.507695999999999
#
# number of rings (size 3 to 8) (size 9 to 14) (size 15 to 20)
#    0.000    0.857    8.571    0.429    0.000    4.571 
#    0.000    2.143    0.000    0.857    0.000    0.000 
#    0.000    0.000    0.000    0.000    0.000    0.000 
#
# Total GULP energy -156252.308264 kJ/mol
# GULP energy per Si atom -5580.439581 kJ/mol
# Density = 1.946330 g / cm^3
# Si number density = 19.507696 Si / 1000 Ang^3
#
#
#
# Elastic Constant Matrix: (Units=GPa)
#
#
# Indices 1 2 3 4 5 6 
#
# 1 72.5482 58.3503 25.1597 0.0000 14.2734 0.0000
# 2 58.3503 145.2881 43.0236 0.0000 10.7145 0.0000
# 3 25.1597 43.0236 145.6799 0.0000 20.0170 0.0000
# 4 0.0000 0.0000 0.0000 14.7287 0.0000 -3.1533
# 5 14.2734 10.7145 20.0170 0.0000 28.4436 0.0000
# 6 0.0000 0.0000 0.0000 -3.1533 0.0000 5.2616
#
#
#
# Elastic Compliance Matrix: (Units=1/GPa)
#
#
# Indices 1 2 3 4 5 6 
#
# 1 0.021982 -0.008162 -0.000324 0.000000 -0.007728 0.000000
# 2 -0.008162 0.010625 -0.001927 0.000000 0.001450 0.000000
# 3 -0.000324 -0.001927 0.008156 0.000000 -0.004851 0.000000
# 4 0.000000 0.000000 0.000000 0.077888 0.000000 0.046679
# 5 -0.007728 0.001450 -0.004851 0.000000 0.041903 0.000000
# 6 0.000000 0.000000 0.000000 0.046679 0.000000 0.218032
#
#
# Mechanical properties :
#
#
# Convention : Reuss Voigt Hill
#
# Bulk Modulus (GPa) = 50.16232 68.50925 59.33578
# Shear Modulus (GPa) = 12.31349 25.48562 18.89956
#
# Velocity S-wave (km/s) = 2.51512 3.61839 3.11597
# Velocity P-wave (km/s) = 5.84845 7.25619 6.59002
#
# Compressibility (1/GPa) = 0.01993528
#
# Stress axis : x y z
#
# Youngs Moduli (GPa) = 45.49237 94.11890 122.60767
#
# Poissons Ratio (x) = 0.76824 0.03971
# Poissons Ratio (y) = 0.37133 0.23631
# Poissons Ratio (z) = 0.01473 0.18140
#
# Static dielectric constant tensor:
#      x y z
#    x 1.717090 0.000000 -0.005850 
#    y 0.000000 1.702240 0.000000 
#    z -0.005850 0.000000 1.702720 
# 
# From -- ./inp_files/111716.got.cif
#   From: 2010.05.17/outbox.cif.g08.bks.cpg/sg12_56_cif.got.tgz:111716.got - 2010.06.03 13:09:07.
