data_PCOD9204639
_publ_section_title
;
Structure prediction by ZEFSAII (Michael W. Deem and Ramdas Pophale) SiO2 
 PCOD9204639
Probable space group: C 2/M
;
_chemical_formula_sum "Si O2"
_cell_formula_units_Z 48
_cell_length_a 18.236024
_cell_length_b 25.007324
_cell_length_c 5.349882
_cell_angle_alpha 90.000000
_cell_angle_beta 97.357341
_cell_angle_gamma 90.000000
_cell_volume 2419.642125
_symmetry_space_group_name_H-M "C 2/M"
_symmetry_group_IT_number 12
_symmetry_cell_setting 'monoclinic'
loop_
_space_group_symop_operation_xyz
x,y,z
-x,y,-z
-x,-y,-z
x,-y,z
1/2+x,1/2+y,z
1/2-x,1/2+y,-z
1/2-x,1/2-y,-z
1/2+x,1/2-y,z
loop_
_atom_site_type_symbol
_atom_site_label
_atom_site_fract_x
_atom_site_fract_y
_atom_site_fract_z
Si Si1 0.835798 0.851434 0.831515
Si Si2 0.542868 0.723029 0.264404
Si Si3 0.804445 0.223671 0.228019
Si Si4 0.311708 0.829550 0.450973
Si Si5 0.047640 0.938020 0.275464
Si Si6 0.456417 0.149346 0.735879
O O1 0.876706 0.804094 0.692223
O O2 0.747951 0.858839 0.751691
O O3 0.881350 0.902342 0.760233
O O4 0.845092 0.825960 0.112205
O O5 0.500000 0.711516 0.500000
O O6 0.547958 0.786463 0.230773
O O7 0.500000 0.701489 0.000000
O O8 0.744860 0.198763 0.387333
O O9 0.848515 0.278078 0.324546
O O10 0.750000 0.250000 0.000000
O O11 0.371433 0.863800 0.627491
O O12 0.000000 0.920434 0.500000
O O13 0.067759 0.000000 0.330970
O O14 0.000000 0.935715 0.000000
O O15 0.500000 0.137608 0.500000
O O16 0.500000 0.128405 0.000000
#
# Coordination Sequence:
#
# PCOD9204639 Si02
#       6
#     8   8   8   8   8   8
#     4  11  22  32  57  77 106 145 190 233 283 342
#     4  10  21  31  45  70 100 134 183 224 257 314
#     4   9  19  31  50  72 107 141 182 232 279 323
#     4  10  21  34  49  73 107 143 189 229 279 327
#     4  10  23  43  63  85 117 150 188 244 301 341
#     4  10  22  34  49  66 101 147 180 222 272 316
#
# _framework density 19.837645999999999
#
# number of rings (size 3 to 8) (size 9 to 14) (size 15 to 20)
#    0.000    2.000    0.000    4.000   16.333    0.000 
#    0.000    0.000    0.000    0.000    0.000    0.000 
#    0.000    1.333    0.000    0.167    0.000    0.000 
#
# Total GULP energy -133668.404046 kJ/mol
# GULP energy per Si atom -5569.516835 kJ/mol
# Density = 1.979249 g / cm^3
# Si number density = 19.837646 Si / 1000 Ang^3
#
#
#
# Elastic Constant Matrix: (Units=GPa)
#
#
# Indices 1 2 3 4 5 6 
#
# 1 108.5756 15.6136 40.4067 0.0000 13.8932 0.0000
# 2 15.6136 51.0425 7.7648 0.0000 -9.5839 0.0000
# 3 40.4067 7.7648 81.8339 0.0000 14.3951 0.0000
# 4 0.0000 0.0000 0.0000 9.9852 0.0000 -9.9970
# 5 13.8932 -9.5839 14.3951 0.0000 39.1276 0.0000
# 6 0.0000 0.0000 0.0000 -9.9970 0.0000 23.9898
#
#
#
# Elastic Compliance Matrix: (Units=1/GPa)
#
#
# Indices 1 2 3 4 5 6 
#
# 1 0.012003 -0.003525 -0.005015 0.000000 -0.003280 0.000000
# 2 -0.003525 0.022298 -0.001664 0.000000 0.007325 0.000000
# 3 -0.005015 -0.001664 0.015624 0.000000 -0.004375 0.000000
# 4 0.000000 0.000000 0.000000 0.171844 0.000000 0.071611
# 5 -0.003280 0.007325 -0.004375 0.000000 0.030126 0.000000
# 6 0.000000 0.000000 0.000000 0.071611 0.000000 0.071526
#
#
# Mechanical properties :
#
#
# Convention : Reuss Voigt Hill
#
# Bulk Modulus (GPa) = 33.87852 41.00247 37.44049
# Shear Modulus (GPa) = 14.13756 26.46499 20.30127
#
# Velocity S-wave (km/s) = 2.67247 3.65647 3.20249
# Velocity P-wave (km/s) = 5.16118 6.20808 5.70868
#
# Compressibility (1/GPa) = 0.02951723
#
# Stress axis : x y z
#
# Youngs Moduli (GPa) = 83.31089 44.84655 64.00530
#
# Poissons Ratio (x) = 0.15807 0.32101
# Poissons Ratio (y) = 0.29364 0.10650
# Poissons Ratio (z) = 0.41783 0.07462
#
# Static dielectric constant tensor:
#      x y z
#    x 1.796870 0.000000 0.044450 
#    y 0.000000 1.683710 0.000000 
#    z 0.044450 0.000000 1.941500 
# 
# From -- ./inp_files/17220.got.cif
#   From: 2010.05.17/outbox.cif.g08.bks.cpg/sg12_9_cif.got.tgz:17220.got - 2010.06.03 13:09:07.
