data_PCOD9204102
_publ_section_title
;
Structure prediction by ZEFSAII (Michael W. Deem and Ramdas Pophale) SiO2 
 PCOD9204102
Probable space group: C 2/M
;
_chemical_formula_sum "Si O2"
_cell_formula_units_Z 32
_cell_length_a 16.874745
_cell_length_b 14.849304
_cell_length_c 11.878052
_cell_angle_alpha 90.000000
_cell_angle_beta 152.368873
_cell_angle_gamma 90.000000
_cell_volume 1380.378332
_symmetry_space_group_name_H-M "C 2/M"
_symmetry_group_IT_number 12
_symmetry_cell_setting 'monoclinic'
loop_
_space_group_symop_operation_xyz
x,y,z
-x,y,-z
-x,-y,-z
x,-y,z
1/2+x,1/2+y,z
1/2-x,1/2+y,-z
1/2-x,1/2-y,-z
1/2+x,1/2-y,z
loop_
_atom_site_type_symbol
_atom_site_label
_atom_site_fract_x
_atom_site_fract_y
_atom_site_fract_z
Si Si1 0.837765 0.890034 0.216867
Si Si2 0.647947 0.600329 0.022344
Si Si3 0.522289 0.154487 0.148272
Si Si4 0.293032 0.345874 0.667171
O O1 0.862777 0.863271 0.117753
O O2 0.000000 0.869396 0.500000
O O3 0.814174 0.000000 0.192950
O O4 0.669491 0.840230 0.048552
O O5 0.718428 0.500000 0.101866
O O6 0.454548 0.598071 0.825782
O O7 0.744266 0.646577 0.247411
O O8 0.630349 0.245162 0.255308
O O9 0.635165 0.120939 0.394165
O O10 0.500000 0.105798 0.000000
#
# Coordination Sequence:
#
# PCOD9204102 Si02
#       4
#     8   8   8   8
#     4  10  23  41  62  92 126 164 208 254 309 368
#     4  10  20  40  65  89 122 160 207 261 309 363
#     4  11  22  39  61  88 126 162 203 255 305 372
#     4  10  21  38  61  93 121 157 208 251 312 370
#
# _framework density 23.18205
#
# number of rings (size 3 to 8) (size 9 to 14) (size 15 to 20)
#    0.000    1.750    2.500    3.000    0.000    4.500 
#    0.000    2.500    0.000    0.000    0.000    0.000 
#    0.000    0.000    0.000    0.000    0.000    0.000 
#
# Total GULP energy -89185.538702 kJ/mol
# GULP energy per Si atom -5574.096169 kJ/mol
# Density = 2.312929 g / cm^3
# Si number density = 23.182050 Si / 1000 Ang^3
#
#
#
# Elastic Constant Matrix: (Units=GPa)
#
#
# Indices 1 2 3 4 5 6 
#
# 1 217.9068 15.9076 94.3124 0.0000 -50.8183 0.0000
# 2 15.9076 45.7197 7.8953 0.0000 -13.1869 0.0000
# 3 94.3124 7.8953 183.6101 0.0000 -45.2690 0.0000
# 4 0.0000 0.0000 0.0000 11.0157 0.0000 -4.5441
# 5 -50.8183 -13.1869 -45.2690 0.0000 46.1351 0.0000
# 6 0.0000 0.0000 0.0000 -4.5441 0.0000 20.3685
#
#
#
# Elastic Compliance Matrix: (Units=1/GPa)
#
#
# Indices 1 2 3 4 5 6 
#
# 1 0.006779 -0.000486 -0.002182 0.000000 0.005187 0.000000
# 2 -0.000486 0.023977 0.001024 0.000000 0.007323 0.000000
# 3 -0.002182 0.001024 0.007918 0.000000 0.005659 0.000000
# 4 0.000000 0.000000 0.000000 0.099981 0.000000 0.022305
# 5 0.005187 0.007323 0.005659 0.000000 0.035034 0.000000
# 6 0.000000 0.000000 0.000000 0.022305 0.000000 0.054072
#
#
# Mechanical properties :
#
#
# Convention : Reuss Voigt Hill
#
# Bulk Modulus (GPa) = 28.25986 75.94077 52.10032
# Shear Modulus (GPa) = 20.58940 37.44529 29.01734
#
# Velocity S-wave (km/s) = 2.98344 4.02340 3.54180
# Velocity P-wave (km/s) = 4.90762 7.37653 6.26490
#
# Compressibility (1/GPa) = 0.03538588
#
# Stress axis : x y z
#
# Youngs Moduli (GPa) = 147.52172 41.70699 126.28900
#
# Poissons Ratio (x) = 0.02026 0.27559
# Poissons Ratio (y) = 0.07165 -0.12932
# Poissons Ratio (z) = 0.32193 -0.04271
#
# Static dielectric constant tensor:
#      x y z
#    x 1.868430 0.000000 -0.073690 
#    y 0.000000 2.017390 0.000000 
#    z -0.073690 0.000000 1.866830 
# 
# From -- ./inp_files/147356.got.cif
#   From: 2010.05.17/outbox.cif.g08.bks.cpg/sg12_74_cif.got.tgz:147356.got - 2010.06.03 13:09:07.
