data_PCOD9204572
_publ_section_title
;
Structure prediction by ZEFSAII (Michael W. Deem and Ramdas Pophale) SiO2 
 PCOD9204572
Probable space group: C 2/M
;
_chemical_formula_sum "Si O2"
_cell_formula_units_Z 46
_cell_length_a 11.749205
_cell_length_b 33.264254
_cell_length_c 7.169497
_cell_angle_alpha 90.000000
_cell_angle_beta 124.839980
_cell_angle_gamma 90.000000
_cell_volume 2299.779819
_symmetry_space_group_name_H-M "C 2/M"
_symmetry_group_IT_number 12
_symmetry_cell_setting 'monoclinic'
loop_
_space_group_symop_operation_xyz
x,y,z
-x,y,-z
-x,-y,-z
x,-y,z
1/2+x,1/2+y,z
1/2-x,1/2+y,-z
1/2-x,1/2-y,-z
1/2+x,1/2-y,z
loop_
_atom_site_type_symbol
_atom_site_label
_atom_site_fract_x
_atom_site_fract_y
_atom_site_fract_z
Si Si1 0.175404 0.137737 0.414300
Si Si2 0.000000 0.728507 0.500000
Si Si3 0.048988 0.667950 0.239867
Si Si4 0.544648 0.705366 0.828444
Si Si5 0.000000 0.000000 0.000000
Si Si6 0.243415 0.366308 0.941107
Si Si7 0.049609 0.068366 0.739824
O O1 0.314020 0.141897 0.663582
O O2 0.223123 0.130031 0.247063
O O3 0.087560 0.178613 0.359125
O O4 0.070213 0.102062 0.352932
O O5 0.916708 0.699242 0.561850
O O6 0.918790 0.641178 0.181737
O O7 0.927135 0.757650 0.282694
O O8 0.000000 0.687395 0.000000
O O9 0.500000 0.715864 0.000000
O O10 0.673323 0.674831 0.935556
O O11 0.047995 0.035375 0.897304
O O12 0.311322 0.404430 0.109558
O O13 0.000000 0.048925 0.500000
#
# Coordination Sequence:
#
# PCOD9204572 Si02
#       7
#     8   4   8   8   2   8   8
#     4  10  20  43  63  85 117 161 207 246 299 363
#     4  12  24  38  54  80 122 158 198 274 326 340
#     4  12  25  39  58  87 118 159 215 259 300 361
#     4   9  22  39  58  78 109 155 207 255 312 365
#     4  12  22  40  64 108 136 144 194 238 292 346
#     4  10  20  43  63  85 117 161 207 246 299 363
#     4  11  22  39  71  97 125 160 192 241 292 354
#
# _framework density 20.001913999999999
#
# number of rings (size 3 to 8) (size 9 to 14) (size 15 to 20)
#    0.000    1.391    3.478    2.870    7.304    1.391 
#    0.000    0.000    0.000    2.087    0.000    3.652 
#    0.000    0.000    0.000    0.000    0.000    0.000 
#
# Total GULP energy -128073.182604 kJ/mol
# GULP energy per Si atom -5568.399244 kJ/mol
# Density = 1.995639 g / cm^3
# Si number density = 20.001914 Si / 1000 Ang^3
#
#
#
# Elastic Constant Matrix: (Units=GPa)
#
#
# Indices 1 2 3 4 5 6 
#
# 1 69.9954 29.8651 30.3393 0.0000 8.3516 0.0000
# 2 29.8651 105.7737 33.5776 0.0000 -1.2371 0.0000
# 3 30.3393 33.5776 73.8551 0.0000 10.1232 0.0000
# 4 0.0000 0.0000 0.0000 0.1242 0.0000 -3.6694
# 5 8.3516 -1.2371 10.1232 0.0000 44.9932 0.0000
# 6 0.0000 0.0000 0.0000 -3.6694 0.0000 8.4353
#
#
#
# Elastic Compliance Matrix: (Units=1/GPa)
#
#
# Indices 1 2 3 4 5 6 
#
# 1 0.018503 -0.003430 -0.005735 0.000000 -0.002239 0.000000
# 2 -0.003430 0.011781 -0.004209 0.000000 0.001907 0.000000
# 3 -0.005735 -0.004209 0.018242 0.000000 -0.003156 0.000000
# 4 0.000000 0.000000 0.000000 -0.679339 0.000000 -0.295521
# 5 -0.002239 0.001907 -0.003156 0.000000 0.023404 0.000000
# 6 0.000000 0.000000 0.000000 -0.295521 0.000000 -0.010005
#
#
# Mechanical properties :
#
#
# Convention : Reuss Voigt Hill
#
# Bulk Modulus (GPa) = 45.91548 48.57646 47.24597
# Shear Modulus (GPa) = -8.57032 21.10001 6.26485
#
# Velocity S-wave (km/s) = -2.07221 3.25145 1.77170
# Velocity P-wave (km/s) = 4.15692 6.19956 5.27800
#
# Compressibility (1/GPa) = 0.02177915
#
# Stress axis : x y z
#
# Youngs Moduli (GPa) = 54.04559 84.88323 54.81949
#
# Poissons Ratio (x) = 0.29115 0.31437
# Poissons Ratio (y) = 0.18538 0.23071
# Poissons Ratio (z) = 0.30993 0.35723
#
# Static dielectric constant tensor:
#      x y z
#    x 1.736770 0.000000 -0.060640 
#    y 0.000000 1.647980 0.000000 
#    z -0.060640 0.000000 1.776580 
# 
# From -- ./inp_files/68410.got.cif
#   From: 2010.05.17/outbox.cif.g08.bks.cpg/sg12_35_cif.got.tgz:68410.got - 2010.06.03 13:09:07.
