data_PCOD9204871
_publ_section_title
;
Structure prediction by ZEFSAII (Michael W. Deem and Ramdas Pophale) SiO2 
 PCOD9204871
Probable space group: C 2/M
;
_chemical_formula_sum "Si O2"
_cell_formula_units_Z 40
_cell_length_a 21.134268
_cell_length_b 8.003946
_cell_length_c 19.747715
_cell_angle_alpha 90.000000
_cell_angle_beta 133.215692
_cell_angle_gamma 90.000000
_cell_volume 2434.475024
_symmetry_space_group_name_H-M "C 2/M"
_symmetry_group_IT_number 12
_symmetry_cell_setting 'monoclinic'
loop_
_space_group_symop_operation_xyz
x,y,z
-x,y,-z
-x,-y,-z
x,-y,z
1/2+x,1/2+y,z
1/2-x,1/2+y,-z
1/2-x,1/2-y,-z
1/2+x,1/2-y,z
loop_
_atom_site_type_symbol
_atom_site_label
_atom_site_fract_x
_atom_site_fract_y
_atom_site_fract_z
Si Si1 0.011341 0.000000 0.894941
Si Si2 0.769468 0.810293 0.728528
Si Si3 0.569070 0.812851 0.235448
Si Si4 0.907991 0.201000 0.459610
Si Si5 0.850799 0.201035 0.567004
Si Si6 0.357281 0.500000 0.894776
O O1 0.992639 0.166077 0.837829
O O2 0.937269 0.000000 0.899529
O O3 0.102048 0.000000 0.001633
O O4 0.840601 0.704418 0.740546
O O5 0.672976 0.747449 0.647131
O O6 0.800238 0.841279 0.828450
O O7 0.773771 0.000000 0.702070
O O8 0.595250 0.779031 0.332014
O O9 0.534569 0.000000 0.201271
O O10 0.885325 0.257324 0.519049
O O11 0.000000 0.265238 0.500000
O O12 0.912584 0.000000 0.465327
O O13 0.750000 0.250000 0.500000
O O14 0.857223 0.000000 0.576108
#
# Coordination Sequence:
#
# PCOD9204871 Si02
#       6
#     4   8   8   8   8   4
#     4   9  16  34  48  72 109 130 168 227 262 310
#     4   9  17  31  49  70 100 137 174 206 258 311
#     4  11  19  30  50  76 104 138 173 214 259 311
#     4  10  21  34  49  74 110 143 178 217 256 309
#     4  11  20  31  49  75 105 143 176 209 257 311
#     4   7  16  30  51  68 102 136 167 217 270 310
#
# _framework density 16.430647
#
# number of rings (size 3 to 8) (size 9 to 14) (size 15 to 20)
#    0.600    1.600    4.000    1.200    0.000    1.200 
#    0.000    9.000    0.000    0.000    0.000    1.400 
#    0.000    0.000    0.000    0.000    0.000    0.000 
#
# Total GULP energy -111357.537500 kJ/mol
# GULP energy per Si atom -5567.876875 kJ/mol
# Density = 1.639325 g / cm^3
# Si number density = 16.430647 Si / 1000 Ang^3
#
#
#
# Elastic Constant Matrix: (Units=GPa)
#
#
# Indices 1 2 3 4 5 6 
#
# 1 74.7838 17.6643 50.9937 0.0000 2.9697 0.0000
# 2 17.6643 82.6242 38.9575 0.0000 -5.5656 0.0000
# 3 50.9937 38.9575 158.8903 0.0000 3.9757 0.0000
# 4 0.0000 0.0000 0.0000 15.8125 0.0000 4.2069
# 5 2.9697 -5.5656 3.9757 0.0000 11.4787 0.0000
# 6 0.0000 0.0000 0.0000 4.2069 0.0000 12.6710
#
#
#
# Elastic Compliance Matrix: (Units=1/GPa)
#
#
# Indices 1 2 3 4 5 6 
#
# 1 0.017354 -0.001536 -0.005106 0.000000 -0.003466 0.000000
# 2 -0.001536 0.014563 -0.003293 0.000000 0.008599 0.000000
# 3 -0.005106 -0.003293 0.008823 0.000000 -0.003331 0.000000
# 4 0.000000 0.000000 0.000000 0.069369 0.000000 -0.023031
# 5 -0.003466 0.008599 -0.003331 0.000000 0.093338 0.000000
# 6 0.000000 0.000000 0.000000 -0.023031 0.000000 0.086567
#
#
# Mechanical properties :
#
#
# Convention : Reuss Voigt Hill
#
# Bulk Modulus (GPa) = 47.91511 59.05883 53.48697
# Shear Modulus (GPa) = 15.78078 21.90463 18.84271
#
# Velocity S-wave (km/s) = 3.10247 3.65520 3.39012
# Velocity P-wave (km/s) = 6.48530 7.33733 6.92443
#
# Compressibility (1/GPa) = 0.02087025
#
# Stress axis : x y z
#
# Youngs Moduli (GPa) = 57.62298 68.66610 113.33800
#
# Poissons Ratio (x) = 0.10547 0.57873
# Poissons Ratio (y) = 0.08851 0.37321
# Poissons Ratio (z) = 0.29424 0.22611
#
# Static dielectric constant tensor:
#      x y z
#    x 1.537490 0.000000 -0.000260 
#    y 0.000000 1.586000 0.000000 
#    z -0.000260 0.000000 1.573000 
# 
# From -- ./inp_files/273783.got.cif
#   From: 2010.05.17/outbox.cif.g08.bks.cpg/sg12_137_cif.got.tgz:273783.got - 2010.06.03 13:09:07.
