data_PCOD9204059
_publ_section_title
;
Structure prediction by ZEFSAII (Michael W. Deem and Ramdas Pophale) SiO2 
 PCOD9204059
Probable space group: C 2/M
;
_chemical_formula_sum "Si O2"
_cell_formula_units_Z 40
_cell_length_a 16.192975
_cell_length_b 26.812702
_cell_length_c 9.460638
_cell_angle_alpha 90.000000
_cell_angle_beta 30.481700
_cell_angle_gamma 90.000000
_cell_volume 2083.631694
_symmetry_space_group_name_H-M "C 2/M"
_symmetry_group_IT_number 12
_symmetry_cell_setting 'monoclinic'
loop_
_space_group_symop_operation_xyz
x,y,z
-x,y,-z
-x,-y,-z
x,-y,z
1/2+x,1/2+y,z
1/2-x,1/2+y,-z
1/2-x,1/2-y,-z
1/2+x,1/2-y,z
loop_
_atom_site_type_symbol
_atom_site_label
_atom_site_fract_x
_atom_site_fract_y
_atom_site_fract_z
Si Si1 0.678091 0.894945 0.164981
Si Si2 0.818732 0.941539 0.217518
Si Si3 0.768607 0.783896 0.109213
Si Si4 0.590375 0.769183 0.657470
Si Si5 0.519804 0.885619 0.808238
O O1 0.500000 0.896398 0.500000
O O2 0.787770 0.932145 0.095753
O O3 0.632846 0.901050 0.066940
O O4 0.751324 0.840644 0.087176
O O5 0.682783 0.909646 0.501069
O O6 0.795212 0.000000 0.282341
O O7 0.000000 0.927264 0.000000
O O8 0.945995 0.768969 0.903412
O O9 0.750000 0.750000 0.000000
O O10 0.636727 0.771874 0.423576
O O11 0.750000 0.750000 0.500000
O O12 0.538533 0.825468 0.773497
O O13 0.500000 0.900537 0.000000
#
# Coordination Sequence:
#
# PCOD9204059 Si02
#       5
#     8   8   8   8   8
#     4  10  20  40  64  89 126 166 211 257 309 378
#     4  10  23  44  71  97 122 160 211 268 328 380
#     4  12  21  39  58  86 126 166 210 257 303 370
#     4  12  25  37  57  90 127 171 212 256 310 372
#     4  11  23  42  61  93 131 164 216 261 308 383
#
# _framework density 19.197251000000001
#
# number of rings (size 3 to 8) (size 9 to 14) (size 15 to 20)
#    0.000    1.000    6.000    2.400    2.800    4.000 
#    0.000    1.000    0.000    2.400    0.000    0.000 
#    0.000    0.000    0.000    0.000    0.000    0.000 
#
# Total GULP energy -111668.645485 kJ/mol
# GULP energy per Si atom -5583.432274 kJ/mol
# Density = 1.915356 g / cm^3
# Si number density = 19.197251 Si / 1000 Ang^3
#
#
#
# Elastic Constant Matrix: (Units=GPa)
#
#
# Indices 1 2 3 4 5 6 
#
# 1 162.2710 31.3587 51.8375 0.0009 -3.5735 -0.0005
# 2 31.3587 33.0641 9.9805 0.0009 -9.3880 0.0000
# 3 51.8375 9.9805 62.9336 0.0062 -2.3573 0.0006
# 4 0.0009 0.0009 0.0062 14.7037 -0.0010 -10.0688
# 5 -3.5735 -9.3880 -2.3573 -0.0010 50.0026 0.0002
# 6 -0.0005 0.0000 0.0006 -10.0688 0.0002 25.7832
#
#
#
# Elastic Compliance Matrix: (Units=1/GPa)
#
#
# Indices 1 2 3 4 5 6 
#
# 1 0.009800 -0.007499 -0.006922 0.000004 -0.001034 0.000002
# 2 -0.007499 0.039235 0.000211 -0.000002 0.006840 -0.000001
# 3 -0.006922 0.000211 0.021579 -0.000012 0.000562 -0.000005
# 4 0.000004 -0.000002 -0.000012 0.092837 0.000001 0.036255
# 5 -0.001034 0.006840 0.000562 0.000001 0.021236 0.000000
# 6 0.000002 -0.000001 -0.000005 0.036255 0.000000 0.052943
#
#
# Mechanical properties :
#
#
# Convention : Reuss Voigt Hill
#
# Bulk Modulus (GPa) = 23.69999 49.40247 36.55123
# Shear Modulus (GPa) = 17.84990 29.10403 23.47696
#
# Velocity S-wave (km/s) = 3.05260 3.89788 3.50084
# Velocity P-wave (km/s) = 4.97964 6.78586 5.95167
#
# Compressibility (1/GPa) = 0.04219411
#
# Stress axis : x y z
#
# Youngs Moduli (GPa) = 102.04071 25.48749 46.34209
#
# Poissons Ratio (x) = 0.19112 0.32076
# Poissons Ratio (y) = 0.76518 -0.00976
# Poissons Ratio (z) = 0.70629 -0.00537
#
# Static dielectric constant tensor:
#      x y z
#    x 1.889480 0.000000 -0.108440 
#    y 0.000000 1.648540 0.000000 
#    z -0.108440 0.000000 1.755530 
# 
# From -- ./inp_files/41861.got.cif
#   From: 2010.05.17/outbox.cif.g08.bks.cpg/sg12_21_cif.got.tgz:41861.got - 2010.06.03 13:09:07.
