data_PCOD9204375
_publ_section_title
;
Structure prediction by ZEFSAII (Michael W. Deem and Ramdas Pophale) SiO2 
 PCOD9204375
Probable space group: C 2/M
;
_chemical_formula_sum "Si O2"
_cell_formula_units_Z 56
_cell_length_a 21.474546
_cell_length_b 8.740782
_cell_length_c 31.703452
_cell_angle_alpha 90.000000
_cell_angle_beta 28.529689
_cell_angle_gamma 90.000000
_cell_volume 2842.221680
_symmetry_space_group_name_H-M "C 2/M"
_symmetry_group_IT_number 12
_symmetry_cell_setting 'monoclinic'
loop_
_space_group_symop_operation_xyz
x,y,z
-x,y,-z
-x,-y,-z
x,-y,z
1/2+x,1/2+y,z
1/2-x,1/2+y,-z
1/2-x,1/2-y,-z
1/2+x,1/2-y,z
loop_
_atom_site_type_symbol
_atom_site_label
_atom_site_fract_x
_atom_site_fract_y
_atom_site_fract_z
Si Si1 0.134082 0.316221 0.444851
Si Si2 0.162289 0.318132 0.272406
Si Si3 0.652144 0.183236 0.907597
Si Si4 0.128694 0.315366 0.546432
Si Si5 0.773082 0.322244 0.287724
Si Si6 0.957745 0.175491 0.874538
Si Si7 0.728109 0.822068 0.079943
O O1 0.150369 0.500000 0.433284
O O2 0.133205 0.270211 0.494311
O O3 0.244713 0.233916 0.351825
O O4 0.000000 0.278684 0.500000
O O5 0.173290 0.500000 0.259953
O O6 0.271956 0.236425 0.179284
O O7 0.188549 0.276820 0.305413
O O8 0.013672 0.269809 0.350871
O O9 0.728100 0.256923 0.901546
O O10 0.655550 0.000000 0.908538
O O11 0.500000 0.231438 0.000000
O O12 0.133503 0.500000 0.544823
O O13 0.250000 0.250000 0.500000
O O14 0.742473 0.500000 0.300968
O O15 0.922808 0.287093 0.188329
O O16 0.884323 0.224845 0.875632
O O17 0.004041 0.000000 0.844649
O O18 0.852182 0.186516 0.974688
O O19 0.689491 0.000000 0.106066
#
# Coordination Sequence:
#
# PCOD9204375 Si02
#       7
#     8   8   8   8   8   8   8
#     4  10  20  41  66  87 119 161 205 249 304 369
#     4  11  23  42  64  88 121 164 211 257 310 372
#     4  11  24  40  60  89 125 164 206 253 308 371
#     4  10  23  42  66  93 124 164 205 258 315 375
#     4  12  24  37  60  94 125 155 201 257 310 366
#     4  10  21  38  61  87 118 159 202 249 306 367
#     4  10  21  38  60  86 118 157 203 254 307 363
#
# _framework density 19.702897
#
# number of rings (size 3 to 8) (size 9 to 14) (size 15 to 20)
#    0.000    1.429    1.429    3.857    0.000    8.286 
#    0.000    2.857    0.000    0.000    0.000    0.000 
#    0.000    0.000    0.000    0.000    0.000    0.000 
#
# Total GULP energy -156495.120810 kJ/mol
# GULP energy per Si atom -5589.111457 kJ/mol
# Density = 1.965805 g / cm^3
# Si number density = 19.702897 Si / 1000 Ang^3
#
#
#
# Elastic Constant Matrix: (Units=GPa)
#
#
# Indices 1 2 3 4 5 6 
#
# 1 88.1622 -0.4936 26.8070 0.0000 5.4036 0.0012
# 2 -0.4936 30.8170 13.3094 0.0008 7.0865 -0.0011
# 3 26.8070 13.3094 72.4986 -0.0010 -0.6160 -0.0012
# 4 0.0000 0.0008 -0.0010 24.2371 0.0001 -5.6812
# 5 5.4036 7.0865 -0.6160 0.0001 29.9642 0.0009
# 6 0.0012 -0.0011 -0.0012 -5.6812 0.0009 26.1823
#
#
#
# Elastic Compliance Matrix: (Units=1/GPa)
#
#
# Indices 1 2 3 4 5 6 
#
# 1 0.013250 0.003366 -0.005545 0.000000 -0.003299 -0.000001
# 2 0.003366 0.038388 -0.008376 -0.000001 -0.009858 0.000001
# 3 -0.005545 -0.008376 0.017410 0.000001 0.003339 0.000001
# 4 0.000000 -0.000001 0.000001 0.043470 0.000000 0.009432
# 5 -0.003299 -0.009858 0.003339 0.000000 0.036368 -0.000001
# 6 -0.000001 0.000001 0.000001 0.009432 -0.000001 0.040241
#
#
# Mechanical properties :
#
#
# Convention : Reuss Voigt Hill
#
# Bulk Modulus (GPa) = 20.86053 30.08037 25.47045
# Shear Modulus (GPa) = 22.10287 26.20039 24.15163
#
# Velocity S-wave (km/s) = 3.35297 3.65056 3.50493
# Velocity P-wave (km/s) = 5.05969 5.75056 5.41615
#
# Compressibility (1/GPa) = 0.04793742
#
# Stress axis : x y z
#
# Youngs Moduli (GPa) = 75.47223 26.05004 57.43919
#
# Poissons Ratio (x) = -0.08768 0.31851
# Poissons Ratio (y) = -0.25403 0.48109
# Poissons Ratio (z) = 0.41851 0.21818
#
# Static dielectric constant tensor:
#      x y z
#    x 1.675460 0.000000 0.002750 
#    y 0.000000 1.659130 0.000000 
#    z 0.002750 0.000000 1.710490 
# 
# From -- ./inp_files/329466.got.cif
#   From: 2010.05.17/outbox.cif.g08.bks.cpg/sg12_165_cif.got.tgz:329466.got - 2010.06.03 13:09:07.
