data_PCOD9204520
_publ_section_title
;
Structure prediction by ZEFSAII (Michael W. Deem and Ramdas Pophale) SiO2 
 PCOD9204520
Probable space group: C 2/M
;
_chemical_formula_sum "Si O2"
_cell_formula_units_Z 44
_cell_length_a 12.850927
_cell_length_b 14.118572
_cell_length_c 20.479596
_cell_angle_alpha 90.000000
_cell_angle_beta 40.628395
_cell_angle_gamma 90.000000
_cell_volume 2419.512893
_symmetry_space_group_name_H-M "C 2/M"
_symmetry_group_IT_number 12
_symmetry_cell_setting 'monoclinic'
loop_
_space_group_symop_operation_xyz
x,y,z
-x,y,-z
-x,-y,-z
x,-y,z
1/2+x,1/2+y,z
1/2-x,1/2+y,-z
1/2-x,1/2-y,-z
1/2+x,1/2-y,z
loop_
_atom_site_type_symbol
_atom_site_label
_atom_site_fract_x
_atom_site_fract_y
_atom_site_fract_z
Si Si1 0.629126 0.179745 0.240293
Si Si2 0.563622 0.205357 0.895354
Si Si3 0.405151 0.500000 0.870315
Si Si4 0.972582 0.807850 0.214085
Si Si5 0.613736 0.885864 0.385558
Si Si6 0.962715 0.500000 0.940016
Si Si7 0.357816 0.500000 0.119282
O O1 0.752092 0.265861 0.193267
O O2 0.513394 0.219527 0.240366
O O3 0.548846 0.148997 0.346402
O O4 0.744217 0.091560 0.166832
O O5 0.486399 0.277453 0.879987
O O6 0.533990 0.099576 0.883927
O O7 0.500000 0.215272 0.000000
O O8 0.427810 0.403240 0.819629
O O9 0.546616 0.500000 0.857181
O O10 0.226518 0.500000 0.983100
O O11 0.788065 0.838315 0.308351
O O12 0.500000 0.861557 0.500000
O O13 0.631172 0.000000 0.375570
O O14 0.000000 0.500000 0.000000
O O15 0.500000 0.500000 0.000000
#
# Coordination Sequence:
#
# PCOD9204520 Si02
#       7
#     8   8   4   8   8   4   4
#     4  11  22  38  58  87 119 149 201 243 288 349
#     4  10  21  37  51  82 120 163 197 231 284 340
#     4  12  22  38  58  80 120 159 206 229 285 349
#     4  11  22  36  60  88 114 154 198 244 294 345
#     4  10  20  42  66  85 114 147 190 248 304 362
#     4  10  22  34  50  80 117 162 197 231 279 339
#     4  12  24  38  56  88 122 159 199 246 280 336
#
# _framework density 18.185478
#
# number of rings (size 3 to 8) (size 9 to 14) (size 15 to 20)
#    0.000    1.273    5.455    2.727    2.545    2.182 
#    0.000    0.000    0.000    0.000    0.000    3.818 
#    0.000    0.000    0.000    0.000    0.000    0.000 
#
# Total GULP energy -122709.127227 kJ/mol
# GULP energy per Si atom -5577.687601 kJ/mol
# Density = 1.814409 g / cm^3
# Si number density = 18.185478 Si / 1000 Ang^3
#
#
#
# Elastic Constant Matrix: (Units=GPa)
#
#
# Indices 1 2 3 4 5 6 
#
# 1 74.8758 44.6565 29.0715 0.0000 11.5499 0.0000
# 2 44.6565 131.3371 47.4971 0.0000 1.5565 0.0000
# 3 29.0715 47.4971 100.3941 -0.0001 26.1118 0.0000
# 4 0.0000 0.0000 -0.0001 17.6215 0.0000 -0.4726
# 5 11.5499 1.5565 26.1118 0.0000 27.1137 0.0000
# 6 0.0000 0.0000 0.0000 -0.4726 0.0000 27.9685
#
#
#
# Elastic Compliance Matrix: (Units=1/GPa)
#
#
# Indices 1 2 3 4 5 6 
#
# 1 0.018148 -0.005811 -0.000777 0.000000 -0.006649 0.000000
# 2 -0.005811 0.011557 -0.005679 0.000000 0.007281 0.000000
# 3 -0.000777 -0.005679 0.016946 0.000000 -0.015663 0.000000
# 4 0.000000 0.000000 0.000000 0.056774 0.000000 0.000959
# 5 -0.006649 0.007281 -0.015663 0.000000 0.054381 0.000000
# 6 0.000000 0.000000 0.000000 0.000959 0.000000 0.035771
#
#
# Mechanical properties :
#
#
# Convention : Reuss Voigt Hill
#
# Bulk Modulus (GPa) = 45.21012 61.00636 53.10824
# Shear Modulus (GPa) = 22.17455 26.89953 24.53704
#
# Velocity S-wave (km/s) = 3.49571 3.85018 3.67722
# Velocity P-wave (km/s) = 6.41934 7.30649 6.87723
#
# Compressibility (1/GPa) = 0.02211894
#
# Stress axis : x y z
#
# Youngs Moduli (GPa) = 55.10115 86.52571 59.01028
#
# Poissons Ratio (x) = 0.50281 0.04583
# Poissons Ratio (y) = 0.32020 0.33511
# Poissons Ratio (z) = 0.04279 0.49136
#
# Static dielectric constant tensor:
#      x y z
#    x 1.678540 0.000000 0.015680 
#    y 0.000000 1.660980 0.000000 
#    z 0.015680 0.000000 1.601290 
# 
# From -- ./inp_files/296648.got.cif
#   From: 2010.05.17/outbox.cif.g08.bks.cpg/sg12_149_cif.got.tgz:296648.got - 2010.06.03 13:09:07.
