data_PCOD9204901
_publ_section_title
;
Structure prediction by ZEFSAII (Michael W. Deem and Ramdas Pophale) SiO2 
 PCOD9204901
Probable space group: C 2/M
;
_chemical_formula_sum "Si O2"
_cell_formula_units_Z 56
_cell_length_a 21.883921
_cell_length_b 7.540910
_cell_length_c 19.597633
_cell_angle_alpha 90.000000
_cell_angle_beta 132.022822
_cell_angle_gamma 90.000000
_cell_volume 2402.537379
_symmetry_space_group_name_H-M "C 2/M"
_symmetry_group_IT_number 12
_symmetry_cell_setting 'monoclinic'
loop_
_space_group_symop_operation_xyz
x,y,z
-x,y,-z
-x,-y,-z
x,-y,z
1/2+x,1/2+y,z
1/2-x,1/2+y,-z
1/2-x,1/2-y,-z
1/2+x,1/2-y,z
loop_
_atom_site_type_symbol
_atom_site_label
_atom_site_fract_x
_atom_site_fract_y
_atom_site_fract_z
Si Si1 0.279177 0.290901 0.444233
Si Si2 0.689991 0.284023 0.111515
Si Si3 0.048269 0.289424 0.384345
Si Si4 0.893274 0.281615 0.720295
Si Si5 0.875179 0.295556 0.233681
Si Si6 0.049066 0.705414 0.098929
Si Si7 0.847218 0.789852 0.063393
O O1 0.280727 0.500000 0.437134
O O2 0.250000 0.250000 0.500000
O O3 0.373510 0.232473 0.507838
O O4 0.201985 0.222938 0.342775
O O5 0.690179 0.500000 0.111074
O O6 0.784373 0.218935 0.178443
O O7 0.642394 0.214501 0.141181
O O8 0.640545 0.228232 0.005449
O O9 0.038027 0.500000 0.369230
O O10 0.076296 0.221199 0.330894
O O11 0.956778 0.217769 0.329731
O O12 0.894176 0.500000 0.721627
O O13 0.949788 0.218269 0.824503
O O14 0.867981 0.500000 0.249671
O O15 0.888898 0.291499 0.161507
O O16 0.023886 0.500000 0.085194
O O17 0.000000 0.792623 0.000000
O O18 0.860285 0.000000 0.076367
O O19 0.750000 0.750000 0.000000
#
# Coordination Sequence:
#
# PCOD9204901 Si02
#       7
#     8   8   8   8   8   8   8
#     4   9  16  29  49  71 100 129 158 199 247 295
#     4   9  19  34  47  66  98 130 161 198 245 290
#     4   9  17  30  51  76 102 125 154 201 251 296
#     4   8  16  31  48  70  98 126 158 201 244 280
#     4   9  18  31  50  73  98 129 159 198 252 299
#     4  10  21  34  51  72  92 126 174 207 230 282
#     4   9  17  29  45  66  93 125 162 200 239 287
#
# _framework density 23.308689999999999
#
# number of rings (size 3 to 8) (size 9 to 14) (size 15 to 20)
#    0.000    3.000    0.000    2.571    2.000    3.714 
#    0.000    3.571    0.000    0.857    0.000    6.000 
#    0.000    0.000    0.000    0.000    0.000    0.000 
#
# Total GULP energy -156085.158038 kJ/mol
# GULP energy per Si atom -5574.469930 kJ/mol
# Density = 2.325564 g / cm^3
# Si number density = 23.308690 Si / 1000 Ang^3
#
#
#
# Elastic Constant Matrix: (Units=GPa)
#
#
# Indices 1 2 3 4 5 6 
#
# 1 42.1071 3.8206 4.6290 0.0000 18.1160 0.0000
# 2 3.8206 67.2029 3.7729 0.0000 7.0996 0.0000
# 3 4.6290 3.7729 107.9664 0.0000 34.7320 0.0000
# 4 0.0000 0.0000 0.0000 13.4517 0.0000 5.4282
# 5 18.1160 7.0996 34.7320 0.0000 41.5856 0.0000
# 6 0.0000 0.0000 0.0000 5.4282 0.0000 15.0357
#
#
#
# Elastic Compliance Matrix: (Units=1/GPa)
#
#
# Indices 1 2 3 4 5 6 
#
# 1 0.030473 -0.000204 0.004047 0.000000 -0.016621 0.000000
# 2 -0.000204 0.015169 0.000387 0.000000 -0.002824 0.000000
# 3 0.004047 0.000387 0.013214 0.000000 -0.012865 0.000000
# 4 0.000000 0.000000 0.000000 0.087017 0.000000 -0.031415
# 5 -0.016621 -0.002824 -0.012865 0.000000 0.042515 0.000000
# 6 0.000000 0.000000 0.000000 -0.031415 0.000000 0.077850
#
#
# Mechanical properties :
#
#
# Convention : Reuss Voigt Hill
#
# Bulk Modulus (GPa) = 14.85506 26.85794 20.85650
# Shear Modulus (GPa) = 17.84350 27.68486 22.76418
#
# Velocity S-wave (km/s) = 2.76982 3.45011 3.12851
# Velocity P-wave (km/s) = 4.07630 5.23629 4.69228
#
# Compressibility (1/GPa) = 0.06731713
#
# Stress axis : x y z
#
# Youngs Moduli (GPa) = 32.81553 65.92598 75.67872
#
# Poissons Ratio (x) = 0.01344 -0.30630
# Poissons Ratio (y) = 0.00669 -0.02930
# Poissons Ratio (z) = -0.13282 -0.02553
#
# Static dielectric constant tensor:
#      x y z
#    x 1.857420 0.000000 0.011140 
#    y 0.000000 1.621840 0.000000 
#    z 0.011140 0.000000 1.916980 
# 
# From -- ./inp_files/320274.got.cif
#   From: 2010.05.17/outbox.cif.g08.bks.cpg/sg12_161_cif.got.tgz:320274.got - 2010.06.03 13:09:07.
