data_PCOD9204975
_publ_section_title
;
Structure prediction by ZEFSAII (Michael W. Deem and Ramdas Pophale) SiO2 
 PCOD9204975
Probable space group: C 2/M
;
_chemical_formula_sum "Si O2"
_cell_formula_units_Z 56
_cell_length_a 8.624681
_cell_length_b 25.023387
_cell_length_c 16.331645
_cell_angle_alpha 90.000000
_cell_angle_beta 129.368506
_cell_angle_gamma 90.000000
_cell_volume 2724.863952
_symmetry_space_group_name_H-M "C 2/M"
_symmetry_group_IT_number 12
_symmetry_cell_setting 'monoclinic'
loop_
_space_group_symop_operation_xyz
x,y,z
-x,y,-z
-x,-y,-z
x,-y,z
1/2+x,1/2+y,z
1/2-x,1/2+y,-z
1/2-x,1/2-y,-z
1/2+x,1/2-y,z
loop_
_atom_site_type_symbol
_atom_site_label
_atom_site_fract_x
_atom_site_fract_y
_atom_site_fract_z
Si Si1 0.425451 0.345154 0.062069
Si Si2 0.288037 0.276503 0.751612
Si Si3 0.530014 0.093987 0.920540
Si Si4 0.965856 0.359377 0.656191
Si Si5 0.705719 0.343392 0.722259
Si Si6 0.751017 0.061132 0.828431
Si Si7 0.259163 0.695544 0.556184
O O1 0.506137 0.306281 0.159151
O O2 0.553304 0.400780 0.109106
O O3 0.500000 0.321592 0.000000
O O4 0.191370 0.357899 0.987167
O O5 0.287032 0.215192 0.773198
O O6 0.226319 0.282650 0.636326
O O7 0.114559 0.311648 0.736533
O O8 0.313349 0.114684 0.817870
O O9 0.637568 0.065031 0.879028
O O10 0.500000 0.067997 0.000000
O O11 0.784462 0.358664 0.658578
O O12 0.884398 0.345329 0.539769
O O13 0.096682 0.412440 0.712027
O O14 0.469926 0.334856 0.635847
O O15 0.801164 0.000000 0.828997
O O16 0.250000 0.750000 0.500000
#
# Coordination Sequence:
#
# PCOD9204975 Si02
#       7
#     8   8   8   8   8   8   8
#     4   9  20  36  56  80 110 146 187 228 280 332
#     4  11  20  33  52  81 112 148 194 224 263 333
#     4  10  21  35  53  83 115 145 180 232 290 334
#     4  10  21  34  54  81 111 143 186 237 274 325
#     4  11  21  33  50  78 116 151 186 222 269 335
#     4   9  20  40  62  82 105 141 193 241 284 334
#     4  12  21  32  54  80 112 152 188 226 270 323
#
# _framework density 20.551485
#
# number of rings (size 3 to 8) (size 9 to 14) (size 15 to 20)
#    0.000    1.714    2.857    2.571    0.000    4.000 
#    0.000    0.000    0.000   13.714    0.000    0.000 
#    0.000    0.000    0.000    0.000    0.000    0.000 
#
# Total GULP energy -156191.038094 kJ/mol
# GULP energy per Si atom -5578.251361 kJ/mol
# Density = 2.050471 g / cm^3
# Si number density = 20.551485 Si / 1000 Ang^3
#
#
#
# Elastic Constant Matrix: (Units=GPa)
#
#
# Indices 1 2 3 4 5 6 
#
# 1 41.8011 -13.6277 14.2908 0.0000 1.3482 0.0000
# 2 -13.6277 59.6724 35.7876 0.0000 -4.2102 0.0000
# 3 14.2908 35.7876 109.4932 0.0000 -0.2514 0.0000
# 4 0.0000 0.0000 0.0000 9.0432 0.0000 -1.1024
# 5 1.3482 -4.2102 -0.2514 0.0000 42.3755 0.0000
# 6 0.0000 0.0000 0.0000 -1.1024 0.0000 10.0511
#
#
#
# Elastic Compliance Matrix: (Units=1/GPa)
#
#
# Indices 1 2 3 4 5 6 
#
# 1 0.030344 0.011586 -0.007747 0.000000 0.000140 0.000000
# 2 0.011586 0.025444 -0.009824 0.000000 0.002101 0.000000
# 3 -0.007747 -0.009824 0.013353 0.000000 -0.000650 0.000000
# 4 0.000000 0.000000 0.000000 0.112079 0.000000 0.012293
# 5 0.000140 0.002101 -0.000650 0.000000 0.023799 0.000000
# 6 0.000000 0.000000 0.000000 0.012293 0.000000 0.100840
#
#
# Mechanical properties :
#
#
# Convention : Reuss Voigt Hill
#
# Bulk Modulus (GPa) = 17.49120 31.54090 24.51605
# Shear Modulus (GPa) = 14.84181 23.92835 19.38508
#
# Velocity S-wave (km/s) = 2.69025 3.41590 3.07456
# Velocity P-wave (km/s) = 4.26372 5.56223 4.95569
#
# Compressibility (1/GPa) = 0.05717161
#
# Stress axis : x y z
#
# Youngs Moduli (GPa) = 32.95562 39.30229 74.88731
#
# Poissons Ratio (x) = -0.45534 0.58014
# Poissons Ratio (y) = -0.38181 0.73566
# Poissons Ratio (z) = 0.25530 0.38609
#
# Static dielectric constant tensor:
#      x y z
#    x 1.840760 0.000000 0.001110 
#    y 0.000000 1.713260 0.000000 
#    z 0.001110 0.000000 1.775800 
# 
# From -- ./inp_files/259276.got.cif
#   From: 2010.05.17/outbox.cif.g08.bks.cpg/sg12_130_cif.got.tgz:259276.got - 2010.06.03 13:09:07.
