data_PCOD9204835
_publ_section_title
;
Structure prediction by ZEFSAII (Michael W. Deem and Ramdas Pophale) SiO2 
 PCOD9204835
Probable space group: C 2/M
;
_chemical_formula_sum "Si O2"
_cell_formula_units_Z 40
_cell_length_a 11.999438
_cell_length_b 22.316919
_cell_length_c 9.094552
_cell_angle_alpha 90.000000
_cell_angle_beta 55.471896
_cell_angle_gamma 90.000000
_cell_volume 2006.428482
_symmetry_space_group_name_H-M "C 2/M"
_symmetry_group_IT_number 12
_symmetry_cell_setting 'monoclinic'
loop_
_space_group_symop_operation_xyz
x,y,z
-x,y,-z
-x,-y,-z
x,-y,z
1/2+x,1/2+y,z
1/2-x,1/2+y,-z
1/2-x,1/2-y,-z
1/2+x,1/2-y,z
loop_
_atom_site_type_symbol
_atom_site_label
_atom_site_fract_x
_atom_site_fract_y
_atom_site_fract_z
Si Si1 0.648062 0.932824 0.316456
Si Si2 0.113818 0.374311 0.033382
Si Si3 0.989889 0.258488 0.280123
Si Si4 0.756805 0.823832 0.408707
Si Si5 0.636964 0.652523 0.344594
O O1 0.500000 0.929775 0.500000
O O2 0.623735 0.916829 0.165589
O O3 0.740622 0.882346 0.322830
O O4 0.701614 0.000000 0.295639
O O5 0.072322 0.308158 0.127794
O O6 0.256296 0.375908 0.844067
O O7 0.000000 0.390731 0.000000
O O8 0.083483 0.211290 0.296273
O O9 0.880314 0.219347 0.267760
O O10 0.888866 0.292228 0.469156
O O11 0.788599 0.836558 0.556383
O O12 0.500000 0.619714 0.500000
#
# Coordination Sequence:
#
# PCOD9204835 Si02
#       5
#     8   8   8   8   8
#     4  11  24  42  65  91 127 172 220 268 310 370
#     4  12  23  39  61  97 130 167 215 258 324 382
#     4  10  21  33  63  95 131 164 194 258 320 394
#     4  10  21  38  62  91 133 168 202 257 324 379
#     4  10  22  39  60  92 134 169 202 258 325 384
#
# _framework density 19.935918999999998
#
# number of rings (size 3 to 8) (size 9 to 14) (size 15 to 20)
#    0.000    1.400    4.000    0.600   11.200    2.000 
#    0.000    4.000    0.000   15.600    0.000    0.000 
#    0.000    0.000    0.000    0.000    0.000    0.000 
#
# Total GULP energy -111612.571226 kJ/mol
# GULP energy per Si atom -5580.628561 kJ/mol
# Density = 1.989054 g / cm^3
# Si number density = 19.935919 Si / 1000 Ang^3
#
#
#
# Elastic Constant Matrix: (Units=GPa)
#
#
# Indices 1 2 3 4 5 6 
#
# 1 102.4155 34.9010 31.2260 0.0000 8.1374 0.0000
# 2 34.9010 95.3845 17.3684 0.0000 3.5167 0.0000
# 3 31.2260 17.3684 115.2822 0.0000 -19.0278 0.0000
# 4 0.0000 0.0000 0.0000 -7.0556 0.0000 0.8885
# 5 8.1374 3.5167 -19.0278 0.0000 33.5626 0.0000
# 6 0.0000 0.0000 0.0000 0.8885 0.0000 21.4829
#
#
#
# Elastic Compliance Matrix: (Units=1/GPa)
#
#
# Indices 1 2 3 4 5 6 
#
# 1 0.012510 -0.003750 -0.003596 0.000000 -0.004679 0.000000
# 2 -0.003750 0.012062 -0.000949 0.000000 -0.000892 0.000000
# 3 -0.003596 -0.000949 0.010979 0.000000 0.007196 0.000000
# 4 0.000000 0.000000 0.000000 -0.140997 0.000000 0.005831
# 5 -0.004679 -0.000892 0.007196 0.000000 0.035102 0.000000
# 6 0.000000 0.000000 0.000000 0.005831 0.000000 0.046308
#
#
# Mechanical properties :
#
#
# Convention : Reuss Voigt Hill
#
# Bulk Modulus (GPa) = 52.73877 53.34143 53.04010
# Shear Modulus (GPa) = -4440.90851 24.90376 -2208.00237
#
# Velocity S-wave (km/s) = -47.24857 3.53822 -33.31598
# Velocity P-wave (km/s) = 54.31444 6.59595 38.12186
#
# Compressibility (1/GPa) = 0.01896138
#
# Stress axis : x y z
#
# Youngs Moduli (GPa) = 79.93443 82.90686 91.08341
#
# Poissons Ratio (x) = 0.31092 0.32752
# Poissons Ratio (y) = 0.29977 0.08641
# Poissons Ratio (z) = 0.28743 0.07865
#
# Static dielectric constant tensor:
#      x y z
#    x 1.748140 0.000000 -0.008850 
#    y 0.000000 1.723600 0.000000 
#    z -0.008850 0.000000 1.704610 
# 
# From -- ./inp_files/50422.got.cif
#   From: 2010.05.17/outbox.cif.g08.bks.cpg/sg12_26_cif.got.tgz:50422.got - 2010.06.03 13:09:07.
