data_PCOD9204198
_publ_section_title
;
Structure prediction by ZEFSAII (Michael W. Deem and Ramdas Pophale) SiO2 
 PCOD9204198
Probable space group: C 2/M
;
_chemical_formula_sum "Si O2"
_cell_formula_units_Z 40
_cell_length_a 8.647741
_cell_length_b 15.025227
_cell_length_c 28.896438
_cell_angle_alpha 90.000000
_cell_angle_beta 34.683309
_cell_angle_gamma 90.000000
_cell_volume 2136.538985
_symmetry_space_group_name_H-M "C 2/M"
_symmetry_group_IT_number 12
_symmetry_cell_setting 'monoclinic'
loop_
_space_group_symop_operation_xyz
x,y,z
-x,y,-z
-x,-y,-z
x,-y,z
1/2+x,1/2+y,z
1/2-x,1/2+y,-z
1/2-x,1/2-y,-z
1/2+x,1/2-y,z
loop_
_atom_site_type_symbol
_atom_site_label
_atom_site_fract_x
_atom_site_fract_y
_atom_site_fract_z
Si Si1 0.642880 0.500000 0.760799
Si Si2 0.941526 0.314747 0.233072
Si Si3 0.977321 0.823711 0.951200
Si Si4 0.056295 0.150078 0.708959
Si Si5 0.779448 0.000000 0.403862
Si Si6 0.314764 0.500000 0.936311
Si Si7 0.633874 0.000000 0.698337
O O1 0.551215 0.585100 0.754101
O O2 0.493742 0.500000 0.846105
O O3 0.968510 0.500000 0.690743
O O4 0.731519 0.324859 0.242745
O O5 0.959754 0.410793 0.252620
O O6 0.235916 0.291053 0.140521
O O7 0.834740 0.242790 0.296822
O O8 0.888120 0.912834 0.947228
O O9 0.750000 0.750000 0.000000
O O10 0.000000 0.841692 0.000000
O O11 0.197301 0.088074 0.634759
O O12 0.500000 0.000000 0.500000
O O13 0.038851 0.000000 0.375097
O O14 0.000000 0.500000 0.000000
#
# Coordination Sequence:
#
# PCOD9204198 Si02
#       7
#     4   8   8   8   4   4   4
#     4  11  22  41  60  89 122 164 217 253 304 373
#     4  11  21  40  61  89 120 166 217 259 301 379
#     4  12  26  41  59  86 123 165 217 270 326 354
#     4  10  23  37  67  92 123 164 206 250 310 370
#     4   9  21  45  69 101 132 154 194 253 316 380
#     4  12  28  40  58  86 125 165 215 273 320 358
#     4  10  20  40  67  91 122 167 206 251 310 373
#
# _framework density 18.721867
#
# number of rings (size 3 to 8) (size 9 to 14) (size 15 to 20)
#    0.000    1.200    2.000    3.900    8.400    0.000 
#    0.000    6.000    0.000    0.000    0.000    0.000 
#    0.000    0.000    0.000    0.000    0.000    0.000 
#
# Total GULP energy -111639.972039 kJ/mol
# GULP energy per Si atom -5581.998602 kJ/mol
# Density = 1.867926 g / cm^3
# Si number density = 18.721867 Si / 1000 Ang^3
#
#
#
# Elastic Constant Matrix: (Units=GPa)
#
#
# Indices 1 2 3 4 5 6 
#
# 1 161.7986 65.5012 54.2446 -0.0031 -6.9840 0.0079
# 2 65.5012 137.4033 44.5536 -0.0012 7.5841 0.0036
# 3 54.2446 44.5536 130.0435 0.0010 -10.0369 0.0104
# 4 -0.0031 -0.0012 0.0010 12.5871 0.0157 2.1402
# 5 -6.9840 7.5841 -10.0369 0.0157 19.7561 -0.0123
# 6 0.0079 0.0036 0.0104 2.1402 -0.0123 42.6147
#
#
#
# Elastic Compliance Matrix: (Units=1/GPa)
#
#
# Indices 1 2 3 4 5 6 
#
# 1 0.008446 -0.003542 -0.002055 -0.000002 0.003302 0.000000
# 2 -0.003542 0.010126 -0.002486 0.000009 -0.006402 -0.000002
# 3 -0.002055 -0.002486 0.009800 -0.000008 0.005207 0.000000
# 4 -0.000002 0.000009 -0.000008 0.080131 -0.000075 -0.004024
# 5 0.003302 -0.006402 0.005207 -0.000075 0.056887 0.000019
# 6 0.000000 -0.000002 0.000000 -0.004024 0.000019 0.023668
#
#
# Mechanical properties :
#
#
# Convention : Reuss Voigt Hill
#
# Bulk Modulus (GPa) = 81.92120 84.20490 83.06305
# Shear Modulus (GPa) = 23.89003 32.65465 28.27234
#
# Velocity S-wave (km/s) = 3.57606 4.18089 3.89025
# Velocity P-wave (km/s) = 7.80403 8.26927 8.04002
#
# Compressibility (1/GPa) = 0.01220685
#
# Stress axis : x y z
#
# Youngs Moduli (GPa) = 118.40109 98.75717 102.03822
#
# Poissons Ratio (x) = 0.34982 0.20964
# Poissons Ratio (y) = 0.41941 0.25364
# Poissons Ratio (z) = 0.24326 0.24548
#
# Static dielectric constant tensor:
#      x y z
#    x 1.667600 -0.000010 -0.018470 
#    y -0.000010 1.659370 0.000010 
#    z -0.018470 0.000010 1.622770 
# 
# From -- ./inp_files/194639.got.cif
#   From: 2010.05.17/outbox.cif.g08.bks.cpg/sg12_98_cif.got.tgz:194639.got - 2010.06.03 13:09:07.
