data_PCOD9204654
_publ_section_title
;
Structure prediction by ZEFSAII (Michael W. Deem and Ramdas Pophale) SiO2 
 PCOD9204654
Probable space group: C 2/M
;
_chemical_formula_sum "Si O2"
_cell_formula_units_Z 56
_cell_length_a 17.375772
_cell_length_b 23.778556
_cell_length_c 20.180630
_cell_angle_alpha 90.000000
_cell_angle_beta 159.195050
_cell_angle_gamma 90.000000
_cell_volume 2961.571721
_symmetry_space_group_name_H-M "C 2/M"
_symmetry_group_IT_number 12
_symmetry_cell_setting 'monoclinic'
loop_
_space_group_symop_operation_xyz
x,y,z
-x,y,-z
-x,-y,-z
x,-y,z
1/2+x,1/2+y,z
1/2-x,1/2+y,-z
1/2-x,1/2-y,-z
1/2+x,1/2-y,z
loop_
_atom_site_type_symbol
_atom_site_label
_atom_site_fract_x
_atom_site_fract_y
_atom_site_fract_z
Si Si1 0.862775 0.148517 0.954900
Si Si2 0.210829 0.894721 0.597523
Si Si3 0.855592 0.769156 0.445924
Si Si4 0.096258 0.634279 0.379016
Si Si5 0.612410 0.252140 0.784167
Si Si6 0.772213 0.435195 0.788462
Si Si7 0.540531 0.669137 0.233983
O O1 0.624798 0.120597 0.760439
O O2 0.818764 0.216080 0.927243
O O3 0.000000 0.137167 0.000000
O O4 0.955597 0.135284 0.102513
O O5 0.238100 0.830477 0.644060
O O6 0.352483 0.899684 0.645649
O O7 0.277835 0.932665 0.713086
O O8 0.955436 0.905269 0.377192
O O9 0.689196 0.719575 0.325995
O O10 0.000000 0.751552 0.500000
O O11 0.002078 0.776192 0.629697
O O12 0.303673 0.633940 0.592860
O O13 0.046359 0.700414 0.320219
O O14 0.631643 0.298511 0.856925
O O15 0.755203 0.500000 0.796938
O O16 0.000000 0.411922 0.000000
#
# Coordination Sequence:
#
# PCOD9204654 Si02
#       7
#     8   8   8   8   8   8   8
#     4  10  21  32  43  66  91 143 191 215 262 305
#     4  11  18  35  55  77  99 134 170 217 256 303
#     4  11  17  28  45  68  98 127 183 225 249 292
#     4   9  20  32  48  68  97 130 181 216 256 306
#     4   9  18  32  42  61  96 139 169 224 263 290
#     4  10  23  41  58  80 109 134 160 205 275 337
#     4  11  18  32  47  58  99 143 170 233 270 286
#
# _framework density 18.908878999999999
#
# number of rings (size 3 to 8) (size 9 to 14) (size 15 to 20)
#    0.857    1.000    4.286    3.000    0.000    1.143 
#    2.571    0.000    0.000    0.000    0.000    0.000 
#    0.000    2.286    0.000    9.714    1.143    0.857 
#
# Total GULP energy -155905.667643 kJ/mol
# GULP energy per Si atom -5568.059559 kJ/mol
# Density = 1.886584 g / cm^3
# Si number density = 18.908879 Si / 1000 Ang^3
#
#
#
# Elastic Constant Matrix: (Units=GPa)
#
#
# Indices 1 2 3 4 5 6 
#
# 1 110.9162 1.9202 29.1937 -0.0033 15.5227 -0.0253
# 2 1.9202 13.8386 -5.1309 -0.0529 2.2838 -0.0050
# 3 29.1937 -5.1309 71.7246 -0.2488 -5.1293 -0.0867
# 4 -0.0033 -0.0529 -0.2488 9.1444 -0.0011 -6.2985
# 5 15.5227 2.2838 -5.1293 -0.0011 28.4601 -0.0514
# 6 -0.0253 -0.0050 -0.0867 -6.2985 -0.0514 13.4709
#
#
#
# Elastic Compliance Matrix: (Units=1/GPa)
#
#
# Indices 1 2 3 4 5 6 
#
# 1 0.011442 -0.002409 -0.005332 -0.000271 -0.007008 -0.000167
# 2 -0.002409 0.075470 0.006123 0.000938 -0.003638 0.000487
# 3 -0.005332 0.006123 0.016945 0.000855 0.005472 0.000522
# 4 -0.000271 0.000938 0.000855 0.161354 0.000369 0.075450
# 5 -0.007008 -0.003638 0.005472 0.000369 0.040238 0.000347
# 6 -0.000167 0.000487 0.000522 0.075450 0.000347 0.109517
#
#
# Mechanical properties :
#
#
# Convention : Reuss Voigt Hill
#
# Bulk Modulus (GPa) = 9.93821 27.60504 18.77162
# Shear Modulus (GPa) = 11.06828 21.58151 16.32489
#
# Velocity S-wave (km/s) = 2.42202 3.38204 2.94146
# Velocity P-wave (km/s) = 3.61785 5.46641 4.63522
#
# Compressibility (1/GPa) = 0.10062174
#
# Stress axis : x y z
#
# Youngs Moduli (GPa) = 87.40016 13.25029 59.01357
#
# Poissons Ratio (x) = 0.03192 0.31464
# Poissons Ratio (y) = 0.21053 -0.36134
# Poissons Ratio (z) = 0.46599 -0.08113
#
# Static dielectric constant tensor:
#      x y z
#    x 1.681730 0.000000 -0.005630 
#    y 0.000000 1.650550 -0.000020 
#    z -0.005630 -0.000020 1.746440 
# 
# From -- ./inp_files/318296.got.cif
#   From: 2010.05.17/outbox.cif.g08.bks.cpg/sg12_160_cif.got.tgz:318296.got - 2010.06.03 13:09:07.
