data_PCOD9204632
_publ_section_title
;
Structure prediction by ZEFSAII (Michael W. Deem and Ramdas Pophale) SiO2 
 PCOD9204632
Probable space group: C 2/M
;
_chemical_formula_sum "Si O2"
_cell_formula_units_Z 44
_cell_length_a 20.734817
_cell_length_b 15.091956
_cell_length_c 8.505988
_cell_angle_alpha 90.000000
_cell_angle_beta 102.673514
_cell_angle_gamma 90.000000
_cell_volume 2596.918677
_symmetry_space_group_name_H-M "C 2/M"
_symmetry_group_IT_number 12
_symmetry_cell_setting 'monoclinic'
loop_
_space_group_symop_operation_xyz
x,y,z
-x,y,-z
-x,-y,-z
x,-y,z
1/2+x,1/2+y,z
1/2-x,1/2+y,-z
1/2-x,1/2-y,-z
1/2+x,1/2-y,z
loop_
_atom_site_type_symbol
_atom_site_label
_atom_site_fract_x
_atom_site_fract_y
_atom_site_fract_z
Si Si1 0.627983 0.395578 0.988496
Si Si2 0.500000 0.279361 0.500000
Si Si3 0.269645 0.898005 0.233560
Si Si4 0.862006 0.761363 0.289481
Si Si5 0.943110 0.901249 0.734550
Si Si6 0.698261 0.401440 0.516928
O O1 0.621938 0.500000 0.942426
O O2 0.621206 0.327561 0.843666
O O3 0.701070 0.384916 0.103024
O O4 0.574722 0.376178 0.097076
O O5 0.429410 0.235545 0.418905
O O6 0.484586 0.338378 0.645318
O O7 0.323527 0.825989 0.216149
O O8 0.252232 0.887170 0.409857
O O9 0.290183 0.000000 0.220230
O O10 0.812330 0.820991 0.369925
O O11 0.871607 0.906344 0.611799
O O12 0.972220 0.000000 0.750290
O O13 0.708882 0.500000 0.594921
#
# Coordination Sequence:
#
# PCOD9204632 Si02
#       6
#     8   4   8   8   8   8
#     4   9  18  31  49  73  95 116 148 190 238 283
#     4  10  21  30  43  68  96 128 162 180 210 274
#     4   9  18  33  50  68  91 121 157 196 234 267
#     4  11  19  30  47  70  96 126 154 188 226 270
#     4   8  15  29  45  65  96 125 147 180 226 280
#     4   8  15  28  47  70  94 118 148 188 234 280
#
# _framework density 16.943155999999998
#
# number of rings (size 3 to 8) (size 9 to 14) (size 15 to 20)
#    0.000    2.909    0.000    4.091    0.000    2.909 
#    0.000    2.273    0.000    0.000    0.000    2.545 
#    0.000    0.000    0.000    0.000    0.000    0.000 
#
# Total GULP energy -122516.377912 kJ/mol
# GULP energy per Si atom -5568.926269 kJ/mol
# Density = 1.690459 g / cm^3
# Si number density = 16.943156 Si / 1000 Ang^3
#
#
#
# Elastic Constant Matrix: (Units=GPa)
#
#
# Indices 1 2 3 4 5 6 
#
# 1 66.3910 40.3713 21.2425 0.0000 10.1977 0.0000
# 2 40.3713 69.0092 36.3288 0.0000 8.0772 0.0000
# 3 21.2425 36.3288 56.1422 0.0000 1.4064 0.0000
# 4 0.0000 0.0000 0.0000 18.9081 0.0000 4.3518
# 5 10.1977 8.0772 1.4064 0.0000 18.2001 0.0000
# 6 0.0000 0.0000 0.0000 4.3518 0.0000 -0.5252
#
#
#
# Elastic Compliance Matrix: (Units=1/GPa)
#
#
# Indices 1 2 3 4 5 6 
#
# 1 0.024381 -0.013033 -0.000595 0.000000 -0.007831 0.000000
# 2 -0.013033 0.030401 -0.014614 0.000000 -0.005060 0.000000
# 3 -0.000595 -0.014614 0.027376 0.000000 0.004704 0.000000
# 4 0.000000 0.000000 0.000000 0.018193 0.000000 0.150744
# 5 -0.007831 -0.005060 0.004704 0.000000 0.061215 0.000000
# 6 0.000000 0.000000 0.000000 0.150744 0.000000 -0.654968
#
#
# Mechanical properties :
#
#
# Convention : Reuss Voigt Hill
#
# Bulk Modulus (GPa) = 38.95163 43.04752 40.99957
# Shear Modulus (GPa) = -11.67241 13.55657 0.94208
#
# Velocity S-wave (km/s) = -2.62757 2.83171 0.74648
# Velocity P-wave (km/s) = 3.71941 6.01279 4.99938
#
# Compressibility (1/GPa) = 0.02567287
#
# Stress axis : x y z
#
# Youngs Moduli (GPa) = 41.01584 32.89382 36.52882
#
# Poissons Ratio (x) = 0.42871 0.02174
# Poissons Ratio (y) = 0.53457 0.53382
# Poissons Ratio (z) = 0.02441 0.48070
#
# Static dielectric constant tensor:
#      x y z
#    x 1.598900 0.000000 -0.007480 
#    y 0.000000 1.559510 0.000000 
#    z -0.007480 0.000000 1.593500 
# 
# From -- ./inp_files/73210.got.cif
#   From: 2010.05.17/outbox.cif.g08.bks.cpg/sg12_37_cif.got.tgz:73210.got - 2010.06.03 13:09:07.
