data_PCOD9204140
_publ_section_title
;
Structure prediction by ZEFSAII (Michael W. Deem and Ramdas Pophale) SiO2 
 PCOD9204140
Probable space group: C 2/M
;
_chemical_formula_sum "Si O2"
_cell_formula_units_Z 64
_cell_length_a 31.741518
_cell_length_b 15.711657
_cell_length_c 9.868970
_cell_angle_alpha 90.000000
_cell_angle_beta 141.488984
_cell_angle_gamma 90.000000
_cell_volume 3064.615762
_symmetry_space_group_name_H-M "C 2/M"
_symmetry_group_IT_number 12
_symmetry_cell_setting 'monoclinic'
loop_
_space_group_symop_operation_xyz
x,y,z
-x,y,-z
-x,-y,-z
x,-y,z
1/2+x,1/2+y,z
1/2-x,1/2+y,-z
1/2-x,1/2-y,-z
1/2+x,1/2-y,z
loop_
_atom_site_type_symbol
_atom_site_label
_atom_site_fract_x
_atom_site_fract_y
_atom_site_fract_z
Si Si1 0.811213 0.351619 0.847440
Si Si2 0.945747 0.342715 0.753028
Si Si3 0.694876 0.900769 0.474727
Si Si4 0.454542 0.637361 0.757986
Si Si5 0.034287 0.643538 0.724460
Si Si6 0.809964 0.905327 0.266437
Si Si7 0.044470 0.149031 0.737095
Si Si8 0.191890 0.838466 0.036898
O O1 0.796708 0.352160 0.648769
O O2 0.752534 0.397250 0.786247
O O3 0.809480 0.258305 0.911694
O O4 0.888473 0.386335 0.057539
O O5 0.874429 0.374803 0.625892
O O6 0.944447 0.239807 0.743223
O O7 0.978468 0.375961 0.697394
O O8 0.000000 0.368421 0.000000
O O9 0.750435 0.882352 0.729237
O O10 0.694529 0.000000 0.438185
O O11 0.379639 0.606463 0.527076
O O12 0.505874 0.615499 0.768195
O O13 0.500000 0.610129 0.000000
O O14 0.041463 0.747192 0.739494
O O15 0.000000 0.615059 0.500000
O O16 0.809933 0.000000 0.207653
O O17 0.803870 0.845365 0.116796
O O18 0.000000 0.122678 0.500000
O O19 0.120579 0.122775 0.903570
#
# Coordination Sequence:
#
# PCOD9204140 Si02
#       8
#     8   8   8   8   8   8   8   8
#     4  11  24  43  68  94 125 173 222 266 316 387
#     4  10  20  40  65  96 127 166 220 266 311 383
#     4  12  26  43  63  96 136 172 210 270 335 384
#     4  10  22  38  67  97 129 167 219 263 314 379
#     4   9  19  35  64  97 125 156 213 272 316 366
#     4  12  26  44  62  95 138 172 211 270 332 384
#     4   9  17  37  63  95 122 155 211 275 315 364
#     4  11  24  42  70  93 124 172 227 264 314 387
#
# _framework density 20.883531000000001
#
# number of rings (size 3 to 8) (size 9 to 14) (size 15 to 20)
#    0.000    1.500    2.500    2.250    7.000    0.500 
#    0.000    1.875    0.000    1.875    0.000    0.000 
#    0.000    0.000    0.000    0.000    0.000    0.000 
#
# Total GULP energy -178506.314476 kJ/mol
# GULP energy per Si atom -5578.322327 kJ/mol
# Density = 2.083600 g / cm^3
# Si number density = 20.883531 Si / 1000 Ang^3
#
#
#
# Elastic Constant Matrix: (Units=GPa)
#
#
# Indices 1 2 3 4 5 6 
#
# 1 175.6394 24.3783 98.4297 0.0000 -1.9913 0.0000
# 2 24.3783 45.5809 24.1913 0.0000 1.0384 0.0000
# 3 98.4297 24.1913 169.6431 0.0000 2.7971 0.0000
# 4 0.0000 0.0000 0.0000 -79.6477 0.0000 -93.5381
# 5 -1.9913 1.0384 2.7971 0.0000 48.3166 0.0000
# 6 0.0000 0.0000 0.0000 -93.5381 0.0000 -85.4955
#
#
#
# Elastic Compliance Matrix: (Units=1/GPa)
#
#
# Indices 1 2 3 4 5 6 
#
# 1 0.008643 -0.002132 -0.004722 0.000000 0.000675 0.000000
# 2 -0.002132 0.024266 -0.002215 0.000000 -0.000481 0.000000
# 3 -0.004722 -0.002215 0.008961 0.000000 -0.000666 0.000000
# 4 0.000000 0.000000 0.000000 0.044073 0.000000 -0.048219
# 5 0.000675 -0.000481 -0.000666 0.000000 0.020774 0.000000
# 6 0.000000 0.000000 0.000000 -0.048219 0.000000 0.041059
#
#
# Mechanical properties :
#
#
# Convention : Reuss Voigt Hill
#
# Bulk Modulus (GPa) = 42.13756 76.09580 59.11668
# Shear Modulus (GPa) = 28.76436 -7.10773 10.82831
#
# Velocity S-wave (km/s) = 3.71532 -1.84686 2.27955
# Velocity P-wave (km/s) = 6.21498 5.65415 5.94119
#
# Compressibility (1/GPa) = 0.02373179
#
# Stress axis : x y z
#
# Youngs Moduli (GPa) = 115.69540 41.20990 111.58853
#
# Poissons Ratio (x) = 0.08786 0.52694
# Poissons Ratio (y) = 0.24666 0.24722
# Poissons Ratio (z) = 0.54633 0.09130
#
# Static dielectric constant tensor:
#      x y z
#    x 1.697390 0.000000 -0.035480 
#    y 0.000000 1.778060 0.000000 
#    z -0.035480 0.000000 1.736640 
# 
# From -- ./inp_files/112897.got.cif
#   From: 2010.05.17/outbox.cif.g08.bks.cpg/sg12_57_cif.got.tgz:112897.got - 2010.06.03 13:09:07.
