data_PCOD9204836
_publ_section_title
;
Structure prediction by ZEFSAII (Michael W. Deem and Ramdas Pophale) SiO2 
 PCOD9204836
Probable space group: C 2/M
;
_chemical_formula_sum "Si O2"
_cell_formula_units_Z 64
_cell_length_a 31.351723
_cell_length_b 7.584001
_cell_length_c 15.337528
_cell_angle_alpha 90.000000
_cell_angle_beta 100.305860
_cell_angle_gamma 90.000000
_cell_volume 3587.991829
_symmetry_space_group_name_H-M "C 2/M"
_symmetry_group_IT_number 12
_symmetry_cell_setting 'monoclinic'
loop_
_space_group_symop_operation_xyz
x,y,z
-x,y,-z
-x,-y,-z
x,-y,z
1/2+x,1/2+y,z
1/2-x,1/2+y,-z
1/2-x,1/2-y,-z
1/2+x,1/2-y,z
loop_
_atom_site_type_symbol
_atom_site_label
_atom_site_fract_x
_atom_site_fract_y
_atom_site_fract_z
Si Si1 0.873240 0.716139 0.754689
Si Si2 0.528774 0.213397 0.881519
Si Si3 0.806173 0.214062 0.439033
Si Si4 0.470980 0.705118 0.316022
Si Si5 0.068851 0.703237 0.387569
Si Si6 0.711161 0.790499 0.366693
Si Si7 0.897666 0.797536 0.414646
Si Si8 0.564543 0.214729 0.074955
O O1 0.873166 0.500000 0.755320
O O2 0.904902 0.770207 0.686867
O O3 0.825011 0.777564 0.713145
O O4 0.894723 0.773872 0.853118
O O5 0.539495 0.280798 0.789936
O O6 0.479811 0.265132 0.891197
O O7 0.529352 0.000000 0.878002
O O8 0.559300 0.270914 0.972833
O O9 0.760347 0.278775 0.383636
O O10 0.806216 0.262383 0.541293
O O11 0.849568 0.279975 0.408100
O O12 0.806437 0.000000 0.436221
O O13 0.476269 0.500000 0.342131
O O14 0.517782 0.789034 0.350341
O O15 0.432466 0.782376 0.360971
O O16 0.081772 0.500000 0.404649
O O17 0.081488 0.796803 0.481485
O O18 0.714172 0.000000 0.353839
O O19 0.891441 0.000000 0.383543
O O20 0.564806 0.000000 0.074021
#
# Coordination Sequence:
#
# PCOD9204836 Si02
#       8
#     8   8   8   8   8   8   8   8
#     4   9  15  25  44  69  91 111 137 175 222 264
#     4   9  16  29  48  66  84 112 148 181 219 264
#     4   9  17  29  44  62  86 116 148 180 216 259
#     4  11  22  33  44  60  89 124 154 184 217 255
#     4  11  20  31  47  66  89 117 153 188 214 251
#     4   9  16  27  45  67  88 110 142 183 221 258
#     4  10  21  34  44  59  89 126 155 181 218 258
#     4   8  14  26  46  67  88 111 137 178 228 268
#
# _framework density 17.837275999999999
#
# number of rings (size 3 to 8) (size 9 to 14) (size 15 to 20)
#    0.000    2.500    2.500    1.875    0.000    2.500 
#    0.000    1.250    0.000    0.000    0.000    0.875 
#    0.000    0.000    0.000    0.000    0.000    0.000 
#
# Total GULP energy -178455.716331 kJ/mol
# GULP energy per Si atom -5576.741135 kJ/mol
# Density = 1.779668 g / cm^3
# Si number density = 17.837276 Si / 1000 Ang^3
#
#
#
# Elastic Constant Matrix: (Units=GPa)
#
#
# Indices 1 2 3 4 5 6 
#
# 1 123.7278 -2.2073 62.6301 0.0000 21.2960 0.0000
# 2 -2.2073 39.6197 -6.0144 0.0000 0.6820 0.0000
# 3 62.6301 -6.0144 78.4713 0.0000 20.6009 0.0000
# 4 0.0000 0.0000 0.0000 14.7848 0.0000 -1.0331
# 5 21.2960 0.6820 20.6009 0.0000 31.9425 0.0000
# 6 0.0000 0.0000 0.0000 -1.0331 0.0000 9.5826
#
#
#
# Elastic Compliance Matrix: (Units=1/GPa)
#
#
# Indices 1 2 3 4 5 6 
#
# 1 0.013749 -0.000769 -0.010390 0.000000 -0.002450 0.000000
# 2 -0.000769 0.025706 0.003122 0.000000 -0.002050 0.000000
# 3 -0.010390 0.003122 0.023443 0.000000 -0.008259 0.000000
# 4 0.000000 0.000000 0.000000 0.068151 0.000000 0.007347
# 5 -0.002450 -0.002050 -0.008259 0.000000 0.038310 0.000000
# 6 0.000000 0.000000 0.000000 0.007347 0.000000 0.105147
#
#
# Mechanical properties :
#
#
# Convention : Reuss Voigt Hill
#
# Bulk Modulus (GPa) = 21.35560 38.95953 30.15757
# Shear Modulus (GPa) = 16.32981 23.75601 20.04291
#
# Velocity S-wave (km/s) = 3.02899 3.65337 3.35573
# Velocity P-wave (km/s) = 4.92255 6.29962 5.65317
#
# Compressibility (1/GPa) = 0.04682613
#
# Stress axis : x y z
#
# Youngs Moduli (GPa) = 72.73122 38.90090 42.65609
#
# Poissons Ratio (x) = 0.02992 0.44318
# Poissons Ratio (y) = 0.05593 -0.13318
# Poissons Ratio (z) = 0.75564 -0.12145
#
# Static dielectric constant tensor:
#      x y z
#    x 1.631870 0.000000 0.014830 
#    y 0.000000 1.677030 0.000000 
#    z 0.014830 0.000000 1.591000 
# 
# From -- ./inp_files/248445.got.cif
#   From: 2010.05.17/outbox.cif.g08.bks.cpg/sg12_125_cif.got.tgz:248445.got - 2010.06.03 13:09:07.
