data_PCOD9204240
_publ_section_title
;
Structure prediction by ZEFSAII (Michael W. Deem and Ramdas Pophale) SiO2 
 PCOD9204240
Probable space group: C 2/M
;
_chemical_formula_sum "Si O2"
_cell_formula_units_Z 48
_cell_length_a 13.823143
_cell_length_b 13.663443
_cell_length_c 16.076053
_cell_angle_alpha 90.000000
_cell_angle_beta 47.120816
_cell_angle_gamma 90.000000
_cell_volume 2224.979477
_symmetry_space_group_name_H-M "C 2/M"
_symmetry_group_IT_number 12
_symmetry_cell_setting 'monoclinic'
loop_
_space_group_symop_operation_xyz
x,y,z
-x,y,-z
-x,-y,-z
x,-y,z
1/2+x,1/2+y,z
1/2-x,1/2+y,-z
1/2-x,1/2-y,-z
1/2+x,1/2-y,z
loop_
_atom_site_type_symbol
_atom_site_label
_atom_site_fract_x
_atom_site_fract_y
_atom_site_fract_z
Si Si1 0.927949 0.886936 0.130163
Si Si2 0.007125 0.614815 0.682432
Si Si3 0.822983 0.298509 0.658532
Si Si4 0.868180 0.780270 0.869704
Si Si5 0.280729 0.616204 0.452791
Si Si6 0.416566 0.385015 0.679102
O O1 0.795798 0.823834 0.208521
O O2 0.026195 0.841412 0.139387
O O3 0.895750 0.000000 0.169200
O O4 0.000000 0.884567 0.000000
O O5 0.984704 0.500000 0.710946
O O6 0.945086 0.642779 0.628415
O O7 0.936147 0.683812 0.790739
O O8 0.163605 0.634733 0.586763
O O9 0.767137 0.333281 0.603752
O O10 0.863023 0.185339 0.638655
O O11 0.839082 0.850285 0.807588
O O12 0.750000 0.750000 0.000000
O O13 0.280928 0.500000 0.437018
O O14 0.429234 0.640399 0.393442
O O15 0.404771 0.500000 0.669882
#
# Coordination Sequence:
#
# PCOD9204240 Si02
#       6
#     8   8   8   8   8   8
#     4  11  22  39  64  92 125 164 214 272 320 376
#     4  10  22  39  62  96 131 164 213 273 321 374
#     4  11  21  36  65  98 128 163 219 264 320 379
#     4  11  23  39  63  94 126 169 217 263 321 389
#     4  10  20  40  68  96 127 170 219 265 320 383
#     4  10  22  41  66  93 129 174 215 261 324 390
#
# _framework density 21.573232999999998
#
# number of rings (size 3 to 8) (size 9 to 14) (size 15 to 20)
#    0.000    1.500    1.667    4.500    0.000    6.667 
#    3.000    0.833    0.000   11.000    0.000    0.000 
#    0.000    0.000    0.000    0.000    0.000    0.000 
#
# Total GULP energy -134286.536387 kJ/mol
# GULP energy per Si atom -5595.272349 kJ/mol
# Density = 2.152413 g / cm^3
# Si number density = 21.573233 Si / 1000 Ang^3
#
#
#
# Elastic Constant Matrix: (Units=GPa)
#
#
# Indices 1 2 3 4 5 6 
#
# 1 89.4747 50.5573 27.7975 0.0000 -7.3058 0.0000
# 2 50.5573 161.8155 54.7217 0.0000 -5.8469 0.0000
# 3 27.7975 54.7217 123.6629 0.0000 -11.6418 0.0000
# 4 0.0000 0.0000 0.0000 25.3093 0.0000 -6.3486
# 5 -7.3058 -5.8469 -11.6418 0.0000 32.0873 0.0000
# 6 0.0000 0.0000 0.0000 -6.3486 0.0000 36.8003
#
#
#
# Elastic Compliance Matrix: (Units=1/GPa)
#
#
# Indices 1 2 3 4 5 6 
#
# 1 0.013901 -0.003855 -0.001229 0.000000 0.002017 0.000000
# 2 -0.003855 0.008337 -0.002860 0.000000 -0.000396 0.000000
# 3 -0.001229 -0.002860 0.009891 0.000000 0.002788 0.000000
# 4 0.000000 0.000000 0.000000 0.041298 0.000000 0.007125
# 5 0.002017 -0.000396 0.002788 0.000000 0.032563 0.000000
# 6 0.000000 0.000000 0.000000 0.007125 0.000000 0.028403
#
#
# Mechanical properties :
#
#
# Convention : Reuss Voigt Hill
#
# Bulk Modulus (GPa) = 61.57208 71.23402 66.40305
# Shear Modulus (GPa) = 32.11417 34.96450 33.53934
#
# Velocity S-wave (km/s) = 3.86244 4.03020 3.94721
# Velocity P-wave (km/s) = 6.96378 7.39919 7.18478
#
# Compressibility (1/GPa) = 0.01624113
#
# Stress axis : x y z
#
# Youngs Moduli (GPa) = 71.93771 119.94585 101.10395
#
# Poissons Ratio (x) = 0.46235 0.12427
# Poissons Ratio (y) = 0.27729 0.28916
# Poissons Ratio (z) = 0.08842 0.34305
#
# Static dielectric constant tensor:
#      x y z
#    x 1.785410 0.000000 0.014020 
#    y 0.000000 1.779860 0.000000 
#    z 0.014020 0.000000 1.835010 
# 
# From -- ./inp_files/270131.got.cif
#   From: 2010.05.17/outbox.cif.g08.bks.cpg/sg12_136_cif.got.tgz:270131.got - 2010.06.03 13:09:07.
