data_PCOD9204651
_publ_section_title
;
Structure prediction by ZEFSAII (Michael W. Deem and Ramdas Pophale) SiO2 
 PCOD9204651
Probable space group: C 2/M
;
_chemical_formula_sum "Si O2"
_cell_formula_units_Z 48
_cell_length_a 8.520822
_cell_length_b 19.377593
_cell_length_c 25.679114
_cell_angle_alpha 90.000000
_cell_angle_beta 150.049982
_cell_angle_gamma 90.000000
_cell_volume 2116.774043
_symmetry_space_group_name_H-M "C 2/M"
_symmetry_group_IT_number 12
_symmetry_cell_setting 'monoclinic'
loop_
_space_group_symop_operation_xyz
x,y,z
-x,y,-z
-x,-y,-z
x,-y,z
1/2+x,1/2+y,z
1/2-x,1/2+y,-z
1/2-x,1/2-y,-z
1/2+x,1/2-y,z
loop_
_atom_site_type_symbol
_atom_site_label
_atom_site_fract_x
_atom_site_fract_y
_atom_site_fract_z
Si Si1 0.295415 0.000000 0.191271
Si Si2 0.041209 0.221568 0.234617
Si Si3 0.609346 0.500000 0.693383
Si Si4 0.713655 0.000000 0.958016
Si Si5 0.337117 0.882199 0.397852
Si Si6 0.786360 0.000000 0.488860
Si Si7 0.929947 0.636830 0.040856
Si Si8 0.761799 0.653910 0.191878
O O1 0.516958 0.000000 0.203389
O O2 0.350779 0.924762 0.231454
O O3 0.926234 0.000000 0.072661
O O4 0.678414 0.194621 0.129244
O O5 0.026368 0.303599 0.237481
O O6 0.225601 0.183483 0.333654
O O7 0.187824 0.195852 0.222871
O O8 0.453630 0.432866 0.673382
O O9 0.499368 0.500000 0.601711
O O10 0.521696 0.930095 0.909530
O O11 0.000000 0.000000 0.000000
O O12 0.500000 0.865555 0.500000
O O13 0.571487 0.931698 0.432433
O O14 0.000000 0.000000 0.500000
O O15 0.557900 0.653346 0.934727
O O16 0.000000 0.622613 0.000000
#
# Coordination Sequence:
#
# PCOD9204651 Si02
#       8
#     4   8   4   4   8   4   8   8
#     4  10  23  40  61  90 132 166 211 259 309 376
#     4  11  23  39  68  89 130 166 212 262 329 372
#     4   9  20  36  65  86 127 167 206 258 308 377
#     4  10  21  31  53  94 130 160 217 260 308 371
#     4   9  21  40  60  96 125 164 210 260 318 379
#     4   9  19  37  64  94 126 161 216 261 319 383
#     4   9  20  39  58  87 127 175 207 258 311 382
#     4  10  24  41  62  96 129 169 214 259 311 385
#
# _framework density 22.676016000000001
#
# number of rings (size 3 to 8) (size 9 to 14) (size 15 to 20)
#    0.000    2.333    0.000    1.750    7.000    4.667 
#    0.000    1.667    0.000    0.000    0.000    0.000 
#    0.000    0.000    0.000    0.000    0.000    0.000 
#
# Total GULP energy -134091.182624 kJ/mol
# GULP energy per Si atom -5587.132609 kJ/mol
# Density = 2.262440 g / cm^3
# Si number density = 22.676016 Si / 1000 Ang^3
#
#
#
# Elastic Constant Matrix: (Units=GPa)
#
#
# Indices 1 2 3 4 5 6 
#
# 1 82.5650 47.7316 23.2997 -0.0003 -1.1665 0.0001
# 2 47.7316 137.3040 17.6326 -0.0022 -4.1963 -0.0013
# 3 23.2997 17.6326 97.4532 -0.0019 -4.5661 -0.0041
# 4 -0.0003 -0.0022 -0.0019 23.4524 0.0008 7.4223
# 5 -1.1665 -4.1963 -4.5661 0.0008 28.5449 -0.0009
# 6 0.0001 -0.0013 -0.0041 7.4223 -0.0009 27.3104
#
#
#
# Elastic Compliance Matrix: (Units=1/GPa)
#
#
# Indices 1 2 3 4 5 6 
#
# 1 0.015914 -0.005178 -0.002895 0.000000 -0.000574 -0.000001
# 2 -0.005178 0.009164 -0.000370 0.000001 0.001076 0.000000
# 3 -0.002895 -0.000370 0.011095 0.000000 0.001602 0.000002
# 4 0.000000 0.000001 0.000000 0.046652 -0.000002 -0.012679
# 5 -0.000574 0.001076 0.001602 -0.000002 0.035424 0.000002
# 6 -0.000001 0.000000 0.000002 -0.012679 0.000002 0.040062
#
#
# Mechanical properties :
#
#
# Convention : Reuss Voigt Hill
#
# Bulk Modulus (GPa) = 51.84558 54.96110 53.40334
# Shear Modulus (GPa) = 27.52929 31.10542 29.31735
#
# Velocity S-wave (km/s) = 3.48807 3.70771 3.59956
# Velocity P-wave (km/s) = 6.25583 6.52837 6.39355
#
# Compressibility (1/GPa) = 0.01928805
#
# Stress axis : x y z
#
# Youngs Moduli (GPa) = 62.83799 109.12826 90.12759
#
# Poissons Ratio (x) = 0.56507 0.26090
# Poissons Ratio (y) = 0.32538 0.03331
# Poissons Ratio (z) = 0.18190 0.04033
#
# Static dielectric constant tensor:
#      x y z
#    x 1.846690 0.000000 -0.041500 
#    y 0.000000 1.830170 0.000000 
#    z -0.041500 0.000000 1.938290 
# 
# From -- ./inp_files/373050.got.cif
#   From: 2010.05.17/outbox.cif.g08.bks.cpg/sg12_187_cif.got.tgz:373050.got - 2010.06.03 13:09:07.
