data_PCOD9204860
_publ_section_title
;
Structure prediction by ZEFSAII (Michael W. Deem and Ramdas Pophale) SiO2 
 PCOD9204860
Probable space group: C 2/M
;
_chemical_formula_sum "Si O2"
_cell_formula_units_Z 64
_cell_length_a 14.421660
_cell_length_b 30.258778
_cell_length_c 8.562012
_cell_angle_alpha 90.000000
_cell_angle_beta 86.182177
_cell_angle_gamma 90.000000
_cell_volume 3728.014684
_symmetry_space_group_name_H-M "C 2/M"
_symmetry_group_IT_number 12
_symmetry_cell_setting 'monoclinic'
loop_
_space_group_symop_operation_xyz
x,y,z
-x,y,-z
-x,-y,-z
x,-y,z
1/2+x,1/2+y,z
1/2-x,1/2+y,-z
1/2-x,1/2-y,-z
1/2+x,1/2-y,z
loop_
_atom_site_type_symbol
_atom_site_label
_atom_site_fract_x
_atom_site_fract_y
_atom_site_fract_z
Si Si1 0.363258 0.748343 0.618005
Si Si2 0.138930 0.629202 0.813956
Si Si3 0.450671 0.103586 0.669971
Si Si4 0.787957 0.719330 0.133569
Si Si5 0.392330 0.950755 0.961010
Si Si6 0.788500 0.656991 0.531961
Si Si7 0.025686 0.235027 0.816931
Si Si8 0.579211 0.333579 0.597024
O O1 0.295897 0.719720 0.735571
O O2 0.312022 0.790770 0.552221
O O3 0.450419 0.760254 0.719121
O O4 0.401172 0.713367 0.490805
O O5 0.171883 0.671227 0.912595
O O6 0.193533 0.637820 0.644508
O O7 0.031292 0.626639 0.766985
O O8 0.152877 0.585214 0.916263
O O9 0.500000 0.089317 0.500000
O O10 0.402794 0.066402 0.782538
O O11 0.367380 0.135260 0.629839
O O12 0.874126 0.743135 0.204536
O O13 0.750000 0.750000 0.000000
O O14 0.351648 0.000000 0.976524
O O15 0.500000 0.953414 0.000000
O O16 0.682496 0.646813 0.594594
O O17 0.034334 0.183933 0.762074
O O18 0.000000 0.237932 0.000000
O O19 0.500000 0.356579 0.500000
#
# Coordination Sequence:
#
# PCOD9204860 Si02
#       8
#     8   8   8   8   8   8   8   8
#     4  11  21  35  48  67  98 145 181 220 263 295
#     4  10  21  34  52  78 105 137 182 214 258 315
#     4   9  20  34  54  82 107 139 175 218 259 314
#     4  12  22  32  50  74 103 145 181 224 257 306
#     4   9  19  37  57  79 111 143 170 212 270 321
#     4  11  19  34  51  72 102 137 179 219 261 306
#     4  11  22  33  45  67  96 134 186 223 251 304
#     4  10  21  34  49  64  94 140 182 216 257 301
#
# _framework density 17.167313
#
# number of rings (size 3 to 8) (size 9 to 14) (size 15 to 20)
#    0.000    1.625    3.750    1.875    1.750    5.250 
#    0.000    1.875    0.000    0.000    0.000    0.000 
#    0.000    3.000    0.000    0.000    0.000    0.000 
#
# Total GULP energy -178215.844635 kJ/mol
# GULP energy per Si atom -5569.245145 kJ/mol
# Density = 1.712824 g / cm^3
# Si number density = 17.167313 Si / 1000 Ang^3
#
#
#
# Elastic Constant Matrix: (Units=GPa)
#
#
# Indices 1 2 3 4 5 6 
#
# 1 90.1920 19.9857 19.0621 0.0000 7.6827 0.0000
# 2 19.9857 92.5921 40.7115 0.0000 4.9805 0.0000
# 3 19.0621 40.7115 70.9291 0.0000 3.5590 0.0000
# 4 0.0000 0.0000 0.0000 16.1789 0.0000 -5.1607
# 5 7.6827 4.9805 3.5590 0.0000 21.5027 0.0000
# 6 0.0000 0.0000 0.0000 -5.1607 0.0000 15.1964
#
#
#
# Elastic Compliance Matrix: (Units=1/GPa)
#
#
# Indices 1 2 3 4 5 6 
#
# 1 0.012197 -0.001439 -0.002269 0.000000 -0.003649 0.000000
# 2 -0.001439 0.014700 -0.007972 0.000000 -0.001571 0.000000
# 3 -0.002269 -0.007972 0.019311 0.000000 -0.000539 0.000000
# 4 0.000000 0.000000 0.000000 0.069317 0.000000 0.023540
# 5 -0.003649 -0.001571 -0.000539 0.000000 0.048263 0.000000
# 6 0.000000 0.000000 0.000000 0.023540 0.000000 0.073799
#
#
# Mechanical properties :
#
#
# Convention : Reuss Voigt Hill
#
# Bulk Modulus (GPa) = 43.76632 45.91465 44.84049
# Shear Modulus (GPa) = 18.61761 22.17255 20.39508
#
# Velocity S-wave (km/s) = 3.29672 3.59772 3.45050
# Velocity P-wave (km/s) = 6.32775 6.63789 6.48468
#
# Compressibility (1/GPa) = 0.02284862
#
# Stress axis : x y z
#
# Youngs Moduli (GPa) = 81.98989 68.02547 51.78334
#
# Poissons Ratio (x) = 0.09787 0.11749
# Poissons Ratio (y) = 0.11796 0.41282
# Poissons Ratio (z) = 0.18603 0.54231
#
# Static dielectric constant tensor:
#      x y z
#    x 1.612000 0.000000 0.001220 
#    y 0.000000 1.595880 0.000000 
#    z 0.001220 0.000000 1.730240 
# 
# From -- ./inp_files/67862.got.cif
#   From: 2010.05.17/outbox.cif.g08.bks.cpg/sg12_34_cif.got.tgz:67862.got - 2010.06.03 13:09:07.
