data_PCOD9204322
_publ_section_title
;
Structure prediction by ZEFSAII (Michael W. Deem and Ramdas Pophale) SiO2 
 PCOD9204322
Probable space group: C 2/M
;
_chemical_formula_sum "Si O2"
_cell_formula_units_Z 48
_cell_length_a 16.128261
_cell_length_b 15.418825
_cell_length_c 16.753699
_cell_angle_alpha 90.000000
_cell_angle_beta 147.241924
_cell_angle_gamma 90.000000
_cell_volume 2254.350587
_symmetry_space_group_name_H-M "C 2/M"
_symmetry_group_IT_number 12
_symmetry_cell_setting 'monoclinic'
loop_
_space_group_symop_operation_xyz
x,y,z
-x,y,-z
-x,-y,-z
x,-y,z
1/2+x,1/2+y,z
1/2-x,1/2+y,-z
1/2-x,1/2-y,-z
1/2+x,1/2-y,z
loop_
_atom_site_type_symbol
_atom_site_label
_atom_site_fract_x
_atom_site_fract_y
_atom_site_fract_z
Si Si1 0.683803 0.808109 0.156734
Si Si2 0.447094 0.000000 0.771133
Si Si3 0.310489 0.137553 0.553988
Si Si4 0.774903 0.000000 0.024569
Si Si5 0.213939 0.000000 0.732598
Si Si6 0.677595 0.285521 0.311480
Si Si7 0.177114 0.185742 0.006468
Si Si8 0.048957 0.000000 0.374191
O O1 0.732720 0.773248 0.283181
O O2 0.742705 0.905835 0.194864
O O3 0.500000 0.814977 0.000000
O O4 0.726512 0.733589 0.127979
O O5 0.432564 0.078481 0.697843
O O6 0.614942 0.000000 0.943763
O O7 0.312909 0.000000 0.729405
O O8 0.343863 0.225660 0.628353
O O9 0.298125 0.147326 0.448189
O O10 0.153428 0.085648 0.448471
O O11 0.777078 0.087240 0.973935
O O12 0.919662 0.000000 0.200962
O O13 0.033083 0.000000 0.607006
O O14 0.509077 0.316862 0.150079
O O15 0.250000 0.250000 0.000000
#
# Coordination Sequence:
#
# PCOD9204322 Si02
#       8
#     8   4   8   4   4   8   8   4
#     4  10  23  39  62  96 131 173 218 272 334 392
#     4  11  24  40  65  92 128 177 215 270 338 403
#     4  10  21  40  64  90 131 174 212 261 329 401
#     4  12  24  43  67  98 128 173 235 275 318 387
#     4  12  23  39  60  98 137 169 212 276 339 396
#     4  10  20  41  63  89 129 177 218 260 327 400
#     4  11  23  40  66  98 135 171 225 277 330 388
#     4  11  24  38  63 101 128 170 221 274 329 396
#
# _framework density 21.292162000000001
#
# number of rings (size 3 to 8) (size 9 to 14) (size 15 to 20)
#    0.000    1.333    3.333    2.250    4.667    1.333 
#    0.000    5.417    0.000    1.000    0.000    0.000 
#    0.000    0.000    0.000    0.000    0.000    0.000 
#
# Total GULP energy -133640.507979 kJ/mol
# GULP energy per Si atom -5568.354499 kJ/mol
# Density = 2.124370 g / cm^3
# Si number density = 21.292162 Si / 1000 Ang^3
#
#
#
# Elastic Constant Matrix: (Units=GPa)
#
#
# Indices 1 2 3 4 5 6 
#
# 1 41.5474 29.3534 23.8712 -0.0004 -8.1082 -0.0003
# 2 29.3534 115.0340 17.3937 -0.0003 -6.4965 -0.0003
# 3 23.8712 17.3937 91.9695 -0.0006 -7.5102 -0.0004
# 4 -0.0004 -0.0003 -0.0006 30.9245 -0.0003 -9.9029
# 5 -8.1082 -6.4965 -7.5102 -0.0003 35.1243 -0.0002
# 6 -0.0003 -0.0003 -0.0004 -9.9029 -0.0002 27.3233
#
#
#
# Elastic Compliance Matrix: (Units=1/GPa)
#
#
# Indices 1 2 3 4 5 6 
#
# 1 0.034374 -0.007412 -0.007108 0.000000 0.005044 0.000000
# 2 -0.007412 0.010607 -0.000063 0.000000 0.000238 0.000000
# 3 -0.007108 -0.000063 0.012819 0.000000 0.001088 0.000000
# 4 0.000000 0.000000 0.000000 0.036583 0.000001 0.013259
# 5 0.005044 0.000238 0.001088 0.000001 0.029911 0.000000
# 6 0.000000 0.000000 0.000000 0.013259 0.000000 0.041404
#
#
# Mechanical properties :
#
#
# Convention : Reuss Voigt Hill
#
# Bulk Modulus (GPa) = 34.92315 43.30973 39.11644
# Shear Modulus (GPa) = 24.46085 30.53661 27.49873
#
# Velocity S-wave (km/s) = 3.39310 3.79115 3.59764
# Velocity P-wave (km/s) = 5.63811 6.28877 5.97231
#
# Compressibility (1/GPa) = 0.02863430
#
# Stress axis : x y z
#
# Youngs Moduli (GPa) = 29.09205 94.27535 78.00960
#
# Poissons Ratio (x) = 0.69872 0.55451
# Poissons Ratio (y) = 0.21562 0.00491
# Poissons Ratio (z) = 0.20679 0.00594
#
# Static dielectric constant tensor:
#      x y z
#    x 1.788700 0.000000 -0.024220 
#    y 0.000000 1.576490 0.000000 
#    z -0.024220 0.000000 1.864850 
# 
# From -- ./inp_files/278298.got.cif
#   From: 2010.05.17/outbox.cif.g08.bks.cpg/sg12_140_cif.got.tgz:278298.got - 2010.06.03 13:09:07.
