data_PCOD9204467
_publ_section_title
;
Structure prediction by ZEFSAII (Michael W. Deem and Ramdas Pophale) SiO2 
 PCOD9204467
Probable space group: C 2/M
;
_chemical_formula_sum "Si O2"
_cell_formula_units_Z 50
_cell_length_a 5.098009
_cell_length_b 25.223763
_cell_length_c 20.483789
_cell_angle_alpha 90.000000
_cell_angle_beta 114.178514
_cell_angle_gamma 90.000000
_cell_volume 2402.956774
_symmetry_space_group_name_H-M "C 2/M"
_symmetry_group_IT_number 12
_symmetry_cell_setting 'monoclinic'
loop_
_space_group_symop_operation_xyz
x,y,z
-x,y,-z
-x,-y,-z
x,-y,z
1/2+x,1/2+y,z
1/2-x,1/2+y,-z
1/2-x,1/2-y,-z
1/2+x,1/2-y,z
loop_
_atom_site_type_symbol
_atom_site_label
_atom_site_fract_x
_atom_site_fract_y
_atom_site_fract_z
Si Si1 0.835194 0.602595 0.050297
Si Si2 0.368191 0.355742 0.414970
Si Si3 0.868665 0.000000 0.745920
Si Si4 0.318868 0.917105 0.380085
Si Si5 0.000000 0.500000 0.500000
Si Si6 0.518207 0.788618 0.137951
Si Si7 0.463288 0.000000 0.152090
Si Si8 0.375927 0.281166 0.295068
O O1 0.938667 0.659351 0.089182
O O2 0.889745 0.553237 0.104209
O O3 0.500000 0.606347 0.000000
O O4 0.000000 0.591683 0.000000
O O5 0.500000 0.346140 0.500000
O O6 0.545546 0.402652 0.397136
O O7 0.411070 0.309030 0.367696
O O8 0.031518 0.369139 0.385684
O O9 0.783864 0.948997 0.693576
O O10 0.705905 0.000000 0.797385
O O11 0.202995 0.000000 0.795628
O O12 0.512810 0.954703 0.444514
O O13 0.743726 0.747952 0.127504
O O14 0.674995 0.808981 0.220457
O O15 0.679367 0.269782 0.292158
#
# Coordination Sequence:
#
# PCOD9204467 Si02
#       8
#     8   8   4   8   2   8   4   8
#     4  12  26  45  72 103 139 180 214 270 331 405
#     4  12  23  40  64  94 130 173 221 270 336 396
#     4  11  26  42  66  96 126 175 228 277 318 382
#     4  11  24  39  61  94 127 169 218 277 333 384
#     4  10  20  42  56  84 132 162 204 266 336 388
#     4  10  23  43  68 100 133 173 223 278 334 385
#     4  12  26  49  68 102 138 181 222 261 329 411
#     4  10  23  42  63  93 129 172 217 273 330 388
#
# _framework density 20.807697000000001
#
# number of rings (size 3 to 8) (size 9 to 14) (size 15 to 20)
#    0.000    0.960    1.600    4.320    4.480    5.120 
#    0.000    0.000    0.000    0.000    0.000    0.000 
#    0.000    0.000    0.000    0.000    0.000    0.000 
#
# Total GULP energy -139400.739241 kJ/mol
# GULP energy per Si atom -5576.029570 kJ/mol
# Density = 2.076034 g / cm^3
# Si number density = 20.807697 Si / 1000 Ang^3
#
#
#
# Elastic Constant Matrix: (Units=GPa)
#
#
# Indices 1 2 3 4 5 6 
#
# 1 119.5434 16.5103 48.5822 0.0000 -7.3702 0.0000
# 2 16.5103 60.4129 57.4355 0.0000 8.7268 0.0000
# 3 48.5822 57.4355 156.3582 0.0000 -9.0858 0.0000
# 4 0.0000 0.0000 0.0000 73.5746 0.0000 -27.2529
# 5 -7.3702 8.7268 -9.0858 0.0000 33.9443 0.0000
# 6 0.0000 0.0000 0.0000 -27.2529 0.0000 43.9347
#
#
#
# Elastic Compliance Matrix: (Units=1/GPa)
#
#
# Indices 1 2 3 4 5 6 
#
# 1 0.009631 -0.000084 -0.002884 0.000000 0.001341 0.000000
# 2 -0.000084 0.028605 -0.011082 0.000000 -0.010339 0.000000
# 3 -0.002884 -0.011082 0.011673 0.000000 0.005348 0.000000
# 4 0.000000 0.000000 0.000000 0.017646 0.000000 0.010946
# 5 0.001341 -0.010339 0.005348 0.000000 0.033841 0.000000
# 6 0.000000 0.000000 0.000000 0.010946 0.000000 0.029551
#
#
# Mechanical properties :
#
#
# Convention : Reuss Voigt Hill
#
# Bulk Modulus (GPa) = 45.85178 64.59671 55.22425
# Shear Modulus (GPa) = 30.06288 44.54315 37.30302
#
# Velocity S-wave (km/s) = 3.80517 4.63180 4.23868
# Velocity P-wave (km/s) = 6.43347 7.72766 7.11007
#
# Compressibility (1/GPa) = 0.02180940
#
# Stress axis : x y z
#
# Youngs Moduli (GPa) = 103.82696 34.95845 85.66635
#
# Poissons Ratio (x) = 0.00295 0.24703
# Poissons Ratio (y) = 0.00876 0.94938
# Poissons Ratio (z) = 0.29940 0.38742
#
# Static dielectric constant tensor:
#      x y z
#    x 1.740090 0.000000 0.014150 
#    y 0.000000 1.785980 0.000000 
#    z 0.014150 0.000000 1.731250 
# 
# From -- ./inp_files/253681.got.cif
#   From: 2010.05.17/outbox.cif.g08.bks.cpg/sg12_127_cif.got.tgz:253681.got - 2010.06.03 13:09:07.
