data_PCOD9204295
_publ_section_title
;
Structure prediction by ZEFSAII (Michael W. Deem and Ramdas Pophale) SiO2 
 PCOD9204295
Probable space group: C 2/M
;
_chemical_formula_sum "Si O2"
_cell_formula_units_Z 64
_cell_length_a 14.556584
_cell_length_b 16.400271
_cell_length_c 16.568763
_cell_angle_alpha 90.000000
_cell_angle_beta 127.019761
_cell_angle_gamma 90.000000
_cell_volume 3158.175684
_symmetry_space_group_name_H-M "C 2/M"
_symmetry_group_IT_number 12
_symmetry_cell_setting 'monoclinic'
loop_
_space_group_symop_operation_xyz
x,y,z
-x,y,-z
-x,-y,-z
x,-y,z
1/2+x,1/2+y,z
1/2-x,1/2+y,-z
1/2-x,1/2-y,-z
1/2+x,1/2-y,z
loop_
_atom_site_type_symbol
_atom_site_label
_atom_site_fract_x
_atom_site_fract_y
_atom_site_fract_z
Si Si1 0.223408 0.346734 0.994739
Si Si2 0.989909 0.902374 0.403324
Si Si3 0.459207 0.818319 0.228084
Si Si4 0.466938 0.410344 0.075985
Si Si5 0.290470 0.596420 0.589963
Si Si6 0.793638 0.179793 0.201122
Si Si7 0.640843 0.718611 0.241581
Si Si8 0.971075 0.404234 0.574865
O O1 0.110785 0.362296 0.881129
O O2 0.250000 0.250000 0.000000
O O3 0.332306 0.393872 0.016129
O O4 0.223238 0.362210 0.090917
O O5 0.869848 0.877127 0.298951
O O6 0.000000 0.869671 0.500000
O O7 0.100969 0.878432 0.408184
O O8 0.994030 0.000000 0.409146
O O9 0.389887 0.735860 0.210151
O O10 0.583680 0.790782 0.263099
O O11 0.465300 0.864564 0.315997
O O12 0.495138 0.500000 0.125980
O O13 0.538263 0.337391 0.152801
O O14 0.500000 0.411279 0.000000
O O15 0.303465 0.500000 0.617879
O O16 0.289362 0.656016 0.665930
O O17 0.165816 0.604268 0.483460
O O18 0.713078 0.239790 0.209330
O O19 0.000360 0.500000 0.589057
O O20 0.000000 0.371924 0.500000
#
# Coordination Sequence:
#
# PCOD9204295 Si02
#       8
#     8   8   8   8   8   8   8   8
#     4  10  20  41  59  86 133 168 207 254 321 378
#     4  10  22  41  64  91 125 165 218 273 322 382
#     4  11  23  40  61  92 126 166 214 260 319 387
#     4  11  22  37  64  98 126 164 216 266 321 386
#     4  10  21  41  65  89 124 165 208 269 333 383
#     4  11  23  39  61  93 124 173 211 260 328 383
#     4  12  23  37  63  93 127 168 205 272 319 383
#     4  10  23  42  63  90 128 171 210 263 332 394
#
# _framework density 20.264865
#
# number of rings (size 3 to 8) (size 9 to 14) (size 15 to 20)
#    0.000    1.375    3.750    2.625    1.750    4.000 
#    0.000    3.125    0.000    0.000    0.000    2.625 
#    0.000    0.000    0.000    0.000    0.000    0.000 
#
# Total GULP energy -178618.053178 kJ/mol
# GULP energy per Si atom -5581.814162 kJ/mol
# Density = 2.021874 g / cm^3
# Si number density = 20.264865 Si / 1000 Ang^3
#
#
#
# Elastic Constant Matrix: (Units=GPa)
#
#
# Indices 1 2 3 4 5 6 
#
# 1 86.1988 31.7266 24.3843 0.0000 -13.7973 0.0000
# 2 31.7266 26.6784 29.9816 0.0000 -7.3747 0.0000
# 3 24.3843 29.9816 147.7230 0.0000 -17.3497 0.0000
# 4 0.0000 0.0000 0.0000 30.7507 0.0000 6.1009
# 5 -13.7973 -7.3747 -17.3497 0.0000 26.6122 0.0000
# 6 0.0000 0.0000 0.0000 6.1009 0.0000 3.8467
#
#
#
# Elastic Compliance Matrix: (Units=1/GPa)
#
#
# Indices 1 2 3 4 5 6 
#
# 1 0.021794 -0.027326 0.002584 0.000000 0.005411 0.000000
# 2 -0.027326 0.084290 -0.012472 0.000000 0.001059 0.000000
# 3 0.002584 -0.012472 0.009341 0.000000 0.003973 0.000000
# 4 0.000000 0.000000 0.000000 0.047450 0.000000 -0.075256
# 5 0.005411 0.001059 0.003973 0.000000 0.043266 0.000000
# 6 0.000000 0.000000 0.000000 -0.075256 0.000000 0.379315
#
#
# Mechanical properties :
#
#
# Convention : Reuss Voigt Hill
#
# Bulk Modulus (GPa) = 24.39256 48.08725 36.23990
# Shear Modulus (GPa) = 7.42335 23.87577 15.64956
#
# Velocity S-wave (km/s) = 1.91602 3.43619 2.78196
# Velocity P-wave (km/s) = 4.11799 6.28682 5.31422
#
# Compressibility (1/GPa) = 0.04099611
#
# Stress axis : x y z
#
# Youngs Moduli (GPa) = 45.88414 11.86385 107.05668
#
# Poissons Ratio (x) = 0.32419 -0.27665
# Poissons Ratio (y) = 1.25384 1.33523
# Poissons Ratio (z) = -0.11857 0.14797
#
# Static dielectric constant tensor:
#      x y z
#    x 1.549270 0.000000 0.042760 
#    y 0.000000 1.719560 0.000000 
#    z 0.042760 0.000000 1.746420 
# 
# From -- ./inp_files/216807.got.cif
#   From: 2010.05.17/outbox.cif.g08.bks.cpg/sg12_109_cif.got.tgz:216807.got - 2010.06.03 13:09:07.
