data_PCOD9204598
_publ_section_title
;
Structure prediction by ZEFSAII (Michael W. Deem and Ramdas Pophale) SiO2 
 PCOD9204598
Probable space group: C 2/M
;
_chemical_formula_sum "Si O2"
_cell_formula_units_Z 44
_cell_length_a 17.943704
_cell_length_b 14.870830
_cell_length_c 9.341364
_cell_angle_alpha 90.000000
_cell_angle_beta 75.885161
_cell_angle_gamma 90.000000
_cell_volume 2417.373524
_symmetry_space_group_name_H-M "C 2/M"
_symmetry_group_IT_number 12
_symmetry_cell_setting 'monoclinic'
loop_
_space_group_symop_operation_xyz
x,y,z
-x,y,-z
-x,-y,-z
x,-y,z
1/2+x,1/2+y,z
1/2-x,1/2+y,-z
1/2-x,1/2-y,-z
1/2+x,1/2-y,z
loop_
_atom_site_type_symbol
_atom_site_label
_atom_site_fract_x
_atom_site_fract_y
_atom_site_fract_z
Si Si1 0.871779 0.000000 0.059330
Si Si2 0.174083 0.000000 0.454538
Si Si3 0.540886 0.500000 0.280437
Si Si4 0.421045 0.835111 0.346750
Si Si5 0.403896 0.371039 0.300302
Si Si6 0.659717 0.000000 0.769237
Si Si7 0.808416 0.500000 0.910512
Si Si8 0.590312 0.896542 0.340041
O O1 0.890433 0.085285 0.151277
O O2 0.782508 0.000000 0.061764
O O3 0.921900 0.000000 0.893659
O O4 0.107392 0.000000 0.366305
O O5 0.159715 0.085680 0.564335
O O6 0.256190 0.000000 0.342104
O O7 0.484429 0.414036 0.317667
O O8 0.405355 0.735228 0.300748
O O9 0.384593 0.911984 0.265801
O O10 0.512556 0.853432 0.315946
O O11 0.388627 0.846154 0.524025
O O12 0.666889 0.000000 0.936768
O O13 0.844824 0.413889 0.809578
O O14 0.573062 0.000000 0.392614
#
# Coordination Sequence:
#
# PCOD9204598 Si02
#       8
#     4   4   4   8   8   4   4   8
#     4  10  21  46  60  86 121 163 193 238 307 352
#     4  10  23  38  62  90 115 157 199 254 291 342
#     4  10  20  44  62  86 119 154 203 242 300 346
#     4  11  21  39  64  92 117 151 206 242 296 348
#     4  10  23  38  66  89 113 157 201 252 287 353
#     4  12  22  41  58  90 125 157 195 246 295 359
#     4  10  22  41  60  82 123 167 191 242 299 353
#     4   9  20  39  61  85 118 164 188 245 291 348
#
# _framework density 18.201573
#
# number of rings (size 3 to 8) (size 9 to 14) (size 15 to 20)
#    0.545    1.455    2.727    2.727   10.182    2.182 
#    6.545    0.909    0.000    0.000    0.000    0.000 
#    0.000    0.000    0.000    0.000    0.000    0.000 
#
# Total GULP energy -122715.015400 kJ/mol
# GULP energy per Si atom -5577.955245 kJ/mol
# Density = 1.816014 g / cm^3
# Si number density = 18.201573 Si / 1000 Ang^3
#
#
#
# Elastic Constant Matrix: (Units=GPa)
#
#
# Indices 1 2 3 4 5 6 
#
# 1 52.3165 32.1616 20.1726 0.0000 3.4640 0.0000
# 2 32.1616 155.2097 42.3997 0.0000 6.9284 0.0000
# 3 20.1726 42.3997 96.1605 0.0000 -3.0719 0.0000
# 4 0.0000 0.0000 0.0000 -4.7693 0.0000 -2.7791
# 5 3.4640 6.9284 -3.0719 0.0000 34.4557 0.0000
# 6 0.0000 0.0000 0.0000 -2.7791 0.0000 -7.2452
#
#
#
# Elastic Compliance Matrix: (Units=1/GPa)
#
#
# Indices 1 2 3 4 5 6 
#
# 1 0.022777 -0.003772 -0.003173 0.000000 -0.001814 0.000000
# 2 -0.003772 0.008059 -0.002810 0.000000 -0.001492 0.000000
# 3 -0.003173 -0.002810 0.012367 0.000000 0.001987 0.000000
# 4 0.000000 0.000000 0.000000 -0.270032 0.000000 0.103578
# 5 -0.001814 -0.001492 0.001987 0.000000 0.029682 0.000000
# 6 0.000000 0.000000 0.000000 0.103578 0.000000 -0.177753
#
#
# Mechanical properties :
#
#
# Convention : Reuss Voigt Hill
#
# Bulk Modulus (GPa) = 42.20546 54.79494 48.50020
# Shear Modulus (GPa) = -14.38876 18.41844 2.01484
#
# Velocity S-wave (km/s) = -2.81467 3.18451 1.05326
# Velocity P-wave (km/s) = 3.56019 6.60994 5.30878
#
# Compressibility (1/GPa) = 0.02369362
#
# Stress axis : x y z
#
# Youngs Moduli (GPa) = 43.90440 124.09106 80.85908
#
# Poissons Ratio (x) = 0.46806 0.25656
# Poissons Ratio (y) = 0.16560 0.22718
# Poissons Ratio (z) = 0.13931 0.34865
#
# Static dielectric constant tensor:
#      x y z
#    x 1.627280 0.000000 -0.007720 
#    y 0.000000 1.595240 0.000000 
#    z -0.007720 0.000000 1.633280 
# 
# From -- ./inp_files/73188.got.cif
#   From: 2010.05.17/outbox.cif.g08.bks.cpg/sg12_37_cif.got.tgz:73188.got - 2010.06.03 13:09:07.
