data_PCOD9204641
_publ_section_title
;
Structure prediction by ZEFSAII (Michael W. Deem and Ramdas Pophale) SiO2 
 PCOD9204641
Probable space group: C 2/M
;
_chemical_formula_sum "Si O2"
_cell_formula_units_Z 42
_cell_length_a 19.423397
_cell_length_b 18.937881
_cell_length_c 6.992451
_cell_angle_alpha 90.000000
_cell_angle_beta 35.670758
_cell_angle_gamma 90.000000
_cell_volume 1499.853735
_symmetry_space_group_name_H-M "C 2/M"
_symmetry_group_IT_number 12
_symmetry_cell_setting 'monoclinic'
loop_
_space_group_symop_operation_xyz
x,y,z
-x,y,-z
-x,-y,-z
x,-y,z
1/2+x,1/2+y,z
1/2-x,1/2+y,-z
1/2-x,1/2-y,-z
1/2+x,1/2-y,z
loop_
_atom_site_type_symbol
_atom_site_label
_atom_site_fract_x
_atom_site_fract_y
_atom_site_fract_z
Si Si1 0.037701 0.276275 0.710144
Si Si2 0.910151 0.081323 0.922399
Si Si3 0.340618 0.581519 0.526779
Si Si4 0.279840 0.221532 0.215415
Si Si5 0.346213 0.079620 0.581386
Si Si6 0.000000 0.500000 0.500000
O O1 0.165337 0.248357 0.358405
O O2 0.070715 0.358157 0.678293
O O3 0.917310 0.264196 0.865069
O O4 0.000000 0.242989 0.000000
O O5 0.881145 0.081213 0.213822
O O6 0.787625 0.107640 0.109250
O O7 0.915667 0.000000 0.849194
O O8 0.045047 0.106968 0.607549
O O9 0.314358 0.500000 0.635844
O O10 0.236754 0.637440 0.756171
O O11 0.250000 0.250000 0.500000
O O12 0.405020 0.059781 0.647228
O O13 0.347979 0.000000 0.477156
#
# Coordination Sequence:
#
# PCOD9204641 Si02
#       6
#     8   8   8   8   8   2
#     4  10  21  32  49  79 115 151 176 218 271 338
#     4   8  14  24  45  74 101 131 172 216 259 318
#     4   9  17  27  45  74 109 142 177 211 264 325
#     4  10  21  31  45  74 118 156 176 207 268 334
#     4   9  18  34  55  80 104 141 188 225 278 316
#     4   8  20  36  58  82  98 144 184 250 270 326
#
# _framework density 28.002728000000001
#
# number of rings (size 3 to 8) (size 9 to 14) (size 15 to 20)
#    0.571    2.286    0.000    3.429   10.667    1.143 
#    0.000    0.000    0.000    1.143    0.000    1.333 
#    0.000    0.000    0.000    0.000    0.000    0.000 
#
# Total GULP energy -116970.865304 kJ/mol
# GULP energy per Si atom -5570.041205 kJ/mol
# Density = 2.793899 g / cm^3
# Si number density = 28.002728 Si / 1000 Ang^3
#
#
#
# Elastic Constant Matrix: (Units=GPa)
#
#
# Indices 1 2 3 4 5 6 
#
# 1 119.0003 23.8846 90.3904 0.0000 -52.3440 0.0000
# 2 23.8846 133.5605 60.8405 0.0000 -15.1648 0.0000
# 3 90.3904 60.8405 229.4741 0.0000 -56.1815 0.0000
# 4 0.0000 0.0000 0.0000 47.4099 0.0000 -25.8838
# 5 -52.3440 -15.1648 -56.1815 0.0000 66.4643 0.0000
# 6 0.0000 0.0000 0.0000 -25.8838 0.0000 14.9871
#
#
#
# Elastic Compliance Matrix: (Units=1/GPa)
#
#
# Indices 1 2 3 4 5 6 
#
# 1 0.015134 0.000030 -0.003845 0.000000 0.008675 0.000000
# 2 0.000030 0.008516 -0.002255 0.000000 0.000061 0.000000
# 3 -0.003845 -0.002255 0.007065 0.000000 0.002429 0.000000
# 4 0.000000 0.000000 0.000000 0.369433 0.000000 0.638035
# 5 0.008675 0.000061 0.002429 0.000000 0.023945 0.000000
# 6 0.000000 0.000000 0.000000 0.638035 0.000000 1.168653
#
#
# Mechanical properties :
#
#
# Convention : Reuss Voigt Hill
#
# Bulk Modulus (GPa) = 53.83558 92.47398 73.15478
# Shear Modulus (GPa) = 3.10351 46.23355 24.66853
#
# Velocity S-wave (km/s) = 1.05390 4.06770 2.97127
# Velocity P-wave (km/s) = 4.55497 7.42674 6.16053
#
# Compressibility (1/GPa) = 0.01857507
#
# Stress axis : x y z
#
# Youngs Moduli (GPa) = 66.07565 117.42763 141.54188
#
# Poissons Ratio (x) = -0.00356 0.54429
# Poissons Ratio (y) = -0.00200 0.31915
# Poissons Ratio (z) = 0.25409 0.26478
#
# Static dielectric constant tensor:
#      x y z
#    x 2.247450 0.000000 0.053810 
#    y 0.000000 2.319740 0.000000 
#    z 0.053810 0.000000 2.172040 
# 
# From -- ./inp_files/132714.got.cif
#   From: 2010.05.17/outbox.cif.g08.bks.cpg/sg12_67_cif.got.tgz:132714.got - 2010.06.03 13:09:07.
