data_PCOD9204694
_publ_section_title
;
Structure prediction by ZEFSAII (Michael W. Deem and Ramdas Pophale) SiO2 
 PCOD9204694
Probable space group: C 2/M
;
_chemical_formula_sum "Si O2"
_cell_formula_units_Z 52
_cell_length_a 19.489772
_cell_length_b 18.582342
_cell_length_c 9.738928
_cell_angle_alpha 90.000000
_cell_angle_beta 44.989320
_cell_angle_gamma 90.000000
_cell_volume 2493.574778
_symmetry_space_group_name_H-M "C 2/M"
_symmetry_group_IT_number 12
_symmetry_cell_setting 'monoclinic'
loop_
_space_group_symop_operation_xyz
x,y,z
-x,y,-z
-x,-y,-z
x,-y,z
1/2+x,1/2+y,z
1/2-x,1/2+y,-z
1/2-x,1/2-y,-z
1/2+x,1/2-y,z
loop_
_atom_site_type_symbol
_atom_site_label
_atom_site_fract_x
_atom_site_fract_y
_atom_site_fract_z
Si Si1 0.824108 0.231079 0.086140
Si Si2 0.000000 0.700768 0.000000
Si Si3 0.779598 0.876234 0.712178
Si Si4 0.872590 0.579410 0.279410
Si Si5 0.084080 0.162220 0.267399
Si Si6 0.706807 0.581740 0.748413
Si Si7 0.446558 0.416258 0.261219
O O1 0.917452 0.251324 0.047492
O O2 0.748057 0.292484 0.234898
O O3 0.781649 0.152092 0.175844
O O4 0.861823 0.230594 0.875770
O O5 0.053388 0.645643 0.820185
O O6 0.683290 0.913723 0.789023
O O7 0.836812 0.890018 0.772810
O O8 0.858342 0.893158 0.485523
O O9 0.916877 0.500000 0.227835
O O10 0.791121 0.584815 0.512989
O O11 0.000000 0.176623 0.500000
O O12 0.034206 0.126926 0.204610
O O13 0.709126 0.500000 0.802707
O O14 0.602768 0.590737 0.818032
O O15 0.467450 0.500000 0.250435
#
# Coordination Sequence:
#
# PCOD9204694 Si02
#       7
#     8   4   8   8   8   8   8
#     4  11  21  34  51  75 104 131 169 211 249 300
#     4  10  21  32  53  82 102 132 168 206 253 290
#     4   9  19  32  50  74 100 133 168 202 245 291
#     4   9  18  34  54  76 104 134 167 205 245 295
#     4  10  21  34  49  71 101 136 170 205 249 297
#     4   9  19  35  54  76 103 133 162 203 258 304
#     4   9  18  33  53  77 104 132 163 201 249 303
#
# _framework density 20.853596
#
# number of rings (size 3 to 8) (size 9 to 14) (size 15 to 20)
#    0.000    2.462    0.000    3.000    0.000   12.000 
#    0.000    1.923    0.000    0.000    0.000    0.000 
#    0.000   19.077    0.000    0.000    0.000    0.000 
#
# Total GULP energy -144818.557973 kJ/mol
# GULP energy per Si atom -5569.944537 kJ/mol
# Density = 2.080613 g / cm^3
# Si number density = 20.853596 Si / 1000 Ang^3
#
#
#
# Elastic Constant Matrix: (Units=GPa)
#
#
# Indices 1 2 3 4 5 6 
#
# 1 95.3923 57.7826 50.4753 0.0000 -4.0937 0.0000
# 2 57.7826 163.7934 79.6917 0.0000 5.6803 0.0000
# 3 50.4753 79.6917 116.6106 0.0000 -0.3469 0.0000
# 4 0.0000 0.0000 0.0000 42.4932 0.0000 -0.8958
# 5 -4.0937 5.6803 -0.3469 0.0000 27.4908 0.0000
# 6 0.0000 0.0000 0.0000 -0.8958 0.0000 11.9811
#
#
#
# Elastic Compliance Matrix: (Units=1/GPa)
#
#
# Indices 1 2 3 4 5 6 
#
# 1 0.014796 -0.003305 -0.004137 0.000000 0.002834 0.000000
# 2 -0.003305 0.009992 -0.005406 0.000000 -0.002625 0.000000
# 3 -0.004137 -0.005406 0.014063 0.000000 0.000678 0.000000
# 4 0.000000 0.000000 0.000000 0.023570 0.000000 0.001762
# 5 0.002834 -0.002625 0.000678 0.000000 0.037349 0.000000
# 6 0.000000 0.000000 0.000000 0.001762 0.000000 0.083597
#
#
# Mechanical properties :
#
#
# Convention : Reuss Voigt Hill
#
# Bulk Modulus (GPa) = 76.02022 83.52172 79.77097
# Shear Modulus (GPa) = 23.42484 28.91613 26.17049
#
# Velocity S-wave (km/s) = 3.35520 3.72778 3.54639
# Velocity P-wave (km/s) = 7.17936 7.65943 7.42328
#
# Compressibility (1/GPa) = 0.01315440
#
# Stress axis : x y z
#
# Youngs Moduli (GPa) = 67.58684 100.07543 71.10852
#
# Poissons Ratio (x) = 0.33074 0.29421
# Poissons Ratio (y) = 0.22337 0.38442
# Poissons Ratio (z) = 0.27964 0.54102
#
# Static dielectric constant tensor:
#      x y z
#    x 1.810120 0.000000 -0.014970 
#    y 0.000000 1.734500 0.000000 
#    z -0.014970 0.000000 1.808330 
# 
# From -- ./inp_files/168716.got.cif
#   From: 2010.05.17/outbox.cif.g08.bks.cpg/sg12_85_cif.got.tgz:168716.got - 2010.06.03 13:09:07.
