data_PCOD9204996
_publ_section_title
;
Structure prediction by ZEFSAII (Michael W. Deem and Ramdas Pophale) SiO2 
 PCOD9204996
Probable space group: C 2/M
;
_chemical_formula_sum "Si O2"
_cell_formula_units_Z 48
_cell_length_a 5.545015
_cell_length_b 22.492218
_cell_length_c 19.462124
_cell_angle_alpha 90.000000
_cell_angle_beta 58.531797
_cell_angle_gamma 90.000000
_cell_volume 2070.325517
_symmetry_space_group_name_H-M "C 2/M"
_symmetry_group_IT_number 12
_symmetry_cell_setting 'monoclinic'
loop_
_space_group_symop_operation_xyz
x,y,z
-x,y,-z
-x,-y,-z
x,-y,z
1/2+x,1/2+y,z
1/2-x,1/2+y,-z
1/2-x,1/2-y,-z
1/2+x,1/2-y,z
loop_
_atom_site_type_symbol
_atom_site_label
_atom_site_fract_x
_atom_site_fract_y
_atom_site_fract_z
Si Si1 0.814705 0.617215 0.683552
Si Si2 0.820785 0.063327 0.425026
Si Si3 0.196975 0.572331 0.907477
Si Si4 0.344201 0.683378 0.586776
Si Si5 0.070757 0.235887 0.748383
Si Si6 0.141128 0.571571 0.178325
O O1 0.697169 0.565387 0.654896
O O2 0.580221 0.666559 0.731130
O O3 0.953413 0.596695 0.733946
O O4 0.051375 0.653610 0.607018
O O5 0.500000 0.062703 0.500000
O O6 0.969530 0.125081 0.422818
O O7 0.956859 0.000000 0.426251
O O8 0.194934 0.500000 0.906167
O O9 0.524349 0.588463 0.872853
O O10 0.047261 0.591390 0.858328
O O11 0.000000 0.591342 0.000000
O O12 0.500000 0.714731 0.500000
O O13 0.251571 0.725805 0.664001
O O14 0.252074 0.243028 0.790118
O O15 0.128273 0.500000 0.182203
#
# Coordination Sequence:
#
# PCOD9204996 Si02
#       6
#     8   8   8   8   8   8
#     4  11  23  38  55  82 118 153 203 248 307 356
#     4  11  23  38  55  78 112 157 204 248 304 367
#     4   9  18  35  58  85 119 158 197 232 279 352
#     4  11  23  39  58  80 110 154 208 265 308 354
#     4  10  22  38  60  82 109 145 197 257 306 349
#     4  10  21  34  55  86 121 160 192 236 297 354
#
# _framework density 23.184760000000001
#
# number of rings (size 3 to 8) (size 9 to 14) (size 15 to 20)
#    0.000    1.667    3.333    1.000    2.333    7.000 
#    0.000    0.000    0.000    0.000    0.000    0.000 
#    0.000   53.333    0.000    0.000    0.000    0.000 
#
# Total GULP energy -133982.539144 kJ/mol
# GULP energy per Si atom -5582.605798 kJ/mol
# Density = 2.313199 g / cm^3
# Si number density = 23.184760 Si / 1000 Ang^3
#
#
#
# Elastic Constant Matrix: (Units=GPa)
#
#
# Indices 1 2 3 4 5 6 
#
# 1 133.4406 28.8721 26.8769 0.0000 9.6798 0.0000
# 2 28.8721 94.2347 10.3472 0.0000 4.8209 0.0000
# 3 26.8769 10.3472 62.1478 0.0000 6.7020 0.0000
# 4 0.0000 0.0000 0.0000 24.4072 0.0000 4.7130
# 5 9.6798 4.8209 6.7020 0.0000 36.4804 0.0000
# 6 0.0000 0.0000 0.0000 4.7130 0.0000 33.1719
#
#
#
# Elastic Compliance Matrix: (Units=1/GPa)
#
#
# Indices 1 2 3 4 5 6 
#
# 1 0.008738 -0.002247 -0.003251 0.000000 -0.001424 0.000000
# 2 -0.002247 0.011432 -0.000850 0.000000 -0.000758 0.000000
# 3 -0.003251 -0.000850 0.017887 0.000000 -0.002311 0.000000
# 4 0.000000 0.000000 0.000000 0.042127 0.000000 -0.005985
# 5 -0.001424 -0.000758 -0.002311 0.000000 0.028315 0.000000
# 6 0.000000 0.000000 0.000000 -0.005985 0.000000 0.030996
#
#
# Mechanical properties :
#
#
# Convention : Reuss Voigt Hill
#
# Bulk Modulus (GPa) = 39.42989 46.89061 43.16025
# Shear Modulus (GPa) = 31.12406 33.72704 32.42555
#
# Velocity S-wave (km/s) = 3.66790 3.81820 3.74381
# Velocity P-wave (km/s) = 5.91454 6.30134 6.11100
#
# Compressibility (1/GPa) = 0.02536147
#
# Stress axis : x y z
#
# Youngs Moduli (GPa) = 114.43713 87.47006 55.90506
#
# Poissons Ratio (x) = 0.19658 0.18176
# Poissons Ratio (y) = 0.25719 0.04750
# Poissons Ratio (z) = 0.37207 0.07432
#
# Static dielectric constant tensor:
#      x y z
#    x 1.943000 0.000000 0.011000 
#    y 0.000000 1.873740 0.000000 
#    z 0.011000 0.000000 1.920830 
# 
# From -- ./inp_files/253138.got.cif
#   From: 2010.05.17/outbox.cif.g08.bks.cpg/sg12_127_cif.got.tgz:253138.got - 2010.06.03 13:09:07.
