data_PCOD9204866
_publ_section_title
;
Structure prediction by ZEFSAII (Michael W. Deem and Ramdas Pophale) SiO2 
 PCOD9204866
Probable space group: C 2/M
;
_chemical_formula_sum "Si O2"
_cell_formula_units_Z 56
_cell_length_a 13.983226
_cell_length_b 10.324858
_cell_length_c 25.739675
_cell_angle_alpha 90.000000
_cell_angle_beta 50.404245
_cell_angle_gamma 90.000000
_cell_volume 2863.526769
_symmetry_space_group_name_H-M "C 2/M"
_symmetry_group_IT_number 12
_symmetry_cell_setting 'monoclinic'
loop_
_space_group_symop_operation_xyz
x,y,z
-x,y,-z
-x,-y,-z
x,-y,z
1/2+x,1/2+y,z
1/2-x,1/2+y,-z
1/2-x,1/2-y,-z
1/2+x,1/2-y,z
loop_
_atom_site_type_symbol
_atom_site_label
_atom_site_fract_x
_atom_site_fract_y
_atom_site_fract_z
Si Si1 0.867384 0.287120 0.035098
Si Si2 0.843391 0.345008 0.347028
Si Si3 0.484020 0.853676 0.194755
Si Si4 0.098716 0.344317 0.313786
Si Si5 0.101814 0.856565 0.080714
Si Si6 0.871925 0.347838 0.575225
Si Si7 0.758164 0.352648 0.829397
O O1 0.742864 0.353160 0.055198
O O2 0.828519 0.229109 0.103740
O O3 0.890251 0.178197 0.982847
O O4 0.000000 0.353952 0.000000
O O5 0.821404 0.500000 0.360758
O O6 0.732336 0.254717 0.404460
O O7 0.878582 0.322964 0.274008
O O8 0.965618 0.306914 0.337093
O O9 0.517559 0.749266 0.139403
O O10 0.609769 0.858337 0.186104
O O11 0.464260 0.000000 0.180886
O O12 0.105497 0.500000 0.304883
O O13 0.107114 0.318630 0.371264
O O14 0.207880 0.294211 0.238461
O O15 0.053283 0.000000 0.106361
O O16 0.834125 0.500000 0.583239
O O17 0.000000 0.332362 0.500000
O O18 0.712762 0.500000 0.841049
#
# Coordination Sequence:
#
# PCOD9204866 Si02
#       7
#     8   8   8   8   8   8   8
#     4  10  21  34  49  72 105 141 175 215 265 314
#     4   9  18  35  58  79 101 139 185 216 247 304
#     4   8  16  33  55  76 102 136 173 217 265 308
#     4   8  16  33  55  74 100 141 178 210 257 313
#     4  10  21  35  53  78 105 134 174 223 268 312
#     4  10  21  35  52  81 117 142 165 209 265 311
#     4   8  14  28  50  72  95 130 178 219 248 297
#
# _framework density 19.556304000000001
#
# number of rings (size 3 to 8) (size 9 to 14) (size 15 to 20)
#    0.000    3.000    0.000    2.143    0.000    7.429 
#    0.000    2.143    0.000    6.857    0.000    0.000 
#    0.000    0.000    0.000    0.000    0.000    0.000 
#
# Total GULP energy -156034.841006 kJ/mol
# GULP energy per Si atom -5572.672893 kJ/mol
# Density = 1.951179 g / cm^3
# Si number density = 19.556304 Si / 1000 Ang^3
#
#
#
# Elastic Constant Matrix: (Units=GPa)
#
#
# Indices 1 2 3 4 5 6 
#
# 1 71.2394 11.9564 25.0621 0.0000 -9.8806 0.0000
# 2 11.9564 69.0141 37.3938 0.0000 -9.2147 0.0000
# 3 25.0621 37.3938 100.2393 0.0000 -9.5398 0.0000
# 4 0.0000 0.0000 0.0000 -20.3524 0.0000 26.1926
# 5 -9.8806 -9.2147 -9.5398 0.0000 30.8708 0.0000
# 6 0.0000 0.0000 0.0000 26.1926 0.0000 -10.1529
#
#
#
# Elastic Compliance Matrix: (Units=1/GPa)
#
#
# Indices 1 2 3 4 5 6 
#
# 1 0.015855 -0.000350 -0.003462 0.000000 0.003900 0.000000
# 2 -0.000350 0.018527 -0.006500 0.000000 0.003410 0.000000
# 3 -0.003462 -0.006500 0.013369 0.000000 0.001083 0.000000
# 4 0.000000 0.000000 0.000000 0.021178 0.000000 0.054634
# 5 0.003900 0.003410 0.001083 0.000000 0.034994 0.000000
# 6 0.000000 0.000000 0.000000 0.054634 0.000000 0.042453
#
#
# Mechanical properties :
#
#
# Convention : Reuss Voigt Hill
#
# Bulk Modulus (GPa) = 36.86236 43.25749 40.05993
# Shear Modulus (GPa) = 28.40228 11.14513 19.77371
#
# Velocity S-wave (km/s) = 3.81508 2.38985 3.18326
# Velocity P-wave (km/s) = 6.18844 5.45735 5.83436
#
# Compressibility (1/GPa) = 0.02712794
#
# Stress axis : x y z
#
# Youngs Moduli (GPa) = 63.07201 53.97430 74.79719
#
# Poissons Ratio (x) = 0.01890 0.25897
# Poissons Ratio (y) = 0.02208 0.48614
# Poissons Ratio (z) = 0.21837 0.35081
#
# Static dielectric constant tensor:
#      x y z
#    x 1.727410 0.000000 -0.011720 
#    y 0.000000 1.666550 0.000000 
#    z -0.011720 0.000000 1.688800 
# 
# From -- ./inp_files/360781.got.cif
#   From: 2010.05.17/outbox.cif.g08.bks.cpg/sg12_181_cif.got.tgz:360781.got - 2010.06.03 13:09:07.
