data_PCOD9204482
_publ_section_title
;
Structure prediction by ZEFSAII (Michael W. Deem and Ramdas Pophale) SiO2 
 PCOD9204482
Probable space group: C 2/M
;
_chemical_formula_sum "Si O2"
_cell_formula_units_Z 58
_cell_length_a 21.672634
_cell_length_b 17.002198
_cell_length_c 12.748387
_cell_angle_alpha 90.000000
_cell_angle_beta 39.062308
_cell_angle_gamma 90.000000
_cell_volume 2960.236344
_symmetry_space_group_name_H-M "C 2/M"
_symmetry_group_IT_number 12
_symmetry_cell_setting 'monoclinic'
loop_
_space_group_symop_operation_xyz
x,y,z
-x,y,-z
-x,-y,-z
x,-y,z
1/2+x,1/2+y,z
1/2-x,1/2+y,-z
1/2-x,1/2-y,-z
1/2+x,1/2-y,z
loop_
_atom_site_type_symbol
_atom_site_label
_atom_site_fract_x
_atom_site_fract_y
_atom_site_fract_z
Si Si1 0.761346 0.909790 0.997335
Si Si2 0.665728 0.645808 0.535821
Si Si3 0.718617 0.182916 0.420012
Si Si4 0.403524 0.763756 0.058819
Si Si5 0.720598 0.093097 0.819225
Si Si6 0.500000 0.500000 0.000000
Si Si7 0.614031 0.095158 0.369445
Si Si8 0.950072 0.116619 0.881604
O O1 0.763151 0.880003 0.875966
O O2 0.867248 0.910202 0.910938
O O3 0.728771 0.000000 0.029348
O O4 0.682561 0.874783 0.182881
O O5 0.658190 0.740861 0.538361
O O6 0.740248 0.634146 0.535080
O O7 0.708455 0.613418 0.371192
O O8 0.561151 0.608089 0.696724
O O9 0.813435 0.221820 0.238432
O O10 0.657477 0.133000 0.417671
O O11 0.373475 0.852113 0.072512
O O12 0.500000 0.762584 0.000000
O O13 0.426251 0.707871 0.931641
O O14 0.701700 0.000000 0.842684
O O15 0.448447 0.568542 0.992872
O O16 0.500000 0.113881 0.500000
O O17 0.622625 0.000000 0.365837
#
# Coordination Sequence:
#
# PCOD9204482 Si02
#       8
#     8   8   8   8   8   2   8   8
#     4  10  22  42  64  92 132 170 211 267 322 389
#     4  10  23  39  63  94 132 168 211 271 325 392
#     4  10  20  42  62  91 130 165 208 276 334 374
#     4  11  21  41  67  96 128 161 215 284 329 382
#     4  10  25  45  62  88 134 187 224 254 317 404
#     4  12  24  36  68 110 124 168 212 272 348 384
#     4  10  22  40  65  95 128 167 217 275 324 382
#     4  12  22  38  68 102 129 166 211 275 341 388
#
# _framework density 19.593031
#
# number of rings (size 3 to 8) (size 9 to 14) (size 15 to 20)
#    0.000    1.517    4.138    0.000    0.966    3.034 
#    4.966    1.379    0.000    0.000    0.000    0.000 
#    0.000    0.000    0.000    0.000    0.000    0.000 
#
# Total GULP energy -161544.449403 kJ/mol
# GULP energy per Si atom -5570.498255 kJ/mol
# Density = 1.954844 g / cm^3
# Si number density = 19.593031 Si / 1000 Ang^3
#
#
#
# Elastic Constant Matrix: (Units=GPa)
#
#
# Indices 1 2 3 4 5 6 
#
# 1 145.1183 29.5340 63.5132 0.0000 8.4258 0.0000
# 2 29.5340 61.7169 30.6623 0.0000 -1.9186 0.0000
# 3 63.5132 30.6623 64.2953 0.0000 5.1643 0.0000
# 4 0.0000 0.0000 0.0000 16.9906 0.0000 -0.4717
# 5 8.4258 -1.9186 5.1643 0.0000 30.4030 0.0000
# 6 0.0000 0.0000 0.0000 -0.4717 0.0000 32.7555
#
#
#
# Elastic Compliance Matrix: (Units=1/GPa)
#
#
# Indices 1 2 3 4 5 6 
#
# 1 0.012194 0.000071 -0.011972 0.000000 -0.001341 0.000000
# 2 0.000071 0.021527 -0.010588 0.000000 0.003137 0.000000
# 3 -0.011972 -0.010588 0.032662 0.000000 -0.002898 0.000000
# 4 0.000000 0.000000 0.000000 0.058880 0.000000 0.000848
# 5 -0.001341 0.003137 -0.002898 0.000000 0.033954 0.000000
# 6 0.000000 0.000000 0.000000 0.000848 0.000000 0.030541
#
#
# Mechanical properties :
#
#
# Convention : Reuss Voigt Hill
#
# Bulk Modulus (GPa) = 46.71903 57.61662 52.16783
# Shear Modulus (GPa) = 20.67223 25.85787 23.26505
#
# Velocity S-wave (km/s) = 3.25172 3.63678 3.44963
# Velocity P-wave (km/s) = 6.16399 6.86334 6.52304
#
# Compressibility (1/GPa) = 0.02140455
#
# Stress axis : x y z
#
# Youngs Moduli (GPa) = 82.00752 46.45301 30.61703
#
# Poissons Ratio (x) = -0.00329 0.36654
# Poissons Ratio (y) = -0.00580 0.32418
# Poissons Ratio (z) = 0.98177 0.49185
#
# Static dielectric constant tensor:
#      x y z
#    x 1.714990 0.000000 0.001110 
#    y 0.000000 1.711470 0.000000 
#    z 0.001110 0.000000 1.742800 
# 
# From -- ./inp_files/168962.got.cif
#   From: 2010.05.17/outbox.cif.g08.bks.cpg/sg12_85_cif.got.tgz:168962.got - 2010.06.03 13:09:07.
