data_PCOD9204903
_publ_section_title
;
Structure prediction by ZEFSAII (Michael W. Deem and Ramdas Pophale) SiO2 
 PCOD9204903
Probable space group: C 2/M
;
_chemical_formula_sum "Si O2"
_cell_formula_units_Z 64
_cell_length_a 26.241157
_cell_length_b 21.945800
_cell_length_c 10.038376
_cell_angle_alpha 90.000000
_cell_angle_beta 42.252960
_cell_angle_gamma 90.000000
_cell_volume 3887.127806
_symmetry_space_group_name_H-M "C 2/M"
_symmetry_group_IT_number 12
_symmetry_cell_setting 'monoclinic'
loop_
_space_group_symop_operation_xyz
x,y,z
-x,y,-z
-x,-y,-z
x,-y,z
1/2+x,1/2+y,z
1/2-x,1/2+y,-z
1/2-x,1/2-y,-z
1/2+x,1/2-y,z
loop_
_atom_site_type_symbol
_atom_site_label
_atom_site_fract_x
_atom_site_fract_y
_atom_site_fract_z
Si Si1 0.939749 0.724278 0.722729
Si Si2 0.874251 0.934690 0.006231
Si Si3 0.210813 0.790846 0.465109
Si Si4 0.326580 0.569462 0.403778
Si Si5 0.726714 0.199024 0.937961
Si Si6 0.031734 0.772279 0.789429
Si Si7 0.457616 0.404675 0.354189
Si Si8 0.869613 0.144769 0.769980
O O1 0.910548 0.790537 0.722514
O O2 0.000000 0.700401 0.500000
O O3 0.984159 0.731755 0.776576
O O4 0.862206 0.686034 0.880047
O O5 0.849126 0.883760 0.951496
O O6 0.963598 0.938523 0.805078
O O7 0.838465 0.000000 0.042539
O O8 0.858792 0.922927 0.191307
O O9 0.250000 0.750000 0.500000
O O10 0.213013 0.864436 0.489994
O O11 0.255994 0.778202 0.242717
O O12 0.123474 0.768791 0.615150
O O13 0.291153 0.500000 0.477007
O O14 0.393948 0.568392 0.381283
O O15 0.791016 0.149250 0.841447
O O16 0.750000 0.250000 0.000000
O O17 0.020726 0.839693 0.752179
O O18 0.000000 0.766302 0.000000
O O19 0.424377 0.393130 0.565757
#
# Coordination Sequence:
#
# PCOD9204903 Si02
#       8
#     8   8   8   8   8   8   8   8
#     4  11  19  34  52  71 103 138 173 220 274 327
#     4  11  22  32  48  74 103 147 190 220 254 303
#     4  11  22  36  54  82 107 144 184 223 272 325
#     4  10  22  37  51  72 109 145 184 225 265 313
#     4  10  21  34  51  73 104 139 177 220 278 321
#     4  11  19  30  49  75 102 140 177 219 263 305
#     4  11  18  31  50  68 104 141 190 219 249 302
#     4  11  20  34  47  73 106 142 180 221 265 315
#
# _framework density 16.464599
#
# number of rings (size 3 to 8) (size 9 to 14) (size 15 to 20)
#    0.000    1.250    5.000    4.125    3.500    2.500 
#    0.000    0.000    0.000    0.000    0.000    0.000 
#    0.000    7.500    0.000    0.000    0.000    0.000 
#
# Total GULP energy -178151.597963 kJ/mol
# GULP energy per Si atom -5567.237436 kJ/mol
# Density = 1.642712 g / cm^3
# Si number density = 16.464599 Si / 1000 Ang^3
#
#
#
# Elastic Constant Matrix: (Units=GPa)
#
#
# Indices 1 2 3 4 5 6 
#
# 1 96.8153 18.4480 36.0933 0.0000 0.3873 0.0000
# 2 18.4480 34.0515 9.6039 0.0000 7.8989 0.0000
# 3 36.0933 9.6039 99.1944 0.0000 2.8065 0.0000
# 4 0.0000 0.0000 0.0000 11.4393 0.0000 -0.5213
# 5 0.3873 7.8989 2.8065 0.0000 28.3923 0.0000
# 6 0.0000 0.0000 0.0000 -0.5213 0.0000 2.3176
#
#
#
# Elastic Compliance Matrix: (Units=1/GPa)
#
#
# Indices 1 2 3 4 5 6 
#
# 1 0.013105 -0.006380 -0.004208 0.000000 0.002012 0.000000
# 2 -0.006380 0.035294 -0.000823 0.000000 -0.009651 0.000000
# 3 -0.004208 -0.000823 0.011717 0.000000 -0.000872 0.000000
# 4 0.000000 0.000000 0.000000 0.088323 0.000000 0.019866
# 5 0.002012 -0.009651 -0.000872 0.000000 0.037964 0.000000
# 6 0.000000 0.000000 0.000000 0.019866 0.000000 0.435948
#
#
# Mechanical properties :
#
#
# Convention : Reuss Voigt Hill
#
# Bulk Modulus (GPa) = 26.81294 39.81687 33.31491
# Shear Modulus (GPa) = 7.60336 19.49090 13.54713
#
# Velocity S-wave (km/s) = 2.15129 3.44438 2.87157
# Velocity P-wave (km/s) = 4.74250 6.32884 5.59220
#
# Compressibility (1/GPa) = 0.03729542
#
# Stress axis : x y z
#
# Youngs Moduli (GPa) = 76.30510 28.33308 85.34906
#
# Poissons Ratio (x) = 0.18077 0.35913
# Poissons Ratio (y) = 0.48683 0.07021
# Poissons Ratio (z) = 0.32107 0.02331
#
# Static dielectric constant tensor:
#      x y z
#    x 1.588120 0.000000 -0.015950 
#    y 0.000000 1.629880 0.000000 
#    z -0.015950 0.000000 1.571230 
# 
# From -- ./inp_files/91083.got.cif
#   From: 2010.05.17/outbox.cif.g08.bks.cpg/sg12_46_cif.got.tgz:91083.got - 2010.06.03 13:09:07.
