data_PCOD9204672
_publ_section_title
;
Structure prediction by ZEFSAII (Michael W. Deem and Ramdas Pophale) SiO2 
 PCOD9204672
Probable space group: C 2/M
;
_chemical_formula_sum "Si O2"
_cell_formula_units_Z 36
_cell_length_a 5.527227
_cell_length_b 30.486497
_cell_length_c 13.061296
_cell_angle_alpha 90.000000
_cell_angle_beta 55.676413
_cell_angle_gamma 90.000000
_cell_volume 1817.652299
_symmetry_space_group_name_H-M "C 2/M"
_symmetry_group_IT_number 12
_symmetry_cell_setting 'monoclinic'
loop_
_space_group_symop_operation_xyz
x,y,z
-x,y,-z
-x,-y,-z
x,-y,z
1/2+x,1/2+y,z
1/2-x,1/2+y,-z
1/2-x,1/2-y,-z
1/2+x,1/2-y,z
loop_
_atom_site_type_symbol
_atom_site_label
_atom_site_fract_x
_atom_site_fract_y
_atom_site_fract_z
Si Si1 0.000000 0.913737 0.000000
Si Si2 0.179799 0.448539 0.551721
Si Si3 0.197118 0.870382 0.138136
Si Si4 0.416517 0.048521 0.195650
Si Si5 0.210673 0.272946 0.848636
O O1 0.283306 0.944203 0.937695
O O2 0.036362 0.881958 0.893834
O O3 0.500000 0.429365 0.500000
O O4 0.232117 0.500000 0.511925
O O5 0.000000 0.429127 0.500000
O O6 0.017627 0.448243 0.699273
O O7 0.212716 0.911496 0.210091
O O8 0.181781 0.822893 0.191523
O O9 0.500000 0.869747 0.000000
O O10 0.292778 0.000000 0.205786
O O11 0.496928 0.244375 0.810110
O O12 0.000000 0.272248 0.000000
#
# Coordination Sequence:
#
# PCOD9204672 Si02
#       5
#     4   8   8   8   8
#     4  10  21  32  48  72 110 146 180 212 251 310
#     4   9  19  35  54  74  97 131 178 226 266 300
#     4   9  20  32  46  70 104 137 177 215 255 311
#     4  10  21  34  51  73 106 146 180 215 258 311
#     4   9  18  29  49  69  95 132 173 212 260 307
#
# _framework density 19.805765999999998
#
# number of rings (size 3 to 8) (size 9 to 14) (size 15 to 20)
#    0.000    2.667    0.000    0.333   14.000    4.889 
#    0.000    0.000    0.000    0.000    0.000    0.000 
#    0.000    5.333    0.000    0.000    0.000    0.000 
#
# Total GULP energy -100264.532222 kJ/mol
# GULP energy per Si atom -5570.251790 kJ/mol
# Density = 1.976069 g / cm^3
# Si number density = 19.805766 Si / 1000 Ang^3
#
#
#
# Elastic Constant Matrix: (Units=GPa)
#
#
# Indices 1 2 3 4 5 6 
#
# 1 104.0385 53.1209 17.6509 0.0000 27.5295 0.0000
# 2 53.1209 148.7537 21.1652 0.0000 21.9214 0.0000
# 3 17.6509 21.1652 28.1608 0.0000 9.0474 0.0000
# 4 0.0000 0.0000 0.0000 1.2769 0.0000 9.7180
# 5 27.5295 21.9214 9.0474 0.0000 28.4237 0.0000
# 6 0.0000 0.0000 0.0000 9.7180 0.0000 17.4868
#
#
#
# Elastic Compliance Matrix: (Units=1/GPa)
#
#
# Indices 1 2 3 4 5 6 
#
# 1 0.014618 -0.003174 -0.003358 0.000000 -0.010641 0.000000
# 2 -0.003174 0.008761 -0.003801 0.000000 -0.002473 0.000000
# 3 -0.003358 -0.003801 0.042869 0.000000 -0.007462 0.000000
# 4 0.000000 0.000000 0.000000 -0.242500 0.000000 0.134765
# 5 -0.010641 -0.002473 -0.007462 0.000000 0.049771 0.000000
# 6 0.000000 0.000000 0.000000 0.134765 0.000000 -0.017707
#
#
# Mechanical properties :
#
#
# Convention : Reuss Voigt Hill
#
# Bulk Modulus (GPa) = 21.93835 51.64745 36.79290
# Shear Modulus (GPa) = -46.15590 22.03854 -12.05868
#
# Velocity S-wave (km/s) = -4.83269 3.33939 -2.47016
# Velocity P-wave (km/s) = 4.47650 6.40330 3.23753
#
# Compressibility (1/GPa) = 0.04558228
#
# Stress axis : x y z
#
# Youngs Moduli (GPa) = 68.40875 114.13886 23.32690
#
# Poissons Ratio (x) = 0.36230 0.07833
# Poissons Ratio (y) = 0.21715 0.08866
# Poissons Ratio (z) = 0.22971 0.43382
#
# Static dielectric constant tensor:
#      x y z
#    x 1.790750 0.000000 0.021250 
#    y 0.000000 1.702720 0.000000 
#    z 0.021250 0.000000 1.734410 
# 
# From -- ./inp_files/115299.got.cif
#   From: 2010.05.17/outbox.cif.g08.bks.cpg/sg12_58_cif.got.tgz:115299.got - 2010.06.03 13:09:07.
