data_PCOD9204983
_publ_section_title
;
Structure prediction by ZEFSAII (Michael W. Deem and Ramdas Pophale) SiO2 
 PCOD9204983
Probable space group: C 2/M
;
_chemical_formula_sum "Si O2"
_cell_formula_units_Z 64
_cell_length_a 22.108193
_cell_length_b 24.205983
_cell_length_c 10.774366
_cell_angle_alpha 90.000000
_cell_angle_beta 33.960064
_cell_angle_gamma 90.000000
_cell_volume 3220.922117
_symmetry_space_group_name_H-M "C 2/M"
_symmetry_group_IT_number 12
_symmetry_cell_setting 'monoclinic'
loop_
_space_group_symop_operation_xyz
x,y,z
-x,y,-z
-x,-y,-z
x,-y,z
1/2+x,1/2+y,z
1/2-x,1/2+y,-z
1/2-x,1/2-y,-z
1/2+x,1/2-y,z
loop_
_atom_site_type_symbol
_atom_site_label
_atom_site_fract_x
_atom_site_fract_y
_atom_site_fract_z
Si Si1 0.669620 0.565170 0.908851
Si Si2 0.399569 0.937858 0.871552
Si Si3 0.595250 0.666297 0.437833
Si Si4 0.684330 0.063447 0.708961
Si Si5 0.571744 0.436825 0.659782
Si Si6 0.909974 0.710602 0.543190
Si Si7 0.261313 0.140524 0.954387
Si Si8 0.115614 0.609297 0.584785
O O1 0.690649 0.500000 0.888159
O O2 0.681640 0.598981 0.017067
O O3 0.765841 0.591508 0.664745
O O4 0.545018 0.570420 0.076107
O O5 0.361905 0.896305 0.829251
O O6 0.526167 0.932419 0.683801
O O7 0.370263 0.000000 0.885286
O O8 0.340580 0.925733 0.103961
O O9 0.500000 0.665131 0.500000
O O10 0.582282 0.613256 0.545713
O O11 0.592044 0.727024 0.503072
O O12 0.704438 0.662944 0.172911
O O13 0.813643 0.065578 0.464681
O O14 0.622538 0.103573 0.720746
O O15 0.649386 0.000000 0.743605
O O16 0.568614 0.500000 0.611470
O O17 0.801537 0.689509 0.797625
O O18 0.920759 0.667341 0.412475
O O19 0.000000 0.707551 0.500000
#
# Coordination Sequence:
#
# PCOD9204983 Si02
#       8
#     8   8   8   8   8   8   8   8
#     4  10  21  34  54  86 120 150 186 230 289 345
#     4  11  21  34  58  87 117 151 190 236 287 343
#     4  11  21  37  60  85 113 151 189 239 290 339
#     4  10  21  37  60  86 115 150 195 237 286 339
#     4  10  21  37  58  89 117 147 189 237 289 342
#     4  10  22  39  57  83 112 153 195 231 284 345
#     4  11  20  35  56  86 115 151 187 234 292 340
#     4  11  22  39  56  81 118 158 192 235 276 339
#
# _framework density 19.870087000000002
#
# number of rings (size 3 to 8) (size 9 to 14) (size 15 to 20)
#    0.000    1.500    3.750    2.250    0.000    2.250 
#    0.000    4.375    0.000    0.000    3.250    0.000 
#    0.000    0.000    0.000    0.000    0.000    0.000 
#
# Total GULP energy -178459.327474 kJ/mol
# GULP energy per Si atom -5576.853984 kJ/mol
# Density = 1.982486 g / cm^3
# Si number density = 19.870087 Si / 1000 Ang^3
#
#
#
# Elastic Constant Matrix: (Units=GPa)
#
#
# Indices 1 2 3 4 5 6 
#
# 1 55.7963 43.0511 3.0355 0.0001 -6.5789 0.0000
# 2 43.0511 119.1404 12.2644 0.0000 -0.1696 0.0000
# 3 3.0355 12.2644 59.5977 0.0001 -9.9158 0.0000
# 4 0.0001 0.0000 0.0001 15.7146 -0.0001 3.3669
# 5 -6.5789 -0.1696 -9.9158 -0.0001 12.3862 0.0000
# 6 0.0000 0.0000 0.0000 3.3669 0.0000 6.4936
#
#
#
# Elastic Compliance Matrix: (Units=1/GPa)
#
#
# Indices 1 2 3 4 5 6 
#
# 1 0.027820 -0.010403 0.003644 0.000000 0.017551 0.000000
# 2 -0.010403 0.012489 -0.003381 0.000000 -0.008062 0.000000
# 3 0.003644 -0.003381 0.020309 0.000000 0.018147 0.000000
# 4 0.000000 0.000000 0.000000 0.071588 0.000000 -0.037117
# 5 0.017551 -0.008062 0.018147 0.000000 0.104475 0.000000
# 6 0.000000 0.000000 0.000000 -0.037117 0.000000 0.173242
#
#
# Mechanical properties :
#
#
# Convention : Reuss Voigt Hill
#
# Bulk Modulus (GPa) = 24.79094 39.02626 31.90860
# Shear Modulus (GPa) = 11.27016 18.66443 14.96730
#
# Velocity S-wave (km/s) = 2.38416 3.06816 2.74753
# Velocity P-wave (km/s) = 4.48136 5.67757 5.11456
#
# Compressibility (1/GPa) = 0.04033732
#
# Stress axis : x y z
#
# Youngs Moduli (GPa) = 35.94507 80.06960 49.23977
#
# Poissons Ratio (x) = 0.83296 -0.17943
# Poissons Ratio (y) = 0.37393 0.16650
# Poissons Ratio (z) = -0.13098 0.27076
#
# Static dielectric constant tensor:
#      x y z
#    x 1.700370 0.000000 -0.012890 
#    y 0.000000 1.686280 0.000000 
#    z -0.012890 0.000000 1.759080 
# 
# From -- ./inp_files/178409.got.cif
#   From: 2010.05.17/outbox.cif.g08.bks.cpg/sg12_90_cif.got.tgz:178409.got - 2010.06.03 13:09:07.
