data_PCOD9204275
_publ_section_title
;
Structure prediction by ZEFSAII (Michael W. Deem and Ramdas Pophale) SiO2 
 PCOD9204275
Probable space group: C 2/M
;
_chemical_formula_sum "Si O2"
_cell_formula_units_Z 52
_cell_length_a 15.334130
_cell_length_b 11.968394
_cell_length_c 22.308151
_cell_angle_alpha 90.000000
_cell_angle_beta 144.218614
_cell_angle_gamma 90.000000
_cell_volume 2393.797131
_symmetry_space_group_name_H-M "C 2/M"
_symmetry_group_IT_number 12
_symmetry_cell_setting 'monoclinic'
loop_
_space_group_symop_operation_xyz
x,y,z
-x,y,-z
-x,-y,-z
x,-y,z
1/2+x,1/2+y,z
1/2-x,1/2+y,-z
1/2-x,1/2-y,-z
1/2+x,1/2-y,z
loop_
_atom_site_type_symbol
_atom_site_label
_atom_site_fract_x
_atom_site_fract_y
_atom_site_fract_z
Si Si1 0.665234 0.259984 0.079168
Si Si2 0.898422 0.500000 0.385534
Si Si3 0.670696 0.375792 0.612761
Si Si4 0.832985 0.000000 0.933983
Si Si5 0.153283 0.264057 0.386506
Si Si6 0.010064 0.500000 0.691767
Si Si7 0.950906 0.867417 0.192025
Si Si8 0.195123 0.793171 0.236233
O O1 0.666827 0.373951 0.039782
O O2 0.787368 0.179722 0.117716
O O3 0.696678 0.301461 0.165240
O O4 0.500000 0.211118 0.000000
O O5 0.793993 0.392833 0.318584
O O6 0.000000 0.500000 0.500000
O O7 0.004486 0.500000 0.387634
O O8 0.500000 0.384887 0.500000
O O9 0.735619 0.500000 0.642335
O O10 0.728856 0.283780 0.599705
O O11 0.721453 0.323619 0.703511
O O12 0.678016 0.000000 0.810452
O O13 0.000000 0.000000 0.000000
O O14 0.250000 0.250000 0.500000
O O15 0.060742 0.380097 0.331602
O O16 0.048513 0.163918 0.305979
O O17 0.037925 0.805617 0.184929
O O18 0.949651 0.000000 0.180045
#
# Coordination Sequence:
#
# PCOD9204275 Si02
#       8
#     8   4   8   4   8   4   8   8
#     4  11  24  45  73  99 130 172 225 285 345 399
#     4  12  24  36  62  95 133 174 215 266 329 388
#     4  10  23  40  58  87 130 177 217 260 322 398
#     4  10  20  40  70  97 120 166 224 282 333 384
#     4  11  25  39  61  94 132 174 223 270 327 396
#     4  12  22  42  67  94 130 172 229 282 320 400
#     4  11  25  43  67  96 137 174 219 277 338 405
#     4  11  23  43  64  97 133 171 220 275 333 397
#
# _framework density 21.722809000000002
#
# number of rings (size 3 to 8) (size 9 to 14) (size 15 to 20)
#    0.000    1.077    4.615    0.462    9.692    1.538 
#    0.000    0.000    0.000    0.000    0.000    0.000 
#    0.000    0.000    0.000    0.000    0.000    0.000 
#
# Total GULP energy -144808.259680 kJ/mol
# GULP energy per Si atom -5569.548449 kJ/mol
# Density = 2.167337 g / cm^3
# Si number density = 21.722809 Si / 1000 Ang^3
#
#
#
# Elastic Constant Matrix: (Units=GPa)
#
#
# Indices 1 2 3 4 5 6 
#
# 1 62.7282 16.8732 8.9230 0.0000 10.7871 0.0000
# 2 16.8732 102.6961 18.9877 0.0001 16.5217 0.0000
# 3 8.9230 18.9877 78.9746 0.0003 9.1661 0.0001
# 4 0.0000 0.0001 0.0003 -12.5636 0.0001 -33.8863
# 5 10.7871 16.5217 9.1661 0.0001 29.0564 0.0000
# 6 0.0000 0.0000 0.0001 -33.8863 0.0000 -11.9080
#
#
#
# Elastic Compliance Matrix: (Units=1/GPa)
#
#
# Indices 1 2 3 4 5 6 
#
# 1 0.017459 -0.001873 -0.000928 0.000000 -0.005124 0.000000
# 2 -0.001873 0.011213 -0.001894 0.000000 -0.005083 0.000000
# 3 -0.000928 -0.001894 0.013554 0.000000 -0.002854 0.000000
# 4 0.000000 0.000000 0.000000 0.011924 0.000000 -0.033931
# 5 -0.005124 -0.005083 -0.002854 0.000000 0.040109 0.000000
# 6 0.000000 0.000000 0.000000 -0.033931 0.000000 0.012580
#
#
# Mechanical properties :
#
#
# Convention : Reuss Voigt Hill
#
# Bulk Modulus (GPa) = 30.45416 37.10743 33.78080
# Shear Modulus (GPa) = 39.31646 14.22463 26.77055
#
# Velocity S-wave (km/s) = 4.25893 2.56173 3.51432
# Velocity P-wave (km/s) = 6.18340 5.08618 5.66144
#
# Compressibility (1/GPa) = 0.03283624
#
# Stress axis : x y z
#
# Youngs Moduli (GPa) = 57.27834 89.18087 73.77987
#
# Poissons Ratio (x) = 0.16700 0.06844
# Poissons Ratio (y) = 0.10726 0.13977
# Poissons Ratio (z) = 0.05313 0.16895
#
# Static dielectric constant tensor:
#      x y z
#    x 1.895440 0.000000 -0.072270 
#    y 0.000000 1.877010 0.000000 
#    z -0.072270 0.000000 1.949110 
# 
# From -- ./inp_files/363687.got.cif
#   From: 2010.05.17/outbox.cif.g08.bks.cpg/sg12_182_cif.got.tgz:363687.got - 2010.06.03 13:09:07.
