data_PCOD9204711
_publ_section_title
;
Structure prediction by ZEFSAII (Michael W. Deem and Ramdas Pophale) SiO2 
 PCOD9204711
Probable space group: C 2/M
;
_chemical_formula_sum "Si O2"
_cell_formula_units_Z 52
_cell_length_a 13.676152
_cell_length_b 12.869347
_cell_length_c 17.653103
_cell_angle_alpha 90.000000
_cell_angle_beta 136.585885
_cell_angle_gamma 90.000000
_cell_volume 2135.338106
_symmetry_space_group_name_H-M "C 2/M"
_symmetry_group_IT_number 12
_symmetry_cell_setting 'monoclinic'
loop_
_space_group_symop_operation_xyz
x,y,z
-x,y,-z
-x,-y,-z
x,-y,z
1/2+x,1/2+y,z
1/2-x,1/2+y,-z
1/2-x,1/2-y,-z
1/2+x,1/2-y,z
loop_
_atom_site_type_symbol
_atom_site_label
_atom_site_fract_x
_atom_site_fract_y
_atom_site_fract_z
Si Si1 0.703317 0.115693 0.305606
Si Si2 0.311571 0.120986 0.523956
Si Si3 0.500000 0.848269 0.500000
Si Si4 0.236650 0.835400 0.270121
Si Si5 0.397170 0.115185 0.054641
Si Si6 0.759049 0.281468 0.118264
Si Si7 0.517004 0.380450 0.272158
O O1 0.674192 0.135578 0.378150
O O2 0.780778 0.215308 0.315059
O O3 0.555522 0.115160 0.176852
O O4 0.769032 0.000000 0.335769
O O5 0.412170 0.189174 0.526065
O O6 0.148710 0.132082 0.404655
O O7 0.350989 0.000000 0.532608
O O8 0.365257 0.895800 0.380712
O O9 0.227455 0.844307 0.175950
O O10 0.093153 0.862239 0.233608
O O11 0.297467 0.144380 0.069888
O O12 0.366130 0.000000 0.007517
O O13 0.366292 0.204241 0.977033
O O14 0.893003 0.203963 0.208317
O O15 0.466682 0.500000 0.249778
#
# Coordination Sequence:
#
# PCOD9204711 Si02
#       7
#     8   8   4   8   8   8   8
#     4  10  21  39  60  86 123 165 207 251 305 369
#     4   9  19  36  61  89 123 162 203 253 307 369
#     4  10  21  32  59  90 124 162 202 252 306 374
#     4  11  24  38  61  95 126 166 208 255 311 378
#     4  10  22  42  66  89 120 163 208 258 311 368
#     4  11  23  41  66  93 125 162 210 258 313 377
#     4  10  22  41  64  94 130 164 204 259 317 369
#
# _framework density 24.352115000000001
#
# number of rings (size 3 to 8) (size 9 to 14) (size 15 to 20)
#    0.000    1.846    1.538    1.615    2.154    4.308 
#    0.000    1.923    0.000    2.769    0.000    0.000 
#    0.000    0.000    0.000    0.000    0.000    0.000 
#
# Total GULP energy -145274.295527 kJ/mol
# GULP energy per Si atom -5587.472905 kJ/mol
# Density = 2.429669 g / cm^3
# Si number density = 24.352115 Si / 1000 Ang^3
#
#
#
# Elastic Constant Matrix: (Units=GPa)
#
#
# Indices 1 2 3 4 5 6 
#
# 1 68.9455 -1.9352 35.5285 0.0000 -12.5589 0.0000
# 2 -1.9352 102.9226 -8.4161 0.0000 13.3091 0.0000
# 3 35.5285 -8.4161 94.9925 0.0000 -5.7562 0.0000
# 4 0.0000 0.0000 0.0000 7.4877 0.0000 -6.9262
# 5 -12.5589 13.3091 -5.7562 0.0000 30.3432 0.0000
# 6 0.0000 0.0000 0.0000 -6.9262 0.0000 -3.1985
#
#
#
# Elastic Compliance Matrix: (Units=1/GPa)
#
#
# Indices 1 2 3 4 5 6 
#
# 1 0.019336 -0.001130 -0.006896 0.000000 0.007191 0.000000
# 2 -0.001130 0.010406 0.001052 0.000000 -0.004832 0.000000
# 3 -0.006896 0.001052 0.013150 0.000000 -0.000821 0.000000
# 4 0.000000 0.000000 0.000000 0.044472 0.000000 -0.096302
# 5 0.007191 -0.004832 -0.000821 0.000000 0.037896 0.000000
# 6 0.000000 0.000000 0.000000 -0.096302 0.000000 -0.104108
#
#
# Mechanical properties :
#
#
# Convention : Reuss Voigt Hill
#
# Bulk Modulus (GPa) = 34.55164 35.24609 34.89887
# Shear Modulus (GPa) = 111.73650 23.03871 67.38761
#
# Velocity S-wave (km/s) = 6.78110 3.07916 5.26614
# Velocity P-wave (km/s) = 8.69081 5.21023 7.16508
#
# Compressibility (1/GPa) = 0.02894218
#
# Stress axis : x y z
#
# Youngs Moduli (GPa) = 51.71674 96.10135 76.04607
#
# Poissons Ratio (x) = 0.10861 0.52444
# Poissons Ratio (y) = 0.05845 -0.07999
# Poissons Ratio (z) = 0.35666 -0.10108
#
# Static dielectric constant tensor:
#      x y z
#    x 1.909270 0.000000 0.000440 
#    y 0.000000 2.045240 0.000000 
#    z 0.000440 0.000000 1.919490 
# 
# From -- ./inp_files/270764.got.cif
#   From: 2010.05.17/outbox.cif.g08.bks.cpg/sg12_136_cif.got.tgz:270764.got - 2010.06.03 13:09:07.
