data_PCOD9204514
_publ_section_title
;
Structure prediction by ZEFSAII (Michael W. Deem and Ramdas Pophale) SiO2 
 PCOD9204514
Probable space group: C 2/M
;
_chemical_formula_sum "Si O2"
_cell_formula_units_Z 50
_cell_length_a 18.590819
_cell_length_b 25.925131
_cell_length_c 8.953908
_cell_angle_alpha 90.000000
_cell_angle_beta 34.053493
_cell_angle_gamma 90.000000
_cell_volume 2416.541681
_symmetry_space_group_name_H-M "C 2/M"
_symmetry_group_IT_number 12
_symmetry_cell_setting 'monoclinic'
loop_
_space_group_symop_operation_xyz
x,y,z
-x,y,-z
-x,-y,-z
x,-y,z
1/2+x,1/2+y,z
1/2-x,1/2+y,-z
1/2-x,1/2-y,-z
1/2+x,1/2-y,z
loop_
_atom_site_type_symbol
_atom_site_label
_atom_site_fract_x
_atom_site_fract_y
_atom_site_fract_z
Si Si1 0.000000 0.000000 0.000000
Si Si2 0.708568 0.361052 0.235844
Si Si3 0.345375 0.060299 0.784725
Si Si4 0.803267 0.638803 0.601602
Si Si5 0.844974 0.212298 0.927664
Si Si6 0.891845 0.893842 0.292237
Si Si7 0.543152 0.200869 0.096677
O O1 0.079937 0.954072 0.775625
O O2 0.637320 0.332389 0.223549
O O3 0.611753 0.378207 0.530808
O O4 0.788326 0.408302 0.023456
O O5 0.814439 0.322765 0.128333
O O6 0.500000 0.063710 0.500000
O O7 0.292758 0.090043 0.729791
O O8 0.310011 0.000000 0.849718
O O9 0.741893 0.622085 0.552023
O O10 0.946314 0.659211 0.332908
O O11 0.726952 0.685589 0.809985
O O12 0.957870 0.247241 0.801038
O O13 0.750000 0.250000 0.000000
O O14 0.000000 0.867953 0.000000
O O15 0.500000 0.210113 0.000000
#
# Coordination Sequence:
#
# PCOD9204514 Si02
#       7
#     2   8   8   8   8   8   8
#     4   8  24  44  64  92 128 184 218 280 322 408
#     4  10  20  42  65  96 133 176 218 272 333 400
#     4  10  21  35  62  98 133 168 209 267 338 399
#     4  11  22  42  64  94 132 169 215 279 329 389
#     4   9  23  41  60  93 131 177 214 265 332 402
#     4  10  23  43  67  90 132 169 226 273 330 388
#     4  11  21  40  67  97 132 171 223 278 332 394
#
# _framework density 20.690725
#
# number of rings (size 3 to 8) (size 9 to 14) (size 15 to 20)
#    0.480    1.440    3.200    0.000    2.240    1.280 
#    8.640    2.400    0.000    8.640    0.000    0.000 
#    0.000    0.000    0.000    0.000    0.000    0.000 
#
# Total GULP energy -139242.056208 kJ/mol
# GULP energy per Si atom -5569.682248 kJ/mol
# Density = 2.064363 g / cm^3
# Si number density = 20.690725 Si / 1000 Ang^3
#
#
#
# Elastic Constant Matrix: (Units=GPa)
#
#
# Indices 1 2 3 4 5 6 
#
# 1 93.1566 50.4949 26.4171 0.0000 20.5780 0.0000
# 2 50.4949 125.6616 40.8073 0.0000 13.9914 0.0000
# 3 26.4171 40.8073 95.0936 0.0000 17.8559 0.0000
# 4 0.0000 0.0000 0.0000 24.3425 0.0000 -1.5398
# 5 20.5780 13.9914 17.8559 0.0000 34.0748 0.0000
# 6 0.0000 0.0000 0.0000 -1.5398 0.0000 8.1391
#
#
#
# Elastic Compliance Matrix: (Units=1/GPa)
#
#
# Indices 1 2 3 4 5 6 
#
# 1 0.015200 -0.005113 -0.000775 0.000000 -0.006674 0.000000
# 2 -0.005113 0.011079 -0.003393 0.000000 0.000317 0.000000
# 3 -0.000775 -0.003393 0.013130 0.000000 -0.005019 0.000000
# 4 0.000000 0.000000 0.000000 0.041578 0.000000 0.007866
# 5 -0.006674 0.000317 -0.005019 0.000000 0.035877 0.000000
# 6 0.000000 0.000000 0.000000 0.007866 0.000000 0.124352
#
#
# Mechanical properties :
#
#
# Convention : Reuss Voigt Hill
#
# Bulk Modulus (GPa) = 47.97177 61.03894 54.50535
# Shear Modulus (GPa) = 18.74560 26.39076 22.56818
#
# Velocity S-wave (km/s) = 3.01323 3.57527 3.30622
# Velocity P-wave (km/s) = 5.94488 6.82701 6.40116
#
# Compressibility (1/GPa) = 0.02084559
#
# Stress axis : x y z
#
# Youngs Moduli (GPa) = 65.78861 90.25918 76.16169
#
# Poissons Ratio (x) = 0.46150 0.05905
# Poissons Ratio (y) = 0.33638 0.25845
# Poissons Ratio (z) = 0.05101 0.30629
#
# Static dielectric constant tensor:
#      x y z
#    x 1.708990 0.000000 -0.102450 
#    y 0.000000 1.726840 0.000000 
#    z -0.102450 0.000000 1.659510 
# 
# From -- ./inp_files/79820.got.cif
#   From: 2010.05.17/outbox.cif.g08.bks.cpg/sg12_40_cif.got.tgz:79820.got - 2010.06.03 13:09:07.
