data_PCOD9204232
_publ_section_title
;
Structure prediction by ZEFSAII (Michael W. Deem and Ramdas Pophale) SiO2 
 PCOD9204232
Probable space group: C 2/M
;
_chemical_formula_sum "Si O2"
_cell_formula_units_Z 36
_cell_length_a 26.176954
_cell_length_b 14.003851
_cell_length_c 5.088548
_cell_angle_alpha 90.000000
_cell_angle_beta 76.673376
_cell_angle_gamma 90.000000
_cell_volume 1815.120176
_symmetry_space_group_name_H-M "C 2/M"
_symmetry_group_IT_number 12
_symmetry_cell_setting 'monoclinic'
loop_
_space_group_symop_operation_xyz
x,y,z
-x,y,-z
-x,-y,-z
x,-y,z
1/2+x,1/2+y,z
1/2-x,1/2+y,-z
1/2-x,1/2-y,-z
1/2+x,1/2-y,z
loop_
_atom_site_type_symbol
_atom_site_label
_atom_site_fract_x
_atom_site_fract_y
_atom_site_fract_z
Si Si1 0.733337 0.000000 0.341319
Si Si2 0.278513 0.295064 0.218644
Si Si3 0.942599 0.789777 0.432666
Si Si4 0.461614 0.500000 0.299009
Si Si5 0.391080 0.792744 0.008394
Si Si6 0.841723 0.500000 0.064393
O O1 0.768229 0.092952 0.251684
O O2 0.703306 0.000000 0.656688
O O3 0.687633 0.000000 0.178654
O O4 0.250000 0.250000 0.500000
O O5 0.338844 0.265164 0.148436
O O6 0.250000 0.250000 0.000000
O O7 0.935240 0.731910 0.171704
O O8 0.000000 0.787675 0.500000
O O9 0.930978 0.900128 0.364751
O O10 0.906212 0.743644 0.700290
O O11 0.500000 0.500000 0.500000
O O12 0.500000 0.500000 0.000000
O O13 0.375949 0.903957 0.039205
#
# Coordination Sequence:
#
# PCOD9204232 Si02
#       6
#     4   8   8   4   8   4
#     4  12  22  42  67  94 134 174 214 270 331 396
#     4  12  23  41  64  98 130 169 219 274 323 394
#     4  11  24  43  67  97 135 171 221 275 328 388
#     4  10  20  40  68  94 126 174 207 260 347 396
#     4  12  24  42  67  97 131 175 225 269 330 394
#     4  12  24  42  68  92 128 184 220 256 340 398
#
# _framework density 19.833397999999999
#
# number of rings (size 3 to 8) (size 9 to 14) (size 15 to 20)
#    0.000    0.444    4.444    6.000    0.000    1.778 
#    0.000    3.333    0.000    0.000    0.000    0.000 
#    0.000    0.000    0.000    0.000    0.000    0.000 
#
# Total GULP energy -100611.126090 kJ/mol
# GULP energy per Si atom -5589.507005 kJ/mol
# Density = 1.978826 g / cm^3
# Si number density = 19.833398 Si / 1000 Ang^3
#
#
#
# Elastic Constant Matrix: (Units=GPa)
#
#
# Indices 1 2 3 4 5 6 
#
# 1 62.6681 34.5130 4.8913 0.0000 5.2395 0.0000
# 2 34.5130 218.5427 37.7608 0.0000 -13.0726 0.0000
# 3 4.8913 37.7608 131.5865 0.0000 1.9486 0.0000
# 4 0.0000 0.0000 0.0000 31.7671 0.0000 -6.9577
# 5 5.2395 -13.0726 1.9486 0.0000 37.0600 0.0000
# 6 0.0000 0.0000 0.0000 -6.9577 0.0000 22.9207
#
#
#
# Elastic Compliance Matrix: (Units=1/GPa)
#
#
# Indices 1 2 3 4 5 6 
#
# 1 0.017948 -0.003100 0.000276 0.000000 -0.003645 0.000000
# 2 -0.003100 0.005469 -0.001490 0.000000 0.002446 0.000000
# 3 0.000276 -0.001490 0.008032 0.000000 -0.000987 0.000000
# 4 0.000000 0.000000 0.000000 0.033721 0.000000 0.010236
# 5 -0.003645 0.002446 -0.000987 0.000000 0.028413 0.000000
# 6 0.000000 0.000000 0.000000 0.010236 0.000000 0.046736
#
#
# Mechanical properties :
#
#
# Convention : Reuss Voigt Hill
#
# Bulk Modulus (GPa) = 43.82096 63.01416 53.41756
# Shear Modulus (GPa) = 31.93788 40.72504 36.33146
#
# Velocity S-wave (km/s) = 4.01722 4.53631 4.28463
# Velocity P-wave (km/s) = 6.60756 7.69924 7.17419
#
# Compressibility (1/GPa) = 0.02282013
#
# Stress axis : x y z
#
# Youngs Moduli (GPa) = 55.71768 182.84249 124.50802
#
# Poissons Ratio (x) = 0.56684 -0.03442
# Poissons Ratio (y) = 0.17273 0.18557
# Poissons Ratio (z) = -0.01541 0.27252
#
# Static dielectric constant tensor:
#      x y z
#    x 1.692610 0.000000 0.010730 
#    y 0.000000 1.774610 0.000000 
#    z 0.010730 0.000000 1.664330 
# 
# From -- ./inp_files/23669.got.cif
#   From: 2010.05.17/outbox.cif.g08.bks.cpg/sg12_12_cif.got.tgz:23669.got - 2010.06.03 13:09:07.
