data_PCOD9204325
_publ_section_title
;
Structure prediction by ZEFSAII (Michael W. Deem and Ramdas Pophale) SiO2 
 PCOD9204325
Probable space group: C 2/M
;
_chemical_formula_sum "Si O2"
_cell_formula_units_Z 58
_cell_length_a 9.187398
_cell_length_b 23.994936
_cell_length_c 19.485230
_cell_angle_alpha 90.000000
_cell_angle_beta 144.067155
_cell_angle_gamma 90.000000
_cell_volume 2520.779565
_symmetry_space_group_name_H-M "C 2/M"
_symmetry_group_IT_number 12
_symmetry_cell_setting 'monoclinic'
loop_
_space_group_symop_operation_xyz
x,y,z
-x,y,-z
-x,-y,-z
x,-y,z
1/2+x,1/2+y,z
1/2-x,1/2+y,-z
1/2-x,1/2-y,-z
1/2+x,1/2-y,z
loop_
_atom_site_type_symbol
_atom_site_label
_atom_site_fract_x
_atom_site_fract_y
_atom_site_fract_z
Si Si1 0.877701 0.245220 0.756046
Si Si2 0.966426 0.401964 0.583023
Si Si3 0.649081 0.789840 0.402463
Si Si4 0.500000 0.000000 0.500000
Si Si5 0.053348 0.361255 0.167773
Si Si6 0.181360 0.437776 0.808742
Si Si7 0.207574 0.935222 0.948304
Si Si8 0.499618 0.632672 0.252409
O O1 0.648790 0.220057 0.711316
O O2 0.774164 0.272123 0.644822
O O3 0.000422 0.296061 0.843266
O O4 0.046653 0.192777 0.800450
O O5 0.079747 0.432671 0.692882
O O6 0.203005 0.372921 0.634597
O O7 0.804470 0.352375 0.553188
O O8 0.871186 0.450838 0.498389
O O9 0.750000 0.750000 0.500000
O O10 0.956014 0.393066 0.197404
O O11 0.346211 0.367153 0.263852
O O12 0.913919 0.392487 0.052675
O O13 0.137993 0.500000 0.819603
O O14 0.475509 0.429386 0.911855
O O15 0.102279 0.916456 0.834669
O O16 0.283907 0.000000 0.976637
#
# Coordination Sequence:
#
# PCOD9204325 Si02
#       8
#     8   8   8   2   8   8   8   8
#     4  11  23  41  62  94 126 160 209 265 327 377
#     4  10  23  41  65  91 129 167 212 263 312 397
#     4  11  23  42  67  93 122 168 216 265 322 390
#     4  12  24  40  68  98 120 176 220 244 332 388
#     4  12  22  38  65  91 129 162 210 264 316 372
#     4  10  20  41  63  90 125 164 210 262 314 363
#     4  10  23  42  64  92 123 172 219 250 307 391
#     4  10  24  41  61  92 129 166 208 264 317 374
#
# _framework density 23.008756000000002
#
# number of rings (size 3 to 8) (size 9 to 14) (size 15 to 20)
#    0.000    1.379    3.448    1.655    4.828    3.310 
#    0.000    1.379    0.000    0.828    0.000    0.000 
#    0.000    0.000    0.000    0.000    0.000    0.000 
#
# Total GULP energy -161752.543286 kJ/mol
# GULP energy per Si atom -5577.673906 kJ/mol
# Density = 2.295639 g / cm^3
# Si number density = 23.008756 Si / 1000 Ang^3
#
#
#
# Elastic Constant Matrix: (Units=GPa)
#
#
# Indices 1 2 3 4 5 6 
#
# 1 99.5498 12.3371 -12.1306 0.0000 12.3922 0.0000
# 2 12.3371 154.8494 9.1481 0.0001 2.9137 0.0000
# 3 -12.1306 9.1481 28.6122 -0.0001 -5.4580 0.0005
# 4 0.0000 0.0001 -0.0001 23.0680 -0.0001 -4.8836
# 5 12.3922 2.9137 -5.4580 -0.0001 21.5723 0.0001
# 6 0.0000 0.0000 0.0005 -4.8836 0.0001 29.9501
#
#
#
# Elastic Compliance Matrix: (Units=1/GPa)
#
#
# Indices 1 2 3 4 5 6 
#
# 1 0.011341 -0.001047 0.004126 0.000000 -0.005330 0.000000
# 2 -0.001047 0.006725 -0.002787 0.000000 -0.001012 0.000000
# 3 0.004126 -0.002787 0.039097 0.000000 0.007898 -0.000001
# 4 0.000000 0.000000 0.000000 0.044900 0.000000 0.007321
# 5 -0.005330 -0.001012 0.007898 0.000000 0.051552 0.000000
# 6 0.000000 0.000000 -0.000001 0.007321 0.000000 0.034583
#
#
# Mechanical properties :
#
#
# Convention : Reuss Voigt Hill
#
# Bulk Modulus (GPa) = 17.31661 33.52452 25.42057
# Shear Modulus (GPa) = 24.17052 33.16186 28.66619
#
# Velocity S-wave (km/s) = 3.24465 3.80053 3.53353
# Velocity P-wave (km/s) = 4.64536 5.81899 5.26498
#
# Compressibility (1/GPa) = 0.05774803
#
# Stress axis : x y z
#
# Youngs Moduli (GPa) = 88.17380 148.69873 25.57716
#
# Poissons Ratio (x) = 0.15570 -0.10554
# Poissons Ratio (y) = 0.09232 0.07129
# Poissons Ratio (z) = -0.36384 0.41444
#
# Static dielectric constant tensor:
#      x y z
#    x 1.879090 -0.000020 -0.014820 
#    y -0.000020 -1.223310 -0.000040 
#    z -0.014820 -0.000040 1.904020 
# 
# From -- ./inp_files/302484.got.cif
#   From: 2010.05.17/outbox.cif.g08.bks.cpg/sg12_152_cif.got.tgz:302484.got - 2010.06.03 13:09:07.
