data_PCOD9204091
_publ_section_title
;
Structure prediction by ZEFSAII (Michael W. Deem and Ramdas Pophale) SiO2 
 PCOD9204091
Probable space group: C 2/M
;
_chemical_formula_sum "Si O2"
_cell_formula_units_Z 64
_cell_length_a 35.308881
_cell_length_b 8.619001
_cell_length_c 15.811448
_cell_angle_alpha 90.000000
_cell_angle_beta 43.653481
_cell_angle_gamma 90.000000
_cell_volume 3321.600388
_symmetry_space_group_name_H-M "C 2/M"
_symmetry_group_IT_number 12
_symmetry_cell_setting 'monoclinic'
loop_
_space_group_symop_operation_xyz
x,y,z
-x,y,-z
-x,-y,-z
x,-y,z
1/2+x,1/2+y,z
1/2-x,1/2+y,-z
1/2-x,1/2-y,-z
1/2+x,1/2-y,z
loop_
_atom_site_type_symbol
_atom_site_label
_atom_site_fract_x
_atom_site_fract_y
_atom_site_fract_z
Si Si1 0.649456 0.186749 0.247334
Si Si2 0.753052 0.312851 0.172235
Si Si3 0.538937 0.812204 0.860534
Si Si4 0.011569 0.184184 0.230211
Si Si5 0.539572 0.812603 0.514888
Si Si6 0.371550 0.187663 0.912558
Si Si7 0.764192 0.812603 0.608639
Si Si8 0.836409 0.313006 0.347382
O O1 0.707786 0.252653 0.180416
O O2 0.601087 0.235001 0.389514
O O3 0.632709 0.231705 0.179369
O O4 0.652274 0.000000 0.244126
O O5 0.752250 0.500000 0.171963
O O6 0.737389 0.260632 0.292005
O O7 0.814694 0.265326 0.048569
O O8 0.516648 0.754830 0.806956
O O9 0.601923 0.761152 0.770786
O O10 0.538401 0.000000 0.861002
O O11 0.500000 0.759534 0.000000
O O12 0.074474 0.240120 0.134345
O O13 0.981694 0.241732 0.363855
O O14 0.009152 0.000000 0.230195
O O15 0.500000 0.771474 0.500000
O O16 0.537869 0.000000 0.525351
O O17 0.376359 0.000000 0.909343
O O18 0.814189 0.747893 0.472845
O O19 0.708316 0.764087 0.650441
O O20 0.766429 0.000000 0.603728
O O21 0.836030 0.500000 0.349897
#
# Coordination Sequence:
#
# PCOD9204091 Si02
#       8
#     8   8   8   8   8   8   8   8
#     4  10  21  37  60  87 118 156 200 248 294 347
#     4  10  22  36  59  88 118 154 195 246 298 353
#     4  10  23  42  67  91 116 157 205 249 295 363
#     4  12  26  40  60  92 126 159 197 253 312 363
#     4  10  20  40  65  88 118 161 208 250 295 358
#     4  10  21  41  63  83 115 162 206 244 292 356
#     4   9  19  36  57  85 115 148 188 237 293 344
#     4   9  19  37  60  85 111 146 193 237 285 345
#
# _framework density 19.26782
#
# number of rings (size 3 to 8) (size 9 to 14) (size 15 to 20)
#    0.000    2.000    1.250    1.500    3.500    3.000 
#    0.000    0.000    0.000    0.000    0.000    0.000 
#    0.000    0.000    0.000    0.000    0.000    0.000 
#
# Total GULP energy -178766.399874 kJ/mol
# GULP energy per Si atom -5586.449996 kJ/mol
# Density = 1.922397 g / cm^3
# Si number density = 19.267820 Si / 1000 Ang^3
#
#
#
# Elastic Constant Matrix: (Units=GPa)
#
#
# Indices 1 2 3 4 5 6 
#
# 1 58.1220 9.3525 35.4498 0.0000 -2.7105 0.0000
# 2 9.3525 6.5898 18.4058 0.0000 -2.1818 -0.0003
# 3 35.4498 18.4058 111.0194 0.0000 -14.4345 0.0000
# 4 0.0000 0.0000 0.0000 12.1158 0.0000 -11.8133
# 5 -2.7105 -2.1818 -14.4345 0.0000 33.3897 0.0000
# 6 0.0000 -0.0003 0.0000 -11.8133 0.0000 16.7861
#
#
#
# Elastic Compliance Matrix: (Units=1/GPa)
#
#
# Indices 1 2 3 4 5 6 
#
# 1 0.023096 -0.022611 -0.003787 -0.000001 -0.001240 -0.000001
# 2 -0.022611 0.304872 -0.043413 0.000021 -0.000681 0.000021
# 3 -0.003787 -0.043413 0.018018 -0.000003 0.004645 -0.000003
# 4 -0.000001 0.000021 -0.000003 0.263013 0.000000 0.185097
# 5 -0.001240 -0.000681 0.004645 0.000000 0.031812 0.000000
# 6 -0.000001 0.000021 -0.000003 0.185097 0.000000 0.189836
#
#
# Mechanical properties :
#
#
# Convention : Reuss Voigt Hill
#
# Bulk Modulus (GPa) = 4.84581 33.57192 19.20887
# Shear Modulus (GPa) = 4.81205 19.95985 12.38595
#
# Velocity S-wave (km/s) = 1.58205 3.22206 2.53816
# Velocity P-wave (km/s) = 2.42025 5.59498 4.31054
#
# Compressibility (1/GPa) = 0.20636364
#
# Stress axis : x y z
#
# Youngs Moduli (GPa) = 43.29812 3.28006 55.49978
#
# Poissons Ratio (x) = 0.07417 0.21019
# Poissons Ratio (y) = 0.97901 2.40942
# Poissons Ratio (z) = 0.16398 0.14240
#
# Static dielectric constant tensor:
#      x y z
#    x 1.644230 0.000000 -0.006510 
#    y 0.000000 1.656770 0.000000 
#    z -0.006510 0.000000 1.665640 
# 
# From -- ./inp_files/249820.got.cif
#   From: 2010.05.17/outbox.cif.g08.bks.cpg/sg12_125_cif.got.tgz:249820.got - 2010.06.03 13:09:07.
