data_PCOD9204161
_publ_section_title
;
Structure prediction by ZEFSAII (Michael W. Deem and Ramdas Pophale) SiO2 
 PCOD9204161
Probable space group: C 2/M
;
_chemical_formula_sum "Si O2"
_cell_formula_units_Z 40
_cell_length_a 7.504673
_cell_length_b 12.665392
_cell_length_c 16.522913
_cell_angle_alpha 90.000000
_cell_angle_beta 82.790899
_cell_angle_gamma 90.000000
_cell_volume 1558.081570
_symmetry_space_group_name_H-M "C 2/M"
_symmetry_group_IT_number 12
_symmetry_cell_setting 'monoclinic'
loop_
_space_group_symop_operation_xyz
x,y,z
-x,y,-z
-x,-y,-z
x,-y,z
1/2+x,1/2+y,z
1/2-x,1/2+y,-z
1/2-x,1/2-y,-z
1/2+x,1/2-y,z
loop_
_atom_site_type_symbol
_atom_site_label
_atom_site_fract_x
_atom_site_fract_y
_atom_site_fract_z
Si Si1 0.879541 0.655689 0.394904
Si Si2 0.785765 0.500000 0.944205
Si Si3 0.283573 0.386998 0.763508
Si Si4 0.728355 0.612896 0.582186
Si Si5 0.000000 0.318173 0.000000
Si Si6 0.393961 0.320699 0.153800
O O1 0.759488 0.616236 0.328615
O O2 0.794325 0.621256 0.485069
O O3 0.883488 0.782795 0.395260
O O4 0.085218 0.618771 0.378532
O O5 0.838636 0.595848 0.006257
O O6 0.729074 0.407517 0.881852
O O7 0.206105 0.500000 0.798480
O O8 0.483077 0.377813 0.786929
O O9 0.199671 0.278497 0.799544
O O10 0.639631 0.500000 0.600522
O O11 0.001353 0.239542 0.075797
#
# Coordination Sequence:
#
# PCOD9204161 Si02
#       6
#     8   4   8   8   4   8
#     4  10  21  40  63  94 126 168 215 256 314 374
#     4  11  24  45  68  96 125 161 209 272 304 378
#     4  12  26  42  64  94 135 169 206 262 321 378
#     4  10  20  40  66  90 125 167 217 263 305 367
#     4  11  26  45  70  94 125 166 211 262 314 375
#     4  12  26  44  66  98 126 167 213 255 321 379
#
# _framework density 25.672597
#
# number of rings (size 3 to 8) (size 9 to 14) (size 15 to 20)
#    0.000    1.000    3.000    4.200    2.800    0.400 
#    1.800   10.000    0.000    0.000    0.000    0.000 
#    0.000    0.000    0.000    0.000    0.000    0.000 
#
# Total GULP energy -111456.489586 kJ/mol
# GULP energy per Si atom -5572.824479 kJ/mol
# Density = 2.561417 g / cm^3
# Si number density = 25.672597 Si / 1000 Ang^3
#
#
#
# Elastic Constant Matrix: (Units=GPa)
#
#
# Indices 1 2 3 4 5 6 
#
# 1 35.2840 32.8778 30.9991 0.0000 18.2932 0.0000
# 2 32.8778 278.9477 34.7295 0.0000 6.5294 0.0000
# 3 30.9991 34.7295 105.5284 0.0000 42.8360 0.0000
# 4 0.0000 0.0000 0.0000 -51.4008 0.0000 -17.6521
# 5 18.2932 6.5294 42.8360 0.0000 32.8428 0.0000
# 6 0.0000 0.0000 0.0000 -17.6521 0.0000 -21.1714
#
#
#
# Elastic Compliance Matrix: (Units=1/GPa)
#
#
# Indices 1 2 3 4 5 6 
#
# 1 0.046277 -0.004468 -0.004295 0.000000 -0.019286 0.000000
# 2 -0.004468 0.004222 -0.001586 0.000000 0.003718 0.000000
# 3 -0.004295 -0.001586 0.021592 0.000000 -0.025455 0.000000
# 4 0.000000 0.000000 0.000000 -0.027261 0.000000 0.022729
# 5 -0.019286 0.003718 -0.025455 0.000000 0.073651 0.000000
# 6 0.000000 0.000000 0.000000 0.022729 0.000000 -0.066184
#
#
# Mechanical properties :
#
#
# Convention : Reuss Voigt Hill
#
# Bulk Modulus (GPa) = 19.45790 68.55254 44.00522
# Shear Modulus (GPa) = 55.47645 13.46436 34.47041
#
# Velocity S-wave (km/s) = 4.65361 2.29260 3.66825
# Velocity P-wave (km/s) = 6.03908 5.81108 5.92618
#
# Compressibility (1/GPa) = 0.05139301
#
# Stress axis : x y z
#
# Youngs Moduli (GPa) = 21.60881 236.85447 46.31249
#
# Poissons Ratio (x) = 1.05833 0.19891
# Poissons Ratio (y) = 0.09655 0.07346
# Poissons Ratio (z) = 0.09281 0.37571
#
# Static dielectric constant tensor:
#      x y z
#    x 2.128470 0.000000 -0.039720 
#    y 0.000000 1.921010 0.000000 
#    z -0.039720 0.000000 2.001450 
# 
# From -- ./inp_files/254754.got.cif
#   From: 2010.05.17/outbox.cif.g08.bks.cpg/sg12_128_cif.got.tgz:254754.got - 2010.06.03 13:09:07.
