data_PCOD9204332
_publ_section_title
;
Structure prediction by ZEFSAII (Michael W. Deem and Ramdas Pophale) SiO2 
 PCOD9204332
Probable space group: C 2/M
;
_chemical_formula_sum "Si O2"
_cell_formula_units_Z 52
_cell_length_a 8.183452
_cell_length_b 25.690241
_cell_length_c 19.822383
_cell_angle_alpha 90.000000
_cell_angle_beta 40.199722
_cell_angle_gamma 90.000000
_cell_volume 2689.836393
_symmetry_space_group_name_H-M "C 2/M"
_symmetry_group_IT_number 12
_symmetry_cell_setting 'monoclinic'
loop_
_space_group_symop_operation_xyz
x,y,z
-x,y,-z
-x,-y,-z
x,-y,z
1/2+x,1/2+y,z
1/2-x,1/2+y,-z
1/2-x,1/2-y,-z
1/2+x,1/2-y,z
loop_
_atom_site_type_symbol
_atom_site_label
_atom_site_fract_x
_atom_site_fract_y
_atom_site_fract_z
Si Si1 0.331526 0.160266 0.443137
Si Si2 0.811168 0.174996 0.666727
Si Si3 0.097736 0.557903 0.393249
Si Si4 0.130971 0.882592 0.226182
Si Si5 0.000000 0.622595 0.000000
Si Si6 0.654682 0.711460 0.743851
Si Si7 0.608315 0.305516 0.040933
O O1 0.254820 0.168473 0.390319
O O2 0.405394 0.099762 0.423445
O O3 0.586289 0.192869 0.371926
O O4 0.119114 0.177312 0.563781
O O5 0.758273 0.127495 0.734398
O O6 0.665017 0.226669 0.735860
O O7 0.101175 0.500000 0.361816
O O8 0.374974 0.584082 0.306506
O O9 0.000000 0.553467 0.500000
O O10 0.061127 0.822918 0.224652
O O11 0.317936 0.905254 0.110960
O O12 0.814373 0.655347 0.008529
O O13 0.621337 0.696135 0.832647
O O14 0.500000 0.315352 0.000000
O O15 0.750000 0.250000 0.000000
#
# Coordination Sequence:
#
# PCOD9204332 Si02
#       7
#     8   8   8   8   4   8   8
#     4  10  22  35  52  83 111 147 189 226 283 347
#     4  11  20  33  52  82 118 151 183 229 275 328
#     4  10  20  41  64  81 106 143 185 239 296 348
#     4  10  21  37  58  83 114 147 194 232 278 341
#     4  10  22  38  55  84 116 150 198 246 285 338
#     4  10  22  33  52  77 115 160 191 225 275 332
#     4  11  22  34  51  75 111 162 210 240 273 323
#
# _framework density 19.33203
#
# number of rings (size 3 to 8) (size 9 to 14) (size 15 to 20)
#    0.000    1.692    2.308    2.308    6.462    1.231 
#    0.000    2.692    0.000    0.000    0.000    1.077 
#    0.000    0.000    0.000    0.000    0.000    0.000 
#
# Total GULP energy -144921.932167 kJ/mol
# GULP energy per Si atom -5573.920468 kJ/mol
# Density = 1.928803 g / cm^3
# Si number density = 19.332030 Si / 1000 Ang^3
#
#
#
# Elastic Constant Matrix: (Units=GPa)
#
#
# Indices 1 2 3 4 5 6 
#
# 1 68.3160 0.4023 8.9508 0.0000 13.1671 0.0000
# 2 0.4023 52.4080 1.6680 0.0000 -4.0709 0.0000
# 3 8.9508 1.6680 109.3136 -0.0002 3.8877 0.0000
# 4 0.0000 0.0000 -0.0002 16.7147 0.0001 4.3344
# 5 13.1671 -4.0709 3.8877 0.0001 31.6342 0.0000
# 6 0.0000 0.0000 0.0000 4.3344 0.0000 8.7117
#
#
#
# Elastic Compliance Matrix: (Units=1/GPa)
#
#
# Indices 1 2 3 4 5 6 
#
# 1 0.016060 -0.000604 -0.001070 0.000000 -0.006631 0.000000
# 2 -0.000604 0.019313 -0.000344 0.000000 0.002779 0.000000
# 3 -0.001070 -0.000344 0.009267 0.000000 -0.000738 0.000000
# 4 0.000000 0.000000 0.000000 0.068690 0.000000 -0.034176
# 5 -0.006631 0.002779 -0.000738 0.000000 0.034820 0.000000
# 6 0.000000 0.000000 0.000000 -0.034176 0.000000 0.131793
#
#
# Mechanical properties :
#
#
# Convention : Reuss Voigt Hill
#
# Bulk Modulus (GPa) = 24.62892 28.00886 26.31889
# Shear Modulus (GPa) = 16.80601 26.01322 21.40961
#
# Velocity S-wave (km/s) = 2.95165 3.67222 3.33148
# Velocity P-wave (km/s) = 4.93801 5.70088 5.33310
#
# Compressibility (1/GPa) = 0.04060268
#
# Stress axis : x y z
#
# Youngs Moduli (GPa) = 62.26803 51.77988 107.90872
#
# Poissons Ratio (x) = 0.03129 0.11546
# Poissons Ratio (y) = 0.03763 0.03713
# Poissons Ratio (z) = 0.06662 0.01781
#
# Static dielectric constant tensor:
#      x y z
#    x 1.730710 0.000000 -0.028280 
#    y 0.000000 1.670480 0.000000 
#    z -0.028280 0.000000 1.755380 
# 
# From -- ./inp_files/302607.got.cif
#   From: 2010.05.17/outbox.cif.g08.bks.cpg/sg12_152_cif.got.tgz:302607.got - 2010.06.03 13:09:07.
