data_PCOD9204281
_publ_section_title
;
Structure prediction by ZEFSAII (Michael W. Deem and Ramdas Pophale) SiO2 
 PCOD9204281
Probable space group: C 2/M
;
_chemical_formula_sum "Si O2"
_cell_formula_units_Z 42
_cell_length_a 18.724880
_cell_length_b 14.951870
_cell_length_c 6.964236
_cell_angle_alpha 90.000000
_cell_angle_beta 59.103999
_cell_angle_gamma 90.000000
_cell_volume 1673.117013
_symmetry_space_group_name_H-M "C 2/M"
_symmetry_group_IT_number 12
_symmetry_cell_setting 'monoclinic'
loop_
_space_group_symop_operation_xyz
x,y,z
-x,y,-z
-x,-y,-z
x,-y,z
1/2+x,1/2+y,z
1/2-x,1/2+y,-z
1/2-x,1/2-y,-z
1/2+x,1/2-y,z
loop_
_atom_site_type_symbol
_atom_site_label
_atom_site_fract_x
_atom_site_fract_y
_atom_site_fract_z
Si Si1 0.000000 0.000000 0.000000
Si Si2 0.120451 0.839956 0.852353
Si Si3 0.771767 0.105496 0.994275
Si Si4 0.895681 0.359450 0.000710
Si Si5 0.421854 0.096908 0.390935
Si Si6 0.407646 0.704713 0.548973
O O1 0.937300 0.921537 0.006930
O O2 0.090458 0.746004 0.980722
O O3 0.112319 0.833681 0.634819
O O4 0.211953 0.861043 0.810185
O O5 0.684143 0.124573 0.017439
O O6 0.839710 0.161532 0.780920
O O7 0.786471 0.000000 0.961817
O O8 0.881905 0.397417 0.233763
O O9 0.979320 0.398396 0.793154
O O10 0.403381 0.187893 0.529374
O O11 0.401043 0.000000 0.507146
O O12 0.500000 0.683070 0.500000
#
# Coordination Sequence:
#
# PCOD9204281 Si02
#       6
#     2   8   8   8   8   8
#     4  12  20  40  66  96 134 180 242 270 344 420
#     4  11  24  41  68  97 142 186 232 293 350 424
#     4  12  25  43  70 105 142 190 236 297 358 424
#     4  10  21  43  70 102 141 185 236 294 362 424
#     4  10  20  40  71 103 134 185 233 295 355 427
#     4  11  26  44  68 104 141 185 238 300 361 422
#
# _framework density 25.102846
#
# number of rings (size 3 to 8) (size 9 to 14) (size 15 to 20)
#    0.000    1.143    0.952    7.429    1.333    3.810 
#    0.000    0.000    2.095    1.143    0.000    0.000 
#    0.000    0.000    0.000    0.000    0.000    0.000 
#
# Total GULP energy -117534.776787 kJ/mol
# GULP energy per Si atom -5596.894133 kJ/mol
# Density = 2.504571 g / cm^3
# Si number density = 25.102846 Si / 1000 Ang^3
#
#
#
# Elastic Constant Matrix: (Units=GPa)
#
#
# Indices 1 2 3 4 5 6 
#
# 1 257.1495 35.7998 58.1476 0.0000 22.8272 0.0000
# 2 35.7998 201.7563 37.4283 0.0000 14.7214 0.0000
# 3 58.1476 37.4283 95.8339 0.0000 14.5438 0.0000
# 4 0.0000 0.0000 0.0000 -72.6927 0.0000 -98.6313
# 5 22.8272 14.7214 14.5438 0.0000 34.8676 0.0000
# 6 0.0000 0.0000 0.0000 -98.6313 0.0000 -90.2472
#
#
#
# Elastic Compliance Matrix: (Units=1/GPa)
#
#
# Indices 1 2 3 4 5 6 
#
# 1 0.004642 -0.000232 -0.002434 0.000000 -0.001926 0.000000
# 2 -0.000232 0.005428 -0.001766 0.000000 -0.001403 0.000000
# 3 -0.002434 -0.001766 0.013074 0.000000 -0.003114 0.000000
# 4 0.000000 0.000000 0.000000 0.028489 0.000000 -0.031135
# 5 -0.001926 -0.001403 -0.003114 0.000000 0.031832 0.000000
# 6 0.000000 0.000000 0.000000 -0.031135 0.000000 0.022947
#
#
# Mechanical properties :
#
#
# Convention : Reuss Voigt Hill
#
# Bulk Modulus (GPa) = 70.02718 90.83232 80.42975
# Shear Modulus (GPa) = 41.65403 2.60980 22.13192
#
# Velocity S-wave (km/s) = 4.07791 1.02074 2.97248
# Velocity P-wave (km/s) = 7.08020 6.13611 6.62499
#
# Compressibility (1/GPa) = 0.01428017
#
# Stress axis : x y z
#
# Youngs Moduli (GPa) = 215.40504 184.24244 76.48775
#
# Poissons Ratio (x) = 0.04268 0.18617
# Poissons Ratio (y) = 0.04990 0.13510
# Poissons Ratio (z) = 0.52430 0.32542
#
# Static dielectric constant tensor:
#      x y z
#    x 2.031480 0.000000 0.032340 
#    y 0.000000 1.902270 0.000000 
#    z 0.032340 0.000000 2.036660 
# 
# From -- ./inp_files/73546.got.cif
#   From: 2010.05.17/outbox.cif.g08.bks.cpg/sg12_37_cif.got.tgz:73546.got - 2010.06.03 13:09:07.
