data_PCOD9204432
_publ_section_title
;
Structure prediction by ZEFSAII (Michael W. Deem and Ramdas Pophale) SiO2 
 PCOD9204432
Probable space group: C 2/M
;
_chemical_formula_sum "Si O2"
_cell_formula_units_Z 42
_cell_length_a 19.281106
_cell_length_b 9.157661
_cell_length_c 12.282909
_cell_angle_alpha 90.000000
_cell_angle_beta 116.363292
_cell_angle_gamma 90.000000
_cell_volume 1943.229187
_symmetry_space_group_name_H-M "C 2/M"
_symmetry_group_IT_number 12
_symmetry_cell_setting 'monoclinic'
loop_
_space_group_symop_operation_xyz
x,y,z
-x,y,-z
-x,-y,-z
x,-y,z
1/2+x,1/2+y,z
1/2-x,1/2+y,-z
1/2-x,1/2-y,-z
1/2+x,1/2-y,z
loop_
_atom_site_type_symbol
_atom_site_label
_atom_site_fract_x
_atom_site_fract_y
_atom_site_fract_z
Si Si1 0.833933 0.677654 0.038445
Si Si2 0.804978 0.664684 0.398574
Si Si3 0.647233 0.324048 0.175874
Si Si4 0.934830 0.271841 0.319045
Si Si5 0.000000 0.000000 0.500000
Si Si6 0.403429 0.165858 0.661941
O O1 0.830063 0.500000 0.037065
O O2 0.863705 0.739957 0.944295
O O3 0.750000 0.750000 0.000000
O O4 0.888697 0.731788 0.173759
O O5 0.782587 0.500000 0.413707
O O6 0.730757 0.725756 0.284290
O O7 0.875013 0.657575 0.361875
O O8 0.840165 0.731990 0.533245
O O9 0.646691 0.500000 0.160702
O O10 0.589163 0.269733 0.228915
O O11 0.016557 0.344007 0.347243
O O12 0.959468 0.124588 0.394981
O O13 0.381972 0.000000 0.679785
#
# Coordination Sequence:
#
# PCOD9204432 Si02
#       6
#     8   8   8   8   2   8
#     4  12  26  46  73 105 142 188 240 292 353 430
#     4  10  20  41  68  98 132 184 235 288 348 418
#     4  11  25  43  67 101 144 187 237 293 357 420
#     4  12  25  44  71 101 140 180 236 293 356 420
#     4  12  28  44  70 118 140 184 236 308 358 420
#     4  11  23  42  67  99 139 188 238 292 356 423
#
# _framework density 21.613507999999999
#
# number of rings (size 3 to 8) (size 9 to 14) (size 15 to 20)
#    0.000    0.762    3.810    3.429    4.000    2.286 
#    1.714    2.857    0.000    0.000    0.000    0.000 
#    0.000    0.000    0.000    0.000    0.000    0.000 
#
# Total GULP energy -116985.446207 kJ/mol
# GULP energy per Si atom -5570.735534 kJ/mol
# Density = 2.156431 g / cm^3
# Si number density = 21.613508 Si / 1000 Ang^3
#
#
#
# Elastic Constant Matrix: (Units=GPa)
#
#
# Indices 1 2 3 4 5 6 
#
# 1 52.8486 16.7470 4.0221 0.0000 -1.7007 0.0000
# 2 16.7470 137.0023 57.5056 0.0000 3.3282 0.0000
# 3 4.0221 57.5056 165.8246 0.0000 3.6197 0.0000
# 4 0.0000 0.0000 0.0000 69.5992 0.0000 -8.2847
# 5 -1.7007 3.3282 3.6197 0.0000 39.3959 0.0000
# 6 0.0000 0.0000 0.0000 -8.2847 0.0000 56.5410
#
#
#
# Elastic Compliance Matrix: (Units=1/GPa)
#
#
# Indices 1 2 3 4 5 6 
#
# 1 0.019751 -0.002609 0.000403 0.000000 0.001036 0.000000
# 2 -0.002609 0.008895 -0.003009 0.000000 -0.000588 0.000000
# 3 0.000403 -0.003009 0.007072 0.000000 -0.000378 0.000000
# 4 0.000000 0.000000 0.000000 0.014623 0.000000 0.002143
# 5 0.001036 -0.000588 -0.000378 0.000000 0.025512 0.000000
# 6 0.000000 0.000000 0.000000 0.002143 0.000000 0.018000
#
#
# Mechanical properties :
#
#
# Convention : Reuss Voigt Hill
#
# Bulk Modulus (GPa) = 39.54119 56.91389 48.22754
# Shear Modulus (GPa) = 44.36040 51.60061 47.98051
#
# Velocity S-wave (km/s) = 4.53530 4.89143 4.71673
# Velocity P-wave (km/s) = 6.76459 7.63486 7.21286
#
# Compressibility (1/GPa) = 0.02529009
#
# Stress axis : x y z
#
# Youngs Moduli (GPa) = 50.62957 112.42088 141.39692
#
# Poissons Ratio (x) = 0.29327 -0.05698
# Poissons Ratio (y) = 0.13208 0.42541
# Poissons Ratio (z) = -0.02040 0.33823
#
# Static dielectric constant tensor:
#      x y z
#    x 1.841420 0.000000 0.012630 
#    y 0.000000 1.800470 0.000000 
#    z 0.012630 0.000000 1.792970 
# 
# From -- ./inp_files/163297.got.cif
#   From: 2010.05.17/outbox.cif.g08.bks.cpg/sg12_82_cif.got.tgz:163297.got - 2010.06.03 13:09:07.
