data_PCOD9204868
_publ_section_title
;
Structure prediction by ZEFSAII (Michael W. Deem and Ramdas Pophale) SiO2 
 PCOD9204868
Probable space group: C 2/M
;
_chemical_formula_sum "Si O2"
_cell_formula_units_Z 64
_cell_length_a 25.525359
_cell_length_b 8.542214
_cell_length_c 24.743404
_cell_angle_alpha 90.000000
_cell_angle_beta 46.418589
_cell_angle_gamma 90.000000
_cell_volume 3908.206780
_symmetry_space_group_name_H-M "C 2/M"
_symmetry_group_IT_number 12
_symmetry_cell_setting 'monoclinic'
loop_
_space_group_symop_operation_xyz
x,y,z
-x,y,-z
-x,-y,-z
x,-y,z
1/2+x,1/2+y,z
1/2-x,1/2+y,-z
1/2-x,1/2-y,-z
1/2+x,1/2-y,z
loop_
_atom_site_type_symbol
_atom_site_label
_atom_site_fract_x
_atom_site_fract_y
_atom_site_fract_z
Si Si1 0.917468 0.310558 0.835917
Si Si2 0.566978 0.812638 0.679511
Si Si3 0.360209 0.310888 0.681587
Si Si4 0.310494 0.188883 0.998615
Si Si5 0.974453 0.187139 0.408802
Si Si6 0.724393 0.312831 0.576262
Si Si7 0.151463 0.687294 0.428783
Si Si8 0.296257 0.310605 0.838846
O O1 0.916434 0.500000 0.834435
O O2 0.861820 0.249564 0.829932
O O3 0.998067 0.258614 0.763727
O O4 0.885541 0.261353 0.917162
O O5 0.551965 0.762410 0.628401
O O6 0.643186 0.744306 0.643972
O O7 0.570948 0.000000 0.678696
O O8 0.357572 0.500000 0.679285
O O9 0.443051 0.267351 0.637029
O O10 0.339290 0.238966 0.639344
O O11 0.310645 0.260497 0.767348
O O12 0.279139 0.238970 0.079086
O O13 0.310290 0.000000 0.998662
O O14 0.250000 0.250000 0.000000
O O15 0.920916 0.238969 0.494416
O O16 0.971910 0.000000 0.404734
O O17 0.725185 0.500000 0.573567
O O18 0.750000 0.250000 0.500000
O O19 0.781409 0.261751 0.581350
O O20 0.145463 0.500000 0.436273
O O21 0.299408 0.500000 0.837411
#
# Coordination Sequence:
#
# PCOD9204868 Si02
#       8
#     8   8   8   8   8   8   8   8
#     4   9  17  28  44  70 101 130 161 198 240 285
#     4  11  21  32  50  75 101 131 166 202 245 292
#     4  10  21  34  49  73 101 132 167 199 240 291
#     4   8  14  25  42  65  96 130 160 193 233 281
#     4  11  21  34  52  72  99 132 165 201 241 288
#     4  11  23  38  55  73  94 124 164 208 254 296
#     4  11  24  38  52  71  94 125 166 208 250 294
#     4   9  16  28  46  69  98 132 165 194 233 289
#
# _framework density 16.375796999999999
#
# number of rings (size 3 to 8) (size 9 to 14) (size 15 to 20)
#    0.000    2.000    2.500    1.875    0.000    5.000 
#    0.000    0.000    0.000    0.000    0.000    0.875 
#    0.000    7.000    0.000    0.000    0.000    0.000 
#
# Total GULP energy -178444.600463 kJ/mol
# GULP energy per Si atom -5576.393764 kJ/mol
# Density = 1.633852 g / cm^3
# Si number density = 16.375797 Si / 1000 Ang^3
#
#
#
# Elastic Constant Matrix: (Units=GPa)
#
#
# Indices 1 2 3 4 5 6 
#
# 1 55.7265 13.5057 41.4651 0.0000 12.0812 0.0002
# 2 13.5057 15.9733 17.0929 0.0010 2.4803 0.0033
# 3 41.4651 17.0929 164.3680 0.0000 6.1471 -0.0001
# 4 0.0000 0.0010 0.0000 16.4347 -0.0002 0.5758
# 5 12.0812 2.4803 6.1471 -0.0002 16.9410 0.0000
# 6 0.0002 0.0033 -0.0001 0.5758 0.0000 22.7121
#
#
#
# Elastic Compliance Matrix: (Units=1/GPa)
#
#
# Indices 1 2 3 4 5 6 
#
# 1 0.029396 -0.016877 -0.005037 0.000001 -0.016664 0.000002
# 2 -0.016877 0.081154 -0.004245 -0.000004 0.001694 -0.000011
# 3 -0.005037 -0.004245 0.007744 0.000000 0.001404 0.000001
# 4 0.000001 -0.000004 0.000000 0.060901 0.000001 -0.001544
# 5 -0.016664 0.001694 0.001404 0.000001 0.070155 0.000000
# 6 0.000002 -0.000011 0.000001 -0.001544 0.000000 0.044069
#
#
# Mechanical properties :
#
#
# Convention : Reuss Voigt Hill
#
# Bulk Modulus (GPa) = 15.15730 42.24390 28.70060
# Shear Modulus (GPa) = 13.59700 22.15117 17.87408
#
# Velocity S-wave (km/s) = 2.88464 3.68187 3.30736
# Velocity P-wave (km/s) = 4.51341 6.62777 5.67002
#
# Compressibility (1/GPa) = 0.06597483
#
# Stress axis : x y z
#
# Youngs Moduli (GPa) = 34.01819 12.32226 129.13779
#
# Poissons Ratio (x) = 0.20796 0.65053
# Poissons Ratio (y) = 0.57412 0.54822
# Poissons Ratio (z) = 0.17137 0.05231
#
# Static dielectric constant tensor:
#      x y z
#    x 1.509650 0.000000 -0.005200 
#    y 0.000000 1.577150 0.000000 
#    z -0.005200 0.000000 1.595910 
# 
# From -- ./inp_files/319839.got.cif
#   From: 2010.05.17/outbox.cif.g08.bks.cpg/sg12_160_cif.got.tgz:319839.got - 2010.06.03 13:09:07.
