data_PCOD9204093
_publ_section_title
;
Structure prediction by ZEFSAII (Michael W. Deem and Ramdas Pophale) SiO2 
 PCOD9204093
Probable space group: C 2/M
;
_chemical_formula_sum "Si O2"
_cell_formula_units_Z 64
_cell_length_a 20.049453
_cell_length_b 8.600424
_cell_length_c 32.131971
_cell_angle_alpha 90.000000
_cell_angle_beta 144.251038
_cell_angle_gamma 90.000000
_cell_volume 3237.034293
_symmetry_space_group_name_H-M "C 2/M"
_symmetry_group_IT_number 12
_symmetry_cell_setting 'monoclinic'
loop_
_space_group_symop_operation_xyz
x,y,z
-x,y,-z
-x,-y,-z
x,-y,z
1/2+x,1/2+y,z
1/2-x,1/2+y,-z
1/2-x,1/2-y,-z
1/2+x,1/2-y,z
loop_
_atom_site_type_symbol
_atom_site_label
_atom_site_fract_x
_atom_site_fract_y
_atom_site_fract_z
Si Si1 0.988970 0.312238 0.385502
Si Si2 0.392427 0.684851 0.475251
Si Si3 0.233059 0.685344 0.124499
Si Si4 0.314086 0.186147 0.991890
Si Si5 0.160366 0.814624 0.320811
Si Si6 0.535821 0.815481 0.721438
Si Si7 0.932673 0.813392 0.893832
Si Si8 0.273435 0.311310 0.736886
O O1 0.996853 0.500000 0.394100
O O2 0.007016 0.271552 0.346401
O O3 0.858537 0.262726 0.329236
O O4 0.072802 0.233436 0.460654
O O5 0.500000 0.724196 0.500000
O O6 0.372804 0.500000 0.462785
O O7 0.280784 0.773157 0.402949
O O8 0.221080 0.500000 0.119768
O O9 0.242878 0.733315 0.081093
O O10 0.345374 0.736069 0.206317
O O11 0.123137 0.759084 0.091212
O O12 0.312756 0.000000 0.993517
O O13 0.250000 0.250000 0.000000
O O14 0.443971 0.244523 0.053840
O O15 0.168919 0.764002 0.277078
O O16 0.059325 0.730492 0.293663
O O17 0.141936 0.000000 0.312846
O O18 0.556076 0.000000 0.731026
O O19 0.844673 0.761270 0.813034
O O20 0.939760 0.000000 0.897065
O O21 0.271566 0.500000 0.736825
#
# Coordination Sequence:
#
# PCOD9204093 Si02
#       8
#     8   8   8   8   8   8   8   8
#     4  10  20  40  65  88 119 162 206 253 306 369
#     4  11  23  38  59  91 125 157 203 261 311 364
#     4  11  24  43  66  92 128 169 211 256 308 376
#     4  11  26  45  64  94 131 169 211 259 312 371
#     4  11  23  40  63  89 123 166 206 251 314 377
#     4  11  24  42  64  93 127 160 205 261 313 367
#     4  11  22  41  68  97 128 166 211 261 312 368
#     4   9  19  37  62  91 121 157 206 254 303 365
#
# _framework density 19.771184000000002
#
# number of rings (size 3 to 8) (size 9 to 14) (size 15 to 20)
#    0.000    1.375    2.500    2.625    1.750    5.500 
#    0.000    1.875    0.000    0.000    0.000    0.000 
#    0.000    0.000    0.000    0.000    0.000    0.000 
#
# Total GULP energy -178912.972453 kJ/mol
# GULP energy per Si atom -5591.030389 kJ/mol
# Density = 1.972618 g / cm^3
# Si number density = 19.771184 Si / 1000 Ang^3
#
#
#
# Elastic Constant Matrix: (Units=GPa)
#
#
# Indices 1 2 3 4 5 6 
#
# 1 131.1658 24.1992 20.8816 0.0000 -18.1077 0.0000
# 2 24.1992 29.0455 14.6832 -0.0001 -10.7637 0.0001
# 3 20.8816 14.6832 66.8264 0.0000 -18.9957 0.0000
# 4 0.0000 -0.0001 0.0000 30.9677 0.0000 3.6701
# 5 -18.1077 -10.7637 -18.9957 0.0000 35.1340 0.0000
# 6 0.0000 0.0001 0.0000 3.6701 0.0000 35.3023
#
#
#
# Elastic Compliance Matrix: (Units=1/GPa)
#
#
# Indices 1 2 3 4 5 6 
#
# 1 0.009267 -0.006434 -0.000809 0.000000 0.002367 0.000000
# 2 -0.006434 0.045521 -0.005872 0.000000 0.007455 0.000000
# 3 -0.000809 -0.005872 0.018761 0.000000 0.007927 0.000000
# 4 0.000000 0.000000 0.000000 0.032695 0.000000 -0.003399
# 5 0.002367 0.007455 0.007927 0.000000 0.036252 0.000000
# 6 0.000000 0.000000 0.000000 -0.003399 0.000000 0.028680
#
#
# Mechanical properties :
#
#
# Convention : Reuss Voigt Hill
#
# Bulk Modulus (GPa) = 21.13416 38.50730 29.82073
# Shear Modulus (GPa) = 23.45460 31.43238 27.44349
#
# Velocity S-wave (km/s) = 3.44801 3.99156 3.72970
# Velocity P-wave (km/s) = 5.15405 6.38453 5.80200
#
# Compressibility (1/GPa) = 0.04731676
#
# Stress axis : x y z
#
# Youngs Moduli (GPa) = 107.91435 21.96809 53.30346
#
# Poissons Ratio (x) = 0.14135 0.04312
# Poissons Ratio (y) = 0.69435 0.31301
# Poissons Ratio (z) = 0.08729 0.12900
#
# Static dielectric constant tensor:
#      x y z
#    x 1.681550 0.000000 -0.021570 
#    y 0.000000 1.666950 0.000000 
#    z -0.021570 0.000000 1.678310 
# 
# From -- ./inp_files/378314.got.cif
#   From: 2010.05.17/outbox.cif.g08.bks.cpg/sg12_190_cif.got.tgz:378314.got - 2010.06.03 13:09:07.
