data_PCOD9204544
_publ_section_title
;
Structure prediction by ZEFSAII (Michael W. Deem and Ramdas Pophale) SiO2 
 PCOD9204544
Probable space group: C 2/M
;
_chemical_formula_sum "Si O2"
_cell_formula_units_Z 38
_cell_length_a 9.582133
_cell_length_b 29.706645
_cell_length_c 7.409029
_cell_angle_alpha 90.000000
_cell_angle_beta 129.549480
_cell_angle_gamma 90.000000
_cell_volume 1626.199076
_symmetry_space_group_name_H-M "C 2/M"
_symmetry_group_IT_number 12
_symmetry_cell_setting 'monoclinic'
loop_
_space_group_symop_operation_xyz
x,y,z
-x,y,-z
-x,-y,-z
x,-y,z
1/2+x,1/2+y,z
1/2-x,1/2+y,-z
1/2-x,1/2-y,-z
1/2+x,1/2-y,z
loop_
_atom_site_type_symbol
_atom_site_label
_atom_site_fract_x
_atom_site_fract_y
_atom_site_fract_z
Si Si1 0.841335 0.564717 0.726919
Si Si2 0.714869 0.660890 0.708816
Si Si3 0.000000 0.000000 0.500000
Si Si4 0.000000 0.576777 0.500000
Si Si5 0.698615 0.354988 0.119769
Si Si6 0.706739 0.757078 0.747623
O O1 0.804734 0.618671 0.686097
O O2 0.659628 0.539150 0.629512
O O3 0.913775 0.550083 0.592812
O O4 0.000000 0.557158 0.000000
O O5 0.500000 0.660742 0.500000
O O6 0.786555 0.711198 0.725880
O O7 0.732748 0.652620 0.936774
O O8 0.843875 0.609198 0.298888
O O9 0.713187 0.306125 0.227757
O O10 0.500000 0.372812 0.000000
O O11 0.500000 0.758548 0.500000
O O12 0.750000 0.750000 0.000000
#
# Coordination Sequence:
#
# PCOD9204544 Si02
#       6
#     8   8   2   4   8   8
#     4  12  26  50  78 107 143 183 237 295 371 440
#     4  10  20  42  67  99 144 196 241 296 355 419
#     4  12  30  54  80 108 140 180 232 304 372 452
#     4  12  26  45  77 112 144 190 239 295 360 440
#     4  11  22  39  65 107 150 194 248 296 345 418
#     4   9  19  36  59  96 147 198 250 298 348 412
#
# _framework density 23.367370999999999
#
# number of rings (size 3 to 8) (size 9 to 14) (size 15 to 20)
#    0.000    1.263    4.211    1.579    0.000    1.263 
#    3.789    7.368    0.000    0.000    0.000    0.000 
#    0.000    0.000    0.000    0.000    0.000    0.000 
#
# Total GULP energy -106027.664662 kJ/mol
# GULP energy per Si atom -5580.403403 kJ/mol
# Density = 2.331419 g / cm^3
# Si number density = 23.367371 Si / 1000 Ang^3
#
#
#
# Elastic Constant Matrix: (Units=GPa)
#
#
# Indices 1 2 3 4 5 6 
#
# 1 71.9557 25.2670 46.8624 0.0000 22.5526 0.0000
# 2 25.2670 138.5411 32.2072 0.0000 17.6299 0.0000
# 3 46.8624 32.2072 151.8360 0.0000 26.7791 0.0000
# 4 0.0000 0.0000 0.0000 -1.4138 0.0000 30.7564
# 5 22.5526 17.6299 26.7791 0.0000 53.5692 0.0000
# 6 0.0000 0.0000 0.0000 30.7564 0.0000 19.7986
#
#
#
# Elastic Compliance Matrix: (Units=1/GPa)
#
#
# Indices 1 2 3 4 5 6 
#
# 1 0.019148 -0.001759 -0.004625 0.000000 -0.005170 0.000000
# 2 -0.001759 0.007926 -0.000887 0.000000 -0.001425 0.000000
# 3 -0.004625 -0.000887 0.008562 0.000000 -0.002041 0.000000
# 4 0.000000 0.000000 0.000000 -0.020328 0.000000 0.031579
# 5 -0.005170 -0.001425 -0.002041 0.000000 0.022333 0.000000
# 6 0.000000 0.000000 0.000000 0.031579 0.000000 0.001452
#
#
# Mechanical properties :
#
#
# Convention : Reuss Voigt Hill
#
# Bulk Modulus (GPa) = 47.40749 63.44510 55.42630
# Shear Modulus (GPa) = 82.41968 31.59055 57.00512
#
# Velocity S-wave (km/s) = 5.94540 3.68082 4.94451
# Velocity P-wave (km/s) = 8.21355 6.72865 7.50790
#
# Compressibility (1/GPa) = 0.02109371
#
# Stress axis : x y z
#
# Youngs Moduli (GPa) = 52.22613 126.16044 116.80144
#
# Poissons Ratio (x) = 0.22192 0.54016
# Poissons Ratio (y) = 0.09187 0.10362
# Poissons Ratio (z) = 0.24153 0.11193
#
# Static dielectric constant tensor:
#      x y z
#    x 1.816510 0.000000 -0.033700 
#    y 0.000000 1.621280 0.000000 
#    z -0.033700 0.000000 1.853100 
# 
# From -- ./inp_files/54478.got.cif
#   From: 2010.05.17/outbox.cif.g08.bks.cpg/sg12_28_cif.got.tgz:54478.got - 2010.06.03 13:09:07.
