data_PCOD9204239
_publ_section_title
;
Structure prediction by ZEFSAII (Michael W. Deem and Ramdas Pophale) SiO2 
 PCOD9204239
Probable space group: C 2/M
;
_chemical_formula_sum "Si O2"
_cell_formula_units_Z 48
_cell_length_a 14.013939
_cell_length_b 18.159953
_cell_length_c 16.194355
_cell_angle_alpha 90.000000
_cell_angle_beta 33.251987
_cell_angle_gamma 90.000000
_cell_volume 2259.823147
_symmetry_space_group_name_H-M "C 2/M"
_symmetry_group_IT_number 12
_symmetry_cell_setting 'monoclinic'
loop_
_space_group_symop_operation_xyz
x,y,z
-x,y,-z
-x,-y,-z
x,-y,z
1/2+x,1/2+y,z
1/2-x,1/2+y,-z
1/2-x,1/2-y,-z
1/2+x,1/2-y,z
loop_
_atom_site_type_symbol
_atom_site_label
_atom_site_fract_x
_atom_site_fract_y
_atom_site_fract_z
Si Si1 0.692001 0.687048 0.373305
Si Si2 0.257331 0.085670 0.482629
Si Si3 0.595475 0.915227 0.342216
Si Si4 0.583578 0.309750 0.857990
Si Si5 0.932555 0.085635 0.841464
Si Si6 0.792489 0.585205 0.148986
O O1 0.500000 0.720456 0.500000
O O2 0.708936 0.640547 0.444420
O O3 0.837270 0.749318 0.260215
O O4 0.718197 0.632695 0.276990
O O5 0.447286 0.102288 0.382259
O O6 0.114383 0.090598 0.658967
O O7 0.256343 0.000000 0.455099
O O8 0.500000 0.912556 0.500000
O O9 0.757435 0.861116 0.227455
O O10 0.653101 0.000000 0.288052
O O11 0.449235 0.361478 0.906947
O O12 0.500000 0.274737 0.000000
O O13 0.784074 0.108247 0.884061
O O14 0.907207 0.000000 0.883333
O O15 0.736540 0.500000 0.200243
O O16 0.000000 0.587952 0.000000
#
# Coordination Sequence:
#
# PCOD9204239 Si02
#       6
#     8   8   8   8   8   8
#     4  12  25  41  65  94 131 170 219 261 315 377
#     4  10  21  39  69 102 125 157 214 272 319 371
#     4  10  20  40  68  96 127 163 211 268 315 369
#     4  12  27  43  61  92 135 176 213 257 318 385
#     4  10  21  41  69  97 125 165 213 265 321 377
#     4  10  22  42  68  97 132 166 206 264 325 383
#
# _framework density 21.240600000000001
#
# number of rings (size 3 to 8) (size 9 to 14) (size 15 to 20)
#    0.000    1.333    3.333    2.000    0.000    5.333 
#    0.000    5.833    0.000    0.000    0.000    0.000 
#    0.000    0.000    0.000    0.000    0.000    0.000 
#
# Total GULP energy -134291.806292 kJ/mol
# GULP energy per Si atom -5595.491929 kJ/mol
# Density = 2.119226 g / cm^3
# Si number density = 21.240600 Si / 1000 Ang^3
#
#
#
# Elastic Constant Matrix: (Units=GPa)
#
#
# Indices 1 2 3 4 5 6 
#
# 1 85.9192 24.2609 -4.4941 0.0056 -6.2366 -0.0024
# 2 24.2609 40.8495 -5.5329 0.0022 7.6074 0.0516
# 3 -4.4941 -5.5329 22.1200 0.0037 1.4306 0.0438
# 4 0.0056 0.0022 0.0037 15.0708 0.0015 10.1855
# 5 -6.2366 7.6074 1.4306 0.0015 32.5986 -0.0206
# 6 -0.0024 0.0516 0.0438 10.1855 -0.0206 24.5189
#
#
#
# Elastic Compliance Matrix: (Units=1/GPa)
#
#
# Indices 1 2 3 4 5 6 
#
# 1 0.014750 -0.009670 0.000250 -0.000030 0.005068 0.000038
# 2 -0.009670 0.032997 0.006926 0.000083 -0.009854 -0.000125
# 3 0.000250 0.006926 0.047227 0.000079 -0.003641 -0.000135
# 4 -0.000030 0.000083 0.000079 0.092255 -0.000057 -0.038324
# 5 0.005068 -0.009854 -0.003641 -0.000057 0.034105 0.000080
# 6 0.000038 -0.000125 -0.000135 -0.038324 0.000080 0.056706
#
#
# Mechanical properties :
#
#
# Convention : Reuss Voigt Hill
#
# Bulk Modulus (GPa) = 11.11274 19.70627 15.40950
# Shear Modulus (GPa) = 15.97325 23.41465 19.69395
#
# Velocity S-wave (km/s) = 2.74526 3.32377 3.04827
# Velocity P-wave (km/s) = 3.91048 4.90181 4.43394
#
# Compressibility (1/GPa) = 0.08998681
#
# Stress axis : x y z
#
# Youngs Moduli (GPa) = 67.79491 30.30587 21.17432
#
# Poissons Ratio (x) = 0.29307 -0.00530
# Poissons Ratio (y) = 0.65560 -0.14666
# Poissons Ratio (z) = -0.01696 -0.20991
#
# Static dielectric constant tensor:
#      x y z
#    x 1.733110 0.000000 -0.019010 
#    y 0.000000 1.760710 0.000000 
#    z -0.019010 0.000000 1.753970 
# 
# From -- ./inp_files/271587.got.cif
#   From: 2010.05.17/outbox.cif.g08.bks.cpg/sg12_136_cif.got.tgz:271587.got - 2010.06.03 13:09:07.
