data_PCOD9204169
_publ_section_title
;
Structure prediction by ZEFSAII (Michael W. Deem and Ramdas Pophale) SiO2 
 PCOD9204169
Probable space group: C 2/M
;
_chemical_formula_sum "Si O2"
_cell_formula_units_Z 38
_cell_length_a 7.497976
_cell_length_b 22.517072
_cell_length_c 12.403917
_cell_angle_alpha 90.000000
_cell_angle_beta 65.488831
_cell_angle_gamma 90.000000
_cell_volume 1905.456905
_symmetry_space_group_name_H-M "C 2/M"
_symmetry_group_IT_number 12
_symmetry_cell_setting 'monoclinic'
loop_
_space_group_symop_operation_xyz
x,y,z
-x,y,-z
-x,-y,-z
x,-y,z
1/2+x,1/2+y,z
1/2-x,1/2+y,-z
1/2-x,1/2-y,-z
1/2+x,1/2-y,z
loop_
_atom_site_type_symbol
_atom_site_label
_atom_site_fract_x
_atom_site_fract_y
_atom_site_fract_z
Si Si1 0.000000 0.661552 0.000000
Si Si2 0.869509 0.676514 0.639653
Si Si3 0.315212 0.198029 0.261433
Si Si4 0.504357 0.598255 0.689018
Si Si5 0.679158 0.566971 0.036564
Si Si6 0.500000 0.500000 0.500000
O O1 0.894660 0.699065 0.119118
O O2 0.842700 0.617363 0.984713
O O3 0.746269 0.736959 0.684738
O O4 0.718297 0.622590 0.666653
O O5 0.000000 0.680328 0.500000
O O6 0.015759 0.672772 0.703822
O O7 0.129741 0.154323 0.311472
O O8 0.402665 0.571958 0.821443
O O9 0.511966 0.551605 0.591415
O O10 0.755756 0.500000 0.998737
O O11 0.500000 0.577020 0.000000
#
# Coordination Sequence:
#
# PCOD9204169 Si02
#       6
#     4   8   8   8   8   2
#     4  10  23  40  62 100 132 169 214 276 322 386
#     4  12  24  42  66  96 131 176 222 268 325 391
#     4  11  24  42  67  98 132 174 220 269 329 387
#     4  11  24  43  65  98 132 171 221 269 331 383
#     4  10  20  40  66  91 129 174 217 264 323 391
#     4  12  24  44  68  90 132 172 214 272 324 386
#
# _framework density 19.942723000000001
#
# number of rings (size 3 to 8) (size 9 to 14) (size 15 to 20)
#    0.000    1.053    3.158    3.474    1.474    0.842 
#    1.895    4.737    0.000    0.000    0.000    0.000 
#    0.000    0.000    0.000    0.000    0.000    0.000 
#
# Total GULP energy -106006.845892 kJ/mol
# GULP energy per Si atom -5579.307679 kJ/mol
# Density = 1.989733 g / cm^3
# Si number density = 19.942723 Si / 1000 Ang^3
#
#
#
# Elastic Constant Matrix: (Units=GPa)
#
#
# Indices 1 2 3 4 5 6 
#
# 1 69.6278 -13.1891 -6.3880 0.0000 6.4947 0.0000
# 2 -13.1891 26.1056 -9.4159 0.0000 -9.0637 0.0000
# 3 -6.3880 -9.4159 33.2026 0.0000 -0.0612 0.0000
# 4 0.0000 0.0000 0.0000 23.5636 0.0000 66.7070
# 5 6.4947 -9.0637 -0.0612 0.0000 33.5867 0.0000
# 6 0.0000 0.0000 0.0000 66.7070 0.0000 104.2870
#
#
#
# Elastic Compliance Matrix: (Units=1/GPa)
#
#
# Indices 1 2 3 4 5 6 
#
# 1 0.017012 0.010742 0.006319 0.000000 -0.000379 0.000000
# 2 0.010742 0.054448 0.017531 0.000000 0.012648 0.000000
# 3 0.006319 0.017531 0.036312 0.000000 0.003575 0.000000
# 4 0.000000 0.000000 0.000000 -0.052341 0.000000 0.033480
# 5 -0.000379 0.012648 0.003575 0.000000 0.033267 0.000000
# 6 0.000000 0.000000 0.000000 0.033480 0.000000 -0.011826
#
#
# Mechanical properties :
#
#
# Convention : Reuss Voigt Hill
#
# Bulk Modulus (GPa) = 5.65117 7.88334 6.76725
# Shear Modulus (GPa) = 74.99386 42.81606 58.90496
#
# Velocity S-wave (km/s) = 6.13891 4.63855 5.44070
# Velocity P-wave (km/s) = 7.28616 5.71399 6.54744
#
# Compressibility (1/GPa) = 0.17695466
#
# Stress axis : x y z
#
# Youngs Moduli (GPa) = 58.78214 18.36629 27.53919
#
# Poissons Ratio (x) = -0.19729 -0.17401
# Poissons Ratio (y) = -0.63145 -0.48278
# Poissons Ratio (z) = -0.37142 -0.32197
#
# Static dielectric constant tensor:
#      x y z
#    x 1.697070 0.000000 -0.006560 
#    y 0.000000 1.680320 0.000000 
#    z -0.006560 0.000000 1.676050 
# 
# From -- ./inp_files/120092.got.cif
#   From: 2010.05.17/outbox.cif.g08.bks.cpg/sg12_61_cif.got.tgz:120092.got - 2010.06.03 13:09:07.
