data_PCOD9204841
_publ_section_title
;
Structure prediction by ZEFSAII (Michael W. Deem and Ramdas Pophale) SiO2 
 PCOD9204841
Probable space group: C 2/M
;
_chemical_formula_sum "Si O2"
_cell_formula_units_Z 32
_cell_length_a 9.514545
_cell_length_b 16.076938
_cell_length_c 8.184425
_cell_angle_alpha 90.000000
_cell_angle_beta 104.607428
_cell_angle_gamma 90.000000
_cell_volume 1211.461792
_symmetry_space_group_name_H-M "C 2/M"
_symmetry_group_IT_number 12
_symmetry_cell_setting 'monoclinic'
loop_
_space_group_symop_operation_xyz
x,y,z
-x,y,-z
-x,-y,-z
x,-y,z
1/2+x,1/2+y,z
1/2-x,1/2+y,-z
1/2-x,1/2-y,-z
1/2+x,1/2-y,z
loop_
_atom_site_type_symbol
_atom_site_label
_atom_site_fract_x
_atom_site_fract_y
_atom_site_fract_z
Si Si1 0.932818 0.769224 0.300485
Si Si2 0.821193 0.910410 0.425141
Si Si3 0.402015 0.091683 0.131036
Si Si4 0.374815 0.407320 0.794504
O O1 0.023212 0.828978 0.204897
O O2 0.000000 0.756374 0.500000
O O3 0.795095 0.829013 0.308842
O O4 0.926212 0.679010 0.225110
O O5 0.774355 0.902464 0.599666
O O6 0.000000 0.914800 0.500000
O O7 0.773817 0.000000 0.345629
O O8 0.225636 0.094085 0.076156
O O9 0.431078 0.000000 0.217449
O O10 0.500000 0.092588 0.000000
O O11 0.442582 0.500000 0.806821
#
# Coordination Sequence:
#
# PCOD9204841 Si02
#       4
#     8   8   8   8
#     4   9  17  29  51  75  93 115 155 200 234 270
#     4   7  11  22  43  70  91 108 140 186 230 270
#     4  10  21  34  46  65  96 131 161 187 225 280
#     4   8  15  30  51  70  92 124 155 186 231 283
#
# _framework density 26.414369000000001
#
# number of rings (size 3 to 8) (size 9 to 14) (size 15 to 20)
#    0.000    4.000    0.000    2.250    0.000    6.000 
#    0.000    0.000    0.000    6.000    0.000    0.000 
#    0.000    0.000    0.000    0.000    0.000    0.000 
#
# Total GULP energy -89088.125466 kJ/mol
# GULP energy per Si atom -5568.007842 kJ/mol
# Density = 2.635425 g / cm^3
# Si number density = 26.414369 Si / 1000 Ang^3
#
#
#
# Elastic Constant Matrix: (Units=GPa)
#
#
# Indices 1 2 3 4 5 6 
#
# 1 55.2940 43.7375 39.3310 0.0000 -16.2627 0.0000
# 2 43.7375 338.0430 83.8779 0.0000 0.7510 0.0000
# 3 39.3310 83.8779 124.8751 0.0000 -34.6706 0.0000
# 4 0.0000 0.0000 0.0000 15.5446 0.0000 -2.6080
# 5 -16.2627 0.7510 -34.6706 0.0000 28.0480 0.0000
# 6 0.0000 0.0000 0.0000 -2.6080 0.0000 15.2611
#
#
#
# Elastic Compliance Matrix: (Units=1/GPa)
#
#
# Indices 1 2 3 4 5 6 
#
# 1 0.025641 -0.002488 -0.003439 0.000000 0.010683 0.000000
# 2 -0.002488 0.004236 -0.003797 0.000000 -0.006249 0.000000
# 3 -0.003439 -0.003797 0.016924 0.000000 0.019028 0.000000
# 4 0.000000 0.000000 0.000000 0.066230 0.000000 0.011318
# 5 0.010683 -0.006249 0.019028 0.000000 0.065536 0.000000
# 6 0.000000 0.000000 0.000000 0.011318 0.000000 0.067460
#
#
# Mechanical properties :
#
#
# Convention : Reuss Voigt Hill
#
# Bulk Modulus (GPa) = 36.55680 94.67829 65.61755
# Shear Modulus (GPa) = 18.20873 35.18846 26.69860
#
# Velocity S-wave (km/s) = 2.62839 3.65385 3.18269
# Velocity P-wave (km/s) = 4.80428 7.32954 6.19690
#
# Compressibility (1/GPa) = 0.02735469
#
# Stress axis : x y z
#
# Youngs Moduli (GPa) = 38.99965 236.06642 59.08609
#
# Poissons Ratio (x) = 0.58735 0.20318
# Poissons Ratio (y) = 0.09703 0.22434
# Poissons Ratio (z) = 0.13411 0.89629
#
# Static dielectric constant tensor:
#      x y z
#    x 2.260600 0.000000 0.038080 
#    y 0.000000 2.139550 0.000000 
#    z 0.038080 0.000000 2.173220 
# 
# From -- ./inp_files/141287.got.cif
#   From: 2010.05.17/outbox.cif.g08.bks.cpg/sg12_71_cif.got.tgz:141287.got - 2010.06.03 13:09:07.
