data_PCOD9204889
_publ_section_title
;
Structure prediction by ZEFSAII (Michael W. Deem and Ramdas Pophale) SiO2 
 PCOD9204889
Probable space group: C 2/M
;
_chemical_formula_sum "Si O2"
_cell_formula_units_Z 32
_cell_length_a 13.583949
_cell_length_b 17.802294
_cell_length_c 15.247219
_cell_angle_alpha 90.000000
_cell_angle_beta 27.666606
_cell_angle_gamma 90.000000
_cell_volume 1712.046614
_symmetry_space_group_name_H-M "C 2/M"
_symmetry_group_IT_number 12
_symmetry_cell_setting 'monoclinic'
loop_
_space_group_symop_operation_xyz
x,y,z
-x,y,-z
-x,-y,-z
x,-y,z
1/2+x,1/2+y,z
1/2-x,1/2+y,-z
1/2-x,1/2-y,-z
1/2+x,1/2-y,z
loop_
_atom_site_type_symbol
_atom_site_label
_atom_site_fract_x
_atom_site_fract_y
_atom_site_fract_z
Si Si1 0.886028 0.843851 0.313207
Si Si2 0.676540 0.500000 0.722547
Si Si3 0.304226 0.658122 0.087452
Si Si4 0.298265 0.000000 0.820859
Si Si5 0.017507 0.221648 0.585308
O O1 0.946070 0.839299 0.367731
O O2 0.714460 0.779421 0.430950
O O3 0.799497 0.924580 0.351505
O O4 0.086428 0.827021 0.091995
O O5 0.807974 0.500000 0.708047
O O6 0.434915 0.500000 0.949656
O O7 0.145154 0.586620 0.201998
O O8 0.181462 0.727559 0.226826
O O9 0.500000 0.638904 0.000000
O O10 0.000000 0.192992 0.500000
#
# Coordination Sequence:
#
# PCOD9204889 Si02
#       5
#     8   4   8   4   8
#     4  10  21  34  50  74  99 128 163 200 242 288
#     4   9  14  31  49  70  97 125 158 199 242 287
#     4  11  17  32  51  75 100 128 154 197 252 288
#     4   9  14  27  52  73  98 122 154 199 245 295
#     4  11  21  33  50  73 101 129 164 200 235 288
#
# _framework density 18.691078999999998
#
# number of rings (size 3 to 8) (size 9 to 14) (size 15 to 20)
#    0.000    1.750    7.500    0.750    0.000    1.000 
#    0.000    3.125    0.000    0.000    0.000    0.875 
#    0.000    0.000    0.000    0.000    0.000    0.000 
#
# Total GULP energy -89145.742681 kJ/mol
# GULP energy per Si atom -5571.608918 kJ/mol
# Density = 1.864854 g / cm^3
# Si number density = 18.691079 Si / 1000 Ang^3
#
#
#
# Elastic Constant Matrix: (Units=GPa)
#
#
# Indices 1 2 3 4 5 6 
#
# 1 91.7161 18.1292 37.4323 0.0001 43.0395 -0.0120
# 2 18.1292 55.3759 25.0768 0.0268 18.4237 -0.0746
# 3 37.4323 25.0768 112.0457 0.0040 29.2839 -0.0379
# 4 0.0001 0.0268 0.0040 23.4380 -0.0250 7.5191
# 5 43.0395 18.4237 29.2839 -0.0250 35.7802 0.0696
# 6 -0.0120 -0.0746 -0.0379 7.5191 0.0696 56.1083
#
#
#
# Elastic Compliance Matrix: (Units=1/GPa)
#
#
# Indices 1 2 3 4 5 6 
#
# 1 0.025330 0.002424 -0.000910 -0.000053 -0.030973 0.000054
# 2 0.002424 0.022576 -0.002623 -0.000055 -0.012394 0.000052
# 3 -0.000910 -0.002623 0.011674 -0.000011 -0.007109 0.000015
# 4 -0.000053 -0.000055 -0.000011 0.044583 0.000144 -0.005975
# 5 -0.030973 -0.012394 -0.007109 0.000144 0.077406 -0.000143
# 6 0.000054 0.000052 0.000015 -0.005975 -0.000143 0.018624
#
#
# Mechanical properties :
#
#
# Convention : Reuss Voigt Hill
#
# Bulk Modulus (GPa) = 17.43310 46.71272 32.07291
# Shear Modulus (GPa) = 22.57016 34.96523 28.76770
#
# Velocity S-wave (km/s) = 3.47873 4.32984 3.92741
# Velocity P-wave (km/s) = 5.04803 7.07410 6.14514
#
# Compressibility (1/GPa) = 0.05736214
#
# Stress axis : x y z
#
# Youngs Moduli (GPa) = 39.47905 44.29420 85.65959
#
# Poissons Ratio (x) = -0.10738 0.07794
# Poissons Ratio (y) = -0.09570 0.22472
# Poissons Ratio (z) = 0.03592 0.11620
#
# Static dielectric constant tensor:
#      x y z
#    x 1.670970 0.000000 -0.037040 
#    y 0.000000 1.692660 0.000000 
#    z -0.037040 0.000000 1.702960 
# 
# From -- ./inp_files/47611.got.cif
#   From: 2010.05.17/outbox.cif.g08.bks.cpg/sg12_24_cif.got.tgz:47611.got - 2010.06.03 13:09:07.
