data_PCOD9204567
_publ_section_title
;
Structure prediction by ZEFSAII (Michael W. Deem and Ramdas Pophale) SiO2 
 PCOD9204567
Probable space group: C 2/M
;
_chemical_formula_sum "Si O2"
_cell_formula_units_Z 64
_cell_length_a 12.422399
_cell_length_b 31.148634
_cell_length_c 19.296669
_cell_angle_alpha 90.000000
_cell_angle_beta 26.125421
_cell_angle_gamma 90.000000
_cell_volume 3287.854292
_symmetry_space_group_name_H-M "C 2/M"
_symmetry_group_IT_number 12
_symmetry_cell_setting 'monoclinic'
loop_
_space_group_symop_operation_xyz
x,y,z
-x,y,-z
-x,-y,-z
x,-y,z
1/2+x,1/2+y,z
1/2-x,1/2+y,-z
1/2-x,1/2-y,-z
1/2+x,1/2-y,z
loop_
_atom_site_type_symbol
_atom_site_label
_atom_site_fract_x
_atom_site_fract_y
_atom_site_fract_z
Si Si1 0.068767 0.109136 0.133285
Si Si2 0.273380 0.450872 0.077456
Si Si3 0.513166 0.628880 0.669366
Si Si4 0.421239 0.841439 0.169668
Si Si5 0.828463 0.162803 0.161130
Si Si6 0.739983 0.220091 0.439355
Si Si7 0.330145 0.741953 0.240437
Si Si8 0.601406 0.876808 0.666095
O O1 0.998175 0.102016 0.253441
O O2 0.856045 0.132501 0.212132
O O3 0.143122 0.068030 0.045099
O O4 0.300837 0.142001 0.997905
O O5 0.189789 0.500000 0.120182
O O6 0.066187 0.418346 0.223953
O O7 0.500000 0.450010 0.000000
O O8 0.246027 0.637727 0.792760
O O9 0.641730 0.673942 0.615744
O O10 0.674009 0.611637 0.512862
O O11 0.377769 0.790403 0.190715
O O12 0.334241 0.856687 0.296558
O O13 0.936323 0.208338 0.124104
O O14 0.563201 0.158173 0.280420
O O15 0.000000 0.146692 0.000000
O O16 0.750000 0.250000 0.500000
O O17 0.891994 0.238321 0.285848
O O18 0.447874 0.223409 0.596678
#
# Coordination Sequence:
#
# PCOD9204567 Si02
#       8
#     8   8   8   8   8   8   8   8
#     4  11  23  42  61  91 126 157 207 255 322 373
#     4  10  20  42  74  99 123 155 196 248 316 396
#     4  12  23  38  61  87 125 172 208 257 313 365
#     4  11  24  40  58  83 124 176 222 251 300 366
#     4  12  21  39  58  84 119 165 208 261 312 358
#     4  11  21  36  53  79 117 160 214 269 307 349
#     4  11  24  34  55  83 117 163 223 269 303 344
#     4  11  22  40  65  91 123 161 205 256 312 375
#
# _framework density 19.465582999999999
#
# number of rings (size 3 to 8) (size 9 to 14) (size 15 to 20)
#    0.000    0.875    7.500    1.500    1.750    2.000 
#    0.000    0.625    0.000   13.500    0.000    0.000 
#    0.000    0.000    0.000    0.000    0.000    0.000 
#
# Total GULP energy -178523.080709 kJ/mol
# GULP energy per Si atom -5578.846272 kJ/mol
# Density = 1.942128 g / cm^3
# Si number density = 19.465583 Si / 1000 Ang^3
#
#
#
# Elastic Constant Matrix: (Units=GPa)
#
#
# Indices 1 2 3 4 5 6 
#
# 1 82.6710 15.8338 5.7367 0.0006 18.3597 0.0094
# 2 15.8338 104.2513 1.5371 0.0024 8.9291 -0.0031
# 3 5.7367 1.5371 37.5845 -0.0080 12.6832 0.0157
# 4 0.0006 0.0024 -0.0080 5.9315 0.0117 7.3091
# 5 18.3597 8.9291 12.6832 0.0117 35.0525 -0.0271
# 6 0.0094 -0.0031 0.0157 7.3091 -0.0271 18.2600
#
#
#
# Elastic Compliance Matrix: (Units=1/GPa)
#
#
# Indices 1 2 3 4 5 6 
#
# 1 0.013924 -0.001518 0.000305 0.000071 -0.007017 -0.000046
# 2 -0.001518 0.009980 0.000471 0.000003 -0.001917 -0.000002
# 3 0.000305 0.000471 0.030340 0.000229 -0.011258 -0.000135
# 4 0.000071 0.000003 0.000229 0.332696 -0.000335 -0.133172
# 5 -0.007017 -0.001917 -0.011258 -0.000335 0.036766 0.000202
# 6 -0.000046 -0.000002 -0.000135 -0.133172 0.000202 0.108071
#
#
# Mechanical properties :
#
#
# Convention : Reuss Voigt Hill
#
# Bulk Modulus (GPa) = 18.95442 30.08020 24.51731
# Shear Modulus (GPa) = 9.07689 25.27540 17.17615
#
# Velocity S-wave (km/s) = 2.16175 3.60733 2.97372
# Velocity P-wave (km/s) = 3.99868 5.73036 4.94098
#
# Compressibility (1/GPa) = 0.05275813
#
# Stress axis : x y z
#
# Youngs Moduli (GPa) = 71.81816 100.19949 32.95968
#
# Poissons Ratio (x) = 0.15213 -0.01004
# Poissons Ratio (y) = 0.10904 -0.01551
# Poissons Ratio (z) = -0.02188 -0.04715
#
# Static dielectric constant tensor:
#      x y z
#    x 1.724750 -0.000010 0.025400 
#    y -0.000010 1.653560 0.000000 
#    z 0.025400 0.000000 1.725070 
# 
# From -- ./inp_files/266275.got.cif
#   From: 2010.05.17/outbox.cif.g08.bks.cpg/sg12_134_cif.got.tgz:266275.got - 2010.06.03 13:09:07.
