data_PCOD9204638
_publ_section_title
;
Structure prediction by ZEFSAII (Michael W. Deem and Ramdas Pophale) SiO2 
 PCOD9204638
Probable space group: C 2/M
;
_chemical_formula_sum "Si O2"
_cell_formula_units_Z 56
_cell_length_a 13.447525
_cell_length_b 25.389048
_cell_length_c 22.650366
_cell_angle_alpha 90.000000
_cell_angle_beta 21.501680
_cell_angle_gamma 90.000000
_cell_volume 2834.469315
_symmetry_space_group_name_H-M "C 2/M"
_symmetry_group_IT_number 12
_symmetry_cell_setting 'monoclinic'
loop_
_space_group_symop_operation_xyz
x,y,z
-x,y,-z
-x,-y,-z
x,-y,z
1/2+x,1/2+y,z
1/2-x,1/2+y,-z
1/2-x,1/2-y,-z
1/2+x,1/2-y,z
loop_
_atom_site_type_symbol
_atom_site_label
_atom_site_fract_x
_atom_site_fract_y
_atom_site_fract_z
Si Si1 0.319428 0.664513 0.919743
Si Si2 0.979714 0.559587 0.409226
Si Si3 0.159585 0.657418 0.583195
Si Si4 0.198831 0.254731 0.169376
Si Si5 0.269516 0.309364 0.724870
Si Si6 0.885644 0.699108 0.624084
Si Si7 0.052400 0.939852 0.749237
O O1 0.333959 0.712921 0.865241
O O2 0.599038 0.673472 0.801033
O O3 0.346743 0.608198 0.872614
O O4 0.035213 0.669206 0.110462
O O5 0.969840 0.500000 0.392321
O O6 0.973943 0.601791 0.359974
O O7 0.721124 0.568100 0.595535
O O8 0.233210 0.562993 0.314581
O O9 0.476940 0.651784 0.421344
O O10 0.011214 0.697209 0.709982
O O11 0.111769 0.688724 0.547852
O O12 0.203277 0.218888 0.225988
O O13 0.500000 0.278421 0.000000
O O14 0.326535 0.260485 0.650790
O O15 0.000000 0.676680 0.500000
O O16 0.944189 0.000000 0.808494
#
# Coordination Sequence:
#
# PCOD9204638 Si02
#       7
#     8   8   8   8   8   8   8
#     4  11  19  32  49  71 102 134 163 203 241 288
#     4   9  17  30  50  73  95 125 168 208 241 283
#     4  11  19  33  50  71 100 133 165 199 249 296
#     4   9  19  32  48  70 101 134 162 201 247 291
#     4  10  21  31  44  70 103 132 160 195 251 299
#     4  11  19  30  49  70  95 131 170 201 237 294
#     4   9  17  30  49  73  98 128 165 203 242 284
#
# _framework density 19.756784
#
# number of rings (size 3 to 8) (size 9 to 14) (size 15 to 20)
#    0.000    2.000    1.429    6.429    0.000    0.000 
#    0.000    0.714    0.000    6.000    0.000    0.000 
#    0.000    2.571    0.000    0.714    0.000    0.571 
#
# Total GULP energy -156189.989250 kJ/mol
# GULP energy per Si atom -5578.213902 kJ/mol
# Density = 1.971182 g / cm^3
# Si number density = 19.756784 Si / 1000 Ang^3
#
#
#
# Elastic Constant Matrix: (Units=GPa)
#
#
# Indices 1 2 3 4 5 6 
#
# 1 28.0461 15.2519 18.4981 0.2105 -7.6114 0.1745
# 2 15.2519 130.0290 34.7017 0.6633 -1.1417 -0.0808
# 3 18.4981 34.7017 100.0904 0.4868 -22.7028 -0.0538
# 4 0.2105 0.6633 0.4868 9.3041 -0.1435 0.9206
# 5 -7.6114 -1.1417 -22.7028 -0.1435 20.8397 -0.0343
# 6 0.1745 -0.0808 -0.0538 0.9206 -0.0343 27.2000
#
#
#
# Elastic Compliance Matrix: (Units=1/GPa)
#
#
# Indices 1 2 3 4 5 6 
#
# 1 0.043554 -0.003897 -0.004167 -0.000290 0.011151 -0.000275
# 2 -0.003897 0.009038 -0.003483 -0.000452 -0.004726 0.000054
# 3 -0.004167 -0.003483 0.015382 -0.000237 0.015043 0.000074
# 4 -0.000290 -0.000452 -0.000237 0.107898 0.000348 -0.003652
# 5 0.011151 -0.004726 0.015043 0.000348 0.068189 0.000018
# 6 -0.000275 0.000054 0.000074 -0.003652 0.000018 0.036890
#
#
# Mechanical properties :
#
#
# Convention : Reuss Voigt Hill
#
# Bulk Modulus (GPa) = 22.28234 43.89654 33.08944
# Shear Modulus (GPa) = 15.67367 24.11635 19.89501
#
# Velocity S-wave (km/s) = 2.81967 3.49759 3.17676
# Velocity P-wave (km/s) = 4.68012 6.21108 5.49914
#
# Compressibility (1/GPa) = 0.04487860
#
# Stress axis : x y z
#
# Youngs Moduli (GPa) = 22.96004 110.64294 65.01136
#
# Poissons Ratio (x) = 0.43121 0.27093
# Poissons Ratio (y) = 0.08948 0.22643
# Poissons Ratio (z) = 0.09569 0.38536
#
# Static dielectric constant tensor:
#      x y z
#    x 1.749320 -0.000080 -0.009340 
#    y -0.000080 1.719250 0.000270 
#    z -0.009340 0.000270 1.724220 
# 
# From -- ./inp_files/341574.got.cif
#   From: 2010.05.17/outbox.cif.g08.bks.cpg/sg12_171_cif.got.tgz:341574.got - 2010.06.03 13:09:07.
