data_PCOD9204619
_publ_section_title
;
Structure prediction by ZEFSAII (Michael W. Deem and Ramdas Pophale) SiO2 
 PCOD9204619
Probable space group: C 2/M
;
_chemical_formula_sum "Si O2"
_cell_formula_units_Z 34
_cell_length_a 10.121973
_cell_length_b 24.669554
_cell_length_c 10.438906
_cell_angle_alpha 90.000000
_cell_angle_beta 144.700291
_cell_angle_gamma 90.000000
_cell_volume 1506.257394
_symmetry_space_group_name_H-M "C 2/M"
_symmetry_group_IT_number 12
_symmetry_cell_setting 'monoclinic'
loop_
_space_group_symop_operation_xyz
x,y,z
-x,y,-z
-x,-y,-z
x,-y,z
1/2+x,1/2+y,z
1/2-x,1/2+y,-z
1/2-x,1/2-y,-z
1/2+x,1/2-y,z
loop_
_atom_site_type_symbol
_atom_site_label
_atom_site_fract_x
_atom_site_fract_y
_atom_site_fract_z
Si Si1 0.225871 0.798264 0.878506
Si Si2 0.408905 0.907988 0.142038
Si Si3 0.000000 0.747862 0.500000
Si Si4 0.500000 0.000000 0.000000
Si Si5 0.500000 0.605204 0.000000
Si Si6 0.752192 0.342783 0.433907
O O1 0.232678 0.775616 0.739057
O O2 0.965143 0.820950 0.662960
O O3 0.250000 0.750000 0.000000
O O4 0.358897 0.851121 0.029888
O O5 0.621997 0.893482 0.402351
O O6 0.185783 0.922601 0.052740
O O7 0.462889 0.952987 0.081290
O O8 0.922876 0.706714 0.550370
O O9 0.654622 0.640585 0.217935
#
# Coordination Sequence:
#
# PCOD9204619 Si02
#       6
#     8   8   4   2   4   8
#     4  11  24  38  65 109 147 189 238 299 374 455
#     4  11  25  48  70 102 144 195 250 305 372 438
#     4  12  20  36  66 104 142 190 226 296 370 442
#     4  12  32  50  74 102 148 204 248 318 370 434
#     4  10  20  45  77 100 133 184 246 309 352 448
#     4  11  21  42  68 103 145 186 242 301 369 444
#
# _framework density 22.572505
#
# number of rings (size 3 to 8) (size 9 to 14) (size 15 to 20)
#    0.000    0.941    4.706    2.118    3.294    0.471 
#    0.000   11.765    0.000    0.000    0.000    0.000 
#    0.000    0.000    0.000    0.000    0.000    0.000 
#
# Total GULP energy -94651.958695 kJ/mol
# GULP energy per Si atom -5567.762276 kJ/mol
# Density = 2.252113 g / cm^3
# Si number density = 22.572505 Si / 1000 Ang^3
#
#
#
# Elastic Constant Matrix: (Units=GPa)
#
#
# Indices 1 2 3 4 5 6 
#
# 1 88.4493 46.2289 35.0064 0.0000 -11.7840 0.0000
# 2 46.2289 145.9292 58.6551 0.0000 -24.4466 0.0000
# 3 35.0064 58.6551 138.4115 0.0000 -29.3724 0.0000
# 4 0.0000 0.0000 0.0000 0.7035 0.0000 -20.4110
# 5 -11.7840 -24.4466 -29.3724 0.0000 44.0709 0.0000
# 6 0.0000 0.0000 0.0000 -20.4110 0.0000 43.5202
#
#
#
# Elastic Compliance Matrix: (Units=1/GPa)
#
#
# Indices 1 2 3 4 5 6 
#
# 1 0.014003 -0.003584 -0.001922 0.000000 0.000475 0.000000
# 2 -0.003584 0.009445 -0.002548 0.000000 0.002583 0.000000
# 3 -0.001922 -0.002548 0.009762 0.000000 0.004579 0.000000
# 4 0.000000 0.000000 0.000000 -0.112748 0.000000 -0.052879
# 5 0.000475 0.002583 0.004579 0.000000 0.027302 0.000000
# 6 0.000000 0.000000 0.000000 -0.052879 0.000000 -0.001822
#
#
# Mechanical properties :
#
#
# Convention : Reuss Voigt Hill
#
# Bulk Modulus (GPa) = 58.47056 72.50789 65.48922
# Shear Modulus (GPa) = -155.04233 33.18555 -60.92839
#
# Velocity S-wave (km/s) = -8.29671 3.83845 -5.20105
# Velocity P-wave (km/s) = 8.11301 7.19978 2.64425
#
# Compressibility (1/GPa) = 0.01710262
#
# Stress axis : x y z
#
# Youngs Moduli (GPa) = 71.41297 105.87878 102.43345
#
# Poissons Ratio (x) = 0.37946 0.19687
# Poissons Ratio (y) = 0.25594 0.26100
# Poissons Ratio (z) = 0.13725 0.26977
#
# Static dielectric constant tensor:
#      x y z
#    x 2.030890 0.000000 -0.051640 
#    y 0.000000 1.841600 0.000000 
#    z -0.051640 0.000000 1.925420 
# 
# From -- ./inp_files/136166.got.cif
#   From: 2010.05.17/outbox.cif.g08.bks.cpg/sg12_69_cif.got.tgz:136166.got - 2010.06.03 13:09:07.
