data_PCOD9204156
_publ_section_title
;
Structure prediction by ZEFSAII (Michael W. Deem and Ramdas Pophale) SiO2 
 PCOD9204156
Probable space group: C 2/M
;
_chemical_formula_sum "Si O2"
_cell_formula_units_Z 50
_cell_length_a 14.796140
_cell_length_b 27.150567
_cell_length_c 6.890428
_cell_angle_alpha 90.000000
_cell_angle_beta 107.683095
_cell_angle_gamma 90.000000
_cell_volume 2637.260399
_symmetry_space_group_name_H-M "C 2/M"
_symmetry_group_IT_number 12
_symmetry_cell_setting 'monoclinic'
loop_
_space_group_symop_operation_xyz
x,y,z
-x,y,-z
-x,-y,-z
x,-y,z
1/2+x,1/2+y,z
1/2-x,1/2+y,-z
1/2-x,1/2-y,-z
1/2+x,1/2-y,z
loop_
_atom_site_type_symbol
_atom_site_label
_atom_site_fract_x
_atom_site_fract_y
_atom_site_fract_z
Si Si1 0.076865 0.180732 0.384793
Si Si2 0.500000 0.000000 0.500000
Si Si3 0.258174 0.136976 0.720678
Si Si4 0.500000 0.838569 0.500000
Si Si5 0.351374 0.914385 0.415174
Si Si6 0.694625 0.558019 0.002072
Si Si7 0.589595 0.781935 0.200682
Si Si8 0.500000 0.392202 0.000000
O O1 0.163292 0.157435 0.559515
O O2 0.115228 0.226727 0.283480
O O3 0.031252 0.142299 0.201788
O O4 0.000000 0.195314 0.500000
O O5 0.577182 0.042215 0.493973
O O6 0.313397 0.108264 0.588238
O O7 0.230650 0.097179 0.865277
O O8 0.325278 0.183470 0.822533
O O9 0.416834 0.872723 0.356070
O O10 0.549971 0.807089 0.369016
O O11 0.266358 0.933576 0.227532
O O12 0.697332 0.500000 0.946360
O O13 0.589315 0.574567 0.995569
O O14 0.500000 0.779110 0.000000
#
# Coordination Sequence:
#
# PCOD9204156 Si02
#       8
#     8   2   8   4   8   8   8   4
#     4  12  23  44  67  96 134 173 218 271 333 396
#     4  10  20  40  66  90 118 178 208 254 334 386
#     4  11  25  42  66  99 134 168 223 277 323 390
#     4   9  20  37  60  90 130 174 205 258 319 384
#     4  10  21  40  63  88 132 167 214 264 321 385
#     4  12  25  43  67  97 127 175 223 277 327 385
#     4  11  22  40  66  99 132 172 215 264 328 399
#     4  12  25  46  66  94 132 172 221 284 326 392
#
# _framework density 18.959067000000001
#
# number of rings (size 3 to 8) (size 9 to 14) (size 15 to 20)
#    0.000    0.960    5.600    1.680    1.120    0.000 
#    0.000    3.200    0.000    0.000    0.000    0.000 
#    0.000    0.000    0.000    0.000    0.000    0.000 
#
# Total GULP energy -139239.290403 kJ/mol
# GULP energy per Si atom -5569.571616 kJ/mol
# Density = 1.891592 g / cm^3
# Si number density = 18.959067 Si / 1000 Ang^3
#
#
#
# Elastic Constant Matrix: (Units=GPa)
#
#
# Indices 1 2 3 4 5 6 
#
# 1 101.7017 37.3346 14.6652 0.0000 -0.8068 0.0000
# 2 37.3346 112.9582 27.6308 0.0000 -1.7373 0.0000
# 3 14.6652 27.6308 54.6029 0.0000 0.7533 0.0000
# 4 0.0000 0.0000 0.0000 46.9815 0.0000 2.0914
# 5 -0.8068 -1.7373 0.7533 0.0000 12.4212 0.0000
# 6 0.0000 0.0000 0.0000 2.0914 0.0000 32.3343
#
#
#
# Elastic Compliance Matrix: (Units=1/GPa)
#
#
# Indices 1 2 3 4 5 6 
#
# 1 0.011273 -0.003400 -0.001312 0.000000 0.000336 0.000000
# 2 -0.003400 0.011166 -0.004760 0.000000 0.001630 0.000000
# 3 -0.001312 -0.004760 0.021103 0.000000 -0.002031 0.000000
# 4 0.000000 0.000000 0.000000 0.021346 0.000000 -0.001381
# 5 0.000336 0.001630 -0.002031 0.000000 0.080880 0.000000
# 6 0.000000 0.000000 0.000000 -0.001381 0.000000 0.031016
#
#
# Mechanical properties :
#
#
# Convention : Reuss Voigt Hill
#
# Bulk Modulus (GPa) = 40.65225 47.61378 44.13301
# Shear Modulus (GPa) = 24.51866 30.98954 27.75410
#
# Velocity S-wave (km/s) = 3.60007 4.04734 3.83024
# Velocity P-wave (km/s) = 6.22650 6.85637 6.54901
#
# Compressibility (1/GPa) = 0.02459888
#
# Stress axis : x y z
#
# Youngs Moduli (GPa) = 88.71118 89.55908 47.38676
#
# Poissons Ratio (x) = 0.30447 0.06216
# Poissons Ratio (y) = 0.30159 0.22554
# Poissons Ratio (z) = 0.11638 0.42627
#
# Static dielectric constant tensor:
#      x y z
#    x 1.622470 0.000000 0.027310 
#    y 0.000000 1.669250 0.000000 
#    z 0.027310 0.000000 1.666020 
# 
# From -- ./inp_files/13218.got.cif
#   From: 2010.05.17/outbox.cif.g08.bks.cpg/sg12_7_cif.got.tgz:13218.got - 2010.06.03 13:09:07.
