data_PCOD9204008
_publ_section_title
;
Structure prediction by ZEFSAII (Michael W. Deem and Ramdas Pophale) SiO2 
 PCOD9204008
Probable space group: C 2/M
;
_chemical_formula_sum "Si O2"
_cell_formula_units_Z 36
_cell_length_a 26.216509
_cell_length_b 11.806548
_cell_length_c 5.036589
_cell_angle_alpha 90.000000
_cell_angle_beta 57.011833
_cell_angle_gamma 90.000000
_cell_volume 1307.627202
_symmetry_space_group_name_H-M "C 2/M"
_symmetry_group_IT_number 12
_symmetry_cell_setting 'monoclinic'
loop_
_space_group_symop_operation_xyz
x,y,z
-x,y,-z
-x,-y,-z
x,-y,z
1/2+x,1/2+y,z
1/2-x,1/2+y,-z
1/2-x,1/2-y,-z
1/2+x,1/2-y,z
loop_
_atom_site_type_symbol
_atom_site_label
_atom_site_fract_x
_atom_site_fract_y
_atom_site_fract_z
Si Si1 0.581132 0.871814 0.900942
Si Si2 0.812594 0.656592 0.006744
Si Si3 0.500000 0.245985 0.500000
Si Si4 0.569257 0.629779 0.682791
Si Si5 0.734358 0.616764 0.741874
O O1 0.626687 0.881339 0.025032
O O2 0.598426 0.748631 0.714936
O O3 0.581537 0.000000 0.779373
O O4 0.516946 0.838938 0.216246
O O5 0.759017 0.630243 0.374324
O O6 0.808907 0.790431 0.018107
O O7 0.792642 0.616326 0.774425
O O8 0.445740 0.330439 0.574849
O O9 0.593912 0.500000 0.638757
O O10 0.500000 0.624068 0.000000
O O11 0.700972 0.500000 0.853908
#
# Coordination Sequence:
#
# PCOD9204008 Si02
#       5
#     8   8   4   8   8
#     4  11  23  38  60  92 126 165 207 257 315 378
#     4  10  23  38  63  93 124 166 209 255 319 377
#     4  10  22  38  62  88 122 164 210 260 308 374
#     4   9  20  39  60  82 115 158 207 259 312 365
#     4  10  20  40  63  89 124 162 208 263 314 374
#
# _framework density 27.530785000000002
#
# number of rings (size 3 to 8) (size 9 to 14) (size 15 to 20)
#    0.000    2.000    0.000    2.667    3.111    6.667 
#    0.000    0.000    0.000    0.000    0.000    0.000 
#    0.000    0.000    0.000    0.000    0.000    0.000 
#
# Total GULP energy -100388.798565 kJ/mol
# GULP energy per Si atom -5577.155476 kJ/mol
# Density = 2.746812 g / cm^3
# Si number density = 27.530785 Si / 1000 Ang^3
#
#
#
# Elastic Constant Matrix: (Units=GPa)
#
#
# Indices 1 2 3 4 5 6 
#
# 1 78.8881 38.3063 11.3657 0.0000 19.4362 0.0000
# 2 38.3063 291.9902 26.8729 0.0000 3.0798 0.0000
# 3 11.3657 26.8729 93.6784 0.0000 13.7894 0.0000
# 4 0.0000 0.0000 0.0000 -14.2068 0.0000 -21.4753
# 5 19.4362 3.0798 13.7894 0.0000 45.5994 0.0000
# 6 0.0000 0.0000 0.0000 -21.4753 0.0000 -47.2467
#
#
#
# Elastic Compliance Matrix: (Units=1/GPa)
#
#
# Indices 1 2 3 4 5 6 
#
# 1 0.015184 -0.001891 -0.000383 0.000000 -0.006229 0.000000
# 2 -0.001891 0.003753 -0.000972 0.000000 0.000846 0.000000
# 3 -0.000383 -0.000972 0.011477 0.000000 -0.003242 0.000000
# 4 0.000000 0.000000 0.000000 -0.224945 0.000000 0.102246
# 5 -0.006229 0.000846 -0.003242 0.000000 0.025508 0.000000
# 6 0.000000 0.000000 0.000000 0.102246 0.000000 -0.067640
#
#
# Mechanical properties :
#
#
# Convention : Reuss Voigt Hill
#
# Bulk Modulus (GPa) = 41.80060 68.62738 55.21399
# Shear Modulus (GPa) = -22.50265 22.69664 0.09699
#
# Velocity S-wave (km/s) = -2.86206 2.87437 0.18790
# Velocity P-wave (km/s) = 2.07228 5.99980 4.48843
#
# Compressibility (1/GPa) = 0.02392310
#
# Stress axis : x y z
#
# Youngs Moduli (GPa) = 65.85799 266.42652 87.12869
#
# Poissons Ratio (x) = 0.50383 0.03336
# Poissons Ratio (y) = 0.12454 0.08468
# Poissons Ratio (z) = 0.02522 0.25893
#
# Static dielectric constant tensor:
#      x y z
#    x 2.213640 0.000000 0.015640 
#    y 0.000000 2.201970 0.000000 
#    z 0.015640 0.000000 2.190810 
# 
# From -- ./inp_files/30565.got.cif
#   From: 2010.05.17/outbox.cif.g08.bks.cpg/sg12_16_cif.got.tgz:30565.got - 2010.06.03 13:09:07.
