data_PCOD9204229
_publ_section_title
;
Structure prediction by ZEFSAII (Michael W. Deem and Ramdas Pophale) SiO2 
 PCOD9204229
Probable space group: C 2/M
;
_chemical_formula_sum "Si O2"
_cell_formula_units_Z 40
_cell_length_a 20.806806
_cell_length_b 9.901545
_cell_length_c 8.706282
_cell_angle_alpha 90.000000
_cell_angle_beta 76.012751
_cell_angle_gamma 90.000000
_cell_volume 1740.481127
_symmetry_space_group_name_H-M "C 2/M"
_symmetry_group_IT_number 12
_symmetry_cell_setting 'monoclinic'
loop_
_space_group_symop_operation_xyz
x,y,z
-x,y,-z
-x,-y,-z
x,-y,z
1/2+x,1/2+y,z
1/2-x,1/2+y,-z
1/2-x,1/2-y,-z
1/2+x,1/2-y,z
loop_
_atom_site_type_symbol
_atom_site_label
_atom_site_fract_x
_atom_site_fract_y
_atom_site_fract_z
Si Si1 0.185518 0.343285 0.063090
Si Si2 0.694560 0.358988 0.550252
Si Si3 0.393266 0.789325 0.602682
Si Si4 0.100128 0.157220 0.896451
Si Si5 0.020985 0.346605 0.728210
O O1 0.193112 0.500000 0.005839
O O2 0.163005 0.348783 0.253986
O O3 0.250000 0.250000 0.000000
O O4 0.128329 0.258477 0.008539
O O5 0.729784 0.500000 0.514387
O O6 0.750000 0.250000 0.500000
O O7 0.639358 0.344211 0.449093
O O8 0.657790 0.351045 0.733912
O O9 0.458535 0.790396 0.669650
O O10 0.419142 0.857425 0.430580
O O11 0.042077 0.237173 0.841510
O O12 0.086182 0.000000 0.949890
O O13 0.006714 0.500000 0.791393
#
# Coordination Sequence:
#
# PCOD9204229 Si02
#       5
#     8   8   8   8   8
#     4  12  25  41  61  89 124 162 201 245 296 357
#     4  10  22  38  60  87 118 157 203 250 298 351
#     4  10  22  39  64  93 121 153 200 252 301 355
#     4  10  23  41  58  85 123 161 198 242 296 357
#     4  10  20  40  68  93 116 152 200 252 304 354
#
# _framework density 22.982151000000002
#
# number of rings (size 3 to 8) (size 9 to 14) (size 15 to 20)
#    0.000    1.600    0.000    4.800    0.000   12.000 
#    0.000    7.000    0.000    0.000    0.000    0.000 
#    0.000    0.000    0.000    0.000    0.000    0.000 
#
# Total GULP energy -111577.654730 kJ/mol
# GULP energy per Si atom -5578.882736 kJ/mol
# Density = 2.292984 g / cm^3
# Si number density = 22.982151 Si / 1000 Ang^3
#
#
#
# Elastic Constant Matrix: (Units=GPa)
#
#
# Indices 1 2 3 4 5 6 
#
# 1 60.6569 50.7652 28.4237 0.0000 -3.2184 0.0000
# 2 50.7652 203.6733 65.3648 0.0000 13.6419 0.0000
# 3 28.4237 65.3648 92.1484 0.0000 -7.7482 0.0000
# 4 0.0000 0.0000 0.0000 -5.0122 0.0000 -7.2085
# 5 -3.2184 13.6419 -7.7482 0.0000 39.2837 0.0000
# 6 0.0000 0.0000 0.0000 -7.2085 0.0000 -1.5560
#
#
#
# Elastic Compliance Matrix: (Units=1/GPa)
#
#
# Indices 1 2 3 4 5 6 
#
# 1 0.022043 -0.004625 -0.003287 0.000000 0.002764 0.000000
# 2 -0.004625 0.007735 -0.004391 0.000000 -0.003931 0.000000
# 3 -0.003287 -0.004391 0.015340 0.000000 0.004281 0.000000
# 4 0.000000 0.000000 0.000000 0.035232 0.000000 -0.163223
# 5 0.002764 -0.003931 0.004281 0.000000 0.027892 0.000000
# 6 0.000000 0.000000 0.000000 -0.163223 0.000000 0.113492
#
#
# Mechanical properties :
#
#
# Convention : Reuss Voigt Hill
#
# Bulk Modulus (GPa) = 48.74547 71.73178 60.23862
# Shear Modulus (GPa) = 19.74906 20.67143 20.21025
#
# Velocity S-wave (km/s) = 2.93460 3.00235 2.96867
# Velocity P-wave (km/s) = 5.72177 6.58016 6.16592
#
# Compressibility (1/GPa) = 0.02051473
#
# Stress axis : x y z
#
# Youngs Moduli (GPa) = 45.36520 129.28387 65.18753
#
# Poissons Ratio (x) = 0.59789 0.21424
# Poissons Ratio (y) = 0.20980 0.28622
# Poissons Ratio (z) = 0.14910 0.56765
#
# Static dielectric constant tensor:
#      x y z
#    x 1.919970 0.000000 -0.007630 
#    y 0.000000 1.888490 0.000000 
#    z -0.007630 0.000000 1.891340 
# 
# From -- ./inp_files/92824.got.cif
#   From: 2010.05.17/outbox.cif.g08.bks.cpg/sg12_47_cif.got.tgz:92824.got - 2010.06.03 13:09:07.
