data_PCOD9204158
_publ_section_title
;
Structure prediction by ZEFSAII (Michael W. Deem and Ramdas Pophale) SiO2 
 PCOD9204158
Probable space group: C 2/M
;
_chemical_formula_sum "Si O2"
_cell_formula_units_Z 40
_cell_length_a 19.626218
_cell_length_b 8.821793
_cell_length_c 12.048079
_cell_angle_alpha 90.000000
_cell_angle_beta 75.641609
_cell_angle_gamma 90.000000
_cell_volume 2020.826643
_symmetry_space_group_name_H-M "C 2/M"
_symmetry_group_IT_number 12
_symmetry_cell_setting 'monoclinic'
loop_
_space_group_symop_operation_xyz
x,y,z
-x,y,-z
-x,-y,-z
x,-y,z
1/2+x,1/2+y,z
1/2-x,1/2+y,-z
1/2-x,1/2-y,-z
1/2+x,1/2-y,z
loop_
_atom_site_type_symbol
_atom_site_label
_atom_site_fract_x
_atom_site_fract_y
_atom_site_fract_z
Si Si1 0.321236 0.319026 0.020396
Si Si2 0.045336 0.679082 0.158791
Si Si3 0.935265 0.822093 0.611719
Si Si4 0.604563 0.682224 0.788344
Si Si5 0.172841 0.817241 0.528353
O O1 0.317918 0.500000 0.011051
O O2 0.389463 0.257628 0.928639
O O3 0.250000 0.250000 0.000000
O O4 0.336492 0.282116 0.143505
O O5 0.048508 0.500000 0.140806
O O6 0.052252 0.722874 0.285514
O O7 0.969538 0.742032 0.152040
O O8 0.867758 0.774559 0.567474
O O9 0.000000 0.813260 0.500000
O O10 0.928971 0.000000 0.647426
O O11 0.594253 0.500000 0.791663
O O12 0.629692 0.729775 0.655686
O O13 0.250000 0.750000 0.500000
O O14 0.175658 0.000000 0.529734
#
# Coordination Sequence:
#
# PCOD9204158 Si02
#       5
#     8   8   8   8   8
#     4  11  25  44  67  93 125 164 208 260 315 370
#     4  12  25  40  64  95 128 164 208 260 307 369
#     4  10  20  40  66  90 122 164 207 252 307 371
#     4  10  22  44  67  89 122 166 211 256 310 372
#     4  10  22  39  62  92 126 162 201 252 313 371
#
# _framework density 19.793880000000001
#
# number of rings (size 3 to 8) (size 9 to 14) (size 15 to 20)
#    0.000    1.400    2.000    3.000    2.800    6.000 
#    0.000    0.000    0.000    0.000    0.000    0.000 
#    0.000    0.000    0.000    0.000    0.000    0.000 
#
# Total GULP energy -111832.903591 kJ/mol
# GULP energy per Si atom -5591.645180 kJ/mol
# Density = 1.974883 g / cm^3
# Si number density = 19.793880 Si / 1000 Ang^3
#
#
#
# Elastic Constant Matrix: (Units=GPa)
#
#
# Indices 1 2 3 4 5 6 
#
# 1 144.2877 36.1116 18.1673 0.0000 17.2232 0.0000
# 2 36.1116 42.0824 20.5798 0.0000 12.7492 0.0000
# 3 18.1673 20.5798 54.9347 0.0000 11.3928 0.0000
# 4 0.0000 0.0000 0.0000 19.2759 0.0000 0.9735
# 5 17.2232 12.7492 11.3928 0.0000 35.3278 0.0000
# 6 0.0000 0.0000 0.0000 0.9735 0.0000 39.9175
#
#
#
# Elastic Compliance Matrix: (Units=1/GPa)
#
#
# Indices 1 2 3 4 5 6 
#
# 1 0.008925 -0.007166 0.000106 0.000000 -0.001800 0.000000
# 2 -0.007166 0.036818 -0.010065 0.000000 -0.006547 0.000000
# 3 0.000106 -0.010065 0.022716 0.000000 -0.003745 0.000000
# 4 0.000000 0.000000 0.000000 0.051942 0.000000 -0.001267
# 5 -0.001800 -0.006547 -0.003745 0.000000 0.032754 0.000000
# 6 0.000000 0.000000 0.000000 -0.001267 0.000000 0.025083
#
#
# Mechanical properties :
#
#
# Convention : Reuss Voigt Hill
#
# Bulk Modulus (GPa) = 29.23206 43.44694 36.33950
# Shear Modulus (GPa) = 22.33232 30.00064 26.16648
#
# Velocity S-wave (km/s) = 3.36258 3.89736 3.63980
# Velocity P-wave (km/s) = 5.46591 6.49999 6.00525
#
# Compressibility (1/GPa) = 0.03420902
#
# Stress axis : x y z
#
# Youngs Moduli (GPa) = 112.03905 27.16086 44.02247
#
# Poissons Ratio (x) = 0.19463 -0.00466
# Poissons Ratio (y) = 0.80284 0.44309
# Poissons Ratio (z) = -0.01187 0.27338
#
# Static dielectric constant tensor:
#      x y z
#    x 1.676810 0.000000 0.024890 
#    y 0.000000 1.665730 0.000000 
#    z 0.024890 0.000000 1.703010 
# 
# From -- ./inp_files/151634.got.cif
#   From: 2010.05.17/outbox.cif.g08.bks.cpg/sg12_76_cif.got.tgz:151634.got - 2010.06.03 13:09:07.
