data_PCOD9204620
_publ_section_title
;
Structure prediction by ZEFSAII (Michael W. Deem and Ramdas Pophale) SiO2 
 PCOD9204620
Probable space group: C 2/M
;
_chemical_formula_sum "Si O2"
_cell_formula_units_Z 30
_cell_length_a 20.397494
_cell_length_b 12.291661
_cell_length_c 5.216964
_cell_angle_alpha 90.000000
_cell_angle_beta 99.961379
_cell_angle_gamma 90.000000
_cell_volume 1288.273886
_symmetry_space_group_name_H-M "C 2/M"
_symmetry_group_IT_number 12
_symmetry_cell_setting 'monoclinic'
loop_
_space_group_symop_operation_xyz
x,y,z
-x,y,-z
-x,-y,-z
x,-y,z
1/2+x,1/2+y,z
1/2-x,1/2+y,-z
1/2-x,1/2-y,-z
1/2+x,1/2-y,z
loop_
_atom_site_type_symbol
_atom_site_label
_atom_site_fract_x
_atom_site_fract_y
_atom_site_fract_z
Si Si1 0.094606 0.120524 0.711047
Si Si2 0.392169 0.829662 0.600589
Si Si3 0.780439 0.500000 0.648841
Si Si4 0.000000 0.500000 0.500000
Si Si5 0.000000 0.768871 0.000000
Si Si6 0.806951 0.000000 0.907933
O O1 0.120391 0.216353 0.550096
O O2 0.090440 0.000000 0.588390
O O3 0.145502 0.101174 0.983803
O O4 0.024805 0.156556 0.785592
O O5 0.327044 0.895578 0.632389
O O6 0.441258 0.905647 0.466787
O O7 0.438275 0.804820 0.877019
O O8 0.750321 0.500000 0.912761
O O9 0.723617 0.500000 0.392716
#
# Coordination Sequence:
#
# PCOD9204620 Si02
#       6
#     8   8   4   2   4   4
#     4  10  25  45  71 106 147 190 244 305 367 435
#     4  11  25  42  75 102 149 188 238 314 364 436
#     4  11  28  50  73 110 149 197 254 295 363 439
#     4  10  20  46  58 108 134 176 234 290 378 426
#     4  12  23  43  72 112 136 193 237 316 372 436
#     4  10  28  49  74 105 150 201 249 297 355 445
#
# _framework density 23.286971000000001
#
# number of rings (size 3 to 8) (size 9 to 14) (size 15 to 20)
#    0.800    0.533    2.667    0.400    7.467    7.467 
#    0.000    0.000    0.000    0.000    0.000    0.000 
#    0.000    0.000    0.000    0.000    0.000    0.000 
#
# Total GULP energy -83632.034104 kJ/mol
# GULP energy per Si atom -5575.468940 kJ/mol
# Density = 2.323397 g / cm^3
# Si number density = 23.286971 Si / 1000 Ang^3
#
#
#
# Elastic Constant Matrix: (Units=GPa)
#
#
# Indices 1 2 3 4 5 6 
#
# 1 75.7212 13.6130 12.5826 0.0000 -6.3694 0.0000
# 2 13.6130 152.4674 36.1252 0.0000 -0.2870 0.0000
# 3 12.5826 36.1252 84.7100 0.0000 12.6554 0.0000
# 4 0.0000 0.0000 0.0000 -36.1550 0.0000 15.0771
# 5 -6.3694 -0.2870 12.6554 0.0000 42.4748 0.0000
# 6 0.0000 0.0000 0.0000 15.0771 0.0000 16.0670
#
#
#
# Elastic Compliance Matrix: (Units=1/GPa)
#
#
# Indices 1 2 3 4 5 6 
#
# 1 0.013926 -0.000725 -0.002167 0.000000 0.002729 0.000000
# 2 -0.000725 0.007376 -0.003170 0.000000 0.000886 0.000000
# 3 -0.002167 -0.003170 0.014161 0.000000 -0.004566 0.000000
# 4 0.000000 0.000000 0.000000 -0.019879 0.000000 0.018655
# 5 0.002729 0.000886 -0.004566 0.000000 0.025319 0.000000
# 6 0.000000 0.000000 0.000000 0.018655 0.000000 0.044734
#
#
# Mechanical properties :
#
#
# Convention : Reuss Voigt Hill
#
# Bulk Modulus (GPa) = 42.84683 48.61559 45.73121
# Shear Modulus (GPa) = 47.37464 21.18255 34.27859
#
# Velocity S-wave (km/s) = 4.51531 3.01928 3.84084
# Velocity P-wave (km/s) = 6.75451 5.75124 6.27297
#
# Compressibility (1/GPa) = 0.02333895
#
# Stress axis : x y z
#
# Youngs Moduli (GPa) = 71.80640 135.56870 70.61635
#
# Poissons Ratio (x) = 0.09826 0.15304
# Poissons Ratio (y) = 0.05204 0.22388
# Poissons Ratio (z) = 0.15562 0.42980
#
# Static dielectric constant tensor:
#      x y z
#    x 1.850430 0.000000 -0.007940 
#    y 0.000000 1.852860 0.000000 
#    z -0.007940 0.000000 1.959570 
# 
# From -- ./inp_files/23512.got.cif
#   From: 2010.05.17/outbox.cif.g08.bks.cpg/sg12_12_cif.got.tgz:23512.got - 2010.06.03 13:09:07.
