data_PCOD9204497
_publ_section_title
;
Structure prediction by ZEFSAII (Michael W. Deem and Ramdas Pophale) SiO2 
 PCOD9204497
Probable space group: C 2/M
;
_chemical_formula_sum "Si O2"
_cell_formula_units_Z 52
_cell_length_a 26.169485
_cell_length_b 22.250088
_cell_length_c 5.104453
_cell_angle_alpha 90.000000
_cell_angle_beta 70.795278
_cell_angle_gamma 90.000000
_cell_volume 2806.782528
_symmetry_space_group_name_H-M "C 2/M"
_symmetry_group_IT_number 12
_symmetry_cell_setting 'monoclinic'
loop_
_space_group_symop_operation_xyz
x,y,z
-x,y,-z
-x,-y,-z
x,-y,z
1/2+x,1/2+y,z
1/2-x,1/2+y,-z
1/2-x,1/2-y,-z
1/2+x,1/2-y,z
loop_
_atom_site_type_symbol
_atom_site_label
_atom_site_fract_x
_atom_site_fract_y
_atom_site_fract_z
Si Si1 0.857994 0.067919 0.586291
Si Si2 0.438038 0.869749 0.037017
Si Si3 0.461948 0.500000 0.313523
Si Si4 0.175510 0.139763 0.855084
Si Si5 0.389552 0.070721 0.624068
Si Si6 0.797051 0.332759 0.825579
Si Si7 0.154702 0.726039 0.760325
O O1 0.920133 0.055952 0.395105
O O2 0.826938 0.099094 0.400355
O O3 0.836746 0.000000 0.672468
O O4 0.853832 0.106228 0.856361
O O5 0.412601 0.913306 0.300046
O O6 0.401231 0.809946 0.106711
O O7 0.500000 0.857882 0.000000
O O8 0.429912 0.901505 0.771798
O O9 0.500000 0.500000 0.500000
O O10 0.500000 0.500000 0.000000
O O11 0.236382 0.152492 0.848032
O O12 0.149935 0.203914 0.825696
O O13 0.333671 0.107212 0.755687
O O14 0.383032 0.000000 0.669507
O O15 0.822851 0.287989 0.566343
O O16 0.803867 0.302905 0.098319
#
# Coordination Sequence:
#
# PCOD9204497 Si02
#       7
#     8   8   4   8   8   8   8
#     4  10  24  37  58  91 115 144 196 236 300 351
#     4  10  21  37  55  77 112 147 183 247 295 322
#     4  10  20  42  64  78 116 156 186 236 297 356
#     4  12  20  38  61  86 119 152 192 246 282 363
#     4  10  21  35  53  82 110 147 198 227 275 361
#     4  10  21  36  56  83 118 159 187 236 297 336
#     4  10  21  37  57  83 113 153 202 233 287 362
#
# _framework density 18.526551999999999
#
# number of rings (size 3 to 8) (size 9 to 14) (size 15 to 20)
#    0.462    1.231    0.000    5.077    0.000    3.077 
#    0.000    2.308    0.000    1.846    0.000    0.000 
#    0.000    0.000    0.000    0.000    0.000    0.000 
#
# Total GULP energy -145213.996093 kJ/mol
# GULP energy per Si atom -5585.153696 kJ/mol
# Density = 1.848438 g / cm^3
# Si number density = 18.526552 Si / 1000 Ang^3
#
#
#
# Elastic Constant Matrix: (Units=GPa)
#
#
# Indices 1 2 3 4 5 6 
#
# 1 51.6928 50.6681 10.0004 0.0000 8.5249 0.0000
# 2 50.6681 123.2680 24.2743 0.0000 -5.5648 0.0000
# 3 10.0004 24.2743 48.5362 0.0000 10.8006 0.0000
# 4 0.0000 0.0000 0.0000 14.9283 0.0000 1.0051
# 5 8.5249 -5.5648 10.8006 0.0000 27.6856 0.0000
# 6 0.0000 0.0000 0.0000 1.0051 0.0000 3.0295
#
#
#
# Elastic Compliance Matrix: (Units=1/GPa)
#
#
# Indices 1 2 3 4 5 6 
#
# 1 0.038401 -0.017473 0.004642 0.000000 -0.017147 0.000000
# 2 -0.017473 0.017351 -0.007721 0.000000 0.011880 0.000000
# 3 0.004642 -0.007721 0.026470 0.000000 -0.013308 0.000000
# 4 0.000000 0.000000 0.000000 0.068517 0.000000 -0.022732
# 5 -0.017147 0.011880 -0.013308 0.000000 0.048979 0.000000
# 6 0.000000 0.000000 0.000000 -0.022732 0.000000 0.337628
#
#
# Mechanical properties :
#
#
# Convention : Reuss Voigt Hill
#
# Bulk Modulus (GPa) = 24.32012 43.70917 34.01464
# Shear Modulus (GPa) = 8.44371 18.36563 13.40467
#
# Velocity S-wave (km/s) = 2.13718 3.15193 2.69279
# Velocity P-wave (km/s) = 4.38699 6.07373 5.29792
#
# Compressibility (1/GPa) = 0.04111823
#
# Stress axis : x y z
#
# Youngs Moduli (GPa) = 26.04085 57.63294 37.77917
#
# Poissons Ratio (x) = 1.00700 -0.17537
# Poissons Ratio (y) = 0.45500 0.29170
# Poissons Ratio (z) = -0.12088 0.44500
#
# Static dielectric constant tensor:
#      x y z
#    x 1.620660 0.000000 0.001800 
#    y 0.000000 1.624160 0.000000 
#    z 0.001800 0.000000 1.621660 
# 
# From -- ./inp_files/25339.got.cif
#   From: 2010.05.17/outbox.cif.g08.bks.cpg/sg12_13_cif.got.tgz:25339.got - 2010.06.03 13:09:07.
