data_PCOD9204363
_publ_section_title
;
Structure prediction by ZEFSAII (Michael W. Deem and Ramdas Pophale) SiO2 
 PCOD9204363
Probable space group: C 2/M
;
_chemical_formula_sum "Si O2"
_cell_formula_units_Z 42
_cell_length_a 9.226232
_cell_length_b 29.976176
_cell_length_c 7.193914
_cell_angle_alpha 90.000000
_cell_angle_beta 49.002638
_cell_angle_gamma 90.000000
_cell_volume 1501.630521
_symmetry_space_group_name_H-M "C 2/M"
_symmetry_group_IT_number 12
_symmetry_cell_setting 'monoclinic'
loop_
_space_group_symop_operation_xyz
x,y,z
-x,y,-z
-x,-y,-z
x,-y,z
1/2+x,1/2+y,z
1/2-x,1/2+y,-z
1/2-x,1/2-y,-z
1/2+x,1/2-y,z
loop_
_atom_site_type_symbol
_atom_site_label
_atom_site_fract_x
_atom_site_fract_y
_atom_site_fract_z
Si Si1 0.084079 0.643415 0.632097
Si Si2 0.495205 0.953244 0.277846
Si Si3 0.031341 0.741602 0.756025
Si Si4 0.588816 0.434258 0.223349
Si Si5 0.000000 0.000000 0.000000
Si Si6 0.979547 0.835241 0.794225
O O1 0.977249 0.690273 0.764023
O O2 0.305015 0.656574 0.457245
O O3 0.000000 0.634341 0.500000
O O4 0.078770 0.594658 0.728382
O O5 0.500000 0.954342 0.500000
O O6 0.403175 0.000000 0.293283
O O7 0.711136 0.954487 0.015731
O O8 0.250000 0.750000 0.500000
O O9 0.919771 0.785833 0.775279
O O10 0.000000 0.745769 0.000000
O O11 0.500000 0.441869 0.500000
O O12 0.623526 0.380946 0.170509
O O13 0.448819 0.459661 0.196123
O O14 0.000000 0.835391 0.000000
#
# Coordination Sequence:
#
# PCOD9204363 Si02
#       6
#     8   8   8   8   2   8
#     4  10  21  37  63  95 134 172 220 271 342 397
#     4  10  22  40  63  93 133 172 219 279 334 396
#     4   9  20  38  61  86 127 169 213 265 328 392
#     4  12  26  44  72 102 130 177 235 272 329 403
#     4  12  26  44  74  88 148 176 220 280 342 368
#     4  10  20  41  65  94 130 178 217 271 340 396
#
# _framework density 27.969597
#
# number of rings (size 3 to 8) (size 9 to 14) (size 15 to 20)
#    0.000    1.714    1.905    2.571    0.000    3.810 
#    0.000   13.333    0.000    2.857    0.000    0.000 
#    0.000    0.000    0.000    0.000    0.000    0.000 
#
# Total GULP energy -117117.540506 kJ/mol
# GULP energy per Si atom -5577.025738 kJ/mol
# Density = 2.790594 g / cm^3
# Si number density = 27.969597 Si / 1000 Ang^3
#
#
#
# Elastic Constant Matrix: (Units=GPa)
#
#
# Indices 1 2 3 4 5 6 
#
# 1 45.2008 35.6450 33.4791 0.0000 6.0234 0.0000
# 2 35.6450 369.4812 66.4481 0.0000 -4.4268 0.0000
# 3 33.4791 66.4481 189.6881 0.0000 28.7827 0.0000
# 4 0.0000 0.0000 0.0000 33.3490 0.0000 -21.0317
# 5 6.0234 -4.4268 28.7827 0.0000 62.1262 0.0000
# 6 0.0000 0.0000 0.0000 -21.0317 0.0000 22.4117
#
#
#
# Elastic Compliance Matrix: (Units=1/GPa)
#
#
# Indices 1 2 3 4 5 6 
#
# 1 0.026615 -0.001877 -0.003902 0.000000 -0.000906 0.000000
# 2 -0.001877 0.003052 -0.000859 0.000000 0.000797 0.000000
# 3 -0.003902 -0.000859 0.006683 0.000000 -0.002779 0.000000
# 4 0.000000 0.000000 0.000000 0.073463 0.000000 0.068939
# 5 -0.000906 0.000797 -0.002779 0.000000 0.017528 0.000000
# 6 0.000000 0.000000 0.000000 0.068939 0.000000 0.109313
#
#
# Mechanical properties :
#
#
# Convention : Reuss Voigt Hill
#
# Bulk Modulus (GPa) = 43.33957 97.27939 70.30948
# Shear Modulus (GPa) = 19.40840 54.83056 37.11948
#
# Velocity S-wave (km/s) = 2.63708 4.43240 3.64694
# Velocity P-wave (km/s) = 4.98007 7.81350 6.55179
#
# Compressibility (1/GPa) = 0.02307360
#
# Stress axis : x y z
#
# Youngs Moduli (GPa) = 37.57329 327.70511 149.63172
#
# Poissons Ratio (x) = 0.61498 0.58394
# Poissons Ratio (y) = 0.07051 0.12849
# Poissons Ratio (z) = 0.14663 0.28140
#
# Static dielectric constant tensor:
#      x y z
#    x 2.416610 0.000000 -0.051700 
#    y 0.000000 2.382770 0.000000 
#    z -0.051700 0.000000 2.147070 
# 
# From -- ./inp_files/66728.got.cif
#   From: 2010.05.17/outbox.cif.g08.bks.cpg/sg12_34_cif.got.tgz:66728.got - 2010.06.03 13:09:07.
