data_PCOD9204116
_publ_section_title
;
Structure prediction by ZEFSAII (Michael W. Deem and Ramdas Pophale) SiO2 
 PCOD9204116
Probable space group: C 2/M
;
_chemical_formula_sum "Si O2"
_cell_formula_units_Z 56
_cell_length_a 19.223834
_cell_length_b 8.645335
_cell_length_c 29.245258
_cell_angle_alpha 90.000000
_cell_angle_beta 34.384147
_cell_angle_gamma 90.000000
_cell_volume 2744.889262
_symmetry_space_group_name_H-M "C 2/M"
_symmetry_group_IT_number 12
_symmetry_cell_setting 'monoclinic'
loop_
_space_group_symop_operation_xyz
x,y,z
-x,y,-z
-x,-y,-z
x,-y,z
1/2+x,1/2+y,z
1/2-x,1/2+y,-z
1/2-x,1/2-y,-z
1/2+x,1/2-y,z
loop_
_atom_site_type_symbol
_atom_site_label
_atom_site_fract_x
_atom_site_fract_y
_atom_site_fract_z
Si Si1 0.209745 0.820546 0.915014
Si Si2 0.946786 0.819719 0.820130
Si Si3 0.070660 0.322882 0.075335
Si Si4 0.110209 0.811532 0.349449
Si Si5 0.281512 0.812879 0.341354
Si Si6 0.189162 0.680612 0.830680
Si Si7 0.827017 0.813237 0.500790
O O1 0.353659 0.776186 0.839139
O O2 0.162624 0.775211 0.890605
O O3 0.190630 0.000000 0.934598
O O4 0.143643 0.723132 0.990410
O O5 0.905316 0.786114 0.894747
O O6 0.086087 0.761643 0.739517
O O7 0.937182 0.000000 0.814735
O O8 0.098380 0.500000 0.073420
O O9 0.926705 0.312557 0.140400
O O10 0.182546 0.765745 0.356311
O O11 0.191508 0.763736 0.261752
O O12 0.969310 0.759772 0.423309
O O13 0.109860 0.000000 0.349633
O O14 0.233487 0.771215 0.417789
O O15 0.293894 0.000000 0.332028
O O16 0.205823 0.500000 0.834557
O O17 0.750000 0.750000 0.500000
O O18 0.827822 0.000000 0.497818
#
# Coordination Sequence:
#
# PCOD9204116 Si02
#       7
#     8   8   8   8   8   8   8
#     4  12  26  41  60  89 128 166 207 259 311 366
#     4  12  25  41  63  91 124 164 210 259 312 368
#     4  11  22  42  67  92 123 161 207 256 311 373
#     4   9  18  38  65  91 120 161 207 248 298 364
#     4  10  20  40  65  91 121 163 211 253 301 364
#     4  10  21  39  64  92 124 164 207 253 307 370
#     4  10  22  38  63  95 128 161 201 249 304 366
#
# _framework density 20.401551000000001
#
# number of rings (size 3 to 8) (size 9 to 14) (size 15 to 20)
#    0.000    1.429    1.429    4.286    2.000    5.143 
#    0.000    0.714    0.000    1.714    0.000    0.000 
#    0.000    0.000    0.000    0.000    0.000    0.000 
#
# Total GULP energy -156595.620901 kJ/mol
# GULP energy per Si atom -5592.700746 kJ/mol
# Density = 2.035512 g / cm^3
# Si number density = 20.401551 Si / 1000 Ang^3
#
#
#
# Elastic Constant Matrix: (Units=GPa)
#
#
# Indices 1 2 3 4 5 6 
#
# 1 35.4506 -3.2436 6.9043 0.0001 2.7522 -0.0043
# 2 -3.2436 23.5809 2.7922 0.0014 1.2083 -0.0013
# 3 6.9043 2.7922 89.7520 0.0002 4.2834 -0.0005
# 4 0.0001 0.0014 0.0002 19.8296 0.0004 1.2683
# 5 2.7522 1.2083 4.2834 0.0004 24.9810 0.0003
# 6 -0.0043 -0.0013 -0.0005 1.2683 0.0003 32.5029
#
#
#
# Elastic Compliance Matrix: (Units=1/GPa)
#
#
# Indices 1 2 3 4 5 6 
#
# 1 0.029290 0.004452 -0.002246 -0.000001 -0.003057 0.000004
# 2 0.004452 0.043325 -0.001580 -0.000003 -0.002315 0.000002
# 3 -0.002246 -0.001580 0.011442 0.000000 -0.001638 0.000000
# 4 -0.000001 -0.000003 0.000000 0.050556 -0.000001 -0.001973
# 5 -0.003057 -0.002315 -0.001638 -0.000001 0.040760 -0.000001
# 6 0.000004 0.000002 0.000000 -0.001973 -0.000001 0.030844
#
#
# Mechanical properties :
#
#
# Convention : Reuss Voigt Hill
#
# Bulk Modulus (GPa) = 11.72204 17.96547 14.84376
# Shear Modulus (GPa) = 21.42231 24.95139 23.18685
#
# Velocity S-wave (km/s) = 3.24394 3.50096 3.37489
# Velocity P-wave (km/s) = 4.44848 5.01670 4.74111
#
# Compressibility (1/GPa) = 0.08530935
#
# Stress axis : x y z
#
# Youngs Moduli (GPa) = 34.14097 23.08121 87.39815
#
# Poissons Ratio (x) = -0.10275 0.19628
# Poissons Ratio (y) = -0.15198 0.13807
# Poissons Ratio (z) = 0.07667 0.03646
#
# Static dielectric constant tensor:
#      x y z
#    x 1.711880 0.000000 -0.016180 
#    y 0.000000 1.691910 0.000000 
#    z -0.016180 0.000000 1.719320 
# 
# From -- ./inp_files/362935.got.cif
#   From: 2010.05.17/outbox.cif.g08.bks.cpg/sg12_182_cif.got.tgz:362935.got - 2010.06.03 13:09:07.
