data_PCOD9204780
_publ_section_title
;
Structure prediction by ZEFSAII (Michael W. Deem and Ramdas Pophale) SiO2 
 PCOD9204780
Probable space group: C 2/M
;
_chemical_formula_sum "Si O2"
_cell_formula_units_Z 56
_cell_length_a 20.922088
_cell_length_b 15.019768
_cell_length_c 19.440721
_cell_angle_alpha 90.000000
_cell_angle_beta 24.279627
_cell_angle_gamma 90.000000
_cell_volume 2512.021978
_symmetry_space_group_name_H-M "C 2/M"
_symmetry_group_IT_number 12
_symmetry_cell_setting 'monoclinic'
loop_
_space_group_symop_operation_xyz
x,y,z
-x,y,-z
-x,-y,-z
x,-y,z
1/2+x,1/2+y,z
1/2-x,1/2+y,-z
1/2-x,1/2-y,-z
1/2+x,1/2-y,z
loop_
_atom_site_type_symbol
_atom_site_label
_atom_site_fract_x
_atom_site_fract_y
_atom_site_fract_z
Si Si1 0.826376 0.604890 0.197557
Si Si2 0.804854 0.399775 0.939992
Si Si3 0.089430 0.759185 0.088891
Si Si4 0.627070 0.598467 0.521139
Si Si5 0.789468 0.162648 0.416414
Si Si6 0.499924 0.902261 0.388387
Si Si7 0.366852 0.275900 0.712216
O O1 0.809264 0.500000 0.196679
O O2 0.781125 0.613547 0.322657
O O3 0.696179 0.664134 0.287668
O O4 0.000000 0.629912 0.000000
O O5 0.775453 0.500000 0.995845
O O6 0.926349 0.338978 0.862600
O O7 0.872588 0.409001 0.797501
O O8 0.661976 0.331048 0.072060
O O9 0.928125 0.805517 0.230558
O O10 0.213429 0.743910 0.907847
O O11 0.568647 0.500000 0.559337
O O12 0.662348 0.599624 0.567624
O O13 0.496279 0.669714 0.628290
O O14 0.750000 0.250000 0.500000
O O15 0.654922 0.124439 0.501171
O O16 0.558678 0.819897 0.375321
O O17 0.482895 0.000000 0.436605
#
# Coordination Sequence:
#
# PCOD9204780 Si02
#       7
#     8   8   8   8   8   8   8
#     4  10  24  43  66  97 129 168 217 264 320 383
#     4   9  17  31  48  73 112 154 194 245 302 363
#     4  10  21  33  52  86 119 155 209 252 313 382
#     4  11  23  40  64  94 130 174 216 259 317 386
#     4  12  21  37  57  89 128 166 208 260 317 388
#     4  10  21  37  58  86 121 163 206 255 316 376
#     4  11  22  39  63  89 128 167 210 269 315 380
#
# _framework density 22.292798000000001
#
# number of rings (size 3 to 8) (size 9 to 14) (size 15 to 20)
#    0.000    1.571    2.857    3.000    2.000    4.571 
#    0.000    0.000    0.000    2.143    0.000    0.000 
#    0.000    0.000    0.000    0.000    0.000    0.000 
#
# Total GULP energy -156235.895985 kJ/mol
# GULP energy per Si atom -5579.853428 kJ/mol
# Density = 2.224206 g / cm^3
# Si number density = 22.292798 Si / 1000 Ang^3
#
#
#
# Elastic Constant Matrix: (Units=GPa)
#
#
# Indices 1 2 3 4 5 6 
#
# 1 66.4583 38.5809 31.8268 0.0009 6.4246 -0.0002
# 2 38.5809 179.8578 36.5750 0.0009 -13.9075 -0.0006
# 3 31.8268 36.5750 97.1072 0.0046 13.8787 -0.0017
# 4 0.0009 0.0009 0.0046 14.6340 -0.0013 0.0359
# 5 6.4246 -13.9075 13.8787 -0.0013 34.0181 0.0003
# 6 -0.0002 -0.0006 -0.0017 0.0359 0.0003 21.5715
#
#
#
# Elastic Compliance Matrix: (Units=1/GPa)
#
#
# Indices 1 2 3 4 5 6 
#
# 1 0.019627 -0.003517 -0.004643 0.000000 -0.003250 0.000000
# 2 -0.003517 0.007096 -0.002155 0.000001 0.004445 0.000000
# 3 -0.004643 -0.002155 0.013414 -0.000004 -0.005477 0.000001
# 4 0.000000 0.000001 -0.000004 0.068334 0.000005 -0.000114
# 5 -0.003250 0.004445 -0.005477 0.000005 0.034062 -0.000001
# 6 0.000000 0.000000 0.000001 -0.000114 -0.000001 0.046358
#
#
# Mechanical properties :
#
#
# Convention : Reuss Voigt Hill
#
# Bulk Modulus (GPa) = 51.26705 61.93206 56.59956
# Shear Modulus (GPa) = 23.14549 29.80742 26.47646
#
# Velocity S-wave (km/s) = 3.22568 3.66059 3.45000
# Velocity P-wave (km/s) = 6.07622 6.76077 6.42762
#
# Compressibility (1/GPa) = 0.01950571
#
# Stress axis : x y z
#
# Youngs Moduli (GPa) = 50.95087 140.91662 74.54701
#
# Poissons Ratio (x) = 0.49562 0.34615
# Poissons Ratio (y) = 0.17920 0.16067
# Poissons Ratio (z) = 0.23659 0.30372
#
# Static dielectric constant tensor:
#      x y z
#    x 1.821600 0.000000 0.011200 
#    y 0.000000 1.887830 0.000000 
#    z 0.011200 0.000000 1.888880 
# 
# From -- ./inp_files/349705.got.cif
#   From: 2010.05.17/outbox.cif.g08.bks.cpg/sg12_175_cif.got.tgz:349705.got - 2010.06.03 13:09:07.
