data_PCOD9204570
_publ_section_title
;
Structure prediction by ZEFSAII (Michael W. Deem and Ramdas Pophale) SiO2 
 PCOD9204570
Probable space group: C 2/M
;
_chemical_formula_sum "Si O2"
_cell_formula_units_Z 58
_cell_length_a 11.214961
_cell_length_b 25.029069
_cell_length_c 12.043523
_cell_angle_alpha 90.000000
_cell_angle_beta 67.400790
_cell_angle_gamma 90.000000
_cell_volume 3121.038344
_symmetry_space_group_name_H-M "C 2/M"
_symmetry_group_IT_number 12
_symmetry_cell_setting 'monoclinic'
loop_
_space_group_symop_operation_xyz
x,y,z
-x,y,-z
-x,-y,-z
x,-y,z
1/2+x,1/2+y,z
1/2-x,1/2+y,-z
1/2-x,1/2-y,-z
1/2+x,1/2-y,z
loop_
_atom_site_type_symbol
_atom_site_label
_atom_site_fract_x
_atom_site_fract_y
_atom_site_fract_z
Si Si1 0.000000 0.500000 0.000000
Si Si2 0.367097 0.171825 0.278749
Si Si3 0.348610 0.153459 0.536703
Si Si4 0.758889 0.437885 0.716725
Si Si5 0.491248 0.608586 0.869297
Si Si6 0.659594 0.292605 0.781685
Si Si7 0.701510 0.901765 0.895690
Si Si8 0.657592 0.147396 0.136933
O O1 0.110631 0.453252 0.936152
O O2 0.313783 0.164988 0.422009
O O3 0.352238 0.230178 0.230982
O O4 0.310965 0.126881 0.217855
O O5 0.520324 0.163796 0.232153
O O6 0.500000 0.165868 0.500000
O O7 0.322446 0.093227 0.590304
O O8 0.255639 0.187122 0.650271
O O9 0.788353 0.500000 0.708184
O O10 0.605607 0.426439 0.774278
O O11 0.807583 0.407679 0.810959
O O12 0.531362 0.670173 0.825595
O O13 0.351709 0.591322 0.875491
O O14 0.500000 0.602774 0.000000
O O15 0.733030 0.310592 0.867381
O O16 0.650891 0.861790 0.009542
#
# Coordination Sequence:
#
# PCOD9204570 Si02
#       8
#     2   8   8   8   8   8   8   8
#     4  12  28  44  58  92 140 172 206 264 312 374
#     4  12  23  40  63  94 127 176 203 261 332 384
#     4  10  20  43  62  90 128 160 222 267 310 380
#     4  10  22  39  66  94 120 162 222 276 304 364
#     4  10  21  41  63  95 126 163 210 259 314 387
#     4  10  23  39  66  92 128 161 215 267 310 378
#     4  12  25  42  62  95 133 168 211 256 325 381
#     4  10  21  42  58  95 130 158 213 267 305 392
#
# _framework density 18.583558
#
# number of rings (size 3 to 8) (size 9 to 14) (size 15 to 20)
#    0.000    1.655    6.897    0.414    3.862    2.207 
#    1.241    2.759    0.000    0.828    0.000    0.000 
#    0.000    0.000    0.000    0.000    0.000    0.000 
#
# Total GULP energy -161490.452153 kJ/mol
# GULP energy per Si atom -5568.636281 kJ/mol
# Density = 1.854126 g / cm^3
# Si number density = 18.583558 Si / 1000 Ang^3
#
#
#
# Elastic Constant Matrix: (Units=GPa)
#
#
# Indices 1 2 3 4 5 6 
#
# 1 97.5657 48.8216 5.8244 0.0000 -5.3749 0.0000
# 2 48.8216 105.4732 16.3263 0.0000 6.7134 0.0000
# 3 5.8244 16.3263 50.8444 0.0000 12.5684 0.0000
# 4 0.0000 0.0000 0.0000 -3.9709 0.0000 -0.3277
# 5 -5.3749 6.7134 12.5684 0.0000 33.4033 0.0000
# 6 0.0000 0.0000 0.0000 -0.3277 0.0000 7.6249
#
#
#
# Elastic Compliance Matrix: (Units=1/GPa)
#
#
# Indices 1 2 3 4 5 6 
#
# 1 0.013746 -0.006537 -0.000383 0.000000 0.003670 0.000000
# 2 -0.006537 0.013109 -0.002811 0.000000 -0.002629 0.000000
# 3 -0.000383 -0.002811 0.022591 0.000000 -0.007997 0.000000
# 4 0.000000 0.000000 0.000000 -0.250941 0.000000 -0.010786
# 5 0.003670 -0.002629 -0.007997 0.000000 0.034065 0.000000
# 6 0.000000 0.000000 0.000000 -0.010786 0.000000 0.130686
#
#
# Mechanical properties :
#
#
# Convention : Reuss Voigt Hill
#
# Bulk Modulus (GPa) = 33.34979 43.98089 38.66534
# Shear Modulus (GPa) = -686.05588 19.60550 -333.22519
#
# Velocity S-wave (km/s) = -19.23474 3.25159 -13.40526
# Velocity P-wave (km/s) = 21.80173 6.14939 14.79020
#
# Compressibility (1/GPa) = 0.02998520
#
# Stress axis : x y z
#
# Youngs Moduli (GPa) = 72.75073 76.28163 44.26544
#
# Poissons Ratio (x) = 0.49865 0.01694
# Poissons Ratio (y) = 0.47557 0.12442
# Poissons Ratio (z) = 0.02784 0.21441
#
# Static dielectric constant tensor:
#      x y z
#    x 1.669190 0.000000 0.003180 
#    y 0.000000 1.643480 0.000000 
#    z 0.003180 0.000000 1.655060 
# 
# From -- ./inp_files/135331.got.cif
#   From: 2010.05.17/outbox.cif.g08.bks.cpg/sg12_68_cif.got.tgz:135331.got - 2010.06.03 13:09:07.
