data_PCOD9204267
_publ_section_title
;
Structure prediction by ZEFSAII (Michael W. Deem and Ramdas Pophale) SiO2 
 PCOD9204267
Probable space group: C 2/M
;
_chemical_formula_sum "Si O2"
_cell_formula_units_Z 42
_cell_length_a 14.714849
_cell_length_b 15.469460
_cell_length_c 9.732497
_cell_angle_alpha 90.000000
_cell_angle_beta 60.601285
_cell_angle_gamma 90.000000
_cell_volume 1930.125204
_symmetry_space_group_name_H-M "C 2/M"
_symmetry_group_IT_number 12
_symmetry_cell_setting 'monoclinic'
loop_
_space_group_symop_operation_xyz
x,y,z
-x,y,-z
-x,-y,-z
x,-y,z
1/2+x,1/2+y,z
1/2-x,1/2+y,-z
1/2-x,1/2-y,-z
1/2+x,1/2-y,z
loop_
_atom_site_type_symbol
_atom_site_label
_atom_site_fract_x
_atom_site_fract_y
_atom_site_fract_z
Si Si1 0.881975 0.900281 0.104819
Si Si2 0.294118 0.103712 0.958519
Si Si3 0.265168 0.101439 0.299962
Si Si4 0.515377 0.181578 0.822959
Si Si5 0.409850 0.353351 0.379850
Si Si6 0.000000 0.000000 0.500000
O O1 0.794613 0.858031 0.074838
O O2 0.856437 0.893144 0.283386
O O3 0.885819 0.000000 0.059117
O O4 0.000000 0.868793 0.000000
O O5 0.408220 0.141220 0.850097
O O6 0.302056 0.000000 0.934747
O O7 0.262729 0.118324 0.139753
O O8 0.382282 0.120538 0.262806
O O9 0.181766 0.158827 0.441716
O O10 0.233576 0.000000 0.344042
O O11 0.539020 0.266484 0.715725
O O12 0.500000 0.192743 0.000000
O O13 0.487004 0.423289 0.390430
#
# Coordination Sequence:
#
# PCOD9204267 Si02
#       6
#     8   8   8   8   8   2
#     4  10  21  38  64  94 131 170 221 273 327 389
#     4   9  20  40  71 102 132 175 222 268 331 400
#     4  10  20  40  70 100 133 177 224 270 327 398
#     4  10  22  44  66 100 140 177 218 274 332 398
#     4  12  24  43  63  95 130 174 228 279 333 389
#     4  12  28  44  70  88 134 180 232 274 338 396
#
# _framework density 21.760245999999999
#
# number of rings (size 3 to 8) (size 9 to 14) (size 15 to 20)
#    0.000    1.714    1.905    1.714    2.667    2.286 
#    6.857    2.857    0.000    3.429    0.000    0.000 
#    0.000    0.000    0.000    0.000    0.000    0.000 
#
# Total GULP energy -117078.223767 kJ/mol
# GULP energy per Si atom -5575.153513 kJ/mol
# Density = 2.171072 g / cm^3
# Si number density = 21.760246 Si / 1000 Ang^3
#
#
#
# Elastic Constant Matrix: (Units=GPa)
#
#
# Indices 1 2 3 4 5 6 
#
# 1 157.0039 28.7151 51.6823 0.0000 18.8159 0.0000
# 2 28.7151 54.7731 39.1356 0.0000 2.6360 0.0000
# 3 51.6823 39.1356 90.9723 0.0000 -8.1649 0.0000
# 4 0.0000 0.0000 0.0000 17.1551 0.0000 -6.5076
# 5 18.8159 2.6360 -8.1649 0.0000 32.8735 0.0000
# 6 0.0000 0.0000 0.0000 -6.5076 0.0000 12.2010
#
#
#
# Elastic Compliance Matrix: (Units=1/GPa)
#
#
# Indices 1 2 3 4 5 6 
#
# 1 0.009056 -0.000491 -0.005518 0.000000 -0.006515 0.000000
# 2 -0.000491 0.027229 -0.011870 0.000000 -0.004850 0.000000
# 3 -0.005518 -0.011870 0.020050 0.000000 0.009090 0.000000
# 4 0.000000 0.000000 0.000000 0.073077 0.000000 0.038977
# 5 -0.006515 -0.004850 0.009090 0.000000 0.036795 0.000000
# 6 0.000000 0.000000 0.000000 0.038977 0.000000 0.102749
#
#
# Mechanical properties :
#
#
# Convention : Reuss Voigt Hill
#
# Bulk Modulus (GPa) = 48.60073 60.20169 54.40121
# Shear Modulus (GPa) = 16.04751 24.66034 20.35392
#
# Velocity S-wave (km/s) = 2.71858 3.37007 3.06170
# Velocity P-wave (km/s) = 5.67780 6.54745 6.12807
#
# Compressibility (1/GPa) = 0.02057582
#
# Stress axis : x y z
#
# Youngs Moduli (GPa) = 110.41868 36.72509 49.87635
#
# Poissons Ratio (x) = 0.01805 0.27523
# Poissons Ratio (y) = 0.05427 0.59203
# Poissons Ratio (z) = 0.60933 0.43593
#
# Static dielectric constant tensor:
#      x y z
#    x 1.859590 0.000000 -0.016450 
#    y 0.000000 1.976620 0.000000 
#    z -0.016450 0.000000 1.788310 
# 
# From -- ./inp_files/61625.got.cif
#   From: 2010.05.17/outbox.cif.g08.bks.cpg/sg12_31_cif.got.tgz:61625.got - 2010.06.03 13:09:07.
