data_PCOD9204744
_publ_section_title
;
Structure prediction by ZEFSAII (Michael W. Deem and Ramdas Pophale) SiO2 
 PCOD9204744
Probable space group: C 2/M
;
_chemical_formula_sum "Si O2"
_cell_formula_units_Z 48
_cell_length_a 9.078915
_cell_length_b 24.445961
_cell_length_c 11.763617
_cell_angle_alpha 90.000000
_cell_angle_beta 110.209923
_cell_angle_gamma 90.000000
_cell_volume 2450.108450
_symmetry_space_group_name_H-M "C 2/M"
_symmetry_group_IT_number 12
_symmetry_cell_setting 'monoclinic'
loop_
_space_group_symop_operation_xyz
x,y,z
-x,y,-z
-x,-y,-z
x,-y,z
1/2+x,1/2+y,z
1/2-x,1/2+y,-z
1/2-x,1/2-y,-z
1/2+x,1/2-y,z
loop_
_atom_site_type_symbol
_atom_site_label
_atom_site_fract_x
_atom_site_fract_y
_atom_site_fract_z
Si Si1 0.807773 0.064188 0.548282
Si Si2 0.352178 0.604299 0.319962
Si Si3 0.500000 0.768705 0.000000
Si Si4 0.000000 0.901219 0.000000
Si Si5 0.719881 0.935692 0.766881
Si Si6 0.538647 0.065092 0.134201
Si Si7 0.655928 0.683634 0.875164
O O1 0.790377 0.102149 0.433210
O O2 0.723627 0.085505 0.639256
O O3 0.990797 0.068487 0.631650
O O4 0.769173 0.000000 0.512266
O O5 0.216732 0.576029 0.211763
O O6 0.384473 0.660908 0.261706
O O7 0.551875 0.732207 0.903639
O O8 0.339108 0.800172 0.927429
O O9 0.113042 0.865075 0.950640
O O10 0.881681 0.930686 0.881163
O O11 0.580070 0.911193 0.804348
O O12 0.691662 0.000000 0.743690
O O13 0.511514 0.000000 0.125171
O O14 0.500000 0.086558 0.000000
#
# Coordination Sequence:
#
# PCOD9204744 Si02
#       7
#     8   8   4   4   8   8   8
#     4  10  21  37  57  83 123 171 206 230 266 326
#     4  11  20  35  58  85 111 156 202 238 272 349
#     4   9  22  42  59  92 112 142 175 250 338 369
#     4  11  19  34  55  88 110 154 191 242 279 355
#     4  10  21  34  50  81 125 163 195 235 277 326
#     4  10  21  33  49  80 121 157 194 243 289 326
#     4  10  21  37  64  85 113 141 185 244 308 372
#
# _framework density 19.590969999999999
#
# number of rings (size 3 to 8) (size 9 to 14) (size 15 to 20)
#    0.000    1.833    1.667    3.250    3.500    0.667 
#    0.000    2.500    0.000    4.000    0.000    0.000 
#    0.000    0.000    0.000    0.000    0.000    0.000 
#
# Total GULP energy -133742.238333 kJ/mol
# GULP energy per Si atom -5572.593264 kJ/mol
# Density = 1.954638 g / cm^3
# Si number density = 19.590970 Si / 1000 Ang^3
#
#
#
# Elastic Constant Matrix: (Units=GPa)
#
#
# Indices 1 2 3 4 5 6 
#
# 1 87.5299 20.2000 39.7562 0.0000 -24.8675 0.0000
# 2 20.2000 38.4216 30.8126 0.0000 -13.9884 0.0000
# 3 39.7562 30.8126 135.6364 0.0000 -26.8618 0.0000
# 4 0.0000 0.0000 0.0000 23.4139 0.0000 -1.4472
# 5 -24.8675 -13.9884 -26.8618 0.0000 30.7328 0.0000
# 6 0.0000 0.0000 0.0000 -1.4472 0.0000 19.5584
#
#
#
# Elastic Compliance Matrix: (Units=1/GPa)
#
#
# Indices 1 2 3 4 5 6 
#
# 1 0.015794 -0.003213 -0.002005 0.000000 0.009565 0.000000
# 2 -0.003213 0.035167 -0.005311 0.000000 0.008764 0.000000
# 3 -0.002005 -0.005311 0.010118 0.000000 0.004804 0.000000
# 4 0.000000 0.000000 0.000000 0.042906 0.000000 0.003175
# 5 0.009565 0.008764 0.004804 0.000000 0.048466 0.000000
# 6 0.000000 0.000000 0.000000 0.003175 0.000000 0.051364
#
#
# Mechanical properties :
#
#
# Convention : Reuss Voigt Hill
#
# Bulk Modulus (GPa) = 24.98780 49.23616 37.11198
# Shear Modulus (GPa) = 20.98947 26.12896 23.55921
#
# Velocity S-wave (km/s) = 3.27675 3.65598 3.47155
# Velocity P-wave (km/s) = 5.20563 6.55807 5.92059
#
# Compressibility (1/GPa) = 0.04001952
#
# Stress axis : x y z
#
# Youngs Moduli (GPa) = 63.31348 28.43602 98.83041
#
# Poissons Ratio (x) = 0.09138 0.19818
# Poissons Ratio (y) = 0.20345 0.52492
# Poissons Ratio (z) = 0.12696 0.15103
#
# Static dielectric constant tensor:
#      x y z
#    x 1.740070 0.000000 -0.058690 
#    y 0.000000 1.705330 0.000000 
#    z -0.058690 0.000000 1.719340 
# 
# From -- ./inp_files/123158.got.cif
#   From: 2010.05.17/outbox.cif.g08.bks.cpg/sg12_62_cif.got.tgz:123158.got - 2010.06.03 13:09:07.
