data_PCOD9204324
_publ_section_title
;
Structure prediction by ZEFSAII (Michael W. Deem and Ramdas Pophale) SiO2 
 PCOD9204324
Probable space group: C 2/M
;
_chemical_formula_sum "Si O2"
_cell_formula_units_Z 56
_cell_length_a 11.255249
_cell_length_b 31.918835
_cell_length_c 8.059653
_cell_angle_alpha 90.000000
_cell_angle_beta 57.749854
_cell_angle_gamma 90.000000
_cell_volume 2448.772292
_symmetry_space_group_name_H-M "C 2/M"
_symmetry_group_IT_number 12
_symmetry_cell_setting 'monoclinic'
loop_
_space_group_symop_operation_xyz
x,y,z
-x,y,-z
-x,-y,-z
x,-y,z
1/2+x,1/2+y,z
1/2-x,1/2+y,-z
1/2-x,1/2-y,-z
1/2+x,1/2-y,z
loop_
_atom_site_type_symbol
_atom_site_label
_atom_site_fract_x
_atom_site_fract_y
_atom_site_fract_z
Si Si1 0.860292 0.836656 0.207113
Si Si2 0.174325 0.741114 0.227814
Si Si3 0.498178 0.169478 0.307165
Si Si4 0.303292 0.900273 0.878159
Si Si5 0.691364 0.328966 0.391857
Si Si6 0.151527 0.917934 0.312944
Si Si7 0.938056 0.548604 0.234212
O O1 0.757970 0.797020 0.252254
O O2 0.789423 0.880525 0.201027
O O3 0.891563 0.834971 0.376100
O O4 0.000000 0.830591 0.000000
O O5 0.170315 0.783468 0.332513
O O6 0.027975 0.719025 0.291566
O O7 0.250000 0.750000 0.000000
O O8 0.500000 0.155369 0.500000
O O9 0.618231 0.143224 0.121872
O O10 0.352181 0.163809 0.326843
O O11 0.443209 0.928180 0.744816
O O12 0.204902 0.925273 0.082938
O O13 0.651605 0.367780 0.309678
O O14 0.280375 0.933038 0.335073
O O15 0.000000 0.932216 0.500000
O O16 0.929469 0.500000 0.285386
O O17 0.000000 0.552267 0.000000
#
# Coordination Sequence:
#
# PCOD9204324 Si02
#       7
#     8   8   8   8   8   8   8
#     4  11  24  40  59  86 120 167 212 264 328 379
#     4  11  26  38  57  86 119 161 218 272 322 378
#     4  11  22  39  62  85 115 164 217 264 313 376
#     4  10  20  41  63  90 123 161 213 255 313 387
#     4  12  23  41  61  83 123 166 213 270 324 381
#     4  11  23  38  62  94 127 164 205 262 323 387
#     4   9  19  37  66  98 127 163 207 258 318 390
#
# _framework density 22.868603
#
# number of rings (size 3 to 8) (size 9 to 14) (size 15 to 20)
#    0.000    1.286    4.286    3.000    2.000    2.000 
#    0.000    0.000    0.000    4.286    0.000    0.000 
#    0.000    0.000    0.000    0.000    0.000    0.000 
#
# Total GULP energy -156355.510562 kJ/mol
# GULP energy per Si atom -5584.125377 kJ/mol
# Density = 2.281655 g / cm^3
# Si number density = 22.868603 Si / 1000 Ang^3
#
#
#
# Elastic Constant Matrix: (Units=GPa)
#
#
# Indices 1 2 3 4 5 6 
#
# 1 96.7642 41.7666 30.2611 0.0000 -26.7559 0.0000
# 2 41.7666 107.7043 11.3848 0.0000 -4.7633 0.0000
# 3 30.2611 11.3848 109.5546 0.0000 -19.2483 0.0000
# 4 0.0000 0.0000 0.0000 16.8868 0.0000 -0.0399
# 5 -26.7559 -4.7633 -19.2483 0.0000 36.5712 0.0000
# 6 0.0000 0.0000 0.0000 -0.0399 0.0000 32.6457
#
#
#
# Elastic Compliance Matrix: (Units=1/GPa)
#
#
# Indices 1 2 3 4 5 6 
#
# 1 0.016184 -0.005609 -0.002133 0.000000 0.009987 0.000000
# 2 -0.005609 0.011352 -0.000101 0.000000 -0.002678 0.000000
# 3 -0.002133 -0.000101 0.010414 0.000000 0.003908 0.000000
# 4 0.000000 0.000000 0.000000 0.059218 0.000000 0.000072
# 5 0.009987 -0.002678 0.003908 0.000000 0.036359 0.000000
# 6 0.000000 0.000000 0.000000 0.000072 0.000000 0.030632
#
#
# Mechanical properties :
#
#
# Convention : Reuss Voigt Hill
#
# Bulk Modulus (GPa) = 44.91372 53.42757 49.17064
# Shear Modulus (GPa) = 26.70010 32.59476 29.64743
#
# Velocity S-wave (km/s) = 3.42064 3.77942 3.60450
# Velocity P-wave (km/s) = 5.94000 6.51605 6.23468
#
# Compressibility (1/GPa) = 0.02226491
#
# Stress axis : x y z
#
# Youngs Moduli (GPa) = 61.78994 88.09060 96.02449
#
# Poissons Ratio (x) = 0.49408 0.20479
# Poissons Ratio (y) = 0.34657 0.00969
# Poissons Ratio (z) = 0.13178 0.00889
#
# Static dielectric constant tensor:
#      x y z
#    x 1.916370 0.000000 0.015520 
#    y 0.000000 1.850750 0.000000 
#    z 0.015520 0.000000 2.380450 
# 
# From -- ./inp_files/54576.got.cif
#   From: 2010.05.17/outbox.cif.g08.bks.cpg/sg12_28_cif.got.tgz:54576.got - 2010.06.03 13:09:07.
