data_PCOD9204549
_publ_section_title
;
Structure prediction by ZEFSAII (Michael W. Deem and Ramdas Pophale) SiO2 
 PCOD9204549
Probable space group: C 2/M
;
_chemical_formula_sum "Si O2"
_cell_formula_units_Z 50
_cell_length_a 15.386434
_cell_length_b 17.431959
_cell_length_c 9.392313
_cell_angle_alpha 90.000000
_cell_angle_beta 60.683416
_cell_angle_gamma 90.000000
_cell_volume 2196.530052
_symmetry_space_group_name_H-M "C 2/M"
_symmetry_group_IT_number 12
_symmetry_cell_setting 'monoclinic'
loop_
_space_group_symop_operation_xyz
x,y,z
-x,y,-z
-x,-y,-z
x,-y,z
1/2+x,1/2+y,z
1/2-x,1/2+y,-z
1/2-x,1/2-y,-z
1/2+x,1/2-y,z
loop_
_atom_site_type_symbol
_atom_site_label
_atom_site_fract_x
_atom_site_fract_y
_atom_site_fract_z
Si Si1 0.782805 0.915876 0.761465
Si Si2 0.400101 0.408241 0.401837
Si Si3 0.184091 0.677771 0.090115
Si Si4 0.201910 0.412034 0.364304
Si Si5 0.905914 0.383801 0.274202
Si Si6 0.487352 0.729900 0.174355
Si Si7 0.000000 0.500000 0.000000
O O1 0.866914 0.882774 0.588005
O O2 0.688452 0.920336 0.731205
O O3 0.819806 0.000000 0.770227
O O4 0.732211 0.881399 0.940484
O O5 0.425924 0.500000 0.383649
O O6 0.303838 0.401491 0.373680
O O7 0.476295 0.346282 0.276506
O O8 0.196287 0.645077 0.237520
O O9 0.074490 0.712436 0.154198
O O10 0.250000 0.750000 0.000000
O O11 0.199789 0.500000 0.315950
O O12 0.110994 0.398729 0.546615
O O13 0.993829 0.431910 0.129233
O O14 0.898469 0.292408 0.252381
O O15 0.500000 0.707311 0.000000
#
# Coordination Sequence:
#
# PCOD9204549 Si02
#       7
#     8   8   8   8   8   8   2
#     4  10  20  42  68  94 125 175 224 261 324 398
#     4   9  22  44  75  97 122 171 233 281 319 388
#     4  12  26  42  62  96 136 176 211 273 343 395
#     4  10  22  43  65  98 133 170 217 273 340 387
#     4  11  21  36  67  96 128 171 213 272 317 401
#     4  12  24  41  64 102 129 173 224 269 331 391
#     4  12  16  36  60 102 134 164 226 256 328 400
#
# _framework density 22.763175
#
# number of rings (size 3 to 8) (size 9 to 14) (size 15 to 20)
#    0.000    1.280    4.000    2.400    2.240    2.240 
#    1.440    2.400    0.000    1.920    0.000    0.000 
#    0.000    0.000    0.000    0.000    0.000    0.000 
#
# Total GULP energy -139242.648738 kJ/mol
# GULP energy per Si atom -5569.705950 kJ/mol
# Density = 2.271136 g / cm^3
# Si number density = 22.763175 Si / 1000 Ang^3
#
#
#
# Elastic Constant Matrix: (Units=GPa)
#
#
# Indices 1 2 3 4 5 6 
#
# 1 28.0294 18.5933 32.0712 0.0000 9.1191 0.0000
# 2 18.5933 117.3907 86.3392 0.0000 1.0518 0.0000
# 3 32.0712 86.3392 183.6076 0.0000 22.9682 0.0000
# 4 0.0000 0.0000 0.0000 49.7630 0.0000 12.9717
# 5 9.1191 1.0518 22.9682 0.0000 20.1826 0.0000
# 6 0.0000 0.0000 0.0000 12.9717 0.0000 27.1409
#
#
#
# Elastic Compliance Matrix: (Units=1/GPa)
#
#
# Indices 1 2 3 4 5 6 
#
# 1 0.049145 -0.004403 -0.004389 0.000000 -0.016980 0.000000
# 2 -0.004403 0.014420 -0.007190 0.000000 0.009420 0.000000
# 3 -0.004389 -0.007190 0.010843 0.000000 -0.009981 0.000000
# 4 0.000000 0.000000 0.000000 0.022955 0.000000 -0.010971
# 5 -0.016980 0.009420 -0.009981 0.000000 0.068088 0.000000
# 6 0.000000 0.000000 0.000000 -0.010971 0.000000 0.042088
#
#
# Mechanical properties :
#
#
# Convention : Reuss Voigt Hill
#
# Bulk Modulus (GPa) = 23.56196 67.00394 45.28295
# Shear Modulus (GPa) = 19.71215 32.21890 25.96552
#
# Velocity S-wave (km/s) = 2.94592 3.76626 3.38106
# Velocity P-wave (km/s) = 4.68451 6.95788 5.93113
#
# Compressibility (1/GPa) = 0.04244129
#
# Stress axis : x y z
#
# Youngs Moduli (GPa) = 20.34814 69.34942 92.22789
#
# Poissons Ratio (x) = 0.30537 0.40483
# Poissons Ratio (y) = 0.08960 0.66312
# Poissons Ratio (z) = 0.08932 0.49862
#
# Static dielectric constant tensor:
#      x y z
#    x 1.807220 0.000000 0.039530 
#    y 0.000000 1.479910 0.000000 
#    z 0.039530 0.000000 1.689010 
# 
# From -- ./inp_files/75770.got.cif
#   From: 2010.05.17/outbox.cif.g08.bks.cpg/sg12_38_cif.got.tgz:75770.got - 2010.06.03 13:09:07.
