data_PCOD9204655
_publ_section_title
;
Structure prediction by ZEFSAII (Michael W. Deem and Ramdas Pophale) SiO2 
 PCOD9204655
Probable space group: C 2/M
;
_chemical_formula_sum "Si O2"
_cell_formula_units_Z 50
_cell_length_a 30.848972
_cell_length_b 17.575998
_cell_length_c 7.191872
_cell_angle_alpha 90.000000
_cell_angle_beta 143.589125
_cell_angle_gamma 90.000000
_cell_volume 2314.599149
_symmetry_space_group_name_H-M "C 2/M"
_symmetry_group_IT_number 12
_symmetry_cell_setting 'monoclinic'
loop_
_space_group_symop_operation_xyz
x,y,z
-x,y,-z
-x,-y,-z
x,-y,z
1/2+x,1/2+y,z
1/2-x,1/2+y,-z
1/2-x,1/2-y,-z
1/2+x,1/2-y,z
loop_
_atom_site_type_symbol
_atom_site_label
_atom_site_fract_x
_atom_site_fract_y
_atom_site_fract_z
Si Si1 0.763258 0.662450 0.607286
Si Si2 0.234758 0.859459 0.103444
Si Si3 0.605708 0.621637 0.158343
Si Si4 0.589024 0.580461 0.662244
Si Si5 0.494940 0.735564 0.697050
Si Si6 0.350553 0.804170 0.232019
Si Si7 0.000000 0.000000 0.000000
O O1 0.750000 0.750000 0.500000
O O2 0.762408 0.622887 0.406150
O O3 0.692833 0.633079 0.481073
O O4 0.835892 0.659430 0.979395
O O5 0.304070 0.853179 0.213681
O O6 0.168189 0.916483 0.844920
O O7 0.191429 0.777856 0.933900
O O8 0.596979 0.590035 0.913864
O O9 0.571867 0.707974 0.044303
O O10 0.560867 0.567470 0.140127
O O11 0.552020 0.500000 0.480403
O O12 0.543978 0.652940 0.447753
O O13 0.500000 0.760313 0.500000
O O14 0.434178 0.789834 0.574544
#
# Coordination Sequence:
#
# PCOD9204655 Si02
#       7
#     8   8   8   8   8   8   2
#     4   9  17  32  51  67  91 129 174 220 258 290
#     4   8  16  27  46  67  85 119 163 210 253 281
#     4  10  21  32  43  69 104 144 177 202 251 309
#     4   9  16  29  46  61  89 134 177 201 231 291
#     4   9  18  30  47  69  96 134 173 206 255 308
#     4   9  16  30  49  69  90 123 170 216 256 293
#     4  12  24  32  42  68 116 156 178 204 242 320
#
# _framework density 21.602011999999998
#
# number of rings (size 3 to 8) (size 9 to 14) (size 15 to 20)
#    0.000    2.880    0.800    2.880    1.120    6.080 
#    0.000    0.000    0.000    0.000    0.000    0.000 
#    0.000    0.640    3.680   43.760    5.280    0.000 
#
# Total GULP energy -139194.470505 kJ/mol
# GULP energy per Si atom -5567.778820 kJ/mol
# Density = 2.155285 g / cm^3
# Si number density = 21.602012 Si / 1000 Ang^3
#
#
#
# Elastic Constant Matrix: (Units=GPa)
#
#
# Indices 1 2 3 4 5 6 
#
# 1 110.4269 26.3736 23.9094 0.0000 16.3778 0.0000
# 2 26.3736 29.8941 13.8323 0.0000 12.6293 0.0000
# 3 23.9094 13.8323 52.1304 0.0000 10.8293 0.0000
# 4 0.0000 0.0000 0.0000 23.1577 0.0000 3.5160
# 5 16.3778 12.6293 10.8293 0.0000 26.3034 0.0000
# 6 0.0000 0.0000 0.0000 3.5160 0.0000 20.5956
#
#
#
# Elastic Compliance Matrix: (Units=1/GPa)
#
#
# Indices 1 2 3 4 5 6 
#
# 1 0.011991 -0.008294 -0.002816 0.000000 -0.002325 0.000000
# 2 -0.008294 0.050646 -0.006185 0.000000 -0.016607 0.000000
# 3 -0.002816 -0.006185 0.023111 0.000000 -0.004792 0.000000
# 4 0.000000 0.000000 0.000000 0.044331 0.000000 -0.007568
# 5 -0.002325 -0.016607 -0.004792 0.000000 0.049412 0.000000
# 6 0.000000 0.000000 0.000000 -0.007568 0.000000 0.049846
#
#
# Mechanical properties :
#
#
# Convention : Reuss Voigt Hill
#
# Bulk Modulus (GPa) = 19.54705 35.63133 27.58919
# Shear Modulus (GPa) = 17.79494 22.56708 20.18101
#
# Velocity S-wave (km/s) = 2.87324 3.23565 3.05982
# Velocity P-wave (km/s) = 4.48059 5.52173 5.02818
#
# Compressibility (1/GPa) = 0.05115863
#
# Stress axis : x y z
#
# Youngs Moduli (GPa) = 83.39508 19.74492 43.26995
#
# Poissons Ratio (x) = 0.16376 0.12185
# Poissons Ratio (y) = 0.69167 0.26761
# Poissons Ratio (z) = 0.23485 0.12212
#
# Static dielectric constant tensor:
#      x y z
#    x 1.775410 0.000000 0.063410 
#    y 0.000000 1.775920 0.000000 
#    z 0.063410 0.000000 1.777290 
# 
# From -- ./inp_files/112444.got.cif
#   From: 2010.05.17/outbox.cif.g08.bks.cpg/sg12_57_cif.got.tgz:112444.got - 2010.06.03 13:09:07.
