data_PCOD9204664
_publ_section_title
;
Structure prediction by ZEFSAII (Michael W. Deem and Ramdas Pophale) SiO2 
 PCOD9204664
Probable space group: C 2/M
;
_chemical_formula_sum "Si O2"
_cell_formula_units_Z 56
_cell_length_a 35.912323
_cell_length_b 18.581211
_cell_length_c 5.415237
_cell_angle_alpha 90.000000
_cell_angle_beta 69.570830
_cell_angle_gamma 90.000000
_cell_volume 3386.280749
_symmetry_space_group_name_H-M "C 2/M"
_symmetry_group_IT_number 12
_symmetry_cell_setting 'monoclinic'
loop_
_space_group_symop_operation_xyz
x,y,z
-x,y,-z
-x,-y,-z
x,-y,z
1/2+x,1/2+y,z
1/2-x,1/2+y,-z
1/2-x,1/2-y,-z
1/2+x,1/2-y,z
loop_
_atom_site_type_symbol
_atom_site_label
_atom_site_fract_x
_atom_site_fract_y
_atom_site_fract_z
Si Si1 0.907386 0.412995 0.236247
Si Si2 0.832669 0.683982 0.282939
Si Si3 0.178980 0.916722 0.366258
Si Si4 0.045172 0.413096 0.375863
Si Si5 0.324490 0.332418 0.142829
Si Si6 0.736298 0.807889 0.233064
Si Si7 0.226411 0.580695 0.877818
O O1 0.899834 0.500000 0.254793
O O2 0.867771 0.366360 0.293776
O O3 0.929003 0.393271 0.443214
O O4 0.934580 0.396345 0.933434
O O5 0.844733 0.753695 0.096594
O O6 0.805514 0.716738 0.562869
O O7 0.800808 0.634523 0.213252
O O8 0.162234 0.878830 0.651072
O O9 0.226978 0.918524 0.292993
O O10 0.166201 0.000000 0.373583
O O11 0.171424 0.874125 0.127133
O O12 0.043134 0.500000 0.388916
O O13 0.000000 0.385692 0.500000
O O14 0.276941 0.317097 0.288016
O O15 0.750000 0.750000 0.000000
O O16 0.726364 0.886803 0.151533
O O17 0.211073 0.500000 0.896421
#
# Coordination Sequence:
#
# PCOD9204664 Si02
#       7
#     8   8   8   8   8   8   8
#     4  10  22  34  51  79 107 133 169 218 267 306
#     4  12  22  33  49  70 103 129 170 213 273 317
#     4  10  21  36  51  69  87 115 174 226 255 293
#     4   9  18  36  57  74  97 134 176 211 247 308
#     4  11  21  34  53  68  90 131 170 210 265 310
#     4  11  21  35  49  65  89 134 181 216 258 324
#     4  10  21  32  46  64  91 127 166 217 270 305
#
# _framework density 16.537317999999999
#
# number of rings (size 3 to 8) (size 9 to 14) (size 15 to 20)
#    0.000    1.571    2.857    3.429    2.000    3.429 
#    0.000    0.000    0.000    0.000    0.000    0.000 
#    0.000    0.000    0.000    0.000    0.000   50.000 
#
# Total GULP energy -156058.279580 kJ/mol
# GULP energy per Si atom -5573.509985 kJ/mol
# Density = 1.649968 g / cm^3
# Si number density = 16.537318 Si / 1000 Ang^3
#
#
#
# Elastic Constant Matrix: (Units=GPa)
#
#
# Indices 1 2 3 4 5 6 
#
# 1 59.7119 25.5122 24.4999 0.0000 9.1579 0.0000
# 2 25.5122 104.1607 28.7658 0.0000 16.3186 0.0000
# 3 24.4999 28.7658 62.2338 0.0000 12.5839 0.0000
# 4 0.0000 0.0000 0.0000 11.0804 0.0000 6.4171
# 5 9.1579 16.3186 12.5839 0.0000 16.2157 0.0000
# 6 0.0000 0.0000 0.0000 6.4171 0.0000 22.0014
#
#
#
# Elastic Compliance Matrix: (Units=1/GPa)
#
#
# Indices 1 2 3 4 5 6 
#
# 1 0.021131 -0.002797 -0.006147 0.000000 -0.004349 0.000000
# 2 -0.002797 0.012448 -0.002893 0.000000 -0.008702 0.000000
# 3 -0.006147 -0.002893 0.021985 0.000000 -0.010678 0.000000
# 4 0.000000 0.000000 0.000000 0.108593 0.000000 -0.031673
# 5 -0.004349 -0.008702 -0.010678 0.000000 0.081169 0.000000
# 6 0.000000 0.000000 0.000000 -0.031673 0.000000 0.054690
#
#
# Mechanical properties :
#
#
# Convention : Reuss Voigt Hill
#
# Bulk Modulus (GPa) = 31.35708 42.62914 36.99311
# Shear Modulus (GPa) = 14.95584 19.68140 17.31862
#
# Velocity S-wave (km/s) = 3.01054 3.45356 3.23963
# Velocity P-wave (km/s) = 5.57557 6.46036 6.03420
#
# Compressibility (1/GPa) = 0.03189072
#
# Stress axis : x y z
#
# Youngs Moduli (GPa) = 47.32381 80.33499 45.48652
#
# Poissons Ratio (x) = 0.22468 0.27959
# Poissons Ratio (y) = 0.13235 0.13159
# Poissons Ratio (z) = 0.29088 0.23241
#
# Static dielectric constant tensor:
#      x y z
#    x 1.544170 0.000000 0.054680 
#    y 0.000000 1.591280 0.000000 
#    z 0.054680 0.000000 1.676520 
# 
# From -- ./inp_files/31976.got.cif
#   From: 2010.05.17/outbox.cif.g08.bks.cpg/sg12_16_cif.got.tgz:31976.got - 2010.06.03 13:09:07.
