data_PCOD9204856
_publ_section_title
;
Structure prediction by ZEFSAII (Michael W. Deem and Ramdas Pophale) SiO2 
 PCOD9204856
Probable space group: C 2/M
;
_chemical_formula_sum "Si O2"
_cell_formula_units_Z 56
_cell_length_a 15.803338
_cell_length_b 9.113323
_cell_length_c 23.947878
_cell_angle_alpha 90.000000
_cell_angle_beta 59.463631
_cell_angle_gamma 90.000000
_cell_volume 2970.643363
_symmetry_space_group_name_H-M "C 2/M"
_symmetry_group_IT_number 12
_symmetry_cell_setting 'monoclinic'
loop_
_space_group_symop_operation_xyz
x,y,z
-x,y,-z
-x,-y,-z
x,-y,z
1/2+x,1/2+y,z
1/2-x,1/2+y,-z
1/2-x,1/2-y,-z
1/2+x,1/2-y,z
loop_
_atom_site_type_symbol
_atom_site_label
_atom_site_fract_x
_atom_site_fract_y
_atom_site_fract_z
Si Si1 0.300405 0.176426 0.430096
Si Si2 0.176812 0.834863 0.064708
Si Si3 0.878097 0.167846 0.796167
Si Si4 0.670809 0.835384 0.802216
Si Si5 0.473273 0.335059 0.068439
Si Si6 0.470929 0.823780 0.663439
Si Si7 0.710360 0.678506 0.340502
O O1 0.250000 0.250000 0.500000
O O2 0.416295 0.214556 0.388344
O O3 0.242804 0.216482 0.392283
O O4 0.294901 0.000000 0.436587
O O5 0.150162 0.768827 0.133945
O O6 0.074962 0.845300 0.066652
O O7 0.215884 0.000000 0.062244
O O8 0.250000 0.750000 0.000000
O O9 0.775974 0.157436 0.797260
O O10 0.947401 0.263143 0.733396
O O11 0.916206 0.000000 0.790849
O O12 0.601245 0.744510 0.865670
O O13 0.700392 0.777222 0.731218
O O14 0.630487 0.000000 0.809743
O O15 0.434955 0.500000 0.069295
O O16 0.500000 0.263219 0.000000
O O17 0.390098 0.751280 0.648842
O O18 0.460029 0.000000 0.665725
O O19 0.700897 0.500000 0.339156
#
# Coordination Sequence:
#
# PCOD9204856 Si02
#       7
#     8   8   8   8   8   8   8
#     4  10  23  41  61  88 122 157 195 240 290 348
#     4  10  21  35  51  74 104 142 185 228 278 337
#     4   9  19  36  55  77 108 145 185 230 283 344
#     4   9  18  33  55  77 100 136 182 227 271 330
#     4  10  21  34  48  72 107 140 174 225 282 328
#     4  10  21  37  60  90 118 148 194 246 289 337
#     4   9  20  40  61  84 119 158 192 233 290 352
#
# _framework density 18.851136
#
# number of rings (size 3 to 8) (size 9 to 14) (size 15 to 20)
#    0.000    2.429    0.000    2.143    2.000    6.000 
#    0.000    2.857    0.000    0.000    0.000    0.000 
#    0.000    0.000    0.000    0.000    0.000    0.000 
#
# Total GULP energy -156086.696791 kJ/mol
# GULP energy per Si atom -5574.524885 kJ/mol
# Density = 1.880823 g / cm^3
# Si number density = 18.851136 Si / 1000 Ang^3
#
#
#
# Elastic Constant Matrix: (Units=GPa)
#
#
# Indices 1 2 3 4 5 6 
#
# 1 70.9135 28.6412 77.5796 0.0000 5.8338 0.0000
# 2 28.6412 47.2391 64.8170 0.0000 -10.2060 0.0000
# 3 77.5796 64.8170 213.9234 0.0000 6.5939 0.0000
# 4 0.0000 0.0000 0.0000 11.1624 0.0000 18.6700
# 5 5.8338 -10.2060 6.5939 0.0000 38.9919 0.0000
# 6 0.0000 0.0000 0.0000 18.6700 0.0000 5.4905
#
#
#
# Elastic Compliance Matrix: (Units=1/GPa)
#
#
# Indices 1 2 3 4 5 6 
#
# 1 0.024482 -0.006407 -0.006808 0.000000 -0.004189 0.000000
# 2 -0.006407 0.043764 -0.011378 0.000000 0.014338 0.000000
# 3 -0.006808 -0.011378 0.010707 0.000000 -0.003770 0.000000
# 4 0.000000 0.000000 0.000000 -0.019112 0.000000 0.064988
# 5 -0.004189 0.014338 -0.003770 0.000000 0.030664 0.000000
# 6 0.000000 0.000000 0.000000 0.064988 0.000000 -0.038855
#
#
# Mechanical properties :
#
#
# Convention : Reuss Voigt Hill
#
# Bulk Modulus (GPa) = 33.59563 74.90575 54.25069
# Shear Modulus (GPa) = 45.14294 21.86481 33.50387
#
# Velocity S-wave (km/s) = 4.89888 3.40938 4.22036
# Velocity P-wave (km/s) = 7.06109 7.43775 7.25186
#
# Compressibility (1/GPa) = 0.02976578
#
# Stress axis : x y z
#
# Youngs Moduli (GPa) = 40.84615 22.85002 93.39440
#
# Poissons Ratio (x) = 0.14641 0.63583
# Poissons Ratio (y) = 0.26171 1.06268
# Poissons Ratio (z) = 0.27808 0.26000
#
# Static dielectric constant tensor:
#      x y z
#    x 1.623350 0.000000 0.031320 
#    y 0.000000 1.679340 0.000000 
#    z 0.031320 0.000000 1.670350 
# 
# From -- ./inp_files/342263.got.cif
#   From: 2010.05.17/outbox.cif.g08.bks.cpg/sg12_172_cif.got.tgz:342263.got - 2010.06.03 13:09:07.
