data_PCOD9204516
_publ_section_title
;
Structure prediction by ZEFSAII (Michael W. Deem and Ramdas Pophale) SiO2 
 PCOD9204516
Probable space group: C 2/M
;
_chemical_formula_sum "Si O2"
_cell_formula_units_Z 46
_cell_length_a 26.447289
_cell_length_b 16.245229
_cell_length_c 7.311869
_cell_angle_alpha 90.000000
_cell_angle_beta 37.319151
_cell_angle_gamma 90.000000
_cell_volume 1904.540437
_symmetry_space_group_name_H-M "C 2/M"
_symmetry_group_IT_number 12
_symmetry_cell_setting 'monoclinic'
loop_
_space_group_symop_operation_xyz
x,y,z
-x,y,-z
-x,-y,-z
x,-y,z
1/2+x,1/2+y,z
1/2-x,1/2+y,-z
1/2-x,1/2-y,-z
1/2+x,1/2-y,z
loop_
_atom_site_type_symbol
_atom_site_label
_atom_site_fract_x
_atom_site_fract_y
_atom_site_fract_z
Si Si1 0.426657 0.795843 0.416923
Si Si2 0.674225 0.138720 0.976687
Si Si3 0.145431 0.133278 0.535586
Si Si4 0.647016 0.907437 0.648686
Si Si5 0.000000 0.808639 0.500000
Si Si6 0.826939 0.167924 0.114785
Si Si7 0.000000 0.000000 0.000000
O O1 0.370680 0.715749 0.531641
O O2 0.417756 0.844874 0.254545
O O3 0.499520 0.750741 0.322354
O O4 0.388178 0.858186 0.675707
O O5 0.762934 0.101528 0.778826
O O6 0.643351 0.098522 0.878875
O O7 0.687169 0.236146 0.891035
O O8 0.155290 0.154938 0.722171
O O9 0.068516 0.071653 0.744154
O O10 0.741294 0.879978 0.322559
O O11 0.630920 0.000000 0.636489
O O12 0.086666 0.857653 0.234534
#
# Coordination Sequence:
#
# PCOD9204516 Si02
#       7
#     8   8   8   8   4   8   2
#     4  11  22  44  68  99 126 198 244 280 341 425
#     4  10  21  40  72  93 126 186 251 288 324 410
#     4  11  21  41  63  95 145 184 230 270 350 432
#     4  11  23  41  68 102 137 174 240 301 349 399
#     4  10  24  36  68  98 136 174 248 284 344 424
#     4  10  20  42  65  99 127 186 233 288 339 420
#     4  12  28  36  64 118 154 186 196 288 388 424
#
# _framework density 24.152809000000001
#
# number of rings (size 3 to 8) (size 9 to 14) (size 15 to 20)
#    0.000    1.391    3.478    2.609    7.304    0.696 
#    0.000    0.870    0.000    5.217    0.000    0.000 
#    0.000    0.000    0.000    0.000    0.000    0.000 
#
# Total GULP energy -128241.804219 kJ/mol
# GULP energy per Si atom -5575.730618 kJ/mol
# Density = 2.409784 g / cm^3
# Si number density = 24.152809 Si / 1000 Ang^3
#
#
#
# Elastic Constant Matrix: (Units=GPa)
#
#
# Indices 1 2 3 4 5 6 
#
# 1 106.8930 17.4690 14.3148 0.0000 -7.6865 0.0000
# 2 17.4690 47.8955 -16.6252 0.0000 0.1581 0.0000
# 3 14.3148 -16.6252 98.4612 0.0000 -27.6418 0.0000
# 4 0.0000 0.0000 0.0000 21.2836 0.0000 -3.2730
# 5 -7.6865 0.1581 -27.6418 0.0000 25.3205 0.0000
# 6 0.0000 0.0000 0.0000 -3.2730 0.0000 -32.7523
#
#
#
# Elastic Compliance Matrix: (Units=1/GPa)
#
#
# Indices 1 2 3 4 5 6 
#
# 1 0.010430 -0.004498 -0.001988 0.000000 0.001024 0.000000
# 2 -0.004498 0.024703 0.006342 0.000000 0.005404 0.000000
# 3 -0.001988 0.006342 0.016345 0.000000 0.017200 0.000000
# 4 0.000000 0.000000 0.000000 0.046273 0.000000 -0.004624
# 5 0.001024 0.005404 0.017200 0.000000 0.058548 0.000000
# 6 0.000000 0.000000 0.000000 -0.004624 0.000000 -0.030070
#
#
# Mechanical properties :
#
#
# Convention : Reuss Voigt Hill
#
# Bulk Modulus (GPa) = 19.53523 31.50743 25.52133
# Shear Modulus (GPa) = 34.82359 18.64308 26.73334
#
# Velocity S-wave (km/s) = 3.80123 2.78129 3.33053
# Velocity P-wave (km/s) = 5.23178 4.83606 5.03780
#
# Compressibility (1/GPa) = 0.05118958
#
# Stress axis : x y z
#
# Youngs Moduli (GPa) = 95.87644 40.48115 61.18069
#
# Poissons Ratio (x) = 0.18208 0.12166
# Poissons Ratio (y) = 0.43123 -0.38801
# Poissons Ratio (z) = 0.19065 -0.25674
#
# Static dielectric constant tensor:
#      x y z
#    x 1.961900 0.000000 0.017380 
#    y 0.000000 1.853080 0.000000 
#    z 0.017380 0.000000 2.038400 
# 
# From -- ./inp_files/104993.got.cif
#   From: 2010.05.17/outbox.cif.g08.bks.cpg/sg12_53_cif.got.tgz:104993.got - 2010.06.03 13:09:07.
