data_PCOD9204053
_publ_section_title
;
Structure prediction by ZEFSAII (Michael W. Deem and Ramdas Pophale) SiO2 
 PCOD9204053
Probable space group: C 2/M
;
_chemical_formula_sum "Si O2"
_cell_formula_units_Z 44
_cell_length_a 21.375383
_cell_length_b 18.296944
_cell_length_c 17.609964
_cell_angle_alpha 90.000000
_cell_angle_beta 159.868890
_cell_angle_gamma 90.000000
_cell_volume 2370.409454
_symmetry_space_group_name_H-M "C 2/M"
_symmetry_group_IT_number 12
_symmetry_cell_setting 'monoclinic'
loop_
_space_group_symop_operation_xyz
x,y,z
-x,y,-z
-x,-y,-z
x,-y,z
1/2+x,1/2+y,z
1/2-x,1/2+y,-z
1/2-x,1/2-y,-z
1/2+x,1/2-y,z
loop_
_atom_site_type_symbol
_atom_site_label
_atom_site_fract_x
_atom_site_fract_y
_atom_site_fract_z
Si Si1 0.232763 0.916186 0.478323
Si Si2 0.432208 0.416288 0.006377
Si Si3 0.547480 0.412481 0.706267
Si Si4 0.000000 0.827251 0.500000
Si Si5 0.081061 0.323539 0.835172
Si Si6 0.225929 0.713509 0.844814
O O1 0.102779 0.897528 0.400764
O O2 0.403562 0.864681 0.660531
O O3 0.104037 0.914039 0.258185
O O4 0.295994 0.000000 0.560864
O O5 0.363428 0.500000 0.926769
O O6 0.500000 0.396498 0.000000
O O7 0.287315 0.360003 0.874361
O O8 0.573120 0.500000 0.730619
O O9 0.477159 0.378449 0.547266
O O10 0.738442 0.373727 0.945983
O O11 0.159294 0.772128 0.707264
O O12 0.078335 0.302647 0.742879
O O13 0.114679 0.251753 0.924478
#
# Coordination Sequence:
#
# PCOD9204053 Si02
#       6
#     8   8   8   4   8   8
#     4  10  21  37  62  89 114 154 199 241 296 350
#     4  10  22  39  56  83 117 153 198 245 295 347
#     4  10  20  40  64  88 121 155 195 245 292 346
#     4  10  23  38  59  88 122 158 196 236 297 354
#     4  10  21  38  60  90 116 152 199 240 290 350
#     4  10  22  39  57  85 121 155 194 241 293 350
#
# _framework density 18.562193000000001
#
# number of rings (size 3 to 8) (size 9 to 14) (size 15 to 20)
#    0.000    2.000    1.818    0.818    2.545    2.909 
#    0.000    3.182    0.000    9.818    0.000    0.000 
#    0.000    0.000    0.000    0.000    0.000    0.000 
#
# Total GULP energy -122779.904592 kJ/mol
# GULP energy per Si atom -5580.904754 kJ/mol
# Density = 1.851994 g / cm^3
# Si number density = 18.562193 Si / 1000 Ang^3
#
#
#
# Elastic Constant Matrix: (Units=GPa)
#
#
# Indices 1 2 3 4 5 6 
#
# 1 118.6208 38.0261 24.9395 0.0007 -15.1188 0.0006
# 2 38.0261 74.1544 11.3148 0.0001 3.8356 0.0001
# 3 24.9395 11.3148 24.5492 0.0009 -0.8746 0.0004
# 4 0.0007 0.0001 0.0009 22.0031 0.0003 -1.3480
# 5 -15.1188 3.8356 -0.8746 0.0003 20.8224 0.0001
# 6 0.0006 0.0001 0.0004 -1.3480 0.0001 28.8297
#
#
#
# Elastic Compliance Matrix: (Units=1/GPa)
#
#
# Indices 1 2 3 4 5 6 
#
# 1 0.014120 -0.006105 -0.011142 0.000000 0.010909 0.000000
# 2 -0.006105 0.017329 -0.002060 0.000000 -0.007711 0.000000
# 3 -0.011142 -0.002060 0.052808 -0.000002 -0.005493 -0.000001
# 4 0.000000 0.000000 -0.000002 0.045579 -0.000001 0.002131
# 5 0.010909 -0.007711 -0.005493 -0.000001 0.057136 0.000000
# 6 0.000000 0.000000 -0.000001 0.002131 0.000000 0.034786
#
#
# Mechanical properties :
#
#
# Convention : Reuss Voigt Hill
#
# Bulk Modulus (GPa) = 21.90914 40.65390 31.28152
# Shear Modulus (GPa) = 18.14314 23.86733 21.00523
#
# Velocity S-wave (km/s) = 3.12977 3.58970 3.36760
# Velocity P-wave (km/s) = 4.98892 6.25542 5.65772
#
# Compressibility (1/GPa) = 0.04564304
#
# Stress axis : x y z
#
# Youngs Moduli (GPa) = 70.81989 57.70630 18.93659
#
# Poissons Ratio (x) = 0.35229 0.21100
# Poissons Ratio (y) = 0.43235 0.03901
# Poissons Ratio (z) = 0.78910 0.11886
#
# Static dielectric constant tensor:
#      x y z
#    x 1.628620 0.000000 -0.016870 
#    y 0.000000 1.663170 0.000000 
#    z -0.016870 0.000000 1.621100 
# 
# From -- ./inp_files/16074.got.cif
#   From: 2010.05.17/outbox.cif.g08.bks.cpg/sg12_9_cif.got.tgz:16074.got - 2010.06.03 13:09:07.
