data_PCOD9204631
_publ_section_title
;
Structure prediction by ZEFSAII (Michael W. Deem and Ramdas Pophale) SiO2 
 PCOD9204631
Probable space group: C 2/M
;
_chemical_formula_sum "Si O2"
_cell_formula_units_Z 56
_cell_length_a 8.982735
_cell_length_b 28.661158
_cell_length_c 16.461156
_cell_angle_alpha 90.000000
_cell_angle_beta 135.544898
_cell_angle_gamma 90.000000
_cell_volume 2968.095479
_symmetry_space_group_name_H-M "C 2/M"
_symmetry_group_IT_number 12
_symmetry_cell_setting 'monoclinic'
loop_
_space_group_symop_operation_xyz
x,y,z
-x,y,-z
-x,-y,-z
x,-y,z
1/2+x,1/2+y,z
1/2-x,1/2+y,-z
1/2-x,1/2-y,-z
1/2+x,1/2-y,z
loop_
_atom_site_type_symbol
_atom_site_label
_atom_site_fract_x
_atom_site_fract_y
_atom_site_fract_z
Si Si1 0.236886 0.553030 0.052014
Si Si2 0.123145 0.868413 0.775977
Si Si3 0.533570 0.183954 0.716315
Si Si4 0.085470 0.378582 0.872444
Si Si5 0.775168 0.749558 0.326209
Si Si6 0.676051 0.685979 0.439518
Si Si7 0.278301 0.203278 0.959993
O O1 0.313052 0.500000 0.081770
O O2 0.193223 0.574167 0.945753
O O3 0.376016 0.588608 0.160728
O O4 0.000000 0.554092 0.000000
O O5 0.340282 0.875430 0.808513
O O6 0.926145 0.860309 0.639226
O O7 0.135470 0.819825 0.832396
O O8 0.597041 0.136140 0.783453
O O9 0.423912 0.216215 0.742356
O O10 0.716699 0.215008 0.747280
O O11 0.353115 0.177967 0.576836
O O12 0.206176 0.338538 0.969531
O O13 0.771058 0.717385 0.404284
O O14 0.979160 0.783423 0.397069
O O15 0.500000 0.208333 0.000000
O O16 0.250000 0.250000 0.000000
#
# Coordination Sequence:
#
# PCOD9204631 Si02
#       7
#     8   8   8   8   8   8   8
#     4   8  15  32  53  71  91 117 152 193 240 297
#     4   9  18  29  45  68  90 119 156 189 233 274
#     4  11  19  30  44  65  96 129 165 196 220 264
#     4   9  18  29  45  68  90 119 156 189 233 274
#     4  10  21  30  42  63  94 141 172 182 215 264
#     4  11  19  30  44  65  96 129 165 196 220 264
#     4   9  19  30  39  57  91 124 148 182 219 262
#
# _framework density 18.867318000000001
#
# number of rings (size 3 to 8) (size 9 to 14) (size 15 to 20)
#    0.000    2.429    1.429    5.143    4.000    0.000 
#    0.000    0.000    0.000    0.857    0.000    6.000 
#    0.000    2.286    0.000    0.000    0.000    0.000 
#
# Total GULP energy -156215.394999 kJ/mol
# GULP energy per Si atom -5579.121250 kJ/mol
# Density = 1.882438 g / cm^3
# Si number density = 18.867318 Si / 1000 Ang^3
#
#
#
# Elastic Constant Matrix: (Units=GPa)
#
#
# Indices 1 2 3 4 5 6 
#
# 1 57.1200 16.9564 7.8539 0.0000 -12.3404 0.0000
# 2 16.9564 111.7611 41.0345 0.0000 -10.9345 0.0000
# 3 7.8539 41.0345 89.7154 0.0000 -12.7763 0.0000
# 4 0.0000 0.0000 0.0000 24.2507 0.0000 -4.7466
# 5 -12.3404 -10.9345 -12.7763 0.0000 20.2923 0.0000
# 6 0.0000 0.0000 0.0000 -4.7466 0.0000 13.6799
#
#
#
# Elastic Compliance Matrix: (Units=1/GPa)
#
#
# Indices 1 2 3 4 5 6 
#
# 1 0.020634 -0.002314 0.000946 0.000000 0.011897 0.000000
# 2 -0.002314 0.011178 -0.004671 0.000000 0.001675 0.000000
# 3 0.000946 -0.004671 0.014197 0.000000 0.006997 0.000000
# 4 0.000000 0.000000 0.000000 0.044241 0.000000 0.015350
# 5 0.011897 0.001675 0.006997 0.000000 0.061822 0.000000
# 6 0.000000 0.000000 0.000000 0.015350 0.000000 0.078426
#
#
# Mechanical properties :
#
#
# Convention : Reuss Voigt Hill
#
# Bulk Modulus (GPa) = 29.47244 43.36510 36.41877
# Shear Modulus (GPa) = 19.69391 24.49471 22.09431
#
# Velocity S-wave (km/s) = 3.23431 3.60705 3.42575
# Velocity P-wave (km/s) = 5.44082 6.35467 5.91542
#
# Compressibility (1/GPa) = 0.03393000
#
# Stress axis : x y z
#
# Youngs Moduli (GPa) = 48.46345 89.46318 70.43960
#
# Poissons Ratio (x) = 0.20702 -0.06666
# Poissons Ratio (y) = 0.11215 0.32906
# Poissons Ratio (z) = -0.04586 0.41793
#
# Static dielectric constant tensor:
#      x y z
#    x 1.702790 0.000000 -0.006920 
#    y 0.000000 1.654490 0.000000 
#    z -0.006920 0.000000 1.762820 
# 
# From -- ./inp_files/185213.got.cif
#   From: 2010.05.17/outbox.cif.g08.bks.cpg/sg12_93_cif.got.tgz:185213.got - 2010.06.03 13:09:07.
