data_PCOD9204789
_publ_section_title
;
Structure prediction by ZEFSAII (Michael W. Deem and Ramdas Pophale) SiO2 
 PCOD9204789
Probable space group: C 2/M
;
_chemical_formula_sum "Si O2"
_cell_formula_units_Z 48
_cell_length_a 5.492037
_cell_length_b 31.793087
_cell_length_c 14.834767
_cell_angle_alpha 90.000000
_cell_angle_beta 57.721351
_cell_angle_gamma 90.000000
_cell_volume 2189.981314
_symmetry_space_group_name_H-M "C 2/M"
_symmetry_group_IT_number 12
_symmetry_cell_setting 'monoclinic'
loop_
_space_group_symop_operation_xyz
x,y,z
-x,y,-z
-x,-y,-z
x,-y,z
1/2+x,1/2+y,z
1/2-x,1/2+y,-z
1/2-x,1/2-y,-z
1/2+x,1/2-y,z
loop_
_atom_site_type_symbol
_atom_site_label
_atom_site_fract_x
_atom_site_fract_y
_atom_site_fract_z
Si Si1 0.183376 0.931271 0.877062
Si Si2 0.184179 0.237879 0.805498
Si Si3 0.736064 0.385899 0.605177
Si Si4 0.347604 0.547060 0.756700
Si Si5 0.944306 0.800420 0.614803
Si Si6 0.853624 0.349739 0.767610
O O1 0.501569 0.951172 0.820259
O O2 0.259489 0.880955 0.864405
O O3 0.988819 0.942922 0.827507
O O4 0.000000 0.943131 0.000000
O O5 0.373334 0.241138 0.858524
O O6 0.407754 0.260275 0.688944
O O7 0.134856 0.188780 0.797511
O O8 0.467049 0.416922 0.665821
O O9 0.671871 0.338447 0.583357
O O10 0.845397 0.379571 0.683960
O O11 0.000000 0.405228 0.500000
O O12 0.442323 0.500000 0.713186
O O13 0.655977 0.825891 0.700162
O O14 0.000000 0.786750 0.500000
#
# Coordination Sequence:
#
# PCOD9204789 Si02
#       6
#     8   8   8   8   8   8
#     4  11  24  43  70  96 122 159 205 261 319 372
#     4  10  21  33  53  83 121 163 201 254 299 340
#     4  11  21  37  59  88 127 169 208 247 302 373
#     4  11  25  44  67  97 126 157 201 256 319 381
#     4  11  20  33  56  85 124 168 213 254 298 353
#     4  10  21  37  56  85 127 165 203 253 308 361
#
# _framework density 21.917995999999999
#
# number of rings (size 3 to 8) (size 9 to 14) (size 15 to 20)
#    0.000    1.333    5.000    1.000    0.000    5.667 
#    0.000    0.000    0.000    7.500    0.000    0.000 
#    0.000    0.000    0.000    0.000    0.000    0.000 
#
# Total GULP energy -133642.369173 kJ/mol
# GULP energy per Si atom -5568.432049 kJ/mol
# Density = 2.186811 g / cm^3
# Si number density = 21.917996 Si / 1000 Ang^3
#
#
#
# Elastic Constant Matrix: (Units=GPa)
#
#
# Indices 1 2 3 4 5 6 
#
# 1 102.8859 4.7358 7.8347 0.0000 -11.6224 0.0000
# 2 4.7358 114.3924 15.5087 0.0000 -0.4688 0.0000
# 3 7.8347 15.5087 22.9964 0.0000 -10.5407 0.0000
# 4 0.0000 0.0000 0.0000 -6.3436 0.0000 3.3047
# 5 -11.6224 -0.4688 -10.5407 0.0000 22.9778 0.0000
# 6 0.0000 0.0000 0.0000 3.3047 0.0000 12.7750
#
#
#
# Elastic Compliance Matrix: (Units=1/GPa)
#
#
# Indices 1 2 3 4 5 6 
#
# 1 0.010351 -0.000244 -0.001221 0.000000 0.004671 0.000000
# 2 -0.000244 0.009858 -0.008268 0.000000 -0.003715 0.000000
# 3 -0.001221 -0.008268 0.062194 0.000000 0.027744 0.000000
# 4 0.000000 0.000000 0.000000 -0.138917 0.000000 0.035936
# 5 0.004671 -0.003715 0.027744 0.000000 0.058534 0.000000
# 6 0.000000 0.000000 0.000000 0.035936 0.000000 0.068982
#
#
# Mechanical properties :
#
#
# Convention : Reuss Voigt Hill
#
# Bulk Modulus (GPa) = 15.88893 32.93700 24.41296
# Shear Modulus (GPa) = 44.86494 20.02818 32.44656
#
# Velocity S-wave (km/s) = 4.52923 3.02616 3.85172
# Velocity P-wave (km/s) = 5.88361 5.22208 5.56269
#
# Compressibility (1/GPa) = 0.06293692
#
# Stress axis : x y z
#
# Youngs Moduli (GPa) = 96.60580 101.44466 16.07883
#
# Poissons Ratio (x) = 0.02473 0.01964
# Poissons Ratio (y) = 0.02355 0.13293
# Poissons Ratio (z) = 0.11799 0.83871
#
# Static dielectric constant tensor:
#      x y z
#    x 1.894890 0.000000 0.022170 
#    y 0.000000 1.865900 0.000000 
#    z 0.022170 0.000000 1.835620 
# 
# From -- ./inp_files/192514.got.cif
#   From: 2010.05.17/outbox.cif.g08.bks.cpg/sg12_97_cif.got.tgz:192514.got - 2010.06.03 13:09:07.
