data_PCOD9204000
_publ_section_title
;
Structure prediction by ZEFSAII (Michael W. Deem and Ramdas Pophale) SiO2 
 PCOD9204000
Probable space group: C 2/M
;
_chemical_formula_sum "Si O2"
_cell_formula_units_Z 48
_cell_length_a 19.387474
_cell_length_b 8.754814
_cell_length_c 30.730549
_cell_angle_alpha 90.000000
_cell_angle_beta 28.399555
_cell_angle_gamma 90.000000
_cell_volume 2480.825314
_symmetry_space_group_name_H-M "C 2/M"
_symmetry_group_IT_number 12
_symmetry_cell_setting 'monoclinic'
loop_
_space_group_symop_operation_xyz
x,y,z
-x,y,-z
-x,-y,-z
x,-y,z
1/2+x,1/2+y,z
1/2-x,1/2+y,-z
1/2-x,1/2-y,-z
1/2+x,1/2-y,z
loop_
_atom_site_type_symbol
_atom_site_label
_atom_site_fract_x
_atom_site_fract_y
_atom_site_fract_z
Si Si1 0.330416 0.316558 0.087833
Si Si2 0.801776 0.183083 0.751099
Si Si3 0.832028 0.826394 0.581483
Si Si4 0.310797 0.317030 0.921375
Si Si5 0.375998 0.315030 0.459692
Si Si6 0.639622 0.679786 0.760522
O O1 0.322247 0.500000 0.091466
O O2 0.241308 0.254430 0.178744
O O3 0.266256 0.252164 0.078342
O O4 0.500000 0.273339 0.000000
O O5 0.686563 0.233071 0.778221
O O6 0.962533 0.231738 0.645298
O O7 0.801635 0.000000 0.754837
O O8 0.833736 0.765630 0.531724
O O9 0.752296 0.723476 0.660553
O O10 0.000000 0.837713 0.500000
O O11 0.770970 0.000000 0.617048
O O12 0.292760 0.500000 0.930529
O O13 0.481879 0.281367 0.829125
O O14 0.250000 0.250000 0.000000
O O15 0.376166 0.500000 0.459613
O O16 0.250000 0.250000 0.500000
O O17 0.642020 0.500000 0.769001
#
# Coordination Sequence:
#
# PCOD9204000 Si02
#       6
#     8   8   8   8   8   8
#     4  11  25  44  66  94 127 161 203 255 307 367
#     4  11  23  42  65  91 125 165 208 254 308 369
#     4  10  20  40  63  87 121 164 210 252 302 363
#     4  11  25  44  66  95 127 161 204 254 307 368
#     4  10  23  40  60  88 124 163 206 256 305 362
#     4  11  24  40  62  94 127 160 206 259 306 362
#
# _framework density 19.348399000000001
#
# number of rings (size 3 to 8) (size 9 to 14) (size 15 to 20)
#    0.000    1.333    1.667    3.000    2.333   10.333 
#    0.000    0.000    0.000    0.000    0.000    0.000 
#    0.000    0.000    0.000    0.000    0.000    0.000 
#
# Total GULP energy -134112.782987 kJ/mol
# GULP energy per Si atom -5588.032624 kJ/mol
# Density = 1.930436 g / cm^3
# Si number density = 19.348399 Si / 1000 Ang^3
#
#
#
# Elastic Constant Matrix: (Units=GPa)
#
#
# Indices 1 2 3 4 5 6 
#
# 1 187.7115 44.1596 55.0906 -0.0008 11.0483 0.0015
# 2 44.1596 39.7875 35.9807 -0.0007 -4.8340 0.0011
# 3 55.0906 35.9807 86.5954 -0.0007 4.6920 0.0008
# 4 -0.0008 -0.0007 -0.0007 28.9940 0.0000 -5.7353
# 5 11.0483 -4.8340 4.6920 0.0000 37.2123 0.0007
# 6 0.0015 0.0011 0.0008 -5.7353 0.0007 30.1116
#
#
#
# Elastic Compliance Matrix: (Units=1/GPa)
#
#
# Indices 1 2 3 4 5 6 
#
# 1 0.007754 -0.007477 -0.001660 0.000000 -0.003064 0.000000
# 2 -0.007477 0.049596 -0.016432 0.000000 0.010734 -0.000001
# 3 -0.001660 -0.016432 0.019655 0.000000 -0.004120 0.000000
# 4 0.000000 0.000000 0.000000 0.035840 0.000000 0.006826
# 5 -0.003064 0.010734 -0.004120 0.000000 0.029696 -0.000001
# 6 0.000000 -0.000001 0.000000 0.006826 -0.000001 0.034510
#
#
# Mechanical properties :
#
#
# Convention : Reuss Voigt Hill
#
# Bulk Modulus (GPa) = 38.66028 64.95070 51.80549
# Shear Modulus (GPa) = 21.11372 31.18781 26.15076
#
# Velocity S-wave (km/s) = 3.30697 4.01921 3.68036
# Velocity P-wave (km/s) = 5.88268 7.42837 6.70025
#
# Compressibility (1/GPa) = 0.02586634
#
# Stress axis : x y z
#
# Youngs Moduli (GPa) = 128.96818 20.16283 50.87726
#
# Poissons Ratio (x) = 0.15075 0.08447
# Poissons Ratio (y) = 0.96426 0.83604
# Poissons Ratio (z) = 0.21412 0.33132
#
# Static dielectric constant tensor:
#      x y z
#    x 1.584150 0.000000 0.008670 
#    y 0.000000 1.675310 0.000000 
#    z 0.008670 0.000000 1.654110 
# 
# From -- ./inp_files/377907.got.cif
#   From: 2010.05.17/outbox.cif.g08.bks.cpg/sg12_189_cif.got.tgz:377907.got - 2010.06.03 13:09:07.
