data_PCOD9204342
_publ_section_title
;
Structure prediction by ZEFSAII (Michael W. Deem and Ramdas Pophale) SiO2 
 PCOD9204342
Probable space group: C 2/M
;
_chemical_formula_sum "Si O2"
_cell_formula_units_Z 28
_cell_length_a 9.302869
_cell_length_b 24.583089
_cell_length_c 5.816222
_cell_angle_alpha 90.000000
_cell_angle_beta 116.056943
_cell_angle_gamma 90.000000
_cell_volume 1194.933508
_symmetry_space_group_name_H-M "C 2/M"
_symmetry_group_IT_number 12
_symmetry_cell_setting 'monoclinic'
loop_
_space_group_symop_operation_xyz
x,y,z
-x,y,-z
-x,-y,-z
x,-y,z
1/2+x,1/2+y,z
1/2-x,1/2+y,-z
1/2-x,1/2-y,-z
1/2+x,1/2-y,z
loop_
_atom_site_type_symbol
_atom_site_label
_atom_site_fract_x
_atom_site_fract_y
_atom_site_fract_z
Si Si1 0.240841 0.092842 0.167627
Si Si2 0.000000 0.627572 0.000000
Si Si3 0.155027 0.500000 0.450237
Si Si4 0.827155 0.307602 0.501096
Si Si5 0.865888 0.000000 0.213064
O O1 0.405587 0.096585 0.134908
O O2 0.260594 0.054572 0.401558
O O3 0.221704 0.153194 0.259542
O O4 0.128002 0.056278 0.925436
O O5 0.132120 0.662737 0.229297
O O6 0.188918 0.500000 0.205639
O O7 0.000000 0.500000 0.500000
O O8 0.750000 0.250000 0.500000
O O9 0.000000 0.300748 0.500000
O O10 0.000000 0.000000 0.500000
#
# Coordination Sequence:
#
# PCOD9204342 Si02
#       5
#     8   4   4   8   4
#     4  10  21  37  63  90 124 166 209 253 312 383
#     4  10  20  41  64  90 126 163 210 262 314 380
#     4  11  20  37  64  92 119 159 208 250 307 383
#     4  10  22  41  64  93 125 164 214 266 317 373
#     4  11  24  41  60  93 135 168 203 260 325 380
#
# _framework density 23.432265000000001
#
# number of rings (size 3 to 8) (size 9 to 14) (size 15 to 20)
#    0.000    1.714    0.000    6.000    0.000    9.143 
#    0.000   14.286    0.000    0.000    0.000    0.000 
#    0.000    0.000    0.000    0.000    0.000    0.000 
#
# Total GULP energy -78113.854062 kJ/mol
# GULP energy per Si atom -5579.561004 kJ/mol
# Density = 2.337893 g / cm^3
# Si number density = 23.432265 Si / 1000 Ang^3
#
#
#
# Elastic Constant Matrix: (Units=GPa)
#
#
# Indices 1 2 3 4 5 6 
#
# 1 82.7854 41.7767 25.5082 0.0000 -16.1265 0.0000
# 2 41.7767 203.5395 86.2932 0.0000 5.0045 0.0000
# 3 25.5082 86.2932 123.0047 0.0000 4.3424 0.0000
# 4 0.0000 0.0000 0.0000 24.6645 0.0000 -22.3292
# 5 -16.1265 5.0045 4.3424 0.0000 45.8285 0.0000
# 6 0.0000 0.0000 0.0000 -22.3292 0.0000 30.6196
#
#
#
# Elastic Compliance Matrix: (Units=1/GPa)
#
#
# Indices 1 2 3 4 5 6 
#
# 1 0.014945 -0.002574 -0.001494 0.000000 0.005682 0.000000
# 2 -0.002574 0.007440 -0.004641 0.000000 -0.001278 0.000000
# 3 -0.001494 -0.004641 0.011735 0.000000 -0.001131 0.000000
# 4 0.000000 0.000000 0.000000 0.119318 0.000000 0.087012
# 5 0.005682 -0.001278 -0.001131 0.000000 0.024067 0.000000
# 6 0.000000 0.000000 0.000000 0.087012 0.000000 0.096112
#
#
# Mechanical properties :
#
#
# Convention : Reuss Voigt Hill
#
# Bulk Modulus (GPa) = 59.86834 79.60954 69.73894
# Shear Modulus (GPa) = 16.85755 37.27261 27.06508
#
# Velocity S-wave (km/s) = 2.68510 3.99263 3.40227
# Velocity P-wave (km/s) = 5.93448 7.43659 6.72759
#
# Compressibility (1/GPa) = 0.01670332
#
# Stress axis : x y z
#
# Youngs Moduli (GPa) = 66.90986 134.40346 85.21280
#
# Poissons Ratio (x) = 0.34592 0.12734
# Poissons Ratio (y) = 0.17221 0.39546
# Poissons Ratio (z) = 0.09998 0.62374
#
# Static dielectric constant tensor:
#      x y z
#    x 1.983170 0.000000 0.059850 
#    y 0.000000 1.864040 0.000000 
#    z 0.059850 0.000000 1.929650 
# 
# From -- ./inp_files/5683.got.cif
#   From: 2010.05.17/outbox.cif.g08.bks.cpg/sg12_3_cif.got.tgz:5683.got - 2010.06.03 13:09:07.
