data_PCOD9204518
_publ_section_title
;
Structure prediction by ZEFSAII (Michael W. Deem and Ramdas Pophale) SiO2 
 PCOD9204518
Probable space group: C 2/M
;
_chemical_formula_sum "Si O2"
_cell_formula_units_Z 36
_cell_length_a 18.949875
_cell_length_b 10.558852
_cell_length_c 16.571634
_cell_angle_alpha 90.000000
_cell_angle_beta 28.306273
_cell_angle_gamma 90.000000
_cell_volume 1572.301522
_symmetry_space_group_name_H-M "C 2/M"
_symmetry_group_IT_number 12
_symmetry_cell_setting 'monoclinic'
loop_
_space_group_symop_operation_xyz
x,y,z
-x,y,-z
-x,-y,-z
x,-y,z
1/2+x,1/2+y,z
1/2-x,1/2+y,-z
1/2-x,1/2-y,-z
1/2+x,1/2-y,z
loop_
_atom_site_type_symbol
_atom_site_label
_atom_site_fract_x
_atom_site_fract_y
_atom_site_fract_z
Si Si1 0.489984 0.772830 0.377721
Si Si2 0.794331 0.640609 0.285493
Si Si3 0.485644 0.712845 0.206008
Si Si4 0.287573 0.353403 0.163035
Si Si5 0.235516 0.500000 0.437912
O O1 0.379244 0.662064 0.518738
O O2 0.551587 0.737919 0.227413
O O3 0.622386 0.813124 0.302950
O O4 0.380908 0.890241 0.474775
O O5 0.817365 0.500000 0.229482
O O6 0.901043 0.663152 0.255241
O O7 0.833648 0.754284 0.185171
O O8 0.356041 0.609952 0.342527
O O9 0.606396 0.664561 0.020531
O O10 0.295384 0.500000 0.183985
#
# Coordination Sequence:
#
# PCOD9204518 Si02
#       5
#     8   8   8   8   4
#     4  11  25  43  74 101 135 182 232 287 341 406
#     4  11  27  46  71 102 140 186 232 281 343 412
#     4  11  25  43  74 101 135 182 232 287 341 406
#     4  12  26  46  70 103 145 182 226 284 347 416
#     4  10  20  42  66 102 126 180 230 272 342 388
#
# _framework density 22.896372
#
# number of rings (size 3 to 8) (size 9 to 14) (size 15 to 20)
#    0.000    0.889    2.222    4.667   12.444    5.333 
#    0.000    0.000    0.000    0.000    0.000    0.000 
#    0.000    0.000    0.000    0.000    0.000    0.000 
#
# Total GULP energy -100291.927364 kJ/mol
# GULP energy per Si atom -5571.773742 kJ/mol
# Density = 2.284426 g / cm^3
# Si number density = 22.896372 Si / 1000 Ang^3
#
#
#
# Elastic Constant Matrix: (Units=GPa)
#
#
# Indices 1 2 3 4 5 6 
#
# 1 75.2111 27.6639 18.8650 0.0000 -1.7864 0.0000
# 2 27.6639 140.1552 19.2926 0.0000 9.4870 0.0000
# 3 18.8650 19.2926 82.8174 0.0000 5.3018 0.0000
# 4 0.0000 0.0000 0.0000 2.9912 0.0000 3.6571
# 5 -1.7864 9.4870 5.3018 0.0000 42.1731 0.0000
# 6 0.0000 0.0000 0.0000 3.6571 0.0000 3.6098
#
#
#
# Elastic Compliance Matrix: (Units=1/GPa)
#
#
# Indices 1 2 3 4 5 6 
#
# 1 0.015048 -0.002679 -0.002907 0.000000 0.001605 0.000000
# 2 -0.002679 0.007938 -0.001126 0.000000 -0.001757 0.000000
# 3 -0.002907 -0.001126 0.013096 0.000000 -0.001516 0.000000
# 4 0.000000 0.000000 0.000000 -1.401126 0.000000 1.419461
# 5 0.001605 -0.001757 -0.001516 0.000000 0.024366 0.000000
# 6 0.000000 0.000000 0.000000 1.419461 0.000000 -1.161014
#
#
# Mechanical properties :
#
#
# Convention : Reuss Voigt Hill
#
# Bulk Modulus (GPa) = 44.13304 47.75851 45.94577
# Shear Modulus (GPa) = -2.01555 25.24564 11.61505
#
# Velocity S-wave (km/s) = -0.93926 3.32415 2.25475
# Velocity P-wave (km/s) = 4.25919 5.96968 5.18545
#
# Compressibility (1/GPa) = 0.02265876
#
# Stress axis : x y z
#
# Youngs Moduli (GPa) = 66.45214 125.98088 76.35737
#
# Poissons Ratio (x) = 0.33748 0.22194
# Poissons Ratio (y) = 0.17801 0.08601
# Poissons Ratio (z) = 0.19315 0.14190
#
# Static dielectric constant tensor:
#      x y z
#    x 1.870600 0.000000 0.089230 
#    y 0.000000 1.806960 0.000000 
#    z 0.089230 0.000000 1.911630 
# 
# From -- ./inp_files/281992.got.cif
#   From: 2010.05.17/outbox.cif.g08.bks.cpg/sg12_141_cif.got.tgz:281992.got - 2010.06.03 13:09:07.
