data_PCOD9204457
_publ_section_title
;
Structure prediction by ZEFSAII (Michael W. Deem and Ramdas Pophale) SiO2 
 PCOD9204457
Probable space group: C 2/M
;
_chemical_formula_sum "Si O2"
_cell_formula_units_Z 40
_cell_length_a 11.669381
_cell_length_b 16.964119
_cell_length_c 9.481379
_cell_angle_alpha 90.000000
_cell_angle_beta 68.449854
_cell_angle_gamma 90.000000
_cell_volume 1745.736215
_symmetry_space_group_name_H-M "C 2/M"
_symmetry_group_IT_number 12
_symmetry_cell_setting 'monoclinic'
loop_
_space_group_symop_operation_xyz
x,y,z
-x,y,-z
-x,-y,-z
x,-y,z
1/2+x,1/2+y,z
1/2-x,1/2+y,-z
1/2-x,1/2-y,-z
1/2+x,1/2-y,z
loop_
_atom_site_type_symbol
_atom_site_label
_atom_site_fract_x
_atom_site_fract_y
_atom_site_fract_z
Si Si1 0.681542 0.094701 0.331901
Si Si2 0.326698 0.182000 0.388647
Si Si3 0.553321 0.321843 0.817286
Si Si4 0.168078 0.907905 0.230940
Si Si5 0.902680 0.407519 0.928638
O O1 0.629554 0.127692 0.502288
O O2 0.821097 0.127285 0.249559
O O3 0.610180 0.123281 0.224057
O O4 0.682917 0.000000 0.334233
O O5 0.250000 0.250000 0.500000
O O6 0.415114 0.234150 0.250441
O O7 0.236815 0.129602 0.333136
O O8 0.452155 0.360484 0.760456
O O9 0.500000 0.322365 0.000000
O O10 0.140510 0.000000 0.266726
O O11 0.268341 0.902169 0.059910
O O12 0.935274 0.500000 0.896310
O O13 0.000000 0.377622 0.000000
#
# Coordination Sequence:
#
# PCOD9204457 Si02
#       5
#     8   8   8   8   8
#     4  10  20  41  72 103 138 186 244 300 354 425
#     4  10  25  45  61 102 149 190 227 287 369 442
#     4  11  23  43  72 109 146 186 236 303 370 429
#     4  11  23  44  75 106 138 186 249 304 353 421
#     4   9  19  38  66 102 136 174 233 299 354 412
#
# _framework density 22.912970000000001
#
# number of rings (size 3 to 8) (size 9 to 14) (size 15 to 20)
#    0.000    1.800    2.000    1.200    0.000    5.600 
#   10.800    5.000    0.000    6.600    0.000    0.000 
#    0.000    0.000    0.000    0.000    0.000    0.000 
#
# Total GULP energy -111868.052783 kJ/mol
# GULP energy per Si atom -5593.402639 kJ/mol
# Density = 2.286082 g / cm^3
# Si number density = 22.912970 Si / 1000 Ang^3
#
#
#
# Elastic Constant Matrix: (Units=GPa)
#
#
# Indices 1 2 3 4 5 6 
#
# 1 150.2780 63.6177 61.3481 0.0000 35.5592 0.0000
# 2 63.6177 103.5079 57.9246 0.0000 14.3393 0.0000
# 3 61.3481 57.9246 148.8022 0.0000 33.1793 0.0000
# 4 0.0000 0.0000 0.0000 40.4378 0.0000 5.8883
# 5 35.5592 14.3393 33.1793 0.0000 49.1401 0.0000
# 6 0.0000 0.0000 0.0000 5.8883 0.0000 31.7867
#
#
#
# Elastic Compliance Matrix: (Units=1/GPa)
#
#
# Indices 1 2 3 4 5 6 
#
# 1 0.010557 -0.005087 -0.001177 0.000000 -0.005360 0.000000
# 2 -0.005087 0.014811 -0.004150 0.000000 0.002161 0.000000
# 3 -0.001177 -0.004150 0.009843 0.000000 -0.004583 0.000000
# 4 0.000000 0.000000 0.000000 0.025415 0.000000 -0.004708
# 5 -0.005360 0.002161 -0.004583 0.000000 0.026693 0.000000
# 6 0.000000 0.000000 0.000000 -0.004708 0.000000 0.032332
#
#
# Mechanical properties :
#
#
# Convention : Reuss Voigt Hill
#
# Bulk Modulus (GPa) = 69.52996 85.37435 77.45216
# Shear Modulus (GPa) = 34.41821 38.91942 36.66882
#
# Velocity S-wave (km/s) = 3.87993 4.12585 4.00478
# Velocity P-wave (km/s) = 7.10514 7.74842 7.43374
#
# Compressibility (1/GPa) = 0.01438229
#
# Stress axis : x y z
#
# Youngs Moduli (GPa) = 94.72718 67.51855 101.59509
#
# Poissons Ratio (x) = 0.34348 0.11956
# Poissons Ratio (y) = 0.48189 0.42162
# Poissons Ratio (z) = 0.11148 0.28020
#
# Static dielectric constant tensor:
#      x y z
#    x 1.864870 0.000000 -0.039680 
#    y 0.000000 1.430860 0.000000 
#    z -0.039680 0.000000 1.891170 
# 
# From -- ./inp_files/46950.got.cif
#   From: 2010.05.17/outbox.cif.g08.bks.cpg/sg12_24_cif.got.tgz:46950.got - 2010.06.03 13:09:07.
