data_PCOD9204908
_publ_section_title
;
Structure prediction by ZEFSAII (Michael W. Deem and Ramdas Pophale) SiO2 
 PCOD9204908
Probable space group: C 2/M
;
_chemical_formula_sum "Si O2"
_cell_formula_units_Z 40
_cell_length_a 14.362393
_cell_length_b 20.626939
_cell_length_c 7.643640
_cell_angle_alpha 90.000000
_cell_angle_beta 123.328897
_cell_angle_gamma 90.000000
_cell_volume 1892.012705
_symmetry_space_group_name_H-M "C 2/M"
_symmetry_group_IT_number 12
_symmetry_cell_setting 'monoclinic'
loop_
_space_group_symop_operation_xyz
x,y,z
-x,y,-z
-x,-y,-z
x,-y,z
1/2+x,1/2+y,z
1/2-x,1/2+y,-z
1/2-x,1/2-y,-z
1/2+x,1/2-y,z
loop_
_atom_site_type_symbol
_atom_site_label
_atom_site_fract_x
_atom_site_fract_y
_atom_site_fract_z
Si Si1 0.819019 0.169285 0.421923
Si Si2 0.404421 0.923861 0.146165
Si Si3 0.711998 0.324942 0.993499
Si Si4 0.353156 0.925969 0.674402
Si Si5 0.605587 0.736380 0.192210
O O1 0.845409 0.154249 0.248467
O O2 0.764027 0.109518 0.467584
O O3 0.709981 0.215978 0.305202
O O4 0.908516 0.206643 0.630609
O O5 0.533189 0.901693 0.300293
O O6 0.393953 0.000000 0.190827
O O7 0.316045 0.873057 0.132128
O O8 0.378404 0.923959 0.909925
O O9 0.750000 0.250000 0.000000
O O10 0.634898 0.319647 0.083054
O O11 0.342801 0.000000 0.610777
O O12 0.500000 0.771483 0.000000
#
# Coordination Sequence:
#
# PCOD9204908 Si02
#       5
#     8   8   8   8   8
#     4   9  19  34  52  75 103 134 166 210 259 303
#     4   8  14  26  48  78 107 134 165 209 262 310
#     4   9  18  31  51  75 102 134 174 206 251 307
#     4   8  14  26  51  79 102 133 165 202 265 320
#     4  10  21  34  51  74 102 136 174 212 252 298
#
# _framework density 21.141507000000001
#
# number of rings (size 3 to 8) (size 9 to 14) (size 15 to 20)
#    0.000    3.200    0.000    1.200    8.400    0.800 
#    0.000    2.000    0.000    4.800    0.000    5.600 
#    0.000    0.000    0.000    0.000    0.000    0.000 
#
# Total GULP energy -111398.653826 kJ/mol
# GULP energy per Si atom -5569.932691 kJ/mol
# Density = 2.109339 g / cm^3
# Si number density = 21.141507 Si / 1000 Ang^3
#
#
#
# Elastic Constant Matrix: (Units=GPa)
#
#
# Indices 1 2 3 4 5 6 
#
# 1 39.8785 16.2906 -3.4415 0.0000 -7.4676 0.0000
# 2 16.2906 64.9181 3.8448 0.0000 3.7966 0.0000
# 3 -3.4415 3.8448 50.4450 0.0000 4.4425 0.0000
# 4 0.0000 0.0000 0.0000 8.9999 0.0000 5.1649
# 5 -7.4676 3.7966 4.4425 0.0000 21.5949 0.0000
# 6 0.0000 0.0000 0.0000 5.1649 0.0000 27.2999
#
#
#
# Elastic Compliance Matrix: (Units=1/GPa)
#
#
# Indices 1 2 3 4 5 6 
#
# 1 0.030940 -0.008559 0.001720 0.000000 0.011850 0.000000
# 2 -0.008559 0.017978 -0.001441 0.000000 -0.005824 0.000000
# 3 0.001720 -0.001441 0.020345 0.000000 -0.003337 0.000000
# 4 0.000000 0.000000 0.000000 0.124645 0.000000 -0.023582
# 5 0.011850 -0.005824 -0.003337 0.000000 0.052115 0.000000
# 6 0.000000 0.000000 0.000000 -0.023582 0.000000 0.041092
#
#
# Mechanical properties :
#
#
# Convention : Reuss Voigt Hill
#
# Bulk Modulus (GPa) = 18.97496 20.95884 19.96690
# Shear Modulus (GPa) = 15.56455 20.81547 18.19001
#
# Velocity S-wave (km/s) = 2.71626 3.14120 2.93643
# Velocity P-wave (km/s) = 4.33960 4.80534 4.57840
#
# Compressibility (1/GPa) = 0.05270103
#
# Stress axis : x y z
#
# Youngs Moduli (GPa) = 32.32065 55.62419 49.15304
#
# Poissons Ratio (x) = 0.47609 -0.08452
# Poissons Ratio (y) = 0.27663 0.07084
# Poissons Ratio (z) = -0.05558 0.08017
#
# Static dielectric constant tensor:
#      x y z
#    x 1.810900 0.000000 -0.001460 
#    y 0.000000 1.820880 0.000000 
#    z -0.001460 0.000000 1.837970 
# 
# From -- ./inp_files/62925.got.cif
#   From: 2010.05.17/outbox.cif.g08.bks.cpg/sg12_32_cif.got.tgz:62925.got - 2010.06.03 13:09:07.
