data_PCOD9204847
_publ_section_title
;
Structure prediction by ZEFSAII (Michael W. Deem and Ramdas Pophale) SiO2 
 PCOD9204847
Probable space group: C 2/M
;
_chemical_formula_sum "Si O2"
_cell_formula_units_Z 56
_cell_length_a 19.686023
_cell_length_b 7.708466
_cell_length_c 25.787315
_cell_angle_alpha 90.000000
_cell_angle_beta 139.157137
_cell_angle_gamma 90.000000
_cell_volume 2559.181046
_symmetry_space_group_name_H-M "C 2/M"
_symmetry_group_IT_number 12
_symmetry_cell_setting 'monoclinic'
loop_
_space_group_symop_operation_xyz
x,y,z
-x,y,-z
-x,-y,-z
x,-y,z
1/2+x,1/2+y,z
1/2-x,1/2+y,-z
1/2-x,1/2-y,-z
1/2+x,1/2-y,z
loop_
_atom_site_type_symbol
_atom_site_label
_atom_site_fract_x
_atom_site_fract_y
_atom_site_fract_z
Si Si1 0.977730 0.206471 0.322307
Si Si2 0.068320 0.201961 0.994012
Si Si3 0.370095 0.292908 0.078102
Si Si4 0.945944 0.788107 0.416448
Si Si5 0.794145 0.288643 0.739694
Si Si6 0.742980 0.210641 0.167313
Si Si7 0.545404 0.797690 0.252909
O O1 0.050725 0.239444 0.315473
O O2 0.999634 0.269503 0.393384
O O3 0.861833 0.269127 0.240900
O O4 0.968947 0.000000 0.321647
O O5 0.183873 0.213439 0.084179
O O6 0.038140 0.000000 0.971881
O O7 0.069084 0.279438 0.937285
O O8 0.000000 0.285408 0.000000
O O9 0.377294 0.500000 0.082349
O O10 0.430033 0.231811 0.163499
O O11 0.250000 0.250000 0.000000
O O12 0.824321 0.740500 0.342847
O O13 0.000000 0.725265 0.500000
O O14 0.949045 0.000000 0.419604
O O15 0.797723 0.500000 0.742310
O O16 0.811766 0.236845 0.809873
O O17 0.874777 0.221078 0.743453
O O18 0.740954 0.000000 0.161962
O O19 0.566370 0.000000 0.265950
#
# Coordination Sequence:
#
# PCOD9204847 Si02
#       7
#     8   8   8   8   8   8   8
#     4   9  18  32  51  75 100 126 162 206 247 292
#     4  10  21  34  47  67  94 122 156 203 254 295
#     4  11  23  37  52  71  99 134 172 213 255 300
#     4   8  14  29  55  81 102 129 168 209 245 289
#     4   8  16  30  48  73 101 130 167 208 249 293
#     4   9  17  31  50  68  89 122 164 206 242 284
#     4  11  21  33  50  72 102 136 168 205 251 303
#
# _framework density 21.882000000000001
#
# number of rings (size 3 to 8) (size 9 to 14) (size 15 to 20)
#    0.000    2.571    0.000    4.286    0.000    4.286 
#    0.000    1.429    0.000    2.143    0.000    0.000 
#    0.000    0.000    0.000    0.000    0.000    0.000 
#
# Total GULP energy -156260.025183 kJ/mol
# GULP energy per Si atom -5580.715185 kJ/mol
# Density = 2.183220 g / cm^3
# Si number density = 21.882000 Si / 1000 Ang^3
#
#
#
# Elastic Constant Matrix: (Units=GPa)
#
#
# Indices 1 2 3 4 5 6 
#
# 1 145.1638 3.5118 31.8758 0.0000 -31.7199 -0.0001
# 2 3.5118 33.0375 -4.7368 0.0000 -4.2488 -0.0002
# 3 31.8758 -4.7368 72.2783 0.0000 -32.7321 0.0000
# 4 0.0000 0.0000 0.0000 8.7761 0.0000 -5.9625
# 5 -31.7199 -4.2488 -32.7321 0.0000 35.2884 0.0000
# 6 -0.0001 -0.0002 0.0000 -5.9625 0.0000 15.3850
#
#
#
# Elastic Compliance Matrix: (Units=1/GPa)
#
#
# Indices 1 2 3 4 5 6 
#
# 1 0.008583 -0.000056 -0.000514 0.000000 0.007232 0.000000
# 2 -0.000056 0.032542 0.006740 0.000001 0.010120 0.000001
# 3 -0.000514 0.006740 0.025282 0.000000 0.023800 0.000000
# 4 0.000000 0.000001 0.000000 0.154671 0.000000 0.059943
# 5 0.007232 0.010120 0.023800 0.000000 0.058132 0.000000
# 6 0.000000 0.000001 0.000000 0.059943 0.000000 0.088229
#
#
# Mechanical properties :
#
#
# Convention : Reuss Voigt Hill
#
# Bulk Modulus (GPa) = 12.69876 34.64236 23.67056
# Shear Modulus (GPa) = 13.11133 26.54517 19.82825
#
# Velocity S-wave (km/s) = 2.45048 3.48674 3.01349
# Velocity P-wave (km/s) = 3.71784 5.66354 4.79051
#
# Compressibility (1/GPa) = 0.07874786
#
# Stress axis : x y z
#
# Youngs Moduli (GPa) = 116.50673 30.72910 39.55401
#
# Poissons Ratio (x) = 0.00172 0.02033
# Poissons Ratio (y) = 0.00653 -0.26660
# Poissons Ratio (z) = 0.05989 -0.20712
#
# Static dielectric constant tensor:
#      x y z
#    x 1.879270 0.000000 0.019790 
#    y 0.000000 1.812380 0.000000 
#    z 0.019790 0.000000 1.770120 
# 
# From -- ./inp_files/280364.got.cif
#   From: 2010.05.17/outbox.cif.g08.bks.cpg/sg12_141_cif.got.tgz:280364.got - 2010.06.03 13:09:07.
