data_PCOD9204339
_publ_section_title
;
Structure prediction by ZEFSAII (Michael W. Deem and Ramdas Pophale) SiO2 
 PCOD9204339
Probable space group: C 2/M
;
_chemical_formula_sum "Si O2"
_cell_formula_units_Z 36
_cell_length_a 9.250031
_cell_length_b 14.792267
_cell_length_c 21.221685
_cell_angle_alpha 90.000000
_cell_angle_beta 141.286353
_cell_angle_gamma 90.000000
_cell_volume 1816.082086
_symmetry_space_group_name_H-M "C 2/M"
_symmetry_group_IT_number 12
_symmetry_cell_setting 'monoclinic'
loop_
_space_group_symop_operation_xyz
x,y,z
-x,y,-z
-x,-y,-z
x,-y,z
1/2+x,1/2+y,z
1/2-x,1/2+y,-z
1/2-x,1/2-y,-z
1/2+x,1/2-y,z
loop_
_atom_site_type_symbol
_atom_site_label
_atom_site_fract_x
_atom_site_fract_y
_atom_site_fract_z
Si Si1 0.652660 0.000000 0.203151
Si Si2 0.886322 0.196563 0.100348
Si Si3 0.004972 0.000000 0.425748
Si Si4 0.788627 0.500000 0.980411
Si Si5 0.180506 0.197491 0.781050
Si Si6 0.250205 0.826009 0.446465
O O1 0.752354 0.906844 0.208813
O O2 0.394611 0.000000 0.087300
O O3 0.745581 0.000000 0.306646
O O4 0.782665 0.215797 0.133266
O O5 0.145259 0.234100 0.192929
O O6 0.857609 0.090385 0.078849
O O7 0.750000 0.250000 0.000000
O O8 0.139303 0.086132 0.442396
O O9 0.000000 0.000000 0.500000
O O10 0.000000 0.500000 0.000000
O O11 0.923100 0.206387 0.667617
O O12 0.500000 0.842232 0.500000
O O13 0.250000 0.750000 0.500000
#
# Coordination Sequence:
#
# PCOD9204339 Si02
#       6
#     4   8   4   4   8   8
#     4  10  20  41  64  89 124 175 204 257 319 390
#     4  12  22  38  64  93 125 168 209 260 312 383
#     4  10  23  41  69  99 133 167 220 283 335 388
#     4  12  20  40  64  93 128 170 211 253 321 387
#     4  11  23  40  64  94 124 168 216 259 321 379
#     4  11  23  43  67  96 132 175 221 274 329 393
#
# _framework density 19.822893000000001
#
# number of rings (size 3 to 8) (size 9 to 14) (size 15 to 20)
#    0.000    0.889    4.444    3.000    0.000    1.778 
#    0.000    6.667    0.000    0.000    0.000    0.000 
#    0.000    0.000    0.000    0.000    0.000    0.000 
#
# Total GULP energy -100471.331117 kJ/mol
# GULP energy per Si atom -5581.740618 kJ/mol
# Density = 1.977778 g / cm^3
# Si number density = 19.822893 Si / 1000 Ang^3
#
#
#
# Elastic Constant Matrix: (Units=GPa)
#
#
# Indices 1 2 3 4 5 6 
#
# 1 83.5239 35.9503 40.6265 0.0001 -12.1706 0.0000
# 2 35.9503 127.2570 27.7240 0.0002 4.8644 0.0000
# 3 40.6265 27.7240 107.4074 0.0006 -4.3068 0.0001
# 4 0.0001 0.0002 0.0006 9.3747 0.0001 -25.0548
# 5 -12.1706 4.8644 -4.3068 0.0001 46.1959 0.0000
# 6 0.0000 0.0000 0.0001 -25.0548 0.0000 1.1916
#
#
#
# Elastic Compliance Matrix: (Units=1/GPa)
#
#
# Indices 1 2 3 4 5 6 
#
# 1 0.016748 -0.003766 -0.005189 0.000000 0.004325 0.000000
# 2 -0.003766 0.009227 -0.001040 0.000000 -0.002061 0.000000
# 3 -0.005189 -0.001040 0.011534 0.000000 -0.000182 0.000000
# 4 0.000000 0.000000 0.000000 -0.001933 0.000000 -0.040636
# 5 0.004325 -0.002061 -0.000182 0.000000 0.022986 0.000000
# 6 0.000000 0.000000 0.000000 -0.040636 0.000000 -0.015204
#
#
# Mechanical properties :
#
#
# Convention : Reuss Voigt Hill
#
# Bulk Modulus (GPa) = 57.08091 58.53220 57.80656
# Shear Modulus (GPa) = 72.26550 25.61160 48.93855
#
# Velocity S-wave (km/s) = 6.04440 3.59837 4.97408
# Velocity P-wave (km/s) = 8.80744 6.84515 7.88755
#
# Compressibility (1/GPa) = 0.01751899
#
# Stress axis : x y z
#
# Youngs Moduli (GPa) = 59.70863 108.37322 86.69796
#
# Poissons Ratio (x) = 0.40815 0.44990
# Poissons Ratio (y) = 0.22487 0.09016
# Poissons Ratio (z) = 0.30985 0.11269
#
# Static dielectric constant tensor:
#      x y z
#    x 1.727170 0.000000 0.019410 
#    y 0.000000 1.636030 0.000000 
#    z 0.019410 0.000000 1.731580 
# 
# From -- ./inp_files/300095.got.cif
#   From: 2010.05.17/outbox.cif.g08.bks.cpg/sg12_151_cif.got.tgz:300095.got - 2010.06.03 13:09:07.
