data_PCOD9204155
_publ_section_title
;
Structure prediction by ZEFSAII (Michael W. Deem and Ramdas Pophale) SiO2 
 PCOD9204155
Probable space group: C 2/M
;
_chemical_formula_sum "Si O2"
_cell_formula_units_Z 48
_cell_length_a 10.001260
_cell_length_b 27.844884
_cell_length_c 8.633299
_cell_angle_alpha 90.000000
_cell_angle_beta 95.937417
_cell_angle_gamma 90.000000
_cell_volume 2391.337412
_symmetry_space_group_name_H-M "C 2/M"
_symmetry_group_IT_number 12
_symmetry_cell_setting 'monoclinic'
loop_
_space_group_symop_operation_xyz
x,y,z
-x,y,-z
-x,-y,-z
x,-y,z
1/2+x,1/2+y,z
1/2-x,1/2+y,-z
1/2-x,1/2-y,-z
1/2+x,1/2-y,z
loop_
_atom_site_type_symbol
_atom_site_label
_atom_site_fract_x
_atom_site_fract_y
_atom_site_fract_z
Si Si1 0.629451 0.379650 0.619984
Si Si2 0.639401 0.555928 0.926417
Si Si3 0.070961 0.376804 0.359398
Si Si4 0.822261 0.765669 0.347307
Si Si5 0.054403 0.281714 0.178207
Si Si6 0.400843 0.054907 0.135740
O O1 0.500000 0.391674 0.500000
O O2 0.623963 0.408881 0.779478
O O3 0.778932 0.392460 0.576212
O O4 0.635738 0.321704 0.637630
O O5 0.672147 0.500000 0.884705
O O6 0.500000 0.555022 0.000000
O O7 0.758666 0.573564 0.054033
O O8 0.000000 0.354719 0.500000
O O9 0.078107 0.337254 0.225463
O O10 0.975041 0.417724 0.281573
O O11 0.750000 0.750000 0.500000
O O12 0.950808 0.738450 0.294274
O O13 0.700206 0.758137 0.212812
O O14 0.000000 0.275863 0.000000
O O15 0.378989 0.000000 0.180008
O O16 0.500000 0.056194 0.000000
#
# Coordination Sequence:
#
# PCOD9204155 Si02
#       6
#     8   8   8   8   8   8
#     4  11  24  40  62  93 126 166 211 258 315 385
#     4  10  23  43  65  92 127 168 208 260 324 376
#     4  11  24  39  62  91 125 165 207 262 322 375
#     4  11  23  43  64  90 129 172 209 262 325 383
#     4  11  23  40  63  91 124 164 212 264 313 379
#     4  10  20  40  66  89 122 163 209 263 313 377
#
# _framework density 20.07245
#
# number of rings (size 3 to 8) (size 9 to 14) (size 15 to 20)
#    0.000    1.333    1.667    4.500    4.667    1.333 
#    0.000    0.000    0.000    0.000    0.000    0.000 
#    0.000    0.000    0.000    0.000    0.000    0.000 
#
# Total GULP energy -133932.401524 kJ/mol
# GULP energy per Si atom -5580.516730 kJ/mol
# Density = 2.002676 g / cm^3
# Si number density = 20.072450 Si / 1000 Ang^3
#
#
#
# Elastic Constant Matrix: (Units=GPa)
#
#
# Indices 1 2 3 4 5 6 
#
# 1 161.9261 25.0865 41.0501 0.0000 32.3820 0.0000
# 2 25.0865 68.2964 29.4273 0.0000 8.4197 0.0000
# 3 41.0501 29.4273 70.2472 0.0000 17.9354 0.0000
# 4 0.0000 0.0000 0.0000 40.3011 0.0000 0.6612
# 5 32.3820 8.4197 17.9354 0.0000 46.5127 0.0000
# 6 0.0000 0.0000 0.0000 0.6612 0.0000 22.9912
#
#
#
# Elastic Compliance Matrix: (Units=1/GPa)
#
#
# Indices 1 2 3 4 5 6 
#
# 1 0.007967 -0.001056 -0.003157 0.000000 -0.004138 0.000000
# 2 -0.001056 0.018013 -0.006970 0.000000 0.000162 0.000000
# 3 -0.003157 -0.006970 0.020095 0.000000 -0.004289 0.000000
# 4 0.000000 0.000000 0.000000 0.024825 0.000000 -0.000714
# 5 -0.004138 0.000162 -0.004289 0.000000 0.026005 0.000000
# 6 0.000000 0.000000 0.000000 -0.000714 0.000000 0.043515
#
#
# Mechanical properties :
#
#
# Convention : Reuss Voigt Hill
#
# Bulk Modulus (GPa) = 42.17729 54.62194 48.39962
# Shear Modulus (GPa) = 29.29281 35.62139 32.45710
#
# Velocity S-wave (km/s) = 3.82429 4.21722 4.02555
# Velocity P-wave (km/s) = 6.36855 7.14036 6.76547
#
# Compressibility (1/GPa) = 0.02370944
#
# Stress axis : x y z
#
# Youngs Moduli (GPa) = 125.51602 55.51456 49.76320
#
# Poissons Ratio (x) = 0.05863 0.15709
# Poissons Ratio (y) = 0.13256 0.34686
# Poissons Ratio (z) = 0.39622 0.38695
#
# Static dielectric constant tensor:
#      x y z
#    x 1.742600 0.000000 0.015860 
#    y 0.000000 1.721800 0.000000 
#    z 0.015860 0.000000 1.698460 
# 
# From -- ./inp_files/42225.got.cif
#   From: 2010.05.17/outbox.cif.g08.bks.cpg/sg12_22_cif.got.tgz:42225.got - 2010.06.03 13:09:07.
