data_PCOD9204409
_publ_section_title
;
Structure prediction by ZEFSAII (Michael W. Deem and Ramdas Pophale) SiO2 
 PCOD9204409
Probable space group: C 2/M
;
_chemical_formula_sum "Si O2"
_cell_formula_units_Z 54
_cell_length_a 12.520604
_cell_length_b 26.254363
_cell_length_c 9.709700
_cell_angle_alpha 90.000000
_cell_angle_beta 57.090445
_cell_angle_gamma 90.000000
_cell_volume 2679.590439
_symmetry_space_group_name_H-M "C 2/M"
_symmetry_group_IT_number 12
_symmetry_cell_setting 'monoclinic'
loop_
_space_group_symop_operation_xyz
x,y,z
-x,y,-z
-x,-y,-z
x,-y,z
1/2+x,1/2+y,z
1/2-x,1/2+y,-z
1/2-x,1/2-y,-z
1/2+x,1/2-y,z
loop_
_atom_site_type_symbol
_atom_site_label
_atom_site_fract_x
_atom_site_fract_y
_atom_site_fract_z
Si Si1 0.487462 0.307644 0.169308
Si Si2 0.784543 0.442630 0.212771
Si Si3 0.000000 0.637924 0.000000
Si Si4 0.304996 0.164848 0.618652
Si Si5 0.942927 0.078468 0.827956
Si Si6 0.500000 0.500000 0.000000
Si Si7 0.473688 0.798793 0.738805
Si Si8 0.240142 0.056769 0.570052
O O1 0.338369 0.316646 0.304879
O O2 0.556818 0.361391 0.145262
O O3 0.537254 0.261214 0.225294
O O4 0.500000 0.294449 0.000000
O O5 0.830471 0.500000 0.149473
O O6 0.650490 0.435162 0.230146
O O7 0.769519 0.438487 0.387690
O O8 0.879266 0.399170 0.096621
O O9 0.012790 0.672342 0.126465
O O10 0.401601 0.188762 0.440082
O O11 0.355604 0.181087 0.732334
O O12 0.304473 0.103770 0.602295
O O13 0.087762 0.061566 0.693575
O O14 0.914863 0.044937 0.982271
O O15 0.276308 0.000000 0.592460
#
# Coordination Sequence:
#
# PCOD9204409 Si02
#       8
#     8   8   4   8   8   2   8   8
#     4  11  24  41  67 100 128 165 218 274 320 393
#     4  11  23  41  64  93 130 171 212 267 324 389
#     4  12  25  41  66  92 131 175 222 266 312 390
#     4  10  24  45  68  94 129 173 222 267 327 392
#     4  11  23  39  65  98 133 164 211 266 337 384
#     4  12  20  38  62  98 136 162 198 266 332 388
#     4  11  24  47  65  90 132 177 219 269 323 378
#     4  10  20  41  67  94 127 163 216 275 325 392
#
# _framework density 20.152334
#
# number of rings (size 3 to 8) (size 9 to 14) (size 15 to 20)
#    0.000    1.185    4.444    1.111    2.074    2.963 
#   10.667    2.222    0.000    0.000    0.000    0.000 
#    0.000    0.000    0.000    0.000    0.000    0.000 
#
# Total GULP energy -150697.422856 kJ/mol
# GULP energy per Si atom -5581.386032 kJ/mol
# Density = 2.010647 g / cm^3
# Si number density = 20.152334 Si / 1000 Ang^3
#
#
#
# Elastic Constant Matrix: (Units=GPa)
#
#
# Indices 1 2 3 4 5 6 
#
# 1 58.0635 61.4117 12.5848 0.0000 23.6779 0.0000
# 2 61.4117 203.4847 37.4757 0.0000 28.4220 0.0000
# 3 12.5848 37.4757 56.9716 0.0000 12.2226 0.0000
# 4 0.0000 0.0000 0.0000 32.1679 0.0000 15.9095
# 5 23.6779 28.4220 12.2226 0.0000 30.7981 0.0000
# 6 0.0000 0.0000 0.0000 15.9095 0.0000 24.9992
#
#
#
# Elastic Compliance Matrix: (Units=1/GPa)
#
#
# Indices 1 2 3 4 5 6 
#
# 1 0.032379 -0.007490 0.001784 0.000000 -0.018689 0.000000
# 2 -0.007490 0.007827 -0.003476 0.000000 -0.000085 0.000000
# 3 0.001784 -0.003476 0.020824 0.000000 -0.006428 0.000000
# 4 0.000000 0.000000 0.000000 0.045366 0.000000 -0.028871
# 5 -0.018689 -0.000085 -0.006428 0.000000 0.049468 0.000000
# 6 0.000000 0.000000 0.000000 -0.028871 0.000000 0.058374
#
#
# Mechanical properties :
#
#
# Convention : Reuss Voigt Hill
#
# Bulk Modulus (GPa) = 23.43754 60.16271 41.80012
# Shear Modulus (GPa) = 20.25737 31.39622 25.82679
#
# Velocity S-wave (km/s) = 3.17395 3.95136 3.58380
# Velocity P-wave (km/s) = 5.00873 7.12295 6.15726
#
# Compressibility (1/GPa) = 0.04266660
#
# Stress axis : x y z
#
# Youngs Moduli (GPa) = 30.88395 127.76387 48.02168
#
# Poissons Ratio (x) = 0.95698 -0.08568
# Poissons Ratio (y) = 0.23133 0.16691
# Poissons Ratio (z) = -0.05510 0.44407
#
# Static dielectric constant tensor:
#      x y z
#    x 1.678390 0.000000 -0.011880 
#    y 0.000000 1.712330 0.000000 
#    z -0.011880 0.000000 1.752520 
# 
# From -- ./inp_files/53226.got.cif
#   From: 2010.05.17/outbox.cif.g08.bks.cpg/sg12_27_cif.got.tgz:53226.got - 2010.06.03 13:09:07.
