data_PCOD9204995
_publ_section_title
;
Structure prediction by ZEFSAII (Michael W. Deem and Ramdas Pophale) SiO2 
 PCOD9204995
Probable space group: C 2/M
;
_chemical_formula_sum "Si O2"
_cell_formula_units_Z 44
_cell_length_a 21.877607
_cell_length_b 15.020918
_cell_length_c 13.850508
_cell_angle_alpha 90.000000
_cell_angle_beta 27.310094
_cell_angle_gamma 90.000000
_cell_volume 2088.291766
_symmetry_space_group_name_H-M "C 2/M"
_symmetry_group_IT_number 12
_symmetry_cell_setting 'monoclinic'
loop_
_space_group_symop_operation_xyz
x,y,z
-x,y,-z
-x,-y,-z
x,-y,z
1/2+x,1/2+y,z
1/2-x,1/2+y,-z
1/2-x,1/2-y,-z
1/2+x,1/2-y,z
loop_
_atom_site_type_symbol
_atom_site_label
_atom_site_fract_x
_atom_site_fract_y
_atom_site_fract_z
Si Si1 0.000000 0.350152 0.500000
Si Si2 0.859403 0.600773 0.893915
Si Si3 0.442263 0.396094 0.690429
Si Si4 0.838577 0.759810 0.586277
Si Si5 0.158221 0.597532 0.779892
Si Si6 0.635331 0.105685 0.591870
O O1 0.066404 0.397798 0.314843
O O2 0.115406 0.289570 0.382577
O O3 0.830996 0.500000 0.963666
O O4 0.977664 0.629109 0.800286
O O5 0.710538 0.638717 0.095076
O O6 0.500000 0.397353 0.500000
O O7 0.447141 0.500000 0.718500
O O8 0.536701 0.325849 0.614145
O O9 0.717914 0.827112 0.762043
O O10 0.802363 0.680579 0.563689
O O11 0.207953 0.500000 0.739756
O O12 0.191564 0.613649 0.620578
O O13 0.000000 0.595601 0.000000
O O14 0.648173 0.000000 0.546288
#
# Coordination Sequence:
#
# PCOD9204995 Si02
#       6
#     4   8   8   8   8   8
#     4  10  21  34  55  86 112 150 190 228 278 334
#     4   9  19  36  58  82 114 150 187 233 278 334
#     4  10  21  35  54  83 119 152 184 227 285 339
#     4  11  21  36  56  83 112 148 186 233 282 334
#     4  10  22  37  56  81 110 146 189 232 280 337
#     4   9  20  37  57  79 106 146 188 233 280 328
#
# _framework density 21.069852000000001
#
# number of rings (size 3 to 8) (size 9 to 14) (size 15 to 20)
#    0.000    2.182    0.909    1.364    2.545    5.091 
#    0.000    0.000    0.000    0.545    0.000    0.000 
#    0.000    0.000    0.000    0.000    0.000    0.000 
#
# Total GULP energy -122587.013356 kJ/mol
# GULP energy per Si atom -5572.136971 kJ/mol
# Density = 2.102190 g / cm^3
# Si number density = 21.069852 Si / 1000 Ang^3
#
#
#
# Elastic Constant Matrix: (Units=GPa)
#
#
# Indices 1 2 3 4 5 6 
#
# 1 55.9600 25.7772 1.1655 0.0000 7.7193 0.0000
# 2 25.7772 98.7740 -1.7917 0.0000 2.2543 0.0000
# 3 1.1655 -1.7917 61.6201 -0.0001 -3.0590 0.0000
# 4 0.0000 0.0000 -0.0001 2.1141 0.0000 -28.0717
# 5 7.7193 2.2543 -3.0590 0.0000 24.1713 0.0000
# 6 0.0000 0.0000 0.0000 -28.0717 0.0000 12.8127
#
#
#
# Elastic Compliance Matrix: (Units=1/GPa)
#
#
# Indices 1 2 3 4 5 6 
#
# 1 0.021267 -0.005420 -0.000877 0.000000 -0.006397 0.000000
# 2 -0.005420 0.011531 0.000473 0.000000 0.000715 0.000000
# 3 -0.000877 0.000473 0.016373 0.000000 0.002308 0.000000
# 4 0.000000 0.000000 0.000000 -0.016838 0.000000 -0.036891
# 5 -0.006397 0.000715 0.002308 0.000000 0.043640 0.000000
# 6 0.000000 0.000000 0.000000 -0.036891 0.000000 -0.002778
#
#
# Mechanical properties :
#
#
# Convention : Reuss Voigt Hill
#
# Bulk Modulus (GPa) = 26.65018 29.62846 28.13932
# Shear Modulus (GPa) = 51.36043 20.56649 35.96346
#
# Velocity S-wave (km/s) = 4.94259 3.12767 4.13591
# Velocity P-wave (km/s) = 6.72668 5.20918 6.01597
#
# Compressibility (1/GPa) = 0.03752320
#
# Stress axis : x y z
#
# Youngs Moduli (GPa) = 47.02047 86.72385 61.07461
#
# Poissons Ratio (x) = 0.47005 0.05359
# Poissons Ratio (y) = 0.25485 -0.02891
# Poissons Ratio (z) = 0.04126 -0.04105
#
# Static dielectric constant tensor:
#      x y z
#    x 1.762920 0.000000 0.010050 
#    y 0.000000 1.796640 0.000000 
#    z 0.010050 0.000000 1.815030 
# 
# From -- ./inp_files/233621.got.cif
#   From: 2010.05.17/outbox.cif.g08.bks.cpg/sg12_117_cif.got.tgz:233621.got - 2010.06.03 13:09:07.
