data_PCOD9204976
_publ_section_title
;
Structure prediction by ZEFSAII (Michael W. Deem and Ramdas Pophale) SiO2 
 PCOD9204976
Probable space group: C 2/M
;
_chemical_formula_sum "Si O2"
_cell_formula_units_Z 48
_cell_length_a 16.951544
_cell_length_b 24.553761
_cell_length_c 10.958748
_cell_angle_alpha 90.000000
_cell_angle_beta 147.506082
_cell_angle_gamma 90.000000
_cell_volume 2450.374011
_symmetry_space_group_name_H-M "C 2/M"
_symmetry_group_IT_number 12
_symmetry_cell_setting 'monoclinic'
loop_
_space_group_symop_operation_xyz
x,y,z
-x,y,-z
-x,-y,-z
x,-y,z
1/2+x,1/2+y,z
1/2-x,1/2+y,-z
1/2-x,1/2-y,-z
1/2+x,1/2-y,z
loop_
_atom_site_type_symbol
_atom_site_label
_atom_site_fract_x
_atom_site_fract_y
_atom_site_fract_z
Si Si1 0.485206 0.701101 0.616428
Si Si2 0.745198 0.655933 0.377284
Si Si3 0.049530 0.059412 0.205866
Si Si4 0.161718 0.724859 0.186188
Si Si5 0.071327 0.685789 0.814226
Si Si6 0.202031 0.126275 0.042317
O O1 0.500000 0.676884 0.500000
O O2 0.314417 0.699878 0.431397
O O3 0.535658 0.764036 0.677848
O O4 0.587806 0.672386 0.848377
O O5 0.659906 0.610583 0.344294
O O6 0.666113 0.714317 0.249998
O O7 0.908913 0.666069 0.639015
O O8 0.754508 0.634285 0.249418
O O9 0.903586 0.073674 0.093209
O O10 0.110004 0.000000 0.319267
O O11 0.000000 0.056537 0.000000
O O12 0.164796 0.713786 0.044516
O O13 0.000000 0.702448 0.000000
O O14 0.161609 0.637285 0.868867
#
# Coordination Sequence:
#
# PCOD9204976 Si02
#       6
#     8   8   8   8   8   8
#     4  11  21  32  51  77 114 154 181 219 267 331
#     4  10  21  34  54  81 114 149 184 228 274 323
#     4   9  20  38  60  81 106 141 189 241 285 317
#     4  11  22  33  48  80 118 155 185 213 264 336
#     4  11  21  33  52  80 119 153 180 219 268 336
#     4  11  19  35  55  79 110 146 190 227 269 331
#
# _framework density 19.588844999999999
#
# number of rings (size 3 to 8) (size 9 to 14) (size 15 to 20)
#    0.000    1.500    3.333    4.500    2.333    1.333 
#    0.000    0.833    0.000    4.500    0.000    1.167 
#    0.000    0.000    0.000    0.000    0.000    0.000 
#
# Total GULP energy -133689.065242 kJ/mol
# GULP energy per Si atom -5570.377718 kJ/mol
# Density = 1.954426 g / cm^3
# Si number density = 19.588845 Si / 1000 Ang^3
#
#
#
# Elastic Constant Matrix: (Units=GPa)
#
#
# Indices 1 2 3 4 5 6 
#
# 1 67.1279 28.4647 27.4924 0.0000 13.8546 0.0000
# 2 28.4647 80.8295 33.2261 0.0000 -2.3859 0.0000
# 3 27.4924 33.2261 110.5941 0.0000 20.6929 0.0000
# 4 0.0000 0.0000 0.0000 14.9414 0.0000 5.1979
# 5 13.8546 -2.3859 20.6929 0.0000 33.0830 0.0000
# 6 0.0000 0.0000 0.0000 5.1979 0.0000 15.1483
#
#
#
# Elastic Compliance Matrix: (Units=1/GPa)
#
#
# Indices 1 2 3 4 5 6 
#
# 1 0.019958 -0.006652 -0.001483 0.000000 -0.007910 0.000000
# 2 -0.006652 0.016856 -0.004710 0.000000 0.006948 0.000000
# 3 -0.001483 -0.004710 0.012201 0.000000 -0.007350 0.000000
# 4 0.000000 0.000000 0.000000 0.076000 0.000000 -0.026078
# 5 -0.007910 0.006948 -0.007350 0.000000 0.038638 0.000000
# 6 0.000000 0.000000 0.000000 -0.026078 0.000000 0.074962
#
#
# Mechanical properties :
#
#
# Convention : Reuss Voigt Hill
#
# Bulk Modulus (GPa) = 42.87420 48.54640 45.71030
# Shear Modulus (GPa) = 18.37695 23.92577 21.15136
#
# Velocity S-wave (km/s) = 3.06622 3.49864 3.28954
# Velocity P-wave (km/s) = 5.87113 6.41538 6.14928
#
# Compressibility (1/GPa) = 0.02332405
#
# Stress axis : x y z
#
# Youngs Moduli (GPa) = 50.10635 59.32726 81.96019
#
# Poissons Ratio (x) = 0.39466 0.12151
# Poissons Ratio (y) = 0.33332 0.38605
# Poissons Ratio (z) = 0.07429 0.27945
#
# Static dielectric constant tensor:
#      x y z
#    x 1.799240 0.000000 0.004880 
#    y 0.000000 1.704510 0.000000 
#    z 0.004880 0.000000 1.692770 
# 
# From -- ./inp_files/52399.got.cif
#   From: 2010.05.17/outbox.cif.g08.bks.cpg/sg12_27_cif.got.tgz:52399.got - 2010.06.03 13:09:07.
