data_PCOD9204777
_publ_section_title
;
Structure prediction by ZEFSAII (Michael W. Deem and Ramdas Pophale) SiO2 
 PCOD9204777
Probable space group: C 2/M
;
_chemical_formula_sum "Si O2"
_cell_formula_units_Z 56
_cell_length_a 9.210684
_cell_length_b 28.528043
_cell_length_c 19.619746
_cell_angle_alpha 90.000000
_cell_angle_beta 141.989137
_cell_angle_gamma 90.000000
_cell_volume 3174.713893
_symmetry_space_group_name_H-M "C 2/M"
_symmetry_group_IT_number 12
_symmetry_cell_setting 'monoclinic'
loop_
_space_group_symop_operation_xyz
x,y,z
-x,y,-z
-x,-y,-z
x,-y,z
1/2+x,1/2+y,z
1/2-x,1/2+y,-z
1/2-x,1/2-y,-z
1/2+x,1/2-y,z
loop_
_atom_site_type_symbol
_atom_site_label
_atom_site_fract_x
_atom_site_fract_y
_atom_site_fract_z
Si Si1 0.877199 0.099415 0.105469
Si Si2 0.828315 0.672575 0.732203
Si Si3 0.081256 0.500000 0.857231
Si Si4 0.260328 0.179465 0.215645
Si Si5 0.057095 0.000000 0.123716
Si Si6 0.017436 0.260545 0.581429
Si Si7 0.496696 0.231130 0.924406
Si Si8 0.884804 0.406568 0.846394
O O1 0.765264 0.095917 0.139561
O O2 0.057888 0.142251 0.159111
O O3 0.654751 0.106174 0.971093
O O4 0.013988 0.049928 0.144859
O O5 0.656564 0.710809 0.634612
O O6 0.753331 0.625043 0.741302
O O7 0.028374 0.659357 0.751629
O O8 0.919558 0.699336 0.833663
O O9 0.190485 0.500000 0.821481
O O10 0.932029 0.455796 0.827168
O O11 0.327762 0.500000 0.989771
O O12 0.359054 0.204486 0.320017
O O13 0.166694 0.222899 0.135245
O O14 0.750000 0.250000 0.500000
O O15 0.000000 0.281381 0.500000
O O16 0.500000 0.207881 0.000000
O O17 0.750000 0.250000 0.000000
#
# Coordination Sequence:
#
# PCOD9204777 Si02
#       8
#     8   8   4   8   4   8   8   8
#     4  10  21  33  53  80 118 148 186 220 266 324
#     4  11  23  35  55  79 106 142 188 224 274 331
#     4   9  17  33  53  75 111 151 189 217 264 314
#     4  11  23  36  53  81 104 144 187 225 274 332
#     4   9  17  33  53  75 109 155 183 221 261 316
#     4  11  24  43  60  77 106 141 186 243 288 328
#     4  11  22  33  48  72 112 147 174 214 264 321
#     4  10  21  33  52  82 115 150 183 224 263 323
#
# _framework density 17.639385000000001
#
# number of rings (size 3 to 8) (size 9 to 14) (size 15 to 20)
#    0.000    1.571    2.857    2.143    6.000    2.857 
#    0.000    0.000    0.000    0.000    0.000    2.000 
#    0.000    0.000    0.000    0.000    0.000    0.000 
#
# Total GULP energy -155970.968104 kJ/mol
# GULP energy per Si atom -5570.391718 kJ/mol
# Density = 1.759924 g / cm^3
# Si number density = 17.639385 Si / 1000 Ang^3
#
#
#
# Elastic Constant Matrix: (Units=GPa)
#
#
# Indices 1 2 3 4 5 6 
#
# 1 109.9130 33.5816 21.5767 0.0000 -4.3877 0.0000
# 2 33.5816 92.4035 19.3212 0.0000 -0.0756 0.0000
# 3 21.5767 19.3212 54.0998 -0.0003 -9.4350 0.0001
# 4 0.0000 0.0000 -0.0003 16.2110 -0.0001 1.7612
# 5 -4.3877 -0.0756 -9.4350 -0.0001 25.2126 0.0000
# 6 0.0000 0.0000 0.0001 1.7612 0.0000 27.9117
#
#
#
# Elastic Compliance Matrix: (Units=1/GPa)
#
#
# Indices 1 2 3 4 5 6 
#
# 1 0.010711 -0.003270 -0.002975 0.000000 0.000741 0.000000
# 2 -0.003270 0.012757 -0.003578 0.000000 -0.001870 0.000000
# 3 -0.002975 -0.003578 0.022313 0.000000 0.007821 0.000000
# 4 0.000000 0.000000 0.000000 0.062112 0.000000 -0.003919
# 5 0.000741 -0.001870 0.007821 0.000000 0.042713 0.000000
# 6 0.000000 0.000000 0.000000 -0.003919 0.000000 0.036075
#
#
# Mechanical properties :
#
#
# Convention : Reuss Voigt Hill
#
# Bulk Modulus (GPa) = 38.26262 45.04171 41.65216
# Shear Modulus (GPa) = 23.25178 25.99617 24.62398
#
# Velocity S-wave (km/s) = 3.63461 3.84312 3.74032
# Velocity P-wave (km/s) = 6.27316 6.72926 6.50521
#
# Compressibility (1/GPa) = 0.02613517
#
# Stress axis : x y z
#
# Youngs Moduli (GPa) = 93.36461 78.38782 44.81754
#
# Poissons Ratio (x) = 0.25632 0.13332
# Poissons Ratio (y) = 0.30529 0.16036
# Poissons Ratio (z) = 0.27773 0.28047
#
# Static dielectric constant tensor:
#      x y z
#    x 1.664520 0.000000 -0.065160 
#    y 0.000000 1.589720 0.000000 
#    z -0.065160 0.000000 1.607110 
# 
# From -- ./inp_files/259891.got.cif
#   From: 2010.05.17/outbox.cif.g08.bks.cpg/sg12_130_cif.got.tgz:259891.got - 2010.06.03 13:09:07.
