data_PCOD9204627
_publ_section_title
;
Structure prediction by ZEFSAII (Michael W. Deem and Ramdas Pophale) SiO2 
 PCOD9204627
Probable space group: C 2/M
;
_chemical_formula_sum "Si O2"
_cell_formula_units_Z 34
_cell_length_a 15.152549
_cell_length_b 21.050591
_cell_length_c 11.561824
_cell_angle_alpha 90.000000
_cell_angle_beta 22.160805
_cell_angle_gamma 90.000000
_cell_volume 1391.093959
_symmetry_space_group_name_H-M "C 2/M"
_symmetry_group_IT_number 12
_symmetry_cell_setting 'monoclinic'
loop_
_space_group_symop_operation_xyz
x,y,z
-x,y,-z
-x,-y,-z
x,-y,z
1/2+x,1/2+y,z
1/2-x,1/2+y,-z
1/2-x,1/2-y,-z
1/2+x,1/2-y,z
loop_
_atom_site_type_symbol
_atom_site_label
_atom_site_fract_x
_atom_site_fract_y
_atom_site_fract_z
Si Si1 0.431666 0.929186 0.827750
Si Si2 0.000000 0.103954 0.500000
Si Si3 0.000000 0.773289 0.000000
Si Si4 0.756536 0.161637 0.581809
Si Si5 0.196957 0.876679 0.898710
Si Si6 0.500000 0.500000 0.000000
O O1 0.177951 0.932199 0.198326
O O2 0.398820 0.895693 0.743957
O O3 0.530667 0.000000 0.688978
O O4 0.597360 0.890792 0.712142
O O5 0.831856 0.143983 0.620813
O O6 0.886997 0.726283 0.231501
O O7 0.204892 0.820620 0.794344
O O8 0.997108 0.155994 0.221064
O O9 0.105399 0.942726 0.956882
#
# Coordination Sequence:
#
# PCOD9204627 Si02
#       6
#     8   4   4   8   8   2
#     4  11  22  39  64  99 129 169 220 268 323 388
#     4  10  21  40  62  92 136 173 202 278 324 375
#     4  11  22  47  63  94 135 176 220 262 323 388
#     4  11  23  42  64 101 126 174 222 263 325 388
#     4  10  24  42  70  91 136 172 210 279 317 385
#     4  10  20  48  66  96 128 170 210 256 348 366
#
# _framework density 24.441196999999999
#
# number of rings (size 3 to 8) (size 9 to 14) (size 15 to 20)
#    0.000    1.412    3.529    1.059    1.647    3.765 
#    4.235    4.706    0.000    0.000    0.000    0.000 
#    0.000    0.000    0.000    0.000    0.000    0.000 
#
# Total GULP energy -94795.666342 kJ/mol
# GULP energy per Si atom -5576.215667 kJ/mol
# Density = 2.438557 g / cm^3
# Si number density = 24.441197 Si / 1000 Ang^3
#
#
#
# Elastic Constant Matrix: (Units=GPa)
#
#
# Indices 1 2 3 4 5 6 
#
# 1 179.2039 90.3939 22.2859 -0.0687 -34.4429 0.0998
# 2 90.3939 228.7184 34.1936 -0.0123 -22.0608 0.1184
# 3 22.2859 34.1936 40.5137 0.0306 1.4122 0.0787
# 4 -0.0687 -0.0123 0.0306 19.0068 -0.0092 6.0393
# 5 -34.4429 -22.0608 1.4122 -0.0092 28.4010 -0.0992
# 6 0.0998 0.1184 0.0787 6.0393 -0.0992 32.8578
#
#
#
# Elastic Compliance Matrix: (Units=1/GPa)
#
#
# Indices 1 2 3 4 5 6 
#
# 1 0.008841 -0.002088 -0.003424 0.000037 0.009270 0.000010
# 2 -0.002088 0.006025 -0.004018 0.000004 0.002347 0.000001
# 3 -0.003424 -0.004018 0.030264 -0.000047 -0.008779 -0.000065
# 4 0.000037 0.000004 -0.000047 0.055876 0.000033 -0.010270
# 5 0.009270 0.002347 -0.008779 0.000033 0.048712 0.000125
# 6 0.000010 0.000001 -0.000065 -0.010270 0.000125 0.032322
#
#
# Mechanical properties :
#
#
# Convention : Reuss Voigt Hill
#
# Bulk Modulus (GPa) = 38.35950 82.46473 60.41211
# Shear Modulus (GPa) = 23.83332 36.15731 29.99531
#
# Velocity S-wave (km/s) = 3.12609 3.85042 3.50700
# Velocity P-wave (km/s) = 5.36271 7.31990 6.41637
#
# Compressibility (1/GPa) = 0.02606916
#
# Stress axis : x y z
#
# Youngs Moduli (GPa) = 113.10826 165.98862 33.04273
#
# Poissons Ratio (x) = 0.34660 0.11314
# Poissons Ratio (y) = 0.23618 0.13276
# Poissons Ratio (z) = 0.38730 0.66692
#
# Static dielectric constant tensor:
#      x y z
#    x 1.958320 -0.000010 0.039270 
#    y -0.000010 1.871470 0.000070 
#    z 0.039270 0.000070 2.130870 
# 
# From -- ./inp_files/147456.got.cif
#   From: 2010.05.17/outbox.cif.g08.bks.cpg/sg12_74_cif.got.tgz:147456.got - 2010.06.03 13:09:07.
