data_PCOD9204697
_publ_section_title
;
Structure prediction by ZEFSAII (Michael W. Deem and Ramdas Pophale) SiO2 
 PCOD9204697
Probable space group: C 2/M
;
_chemical_formula_sum "Si O2"
_cell_formula_units_Z 48
_cell_length_a 10.660365
_cell_length_b 15.071026
_cell_length_c 21.324303
_cell_angle_alpha 90.000000
_cell_angle_beta 34.846318
_cell_angle_gamma 90.000000
_cell_volume 1957.549013
_symmetry_space_group_name_H-M "C 2/M"
_symmetry_group_IT_number 12
_symmetry_cell_setting 'monoclinic'
loop_
_space_group_symop_operation_xyz
x,y,z
-x,y,-z
-x,-y,-z
x,-y,z
1/2+x,1/2+y,z
1/2-x,1/2+y,-z
1/2-x,1/2-y,-z
1/2+x,1/2-y,z
loop_
_atom_site_type_symbol
_atom_site_label
_atom_site_fract_x
_atom_site_fract_y
_atom_site_fract_z
Si Si1 0.363039 0.342531 0.613998
Si Si2 0.596178 0.729755 0.821474
Si Si3 0.770896 0.399329 0.523943
Si Si4 0.944757 0.602641 0.709884
Si Si5 0.029985 0.401949 0.913070
Si Si6 0.477240 0.602054 0.257448
O O1 0.500000 0.302111 0.500000
O O2 0.259817 0.278216 0.706578
O O3 0.549707 0.398217 0.572840
O O4 0.151693 0.391157 0.671402
O O5 0.460534 0.810488 0.908107
O O6 0.485808 0.658126 0.820566
O O7 0.749601 0.671429 0.805112
O O8 0.829147 0.500000 0.514582
O O9 0.957626 0.369478 0.398779
O O10 0.700665 0.359695 0.619972
O O11 0.873366 0.500000 0.737062
O O12 0.948746 0.500000 0.924464
O O13 0.294176 0.401066 0.799105
O O14 0.000000 0.398446 0.000000
O O15 0.422018 0.500000 0.264019
#
# Coordination Sequence:
#
# PCOD9204697 Si02
#       6
#     8   8   8   8   8   8
#     4  10  21  32  54  82 121 160 207 247 287 329
#     4  12  23  36  61  91 122 157 192 248 296 360
#     4   9  18  35  57  82 120 166 209 242 277 340
#     4  10  22  37  55  86 126 168 202 235 287 350
#     4  10  23  45  68  87 111 150 204 255 301 355
#     4  10  21  38  60  89 123 159 196 242 297 353
#
# _framework density 24.520458000000001
#
# number of rings (size 3 to 8) (size 9 to 14) (size 15 to 20)
#    0.000    1.833    1.667    2.000    2.333    4.667 
#    0.000    2.500    0.000    2.000    0.000    0.000 
#    0.000    0.000    0.000    0.000    0.000    0.000 
#
# Total GULP energy -133943.158921 kJ/mol
# GULP energy per Si atom -5580.964955 kJ/mol
# Density = 2.446465 g / cm^3
# Si number density = 24.520458 Si / 1000 Ang^3
#
#
#
# Elastic Constant Matrix: (Units=GPa)
#
#
# Indices 1 2 3 4 5 6 
#
# 1 81.4500 51.6622 -11.5694 0.0007 8.3821 0.0001
# 2 51.6622 129.4200 51.3075 0.0003 17.0821 0.0003
# 3 -11.5694 51.3075 54.2845 0.0014 18.5078 -0.0011
# 4 0.0007 0.0003 0.0014 29.2576 -0.0010 13.4790
# 5 8.3821 17.0821 18.5078 -0.0010 23.2228 0.0003
# 6 0.0001 0.0003 -0.0011 13.4790 0.0003 33.8186
#
#
#
# Elastic Compliance Matrix: (Units=1/GPa)
#
#
# Indices 1 2 3 4 5 6 
#
# 1 0.047370 -0.036821 0.056973 -0.000007 -0.035419 0.000005
# 2 -0.036821 0.040979 -0.056068 0.000006 0.027832 -0.000005
# 3 0.056973 -0.056068 0.105052 -0.000012 -0.063045 0.000009
# 4 -0.000007 0.000006 -0.000012 0.041867 0.000010 -0.016687
# 5 -0.035419 0.027832 -0.063045 0.000010 0.085618 -0.000007
# 6 0.000005 -0.000005 0.000009 -0.016687 -0.000007 0.036220
#
#
# Mechanical properties :
#
#
# Convention : Reuss Voigt Hill
#
# Bulk Modulus (GPa) = 8.22580 49.77279 28.99930
# Shear Modulus (GPa) = 10.65052 28.84340 19.74696
#
# Velocity S-wave (km/s) = 2.08637 3.43344 2.84091
# Velocity P-wave (km/s) = 3.02752 6.00505 4.75534
#
# Compressibility (1/GPa) = 0.12156867
#
# Stress axis : x y z
#
# Youngs Moduli (GPa) = 21.11051 24.40257 9.51912
#
# Poissons Ratio (x) = 0.89852 -0.54233
# Poissons Ratio (y) = 0.77730 0.53372
# Poissons Ratio (z) = -1.20273 1.36821
#
# Static dielectric constant tensor:
#      x y z
#    x 1.994930 0.000000 -0.008870 
#    y 0.000000 1.993390 0.000000 
#    z -0.008870 0.000000 1.956760 
# 
# From -- ./inp_files/204304.got.cif
#   From: 2010.05.17/outbox.cif.g08.bks.cpg/sg12_103_cif.got.tgz:204304.got - 2010.06.03 13:09:07.
