data_PCOD9204525
_publ_section_title
;
Structure prediction by ZEFSAII (Michael W. Deem and Ramdas Pophale) SiO2 
 PCOD9204525
Probable space group: C 2/M
;
_chemical_formula_sum "Si O2"
_cell_formula_units_Z 32
_cell_length_a 5.434530
_cell_length_b 26.442046
_cell_length_c 9.449423
_cell_angle_alpha 90.000000
_cell_angle_beta 107.361631
_cell_angle_gamma 90.000000
_cell_volume 1296.018314
_symmetry_space_group_name_H-M "C 2/M"
_symmetry_group_IT_number 12
_symmetry_cell_setting 'monoclinic'
loop_
_space_group_symop_operation_xyz
x,y,z
-x,y,-z
-x,-y,-z
x,-y,z
1/2+x,1/2+y,z
1/2-x,1/2+y,-z
1/2-x,1/2-y,-z
1/2+x,1/2-y,z
loop_
_atom_site_type_symbol
_atom_site_label
_atom_site_fract_x
_atom_site_fract_y
_atom_site_fract_z
Si Si1 0.800864 0.000000 0.096461
Si Si2 0.249249 0.056268 0.641970
Si Si3 0.073455 0.188736 0.277076
Si Si4 0.515295 0.199474 0.166035
Si Si5 0.500000 0.866656 0.500000
O O1 0.833257 0.048195 0.208763
O O2 0.500000 0.000000 0.000000
O O3 0.000000 0.000000 0.000000
O O4 0.454667 0.096721 0.625054
O O5 0.000000 0.064254 0.500000
O O6 0.355451 0.000000 0.627105
O O7 0.247617 0.175609 0.169986
O O8 0.038630 0.249417 0.263074
O O9 0.251947 0.168424 0.432683
O O10 0.781905 0.169400 0.228520
O O11 0.500000 0.214400 0.000000
#
# Coordination Sequence:
#
# PCOD9204525 Si02
#       5
#     4   8   8   8   4
#     4  10  23  43  78 106 126 171 244 283 333 423
#     4   9  23  44  75  96 139 193 228 279 353 435
#     4  10  22  35  65  94 131 172 236 280 336 401
#     4  10  20  42  66  90 131 194 228 277 344 424
#     4  12  25  38  66 102 144 176 236 294 355 402
#
# _framework density 24.691008
#
# number of rings (size 3 to 8) (size 9 to 14) (size 15 to 20)
#    0.750    1.250    0.000    4.125    7.000    4.000 
#    0.000    1.250   11.000    0.000    0.000    0.000 
#    0.000    0.000    0.000    1.000    0.000    0.000 
#
# Total GULP energy -89292.275517 kJ/mol
# GULP energy per Si atom -5580.767220 kJ/mol
# Density = 2.463481 g / cm^3
# Si number density = 24.691008 Si / 1000 Ang^3
#
#
#
# Elastic Constant Matrix: (Units=GPa)
#
#
# Indices 1 2 3 4 5 6 
#
# 1 187.7928 22.3108 54.2592 0.0000 -14.6068 0.0000
# 2 22.3108 72.0500 38.6663 0.0000 -6.5503 0.0000
# 3 54.2592 38.6663 118.0440 0.0000 -10.8699 0.0000
# 4 0.0000 0.0000 0.0000 5.0231 0.0000 -16.2854
# 5 -14.6068 -6.5503 -10.8699 0.0000 51.6201 0.0000
# 6 0.0000 0.0000 0.0000 -16.2854 0.0000 29.6998
#
#
#
# Elastic Compliance Matrix: (Units=1/GPa)
#
#
# Indices 1 2 3 4 5 6 
#
# 1 0.006220 -0.000417 -0.002616 0.000000 0.001156 0.000000
# 2 -0.000417 0.016918 -0.005265 0.000000 0.000920 0.000000
# 3 -0.002616 -0.005265 0.011492 0.000000 0.001011 0.000000
# 4 0.000000 0.000000 0.000000 -0.255965 0.000000 -0.140354
# 5 0.001156 0.000920 0.001011 0.000000 0.020029 0.000000
# 6 0.000000 0.000000 0.000000 -0.140354 0.000000 -0.043291
#
#
# Mechanical properties :
#
#
# Convention : Reuss Voigt Hill
#
# Bulk Modulus (GPa) = 55.45350 67.59547 61.52449
# Shear Modulus (GPa) = -22.52357 34.77861 6.12752
#
# Velocity S-wave (km/s) = -3.02357 3.75714 1.57704
# Velocity P-wave (km/s) = 3.21223 6.80128 5.31864
#
# Compressibility (1/GPa) = 0.01803313
#
# Stress axis : x y z
#
# Youngs Moduli (GPa) = 160.76155 59.11004 87.01949
#
# Poissons Ratio (x) = 0.02465 0.22765
# Poissons Ratio (y) = 0.06705 0.45816
# Poissons Ratio (z) = 0.42057 0.31122
#
# Static dielectric constant tensor:
#      x y z
#    x 2.021900 0.000000 0.004600 
#    y 0.000000 1.974470 0.000000 
#    z 0.004600 0.000000 2.225860 
# 
# From -- ./inp_files/34669.got.cif
#   From: 2010.05.17/outbox.cif.g08.bks.cpg/sg12_18_cif.got.tgz:34669.got - 2010.06.03 13:09:07.
