data_PCOD9204666
_publ_section_title
;
Structure prediction by ZEFSAII (Michael W. Deem and Ramdas Pophale) SiO2 
 PCOD9204666
Probable space group: C 2/M
;
_chemical_formula_sum "Si O2"
_cell_formula_units_Z 56
_cell_length_a 19.611368
_cell_length_b 21.189914
_cell_length_c 6.987758
_cell_angle_alpha 90.000000
_cell_angle_beta 59.669959
_cell_angle_gamma 90.000000
_cell_volume 2506.407055
_symmetry_space_group_name_H-M "C 2/M"
_symmetry_group_IT_number 12
_symmetry_cell_setting 'monoclinic'
loop_
_space_group_symop_operation_xyz
x,y,z
-x,y,-z
-x,-y,-z
x,-y,z
1/2+x,1/2+y,z
1/2-x,1/2+y,-z
1/2-x,1/2-y,-z
1/2+x,1/2-y,z
loop_
_atom_site_type_symbol
_atom_site_label
_atom_site_fract_x
_atom_site_fract_y
_atom_site_fract_z
Si Si1 0.688390 0.754467 0.361885
Si Si2 0.022457 0.237666 0.680815
Si Si3 0.647064 0.712339 0.985840
Si Si4 0.507123 0.885300 0.760244
Si Si5 0.174164 0.605303 0.541320
Si Si6 0.200724 0.069406 0.906193
Si Si7 0.160601 0.427688 0.980822
O O1 0.615436 0.720079 0.578131
O O2 0.666127 0.738512 0.173343
O O3 0.679502 0.827648 0.428736
O O4 0.784597 0.751326 0.234271
O O5 0.000000 0.212840 0.500000
O O6 0.945534 0.223846 0.919398
O O7 0.019563 0.313610 0.680434
O O8 0.656018 0.636190 0.970066
O O9 0.588299 0.922063 0.608247
O O10 0.500000 0.886097 0.000000
O O11 0.422779 0.908523 0.808333
O O12 0.249001 0.568003 0.360244
O O13 0.175969 0.611567 0.767167
O O14 0.161567 0.000000 0.986967
O O15 0.267079 0.076510 0.977299
O O16 0.152570 0.500000 0.928453
#
# Coordination Sequence:
#
# PCOD9204666 Si02
#       7
#     8   8   8   8   8   8   8
#     4   8  16  29  50  78  98 134 170 206 269 311
#     4   9  17  29  53  72  99 140 166 211 270 310
#     4   9  17  30  52  78 105 134 171 220 263 311
#     4   9  19  30  47  72 104 138 170 210 258 310
#     4   9  18  34  50  71 102 135 174 212 255 313
#     4  10  21  34  52  73  99 139 178 214 260 312
#     4  10  21  32  46  72 104 141 178 213 253 303
#
# _framework density 22.342738000000001
#
# number of rings (size 3 to 8) (size 9 to 14) (size 15 to 20)
#    0.000    2.857    0.000    0.429   12.000    3.143 
#    0.000    2.143   15.714    3.857    0.000    0.000 
#    0.000    0.571    0.000   28.571    0.000    0.000 
#
# Total GULP energy -155944.396566 kJ/mol
# GULP energy per Si atom -5569.442734 kJ/mol
# Density = 2.229189 g / cm^3
# Si number density = 22.342738 Si / 1000 Ang^3
#
#
#
# Elastic Constant Matrix: (Units=GPa)
#
#
# Indices 1 2 3 4 5 6 
#
# 1 94.5119 14.8702 42.0211 0.0000 -25.7117 0.0000
# 2 14.8702 168.0571 55.0776 0.0000 -10.8756 0.0000
# 3 42.0211 55.0776 147.2942 0.0000 -29.7601 0.0000
# 4 0.0000 0.0000 0.0000 15.2837 0.0000 4.8129
# 5 -25.7117 -10.8756 -29.7601 0.0000 33.0500 0.0000
# 6 0.0000 0.0000 0.0000 4.8129 0.0000 4.7492
#
#
#
# Elastic Compliance Matrix: (Units=1/GPa)
#
#
# Indices 1 2 3 4 5 6 
#
# 1 0.013976 0.000065 -0.002213 0.000000 0.008902 0.000000
# 2 0.000065 0.006782 -0.002559 0.000000 -0.000022 0.000000
# 3 -0.002213 -0.002559 0.009607 0.000000 0.006087 0.000000
# 4 0.000000 0.000000 0.000000 0.096097 0.000000 -0.097387
# 5 0.008902 -0.000022 0.006087 0.000000 0.042656 0.000000
# 6 0.000000 0.000000 0.000000 -0.097387 0.000000 0.309257
#
#
# Mechanical properties :
#
#
# Convention : Reuss Voigt Hill
#
# Bulk Modulus (GPa) = 47.73068 70.42235 59.07651
# Shear Modulus (GPa) = 10.10566 30.47620 20.29093
#
# Velocity S-wave (km/s) = 2.12905 3.69729 3.01685
# Velocity P-wave (km/s) = 5.23957 7.05791 6.21559
#
# Compressibility (1/GPa) = 0.02095089
#
# Stress axis : x y z
#
# Youngs Moduli (GPa) = 71.55131 147.45315 104.08894
#
# Poissons Ratio (x) = -0.00953 0.23033
# Poissons Ratio (y) = -0.00462 0.26635
# Poissons Ratio (z) = 0.15833 0.37731
#
# Static dielectric constant tensor:
#      x y z
#    x 2.871190 0.000000 1.255540 
#    y 0.000000 1.803420 0.000000 
#    z 1.255540 0.000000 3.546720 
# 
# From -- ./inp_files/89520.got.cif
#   From: 2010.05.17/outbox.cif.g08.bks.cpg/sg12_45_cif.got.tgz:89520.got - 2010.06.03 13:09:07.
