data_PCOD9204021
_publ_section_title
;
Structure prediction by ZEFSAII (Michael W. Deem and Ramdas Pophale) SiO2 
 PCOD9204021
Probable space group: C 2/M
;
_chemical_formula_sum "Si O2"
_cell_formula_units_Z 40
_cell_length_a 14.009786
_cell_length_b 27.913252
_cell_length_c 9.542715
_cell_angle_alpha 90.000000
_cell_angle_beta 151.736472
_cell_angle_gamma 90.000000
_cell_volume 1767.092261
_symmetry_space_group_name_H-M "C 2/M"
_symmetry_group_IT_number 12
_symmetry_cell_setting 'monoclinic'
loop_
_space_group_symop_operation_xyz
x,y,z
-x,y,-z
-x,-y,-z
x,-y,z
1/2+x,1/2+y,z
1/2-x,1/2+y,-z
1/2-x,1/2-y,-z
1/2+x,1/2-y,z
loop_
_atom_site_type_symbol
_atom_site_label
_atom_site_fract_x
_atom_site_fract_y
_atom_site_fract_z
Si Si1 0.572346 0.137312 0.943855
Si Si2 0.713698 0.948173 0.995824
Si Si3 0.065226 0.000000 0.925675
Si Si4 0.176986 0.822246 0.320208
Si Si5 0.389041 0.000000 0.707388
Si Si6 0.175729 0.222484 0.616897
O O1 0.378436 0.146611 0.597310
O O2 0.500000 0.116530 0.000000
O O3 0.744518 0.102966 0.103146
O O4 0.661046 0.189371 0.094322
O O5 0.799738 0.954917 0.951891
O O6 0.793387 0.000000 0.158402
O O7 0.476785 0.956460 0.725809
O O8 0.846182 0.000000 0.570648
O O9 0.000000 0.000000 0.000000
O O10 0.113579 0.806924 0.396316
O O11 0.235335 0.772753 0.318329
O O12 0.000000 0.845138 0.000000
O O13 0.500000 0.000000 0.000000
O O14 0.000000 0.230576 0.500000
#
# Coordination Sequence:
#
# PCOD9204021 Si02
#       6
#     8   8   4   8   4   8
#     4  10  20  40  63  94 131 167 218 276 327 398
#     4   8  21  37  66  97 125 172 218 264 324 391
#     4   9  20  41  70  90 128 183 210 265 332 390
#     4  10  21  38  64  92 126 171 218 274 341 387
#     4   9  18  37  64  94 126 165 206 273 320 382
#     4  10  21  39  65  91 124 176 218 273 331 395
#
# _framework density 22.636054999999999
#
# number of rings (size 3 to 8) (size 9 to 14) (size 15 to 20)
#    1.200    1.200    0.000    3.600    0.000    6.400 
#   10.800    1.000    8.800    0.000    0.000    0.000 
#    0.000    0.000    0.000    0.000    0.000    0.000 
#
# Total GULP energy -111338.845143 kJ/mol
# GULP energy per Si atom -5566.942257 kJ/mol
# Density = 2.258453 g / cm^3
# Si number density = 22.636055 Si / 1000 Ang^3
#
#
#
# Elastic Constant Matrix: (Units=GPa)
#
#
# Indices 1 2 3 4 5 6 
#
# 1 168.5048 38.7953 29.8093 0.0000 5.7066 0.0000
# 2 38.7953 105.4647 31.7906 0.0000 -3.0950 0.0000
# 3 29.8093 31.7906 138.1861 0.0000 -6.5482 0.0000
# 4 0.0000 0.0000 0.0000 -35.8587 0.0000 -32.1747
# 5 5.7066 -3.0950 -6.5482 0.0000 15.6928 0.0000
# 6 0.0000 0.0000 0.0000 -32.1747 0.0000 -36.1759
#
#
#
# Elastic Compliance Matrix: (Units=1/GPa)
#
#
# Indices 1 2 3 4 5 6 
#
# 1 0.006762 -0.002255 -0.001099 0.000000 -0.003362 0.000000
# 2 -0.002255 0.010957 -0.001931 0.000000 0.002175 0.000000
# 3 -0.001099 -0.001931 0.008079 0.000000 0.003390 0.000000
# 4 0.000000 0.000000 0.000000 -0.138071 0.000000 0.122799
# 5 -0.003362 0.002175 0.003390 0.000000 0.066790 0.000000
# 6 0.000000 0.000000 0.000000 0.122799 0.000000 -0.136860
#
#
# Mechanical properties :
#
#
# Convention : Reuss Voigt Hill
#
# Bulk Modulus (GPa) = 65.67175 68.10511 66.88843
# Shear Modulus (GPa) = -29.99465 9.51565 -10.23950
#
# Velocity S-wave (km/s) = -3.64412 2.05253 -2.12917
# Velocity P-wave (km/s) = 3.37178 5.98076 4.85481
#
# Compressibility (1/GPa) = 0.01522725
#
# Stress axis : x y z
#
# Youngs Moduli (GPa) = 147.88520 91.26383 123.78214
#
# Poissons Ratio (x) = 0.20577 0.13608
# Poissons Ratio (y) = 0.33344 0.23906
# Poissons Ratio (z) = 0.16257 0.17626
#
# Static dielectric constant tensor:
#      x y z
#    x 2.074600 0.000000 0.147710 
#    y 0.000000 1.966360 0.000000 
#    z 0.147710 0.000000 2.044870 
# 
# From -- ./inp_files/68766.got.cif
#   From: 2010.05.17/outbox.cif.g08.bks.cpg/sg12_35_cif.got.tgz:68766.got - 2010.06.03 13:09:07.
