data_PCOD9204918
_publ_section_title
;
Structure prediction by ZEFSAII (Michael W. Deem and Ramdas Pophale) SiO2 
 PCOD9204918
Probable space group: C 2/M
;
_chemical_formula_sum "Si O2"
_cell_formula_units_Z 40
_cell_length_a 15.361753
_cell_length_b 22.279687
_cell_length_c 5.276711
_cell_angle_alpha 90.000000
_cell_angle_beta 97.158594
_cell_angle_gamma 90.000000
_cell_volume 1791.903389
_symmetry_space_group_name_H-M "C 2/M"
_symmetry_group_IT_number 12
_symmetry_cell_setting 'monoclinic'
loop_
_space_group_symop_operation_xyz
x,y,z
-x,y,-z
-x,-y,-z
x,-y,z
1/2+x,1/2+y,z
1/2-x,1/2+y,-z
1/2-x,1/2-y,-z
1/2+x,1/2-y,z
loop_
_atom_site_type_symbol
_atom_site_label
_atom_site_fract_x
_atom_site_fract_y
_atom_site_fract_z
Si Si1 0.788602 0.848199 0.690814
Si Si2 0.446102 0.260760 0.728748
Si Si3 0.155661 0.429333 0.896382
Si Si4 0.889124 0.370976 0.618413
Si Si5 0.945955 0.932881 0.737923
O O1 0.848730 0.788985 0.731166
O O2 0.738416 0.882559 0.904113
O O3 0.709621 0.844646 0.465019
O O4 0.860844 0.896078 0.640573
O O5 0.500000 0.283779 0.500000
O O6 0.441972 0.188964 0.696907
O O7 0.500000 0.274462 0.000000
O O8 0.177860 0.500000 0.877344
O O9 0.096217 0.406741 0.638917
O O10 0.111585 0.415905 0.147592
O O11 0.000000 0.934991 0.500000
O O12 0.919920 0.000000 0.804722
O O13 0.000000 0.908586 0.000000
#
# Coordination Sequence:
#
# PCOD9204918 Si02
#       5
#     8   8   8   8   8
#     4  10  24  38  66  93 128 165 215 255 318 378
#     4  12  26  43  67  93 132 172 213 265 326 379
#     4  10  22  39  68  97 127 161 211 267 319 372
#     4  10  24  41  66  94 132 163 221 265 313 376
#     4  10  21  34  51  82 125 164 200 243 299 370
#
# _framework density 22.322631999999999
#
# number of rings (size 3 to 8) (size 9 to 14) (size 15 to 20)
#    1.200    0.400    0.000    4.200    5.600    0.800 
#    0.000    0.000    0.000   12.000    0.000    0.000 
#    0.000    0.000    0.000    0.000    0.000    0.000 
#
# Total GULP energy -111450.328969 kJ/mol
# GULP energy per Si atom -5572.516448 kJ/mol
# Density = 2.227183 g / cm^3
# Si number density = 22.322632 Si / 1000 Ang^3
#
#
#
# Elastic Constant Matrix: (Units=GPa)
#
#
# Indices 1 2 3 4 5 6 
#
# 1 36.8345 10.0797 27.1341 0.0000 -0.4587 0.0000
# 2 10.0797 121.7943 33.9706 0.0000 -7.1067 0.0000
# 3 27.1341 33.9706 146.5278 0.0000 -10.6151 0.0000
# 4 0.0000 0.0000 0.0000 4.5134 0.0000 -15.3437
# 5 -0.4587 -7.1067 -10.6151 0.0000 23.4193 0.0000
# 6 0.0000 0.0000 0.0000 -15.3437 0.0000 10.5647
#
#
#
# Elastic Compliance Matrix: (Units=1/GPa)
#
#
# Indices 1 2 3 4 5 6 
#
# 1 0.031685 -0.001149 -0.005771 0.000000 -0.002344 0.000000
# 2 -0.001149 0.008894 -0.001711 0.000000 0.001901 0.000000
# 3 -0.005771 -0.001711 0.008524 0.000000 0.003231 0.000000
# 4 0.000000 0.000000 0.000000 -0.056271 0.000000 -0.081725
# 5 -0.002344 0.001901 0.003231 0.000000 0.044695 0.000000
# 6 0.000000 0.000000 0.000000 -0.081725 0.000000 -0.024040
#
#
# Mechanical properties :
#
#
# Convention : Reuss Voigt Hill
#
# Bulk Modulus (GPa) = 31.40726 49.72505 40.56615
# Shear Modulus (GPa) = 120.87780 23.29762 72.08771
#
# Velocity S-wave (km/s) = 7.36667 3.23410 5.68891
# Velocity P-wave (km/s) = 9.29825 6.02245 7.83350
#
# Compressibility (1/GPa) = 0.03183977
#
# Stress axis : x y z
#
# Youngs Moduli (GPa) = 31.56082 112.43617 117.31412
#
# Poissons Ratio (x) = 0.12924 0.67699
# Poissons Ratio (y) = 0.03628 0.20077
# Poissons Ratio (z) = 0.18213 0.19242
#
# Static dielectric constant tensor:
#      x y z
#    x 1.904410 0.000000 -0.078660 
#    y 0.000000 1.818220 0.000000 
#    z -0.078660 0.000000 1.913600 
# 
# From -- ./inp_files/11711.got.cif
#   From: 2010.05.17/outbox.cif.g08.bks.cpg/sg12_6_cif.got.tgz:11711.got - 2010.06.03 13:09:07.
