data_PCOD9204177
_publ_section_title
;
Structure prediction by ZEFSAII (Michael W. Deem and Ramdas Pophale) SiO2 
 PCOD9204177
Probable space group: C 2/M
;
_chemical_formula_sum "Si O2"
_cell_formula_units_Z 52
_cell_length_a 12.546881
_cell_length_b 22.298198
_cell_length_c 12.004215
_cell_angle_alpha 90.000000
_cell_angle_beta 47.226064
_cell_angle_gamma 90.000000
_cell_volume 2465.235248
_symmetry_space_group_name_H-M "C 2/M"
_symmetry_group_IT_number 12
_symmetry_cell_setting 'monoclinic'
loop_
_space_group_symop_operation_xyz
x,y,z
-x,y,-z
-x,-y,-z
x,-y,z
1/2+x,1/2+y,z
1/2-x,1/2+y,-z
1/2-x,1/2-y,-z
1/2+x,1/2-y,z
loop_
_atom_site_type_symbol
_atom_site_label
_atom_site_fract_x
_atom_site_fract_y
_atom_site_fract_z
Si Si1 0.371582 0.865680 0.269645
Si Si2 0.171878 0.323559 0.145868
Si Si3 0.564099 0.500000 0.295913
Si Si4 0.618451 0.000000 0.817480
Si Si5 0.724042 0.314241 0.164821
Si Si6 0.368187 0.626851 0.183846
Si Si7 0.554706 0.500000 0.837621
Si Si8 0.073908 0.868173 0.611006
O O1 0.503934 0.833068 0.237344
O O2 0.399777 0.937057 0.234541
O O3 0.343080 0.836241 0.168476
O O4 0.223441 0.857950 0.442876
O O5 0.220494 0.256016 0.141004
O O6 0.226531 0.358370 0.214965
O O7 0.249912 0.344048 0.975108
O O8 0.716505 0.500000 0.250391
O O9 0.580595 0.500000 0.150081
O O10 0.473503 0.438427 0.377008
O O11 0.500000 0.000000 0.000000
O O12 0.569685 0.333270 0.323842
O O13 0.354804 0.559346 0.237913
O O14 0.404718 0.656262 0.276237
O O15 0.500000 0.633580 0.000000
O O16 0.500000 0.500000 0.000000
#
# Coordination Sequence:
#
# PCOD9204177 Si02
#       8
#     8   8   4   4   8   8   4   8
#     4  12  27  43  66 108 139 172 222 284 355 398
#     4  11  26  43  67  94 133 176 228 287 331 394
#     4  10  21  40  66  96 131 178 219 262 337 410
#     4  12  25  41  72 104 144 174 217 286 341 413
#     4  11  24  44  67  90 129 182 227 277 327 407
#     4  10  20  40  66  93 126 176 225 268 327 402
#     4   8  18  31  60  93 119 156 219 266 303 391
#     4  11  23  43  69  97 134 175 224 274 334 412
#
# _framework density 21.093321
#
# number of rings (size 3 to 8) (size 9 to 14) (size 15 to 20)
#    0.000    1.231    3.077    2.308    2.154    2.462 
#    2.769    0.000    0.000    3.692    0.000    0.000 
#    0.000    0.000    0.000    0.000    0.000    0.000 
#
# Total GULP energy -145015.941522 kJ/mol
# GULP energy per Si atom -5577.536212 kJ/mol
# Density = 2.104531 g / cm^3
# Si number density = 21.093321 Si / 1000 Ang^3
#
#
#
# Elastic Constant Matrix: (Units=GPa)
#
#
# Indices 1 2 3 4 5 6 
#
# 1 130.7152 16.3325 9.0700 0.0000 8.0623 0.0000
# 2 16.3325 40.1824 -8.8705 0.0000 9.9114 0.0000
# 3 9.0700 -8.8705 92.3321 0.0000 -8.6879 0.0000
# 4 0.0000 0.0000 0.0000 286.9279 0.0000 -117.0675
# 5 8.0623 9.9114 -8.6879 0.0000 28.8467 0.0000
# 6 0.0000 0.0000 0.0000 -117.0675 0.0000 64.5578
#
#
#
# Elastic Compliance Matrix: (Units=1/GPa)
#
#
# Indices 1 2 3 4 5 6 
#
# 1 0.008240 -0.003242 -0.001269 0.000000 -0.001571 0.000000
# 2 -0.003242 0.028755 0.002302 0.000000 -0.008281 0.000000
# 3 -0.001269 0.002302 0.011460 0.000000 0.003015 0.000000
# 4 0.000000 0.000000 0.000000 0.013398 0.000000 0.024295
# 5 -0.001571 -0.008281 0.003015 0.000000 0.038858 0.000000
# 6 0.000000 0.000000 0.000000 0.024295 0.000000 0.059546
#
#
# Mechanical properties :
#
#
# Convention : Reuss Voigt Hill
#
# Bulk Modulus (GPa) = 22.70794 32.92152 27.81473
# Shear Modulus (GPa) = 27.87797 92.51298 60.19548
#
# Velocity S-wave (km/s) = 3.63939 6.62979 5.34786
# Velocity P-wave (km/s) = 5.33377 8.61667 7.16575
#
# Compressibility (1/GPa) = 0.04403746
#
# Stress axis : x y z
#
# Youngs Moduli (GPa) = 121.35589 34.77683 87.26041
#
# Poissons Ratio (x) = 0.11274 0.11071
# Poissons Ratio (y) = 0.39341 -0.20086
# Poissons Ratio (z) = 0.15397 -0.08005
#
# Static dielectric constant tensor:
#      x y z
#    x 1.755110 0.000000 0.036040 
#    y 0.000000 1.937280 0.000000 
#    z 0.036040 0.000000 1.777050 
# 
# From -- ./inp_files/135888.got.cif
#   From: 2010.05.17/outbox.cif.g08.bks.cpg/sg12_68_cif.got.tgz:135888.got - 2010.06.03 13:09:07.
