data_PCOD9204799
_publ_section_title
;
Structure prediction by ZEFSAII (Michael W. Deem and Ramdas Pophale) SiO2 
 PCOD9204799
Probable space group: C 2/M
;
_chemical_formula_sum "Si O2"
_cell_formula_units_Z 56
_cell_length_a 15.990389
_cell_length_b 29.455196
_cell_length_c 6.921068
_cell_angle_alpha 90.000000
_cell_angle_beta 57.165921
_cell_angle_gamma 90.000000
_cell_volume 2739.047806
_symmetry_space_group_name_H-M "C 2/M"
_symmetry_group_IT_number 12
_symmetry_cell_setting 'monoclinic'
loop_
_space_group_symop_operation_xyz
x,y,z
-x,y,-z
-x,-y,-z
x,-y,z
1/2+x,1/2+y,z
1/2-x,1/2+y,-z
1/2-x,1/2-y,-z
1/2+x,1/2-y,z
loop_
_atom_site_type_symbol
_atom_site_label
_atom_site_fract_x
_atom_site_fract_y
_atom_site_fract_z
Si Si1 0.686913 0.204897 0.411181
Si Si2 0.914938 0.048760 0.264023
Si Si3 0.309027 0.053420 0.571425
Si Si4 0.596091 0.723890 0.759016
Si Si5 0.680010 0.130090 0.757804
Si Si6 0.409073 0.360972 0.483436
Si Si7 0.894064 0.628432 0.736818
O O1 0.611145 0.245663 0.548682
O O2 0.797530 0.226047 0.266024
O O3 0.672315 0.171622 0.616041
O O4 0.667708 0.172187 0.256853
O O5 0.810560 0.055138 0.284719
O O6 0.933046 0.088530 0.388388
O O7 0.909910 0.000000 0.370272
O O8 0.000000 0.048821 0.000000
O O9 0.334909 0.084227 0.350347
O O10 0.348670 0.081872 0.705057
O O11 0.339211 0.000000 0.528136
O O12 0.589350 0.671754 0.703630
O O13 0.500000 0.737570 0.000000
O O14 0.793924 0.135599 0.695738
O O15 0.606977 0.129245 0.031093
O O16 0.500000 0.344500 0.500000
O O17 0.000000 0.633156 0.500000
#
# Coordination Sequence:
#
# PCOD9204799 Si02
#       7
#     8   8   8   8   8   8   8
#     4   9  22  42  57  84 118 151 195 235 282 349
#     4   9  18  34  57  82 114 158 190 220 283 347
#     4   9  20  39  59  85 119 149 191 241 283 339
#     4  10  21  38  61  83 113 156 189 232 294 339
#     4   9  21  40  58  82 116 155 189 234 289 343
#     4  10  21  33  54  88 119 145 189 236 287 337
#     4  11  24  38  62  86 111 153 196 238 291 341
#
# _framework density 20.445060999999999
#
# number of rings (size 3 to 8) (size 9 to 14) (size 15 to 20)
#    0.000    2.429    0.000    1.286    6.000    3.429 
#    0.000    2.857    0.000    0.000    0.000    0.000 
#    0.000    0.000    0.000    0.000    0.000    0.000 
#
# Total GULP energy -156112.467770 kJ/mol
# GULP energy per Si atom -5575.445278 kJ/mol
# Density = 2.039853 g / cm^3
# Si number density = 20.445061 Si / 1000 Ang^3
#
#
#
# Elastic Constant Matrix: (Units=GPa)
#
#
# Indices 1 2 3 4 5 6 
#
# 1 24.5134 3.5156 8.2784 0.0000 -3.6230 0.0000
# 2 3.5156 82.5078 2.1044 0.0000 -3.3879 0.0000
# 3 8.2784 2.1044 76.1337 0.0000 -14.8317 0.0000
# 4 0.0000 0.0000 0.0000 -51.7043 0.0000 210.0227
# 5 -3.6230 -3.3879 -14.8317 0.0000 21.8948 0.0000
# 6 0.0000 0.0000 0.0000 210.0227 0.0000 -696.4318
#
#
#
# Elastic Compliance Matrix: (Units=1/GPa)
#
#
# Indices 1 2 3 4 5 6 
#
# 1 0.042932 -0.001556 -0.003788 0.000000 0.004297 0.000000
# 2 -0.001556 0.012254 0.000172 0.000000 0.001755 0.000000
# 3 -0.003788 0.000172 0.015466 0.000000 0.009877 0.000000
# 4 0.000000 0.000000 0.000000 0.085969 0.000000 0.025926
# 5 0.004297 0.001755 0.009877 0.000000 0.053346 0.000000
# 6 0.000000 0.000000 0.000000 0.025926 0.000000 0.006382
#
#
# Mechanical properties :
#
#
# Convention : Reuss Voigt Hill
#
# Bulk Modulus (GPa) = 16.58150 23.43907 20.01028
# Shear Modulus (GPa) = 20.25972 -133.96451 -56.85239
#
# Velocity S-wave (km/s) = 3.15133 -8.10348 -5.27899
# Velocity P-wave (km/s) = 4.62266 8.72158 5.22957
#
# Compressibility (1/GPa) = 0.06030817
#
# Stress axis : x y z
#
# Youngs Moduli (GPa) = 23.29292 81.60558 64.65797
#
# Poissons Ratio (x) = 0.12700 0.24492
# Poissons Ratio (y) = 0.03625 -0.01115
# Poissons Ratio (z) = 0.08823 -0.01408
#
# Static dielectric constant tensor:
#      x y z
#    x 1.805370 0.000000 0.009800 
#    y 0.000000 1.754980 0.000000 
#    z 0.009800 0.000000 1.708760 
# 
# From -- ./inp_files/18241.got.cif
#   From: 2010.05.17/outbox.cif.g08.bks.cpg/sg12_10_cif.got.tgz:18241.got - 2010.06.03 13:09:07.
