data_PCOD9204266
_publ_section_title
;
Structure prediction by ZEFSAII (Michael W. Deem and Ramdas Pophale) SiO2 
 PCOD9204266
Probable space group: C 2/M
;
_chemical_formula_sum "Si O2"
_cell_formula_units_Z 56
_cell_length_a 9.888956
_cell_length_b 28.334829
_cell_length_c 12.234503
_cell_angle_alpha 90.000000
_cell_angle_beta 127.543390
_cell_angle_gamma 90.000000
_cell_volume 2718.137752
_symmetry_space_group_name_H-M "C 2/M"
_symmetry_group_IT_number 12
_symmetry_cell_setting 'monoclinic'
loop_
_space_group_symop_operation_xyz
x,y,z
-x,y,-z
-x,-y,-z
x,-y,z
1/2+x,1/2+y,z
1/2-x,1/2+y,-z
1/2-x,1/2-y,-z
1/2+x,1/2-y,z
loop_
_atom_site_type_symbol
_atom_site_label
_atom_site_fract_x
_atom_site_fract_y
_atom_site_fract_z
Si Si1 0.759755 0.905409 0.129828
Si Si2 0.541707 0.093129 0.400695
Si Si3 0.085374 0.300744 0.700606
Si Si4 0.424900 0.621514 0.583224
Si Si5 0.882409 0.780507 0.692528
Si Si6 0.486333 0.947269 0.146246
Si Si7 0.638987 0.675947 0.983721
O O1 0.616898 0.909676 0.155040
O O2 0.776737 0.858422 0.064354
O O3 0.941070 0.908267 0.278259
O O4 0.688816 0.942753 0.007361
O O5 0.500000 0.074416 0.500000
O O6 0.470555 0.146509 0.356292
O O7 0.744321 0.096100 0.487466
O O8 0.464942 0.064666 0.261889
O O9 0.199516 0.279878 0.659596
O O10 0.930154 0.266714 0.652932
O O11 0.211943 0.304126 0.867104
O O12 0.500000 0.628336 0.500000
O O13 0.399583 0.672288 0.628589
O O14 0.023650 0.787511 0.858658
O O15 0.556564 0.000000 0.167507
O O16 0.500000 0.652763 0.000000
#
# Coordination Sequence:
#
# PCOD9204266 Si02
#       7
#     8   8   8   8   8   8   8
#     4  10  20  40  69  98 130 169 212 271 327 395
#     4  12  25  45  67  95 137 181 218 270 335 398
#     4  11  22  39  59  93 132 178 227 271 328 372
#     4  11  23  41  63  98 133 179 219 259 328 396
#     4  10  23  37  59  92 133 176 225 280 311 383
#     4  11  24  44  72 103 130 164 216 276 336 403
#     4   9  19  37  61  93 131 175 223 271 324 386
#
# _framework density 20.602340999999999
#
# number of rings (size 3 to 8) (size 9 to 14) (size 15 to 20)
#    0.000    1.429    4.286    1.286    2.000    1.429 
#    0.000    2.143    0.000    6.000    0.000    0.000 
#    0.000    0.000    0.000    0.000    0.000    0.000 
#
# Total GULP energy -156362.328115 kJ/mol
# GULP energy per Si atom -5584.368861 kJ/mol
# Density = 2.055545 g / cm^3
# Si number density = 20.602341 Si / 1000 Ang^3
#
#
#
# Elastic Constant Matrix: (Units=GPa)
#
#
# Indices 1 2 3 4 5 6 
#
# 1 109.6767 30.5993 33.7146 0.0000 -17.3739 0.0000
# 2 30.5993 42.6594 10.4510 0.0000 -4.8094 0.0000
# 3 33.7146 10.4510 130.5765 0.0000 -16.4964 0.0000
# 4 0.0000 0.0000 0.0000 4.2363 0.0000 0.7521
# 5 -17.3739 -4.8094 -16.4964 0.0000 40.3364 0.0000
# 6 0.0000 0.0000 0.0000 0.7521 0.0000 14.1262
#
#
#
# Elastic Compliance Matrix: (Units=1/GPa)
#
#
# Indices 1 2 3 4 5 6 
#
# 1 0.012611 -0.008114 -0.002154 0.000000 0.003584 0.000000
# 2 -0.008114 0.029315 -0.000265 0.000000 -0.000108 0.000000
# 3 -0.002154 -0.000265 0.008557 0.000000 0.002540 0.000000
# 4 0.000000 0.000000 0.000000 0.238307 0.000000 -0.012687
# 5 0.003584 -0.000108 0.002540 0.000000 0.027361 0.000000
# 6 0.000000 0.000000 0.000000 -0.012687 0.000000 0.071466
#
#
# Mechanical properties :
#
#
# Convention : Reuss Voigt Hill
#
# Bulk Modulus (GPa) = 33.99492 48.04915 41.02203
# Shear Modulus (GPa) = 11.94776 25.61630 18.78203
#
# Velocity S-wave (km/s) = 2.41077 3.52997 3.02262
# Velocity P-wave (km/s) = 4.92802 6.32353 5.66888
#
# Compressibility (1/GPa) = 0.02941616
#
# Stress axis : x y z
#
# Youngs Moduli (GPa) = 79.29332 34.11275 116.86873
#
# Poissons Ratio (x) = 0.27680 0.25174
# Poissons Ratio (y) = 0.64341 0.03095
# Poissons Ratio (z) = 0.17080 0.00903
#
# Static dielectric constant tensor:
#      x y z
#    x 1.727160 0.000000 -0.006170 
#    y 0.000000 1.698360 0.000000 
#    z -0.006170 0.000000 1.775170 
# 
# From -- ./inp_files/125840.got.cif
#   From: 2010.05.17/outbox.cif.g08.bks.cpg/sg12_63_cif.got.tgz:125840.got - 2010.06.03 13:09:07.
