data_PCOD9204127
_publ_section_title
;
Structure prediction by ZEFSAII (Michael W. Deem and Ramdas Pophale) SiO2 
 PCOD9204127
Probable space group: C 2/M
;
_chemical_formula_sum "Si O2"
_cell_formula_units_Z 36
_cell_length_a 23.679551
_cell_length_b 8.593543
_cell_length_c 24.221958
_cell_angle_alpha 90.000000
_cell_angle_beta 16.532277
_cell_angle_gamma 90.000000
_cell_volume 1402.561323
_symmetry_space_group_name_H-M "C 2/M"
_symmetry_group_IT_number 12
_symmetry_cell_setting 'monoclinic'
loop_
_space_group_symop_operation_xyz
x,y,z
-x,y,-z
-x,-y,-z
x,-y,z
1/2+x,1/2+y,z
1/2-x,1/2+y,-z
1/2-x,1/2-y,-z
1/2+x,1/2-y,z
loop_
_atom_site_type_symbol
_atom_site_label
_atom_site_fract_x
_atom_site_fract_y
_atom_site_fract_z
Si Si1 0.972833 0.259486 0.666669
Si Si2 0.216203 0.500000 0.076339
Si Si3 0.994178 0.000000 0.718397
Si Si4 0.123960 0.178336 0.771018
Si Si5 0.044937 0.500000 0.119959
Si Si6 0.793992 0.681358 0.726608
O O1 0.834210 0.355563 0.838096
O O2 0.830145 0.219832 0.748073
O O3 0.157970 0.336120 0.461395
O O4 0.086345 0.148072 0.603843
O O5 0.055378 0.500000 0.177028
O O6 0.423181 0.500000 0.847710
O O7 0.780540 0.000000 0.886915
O O8 0.040251 0.337366 0.822656
O O9 0.139136 0.212784 0.822589
O O10 0.040002 0.000000 0.845952
O O11 0.771060 0.500000 0.764922
O O12 0.000000 0.694811 0.500000
#
# Coordination Sequence:
#
# PCOD9204127 Si02
#       6
#     8   4   4   8   4   8
#     4  11  18  40  64  87 113 154 211 252 292 344
#     4  10  22  40  59  83 122 161 203 246 289 352
#     4  10  25  38  55  90 120 165 201 244 295 346
#     4  10  20  40  65  93 120 153 197 252 309 356
#     4  10  25  42  53  90 137 157 194 237 305 370
#     4   8  15  30  61  91 113 142 195 257 298 341
#
# _framework density 25.667325999999999
#
# number of rings (size 3 to 8) (size 9 to 14) (size 15 to 20)
#    0.667    1.556    2.222    2.667    0.000    1.778 
#    4.000    5.556    0.000    2.667    0.000    0.000 
#    0.000    0.000    0.000    0.000    0.000    0.000 
#
# Total GULP energy -100260.464344 kJ/mol
# GULP energy per Si atom -5570.025797 kJ/mol
# Density = 2.560891 g / cm^3
# Si number density = 25.667326 Si / 1000 Ang^3
#
#
#
# Elastic Constant Matrix: (Units=GPa)
#
#
# Indices 1 2 3 4 5 6 
#
# 1 164.0293 51.0033 45.2034 0.0013 44.0134 0.0015
# 2 51.0033 86.3351 19.3097 -0.0095 15.6042 0.0311
# 3 45.2034 19.3097 109.6123 -0.0013 42.1909 0.0146
# 4 0.0013 -0.0095 -0.0013 12.9375 -0.0001 28.0658
# 5 44.0134 15.6042 42.1909 -0.0001 63.0563 -0.0115
# 6 0.0015 0.0311 0.0146 28.0658 -0.0115 78.8091
#
#
#
# Elastic Compliance Matrix: (Units=1/GPa)
#
#
# Indices 1 2 3 4 5 6 
#
# 1 0.008915 -0.004199 -0.001268 -0.000029 -0.004335 0.000011
# 2 -0.004199 0.014247 -0.000740 0.000099 -0.000100 -0.000041
# 3 -0.001268 -0.000740 0.012614 0.000033 -0.007372 -0.000015
# 4 -0.000029 0.000099 0.000033 0.339838 -0.000048 -0.121025
# 5 -0.004335 -0.000100 -0.007372 -0.000048 0.023842 0.000022
# 6 0.000011 -0.000041 -0.000015 -0.121025 0.000022 0.055789
#
#
# Mechanical properties :
#
#
# Convention : Reuss Voigt Hill
#
# Bulk Modulus (GPa) = 42.80588 65.66769 54.23679
# Shear Modulus (GPa) = 10.51644 47.25794 28.88719
#
# Velocity S-wave (km/s) = 2.02635 4.29554 3.35841
# Velocity P-wave (km/s) = 4.71044 7.08815 6.01790
#
# Compressibility (1/GPa) = 0.02336127
#
# Stress axis : x y z
#
# Youngs Moduli (GPa) = 112.17204 70.18982 79.27853
#
# Poissons Ratio (x) = 0.29476 0.10053
# Poissons Ratio (y) = 0.47106 0.05864
# Poissons Ratio (z) = 0.14225 0.05192
#
# Static dielectric constant tensor:
#      x y z
#    x 2.063160 -0.000010 -0.102100 
#    y -0.000010 2.189560 0.000010 
#    z -0.102100 0.000010 2.031000 
# 
# From -- ./inp_files/351220.got.cif
#   From: 2010.05.17/outbox.cif.g08.bks.cpg/sg12_176_cif.got.tgz:351220.got - 2010.06.03 13:09:07.
