data_PCOD9204195
_publ_section_title
;
Structure prediction by ZEFSAII (Michael W. Deem and Ramdas Pophale) SiO2 
 PCOD9204195
Probable space group: C 2/M
;
_chemical_formula_sum "Si O2"
_cell_formula_units_Z 48
_cell_length_a 14.470508
_cell_length_b 10.517355
_cell_length_c 24.610320
_cell_angle_alpha 90.000000
_cell_angle_beta 140.242496
_cell_angle_gamma 90.000000
_cell_volume 2395.383615
_symmetry_space_group_name_H-M "C 2/M"
_symmetry_group_IT_number 12
_symmetry_cell_setting 'monoclinic'
loop_
_space_group_symop_operation_xyz
x,y,z
-x,y,-z
-x,-y,-z
x,-y,z
1/2+x,1/2+y,z
1/2-x,1/2+y,-z
1/2-x,1/2-y,-z
1/2+x,1/2-y,z
loop_
_atom_site_type_symbol
_atom_site_label
_atom_site_fract_x
_atom_site_fract_y
_atom_site_fract_z
Si Si1 0.130413 0.354356 0.325613
Si Si2 0.363034 0.752769 0.787491
Si Si3 0.144635 0.352639 0.528930
Si Si4 0.827314 0.852902 0.074238
Si Si5 0.144043 0.348623 0.093382
Si Si6 0.452483 0.149713 0.346387
O O1 0.178300 0.500000 0.359083
O O2 0.105080 0.341635 0.249888
O O3 0.243837 0.246802 0.395352
O O4 0.991366 0.329885 0.301007
O O5 0.499908 0.658744 0.851230
O O6 0.351769 0.809975 0.842448
O O7 0.202538 0.699453 0.706041
O O8 0.199325 0.500000 0.550609
O O9 0.085160 0.304672 0.443730
O O10 0.000000 0.355664 0.500000
O O11 0.775087 0.820422 0.111758
O O12 0.783383 0.000000 0.042498
O O13 0.750000 0.750000 0.000000
O O14 0.132021 0.500000 0.088339
O O15 0.000000 0.293973 0.000000
O O16 0.448460 0.000000 0.354330
#
# Coordination Sequence:
#
# PCOD9204195 Si02
#       6
#     8   8   8   8   8   8
#     4  11  24  40  64  98 131 162 207 270 317 359
#     4  12  22  40  64  93 124 167 212 259 313 380
#     4  10  20  40  67  90 125 178 214 247 307 380
#     4  11  24  42  67  93 121 162 211 261 314 378
#     4  10  21  40  62  85 122 165 203 252 317 382
#     4  10  22  41  62  90 129 168 208 258 315 370
#
# _framework density 20.038544000000002
#
# number of rings (size 3 to 8) (size 9 to 14) (size 15 to 20)
#    0.000    1.333    3.333    2.500    0.000    1.667 
#    0.000    4.167    0.000    0.000    0.000    0.000 
#    0.000    0.000    0.000    0.000    0.000    0.000 
#
# Total GULP energy -133820.776856 kJ/mol
# GULP energy per Si atom -5575.865702 kJ/mol
# Density = 1.999294 g / cm^3
# Si number density = 20.038544 Si / 1000 Ang^3
#
#
#
# Elastic Constant Matrix: (Units=GPa)
#
#
# Indices 1 2 3 4 5 6 
#
# 1 136.6206 36.3306 39.1428 0.0000 -18.6060 0.0000
# 2 36.3306 84.1492 42.9369 0.0000 0.5237 0.0000
# 3 39.1428 42.9369 86.9806 0.0000 -18.3747 0.0000
# 4 0.0000 0.0000 0.0000 21.2938 0.0000 -4.3331
# 5 -18.6060 0.5237 -18.3747 0.0000 44.0056 0.0000
# 6 0.0000 0.0000 0.0000 -4.3331 0.0000 22.6827
#
#
#
# Elastic Compliance Matrix: (Units=1/GPa)
#
#
# Indices 1 2 3 4 5 6 
#
# 1 0.009084 -0.002917 -0.002006 0.000000 0.003038 0.000000
# 2 -0.002917 0.017422 -0.008326 0.000000 -0.004917 0.000000
# 3 -0.002006 -0.008326 0.017933 0.000000 0.006739 0.000000
# 4 0.000000 0.000000 0.000000 0.048861 0.000000 0.009334
# 5 0.003038 -0.004917 0.006739 0.000000 0.026881 0.000000
# 6 0.000000 0.000000 0.000000 0.009334 0.000000 0.045870
#
#
# Mechanical properties :
#
#
# Convention : Reuss Voigt Hill
#
# Bulk Modulus (GPa) = 55.74054 60.50789 58.12422
# Shear Modulus (GPa) = 25.18503 30.21909 27.70206
#
# Velocity S-wave (km/s) = 3.54902 3.88757 3.72215
# Velocity P-wave (km/s) = 6.68365 7.10016 6.89505
#
# Compressibility (1/GPa) = 0.01794026
#
# Stress axis : x y z
#
# Youngs Moduli (GPa) = 110.08685 57.39815 55.76185
#
# Poissons Ratio (x) = 0.16744 0.11186
# Poissons Ratio (y) = 0.32113 0.46429
# Poissons Ratio (z) = 0.22085 0.47791
#
# Static dielectric constant tensor:
#      x y z
#    x 1.722830 0.000000 -0.017510 
#    y 0.000000 1.692900 0.000000 
#    z -0.017510 0.000000 1.800790 
# 
# From -- ./inp_files/304859.got.cif
#   From: 2010.05.17/outbox.cif.g08.bks.cpg/sg12_153_cif.got.tgz:304859.got - 2010.06.03 13:09:07.
