data_PCOD9204642
_publ_section_title
;
Structure prediction by ZEFSAII (Michael W. Deem and Ramdas Pophale) SiO2 
 PCOD9204642
Probable space group: C 2/M
;
_chemical_formula_sum "Si O2"
_cell_formula_units_Z 60
_cell_length_a 24.071140
_cell_length_b 25.776602
_cell_length_c 12.186790
_cell_angle_alpha 90.000000
_cell_angle_beta 21.075260
_cell_angle_gamma 90.000000
_cell_volume 2719.092644
_symmetry_space_group_name_H-M "C 2/M"
_symmetry_group_IT_number 12
_symmetry_cell_setting 'monoclinic'
loop_
_space_group_symop_operation_xyz
x,y,z
-x,y,-z
-x,-y,-z
x,-y,z
1/2+x,1/2+y,z
1/2-x,1/2+y,-z
1/2-x,1/2-y,-z
1/2+x,1/2-y,z
loop_
_atom_site_type_symbol
_atom_site_label
_atom_site_fract_x
_atom_site_fract_y
_atom_site_fract_z
Si Si1 0.244077 0.559558 0.011111
Si Si2 0.562662 0.731904 0.001802
Si Si3 0.721857 0.682157 0.346082
Si Si4 0.960567 0.440311 0.390542
Si Si5 0.785710 0.121920 0.276441
Si Si6 0.999316 0.897590 0.331788
Si Si7 0.178844 0.586291 0.697293
Si Si8 0.328578 0.500000 0.580492
O O1 0.294364 0.500000 0.905161
O O2 0.137585 0.558132 0.316715
O O3 0.133152 0.571084 0.112651
O O4 0.373725 0.600109 0.806350
O O5 0.651171 0.774316 0.911520
O O6 0.676964 0.682355 0.771931
O O7 0.500000 0.751828 0.000000
O O8 0.412435 0.711224 0.339820
O O9 0.625408 0.648373 0.436379
O O10 0.804858 0.641086 0.272147
O O11 0.958170 0.500000 0.349135
O O12 0.880487 0.396570 0.464948
O O13 0.786060 0.091284 0.390854
O O14 0.909055 0.106283 0.954927
O O15 0.923708 0.953820 0.468525
O O16 0.244238 0.544477 0.659582
O O17 0.000000 0.575836 0.000000
#
# Coordination Sequence:
#
# PCOD9204642 Si02
#       8
#     8   8   8   8   8   8   8   4
#     4   8  12  25  49  74 105 127 160 201 253 308
#     4  11  20  35  50  73 100 135 174 222 250 302
#     4  10  22  33  54  73 102 131 179 212 263 296
#     4   8  15  26  45  76 102 133 160 203 256 304
#     4  10  21  31  47  75 104 132 174 211 255 301
#     4   9  18  32  50  80 102 132 163 211 257 310
#     4  11  23  36  47  70 101 143 174 208 249 304
#     4  10  21  33  48  69 104 138 165 203 252 307
#
# _framework density 22.066185000000001
#
# number of rings (size 3 to 8) (size 9 to 14) (size 15 to 20)
#    0.000    2.400    2.000    1.800    3.733    0.533 
#    0.000    0.000    0.000    0.800    0.000    4.667 
#    0.000    0.000    0.000    0.000    0.000    0.000 
#
# Total GULP energy -167045.138575 kJ/mol
# GULP energy per Si atom -5568.171286 kJ/mol
# Density = 2.201596 g / cm^3
# Si number density = 22.066185 Si / 1000 Ang^3
#
#
#
# Elastic Constant Matrix: (Units=GPa)
#
#
# Indices 1 2 3 4 5 6 
#
# 1 56.4335 15.7709 33.8040 0.0046 -19.4304 -0.0047
# 2 15.7709 90.1015 34.2259 0.0089 -18.0923 -0.0115
# 3 33.8040 34.2259 69.9370 -0.0203 -8.9785 -0.0056
# 4 0.0046 0.0089 -0.0203 10.1939 0.0007 -11.3975
# 5 -19.4304 -18.0923 -8.9785 0.0007 51.7926 0.0038
# 6 -0.0047 -0.0115 -0.0056 -11.3975 0.0038 29.9023
#
#
#
# Elastic Compliance Matrix: (Units=1/GPa)
#
#
# Indices 1 2 3 4 5 6 
#
# 1 0.028362 0.001977 -0.013522 -0.000070 0.008986 -0.000025
# 2 0.001977 0.014496 -0.007471 -0.000042 0.004510 -0.000012
# 3 -0.013522 -0.007471 0.024039 0.000106 -0.003515 0.000040
# 4 -0.000070 -0.000042 0.000106 0.170950 -0.000030 0.065159
# 5 0.008986 0.004510 -0.003515 -0.000030 0.023645 -0.000012
# 6 -0.000025 -0.000012 0.000040 0.065159 -0.000012 0.058278
#
#
# Mechanical properties :
#
#
# Convention : Reuss Voigt Hill
#
# Bulk Modulus (GPa) = 34.64434 42.67483 38.65959
# Shear Modulus (GPa) = 13.60824 27.22251 20.41537
#
# Velocity S-wave (km/s) = 2.48604 3.51618 3.04499
# Velocity P-wave (km/s) = 4.89641 5.98884 5.46996
#
# Compressibility (1/GPa) = 0.02886474
#
# Stress axis : x y z
#
# Youngs Moduli (GPa) = 35.25903 68.98451 41.59868
#
# Poissons Ratio (x) = -0.13637 0.56251
# Poissons Ratio (y) = -0.06970 0.31076
# Poissons Ratio (z) = 0.47678 0.51535
#
# Static dielectric constant tensor:
#      x y z
#    x 1.843390 0.000000 0.039650 
#    y 0.000000 1.778580 0.000010 
#    z 0.039650 0.000010 1.896800 
# 
# From -- ./inp_files/247426.got.cif
#   From: 2010.05.17/outbox.cif.g08.bks.cpg/sg12_124_cif.got.tgz:247426.got - 2010.06.03 13:09:07.
