data_PCOD9204193
_publ_section_title
;
Structure prediction by ZEFSAII (Michael W. Deem and Ramdas Pophale) SiO2 
 PCOD9204193
Probable space group: C 2/M
;
_chemical_formula_sum "Si O2"
_cell_formula_units_Z 40
_cell_length_a 10.881031
_cell_length_b 28.260556
_cell_length_c 7.501878
_cell_angle_alpha 90.000000
_cell_angle_beta 136.275991
_cell_angle_gamma 90.000000
_cell_volume 1594.465914
_symmetry_space_group_name_H-M "C 2/M"
_symmetry_group_IT_number 12
_symmetry_cell_setting 'monoclinic'
loop_
_space_group_symop_operation_xyz
x,y,z
-x,y,-z
-x,-y,-z
x,-y,z
1/2+x,1/2+y,z
1/2-x,1/2+y,-z
1/2-x,1/2-y,-z
1/2+x,1/2-y,z
loop_
_atom_site_type_symbol
_atom_site_label
_atom_site_fract_x
_atom_site_fract_y
_atom_site_fract_z
Si Si1 0.436820 0.553765 0.227959
Si Si2 0.580930 0.110786 0.891053
Si Si3 0.801798 0.782979 0.379259
Si Si4 0.691921 0.195929 0.804342
Si Si5 0.783675 0.127811 0.610838
O O1 0.500000 0.553784 0.500000
O O2 0.439844 0.500000 0.165531
O O3 0.572140 0.588353 0.271152
O O4 0.241359 0.576046 0.019326
O O5 0.651076 0.165262 0.938246
O O6 0.411463 0.105104 0.586623
O O7 0.500000 0.102122 0.000000
O O8 0.750000 0.750000 0.500000
O O9 0.721234 0.747354 0.141879
O O10 0.771411 0.834530 0.433817
O O11 0.000000 0.789624 0.500000
O O12 0.500000 0.198853 0.500000
O O13 0.806305 0.159122 0.809748
#
# Coordination Sequence:
#
# PCOD9204193 Si02
#       5
#     8   8   8   8   8
#     4  11  24  41  65  94 123 166 220 272 326 380
#     4  11  22  39  65  92 126 169 212 265 325 385
#     4   9  17  33  64  93 127 172 215 256 315 385
#     4   8  18  37  63  94 129 169 211 258 318 387
#     4  10  20  40  67  89 129 168 209 268 321 380
#
# _framework density 25.086770999999999
#
# number of rings (size 3 to 8) (size 9 to 14) (size 15 to 20)
#    0.000    2.200    2.000    1.800    0.000    2.000 
#    0.000    3.000   13.200    3.600    0.000    0.000 
#    0.000    0.000    0.000    0.000    0.000    0.000 
#
# Total GULP energy -111609.733349 kJ/mol
# GULP energy per Si atom -5580.486667 kJ/mol
# Density = 2.502967 g / cm^3
# Si number density = 25.086771 Si / 1000 Ang^3
#
#
#
# Elastic Constant Matrix: (Units=GPa)
#
#
# Indices 1 2 3 4 5 6 
#
# 1 174.3444 75.6605 41.1950 0.0000 22.8747 0.0000
# 2 75.6605 217.5738 42.1633 0.0000 43.1878 0.0000
# 3 41.1950 42.1633 48.8118 0.0000 33.5765 0.0000
# 4 0.0000 0.0000 0.0000 13.8381 0.0000 4.1325
# 5 22.8747 43.1878 33.5765 0.0000 56.2661 0.0000
# 6 0.0000 0.0000 0.0000 4.1325 0.0000 24.8202
#
#
#
# Elastic Compliance Matrix: (Units=1/GPa)
#
#
# Indices 1 2 3 4 5 6 
#
# 1 0.007788 -0.001887 -0.006380 0.000000 0.002089 0.000000
# 2 -0.001887 0.006168 -0.001708 0.000000 -0.002949 0.000000
# 3 -0.006380 -0.001708 0.041833 0.000000 -0.021059 0.000000
# 4 0.000000 0.000000 0.000000 0.076046 0.000000 -0.012661
# 5 0.002089 -0.002949 -0.021059 0.000000 0.031753 0.000000
# 6 0.000000 0.000000 0.000000 -0.012661 0.000000 0.042398
#
#
# Mechanical properties :
#
#
# Convention : Reuss Voigt Hill
#
# Bulk Modulus (GPa) = 27.90215 84.30750 56.10483
# Shear Modulus (GPa) = 21.01890 37.76560 29.39225
#
# Velocity S-wave (km/s) = 2.89770 3.88416 3.42661
# Velocity P-wave (km/s) = 4.72673 7.33450 6.16996
#
# Compressibility (1/GPa) = 0.03583953
#
# Stress axis : x y z
#
# Youngs Moduli (GPa) = 128.40418 162.11633 23.90485
#
# Poissons Ratio (x) = 0.30583 0.15252
# Poissons Ratio (y) = 0.24224 0.04083
# Poissons Ratio (z) = 0.81925 0.27687
#
# Static dielectric constant tensor:
#      x y z
#    x 2.006350 0.000000 -0.172410 
#    y 0.000000 2.000040 0.000000 
#    z -0.172410 0.000000 1.891040 
# 
# From -- ./inp_files/54457.got.cif
#   From: 2010.05.17/outbox.cif.g08.bks.cpg/sg12_28_cif.got.tgz:54457.got - 2010.06.03 13:09:07.
