data_PCOD9204356
_publ_section_title
;
Structure prediction by ZEFSAII (Michael W. Deem and Ramdas Pophale) SiO2 
 PCOD9204356
Probable space group: C 2/M
;
_chemical_formula_sum "Si O2"
_cell_formula_units_Z 48
_cell_length_a 28.515766
_cell_length_b 9.048879
_cell_length_c 12.389307
_cell_angle_alpha 90.000000
_cell_angle_beta 138.227641
_cell_angle_gamma 90.000000
_cell_volume 2129.676826
_symmetry_space_group_name_H-M "C 2/M"
_symmetry_group_IT_number 12
_symmetry_cell_setting 'monoclinic'
loop_
_space_group_symop_operation_xyz
x,y,z
-x,y,-z
-x,-y,-z
x,-y,z
1/2+x,1/2+y,z
1/2-x,1/2+y,-z
1/2-x,1/2-y,-z
1/2+x,1/2-y,z
loop_
_atom_site_type_symbol
_atom_site_label
_atom_site_fract_x
_atom_site_fract_y
_atom_site_fract_z
Si Si1 0.675178 0.174631 0.847476
Si Si2 0.487226 0.328266 0.809822
Si Si3 0.742824 0.831806 0.317317
Si Si4 0.938114 0.825667 0.478058
Si Si5 0.642835 0.167687 0.355399
Si Si6 0.362616 0.326262 0.008214
O O1 0.632304 0.237390 0.672348
O O2 0.630117 0.225999 0.874057
O O3 0.683103 0.000000 0.854719
O O4 0.750000 0.250000 0.000000
O O5 0.475068 0.500000 0.817077
O O6 0.464714 0.306354 0.645659
O O7 0.436069 0.226506 0.790936
O O8 0.570424 0.300326 0.953759
O O9 0.687700 0.831264 0.322562
O O10 0.815540 0.774865 0.491525
O O11 0.748689 0.000000 0.286131
O O12 0.708821 0.721958 0.172891
O O13 0.000000 0.784256 0.500000
O O14 0.923935 0.000000 0.437518
O O15 0.643034 0.000000 0.396913
O O16 0.362599 0.500000 0.037065
#
# Coordination Sequence:
#
# PCOD9204356 Si02
#       6
#     8   8   8   8   8   8
#     4  12  26  42  62  90 124 162 204 250 299 356
#     4  10  22  39  63  90 121 161 202 247 301 360
#     4  10  22  41  63  89 122 160 200 250 307 357
#     4  10  20  41  65  87 122 162 201 247 298 353
#     4  10  22  40  63  90 122 159 202 250 300 362
#     4  11  23  42  64  90 122 159 202 249 302 360
#
# _framework density 22.538630999999999
#
# number of rings (size 3 to 8) (size 9 to 14) (size 15 to 20)
#    0.000    1.500    1.667    3.000    2.333    5.000 
#    0.000    3.333    0.000    0.000    0.000    0.000 
#    0.000    0.000    0.000    0.000    0.000    0.000 
#
# Total GULP energy -134326.401583 kJ/mol
# GULP energy per Si atom -5596.933399 kJ/mol
# Density = 2.248733 g / cm^3
# Si number density = 22.538631 Si / 1000 Ang^3
#
#
#
# Elastic Constant Matrix: (Units=GPa)
#
#
# Indices 1 2 3 4 5 6 
#
# 1 58.5987 18.5756 -2.5714 0.0000 16.1426 0.0000
# 2 18.5756 91.4399 36.0872 0.0000 15.5134 0.0000
# 3 -2.5714 36.0872 90.0492 0.0000 11.8305 0.0000
# 4 0.0000 0.0000 0.0000 27.3160 0.0000 4.3037
# 5 16.1426 15.5134 11.8305 0.0000 36.0190 0.0000
# 6 0.0000 0.0000 0.0000 4.3037 0.0000 27.6262
#
#
#
# Elastic Compliance Matrix: (Units=1/GPa)
#
#
# Indices 1 2 3 4 5 6 
#
# 1 0.020918 -0.004108 0.003389 0.000000 -0.008719 0.000000
# 2 -0.004108 0.014392 -0.005552 0.000000 -0.002534 0.000000
# 3 0.003389 -0.005552 0.013912 0.000000 -0.003697 0.000000
# 4 0.000000 0.000000 0.000000 0.037530 0.000000 -0.005846
# 5 -0.008719 -0.002534 -0.003697 0.000000 0.033976 0.000000
# 6 0.000000 0.000000 0.000000 -0.005846 0.000000 0.037108
#
#
# Mechanical properties :
#
#
# Convention : Reuss Voigt Hill
#
# Bulk Modulus (GPa) = 27.26228 38.25229 32.75729
# Shear Modulus (GPa) = 27.38165 30.72533 29.05349
#
# Velocity S-wave (km/s) = 3.48929 3.69620 3.59423
# Velocity P-wave (km/s) = 5.32500 5.93503 5.63827
#
# Compressibility (1/GPa) = 0.03668072
#
# Stress axis : x y z
#
# Youngs Moduli (GPa) = 47.80616 69.48521 71.87823
#
# Poissons Ratio (x) = 0.28542 -0.24359
# Poissons Ratio (y) = 0.19637 0.39905
# Poissons Ratio (z) = -0.16201 0.38577
#
# Static dielectric constant tensor:
#      x y z
#    x 1.907470 0.000000 -0.016400 
#    y 0.000000 1.756900 0.000000 
#    z -0.016400 0.000000 1.814610 
# 
# From -- ./inp_files/249377.got.cif
#   From: 2010.05.17/outbox.cif.g08.bks.cpg/sg12_125_cif.got.tgz:249377.got - 2010.06.03 13:09:07.
