data_PCOD9204045
_publ_section_title
;
Structure prediction by ZEFSAII (Michael W. Deem and Ramdas Pophale) SiO2 
 PCOD9204045
Probable space group: C 2/M
;
_chemical_formula_sum "Si O2"
_cell_formula_units_Z 56
_cell_length_a 20.589809
_cell_length_b 8.542481
_cell_length_c 19.232807
_cell_angle_alpha 90.000000
_cell_angle_beta 119.998223
_cell_angle_gamma 90.000000
_cell_volume 2929.661346
_symmetry_space_group_name_H-M "C 2/M"
_symmetry_group_IT_number 12
_symmetry_cell_setting 'monoclinic'
loop_
_space_group_symop_operation_xyz
x,y,z
-x,y,-z
-x,-y,-z
x,-y,z
1/2+x,1/2+y,z
1/2-x,1/2+y,-z
1/2-x,1/2-y,-z
1/2+x,1/2-y,z
loop_
_atom_site_type_symbol
_atom_site_label
_atom_site_fract_x
_atom_site_fract_y
_atom_site_fract_z
Si Si1 0.812558 0.811330 0.479544
Si Si2 0.770540 0.312223 0.305232
Si Si3 0.050530 0.189905 0.356751
Si Si4 0.899591 0.811098 0.770573
Si Si5 0.668757 0.687197 0.935717
Si Si6 0.972270 0.313242 0.060669
Si Si7 0.380326 0.689589 0.245537
O O1 0.750000 0.750000 0.500000
O O2 0.797183 0.749051 0.394434
O O3 0.894065 0.759905 0.552183
O O4 0.809944 0.000000 0.477899
O O5 0.773442 0.500000 0.307228
O O6 0.683444 0.265443 0.249837
O O7 0.821803 0.247508 0.271230
O O8 0.088454 0.232183 0.303592
O O9 0.964561 0.244235 0.309665
O O10 0.048115 0.000000 0.357890
O O11 0.964341 0.734707 0.850456
O O12 0.906755 0.000000 0.779186
O O13 0.671113 0.500000 0.935836
O O14 0.605949 0.740989 0.956606
O O15 0.643096 0.740723 0.844726
O O16 0.750000 0.750000 0.000000
O O17 0.964118 0.500000 0.054445
O O18 0.000000 0.258325 0.000000
O O19 0.380984 0.500000 0.245894
#
# Coordination Sequence:
#
# PCOD9204045 Si02
#       7
#     8   8   8   8   8   8   8
#     4  11  21  37  62  91 123 160 204 254 308 361
#     4  11  24  40  60  91 127 160 203 254 304 365
#     4   9  18  38  64  86 115 158 203 246 298 364
#     4  10  20  40  64  87 118 162 208 249 301 366
#     4  11  24  43  67  92 125 166 207 254 311 373
#     4  11  25  42  62  94 129 160 204 258 308 366
#     4  10  22  42  64  86 118 161 205 248 303 367
#
# _framework density 19.114837000000001
#
# number of rings (size 3 to 8) (size 9 to 14) (size 15 to 20)
#    0.000    1.571    2.857    1.714    2.000    4.000 
#    0.000    4.286    0.000    0.000    0.000    0.000 
#    0.000    0.000    0.000    0.000    0.000    0.000 
#
# Total GULP energy -156458.344369 kJ/mol
# GULP energy per Si atom -5587.798013 kJ/mol
# Density = 1.907133 g / cm^3
# Si number density = 19.114837 Si / 1000 Ang^3
#
#
#
# Elastic Constant Matrix: (Units=GPa)
#
#
# Indices 1 2 3 4 5 6 
#
# 1 180.3596 29.7836 66.2369 0.0000 12.6791 0.0000
# 2 29.7836 25.4545 21.7648 0.0000 3.9875 0.0000
# 3 66.2369 21.7648 101.0340 0.0000 15.8121 0.0000
# 4 0.0000 0.0000 0.0000 31.9235 0.0000 -0.8259
# 5 12.6791 3.9875 15.8121 0.0000 41.1716 0.0000
# 6 0.0000 0.0000 0.0000 -0.8259 0.0000 36.3268
#
#
#
# Elastic Compliance Matrix: (Units=1/GPa)
#
#
# Indices 1 2 3 4 5 6 
#
# 1 0.007984 -0.005954 -0.003891 0.000000 -0.000388 0.000000
# 2 -0.005954 0.052617 -0.007363 0.000000 -0.000434 0.000000
# 3 -0.003891 -0.007363 0.014614 0.000000 -0.003701 0.000000
# 4 0.000000 0.000000 0.000000 0.031343 0.000000 0.000713
# 5 -0.000388 -0.000434 -0.003701 0.000000 0.025872 0.000000
# 6 0.000000 0.000000 0.000000 0.000713 0.000000 0.027544
#
#
# Mechanical properties :
#
#
# Convention : Reuss Voigt Hill
#
# Bulk Modulus (GPa) = 24.51105 60.26873 42.38989
# Shear Modulus (GPa) = 24.03975 34.48856 29.26416
#
# Velocity S-wave (km/s) = 3.55018 4.25229 3.91700
# Velocity P-wave (km/s) = 5.44573 7.46375 6.53313
#
# Compressibility (1/GPa) = 0.04079793
#
# Stress axis : x y z
#
# Youngs Moduli (GPa) = 125.25252 19.00544 68.42810
#
# Poissons Ratio (x) = 0.11316 0.26624
# Poissons Ratio (y) = 0.74577 0.50385
# Poissons Ratio (z) = 0.48734 0.13994
#
# Static dielectric constant tensor:
#      x y z
#    x 1.640960 0.000000 0.010310 
#    y 0.000000 1.654820 0.000000 
#    z 0.010310 0.000000 1.652120 
# 
# From -- ./inp_files/281668.got.cif
#   From: 2010.05.17/outbox.cif.g08.bks.cpg/sg12_141_cif.got.tgz:281668.got - 2010.06.03 13:09:07.
