data_PCOD9204381
_publ_section_title
;
Structure prediction by ZEFSAII (Michael W. Deem and Ramdas Pophale) SiO2 
 PCOD9204381
Probable space group: C 2/M
;
_chemical_formula_sum "Si O2"
_cell_formula_units_Z 64
_cell_length_a 16.411414
_cell_length_b 14.637867
_cell_length_c 14.913514
_cell_angle_alpha 90.000000
_cell_angle_beta 55.917932
_cell_angle_gamma 90.000000
_cell_volume 2967.274753
_symmetry_space_group_name_H-M "C 2/M"
_symmetry_group_IT_number 12
_symmetry_cell_setting 'monoclinic'
loop_
_space_group_symop_operation_xyz
x,y,z
-x,y,-z
-x,-y,-z
x,-y,z
1/2+x,1/2+y,z
1/2-x,1/2+y,-z
1/2-x,1/2-y,-z
1/2+x,1/2-y,z
loop_
_atom_site_type_symbol
_atom_site_label
_atom_site_fract_x
_atom_site_fract_y
_atom_site_fract_z
Si Si1 0.519991 0.395772 0.724209
Si Si2 0.675238 0.194988 0.834410
Si Si3 0.539520 0.890806 0.772143
Si Si4 0.903669 0.100833 0.120206
Si Si5 0.354483 0.215707 0.651574
Si Si6 0.421893 0.228905 0.418520
Si Si7 0.298612 0.390056 0.912274
Si Si8 0.324304 0.891754 0.847735
O O1 0.514788 0.500000 0.692938
O O2 0.568105 0.398079 0.792562
O O3 0.583637 0.329158 0.622366
O O4 0.407225 0.361189 0.811630
O O5 0.592622 0.142586 0.829208
O O6 0.638365 0.298179 0.870115
O O7 0.776717 0.203723 0.715205
O O8 0.713097 0.146650 0.900554
O O9 0.588535 0.842796 0.655597
O O10 0.425689 0.859975 0.832625
O O11 0.545057 0.000000 0.762932
O O12 0.853883 0.000000 0.134660
O O13 0.000000 0.096581 0.000000
O O14 0.356481 0.200127 0.543882
O O15 0.466444 0.231648 0.612264
O O16 0.323809 0.140083 0.744750
O O17 0.300594 0.500000 0.908832
O O18 0.266333 0.363110 0.032730
O O19 0.331099 0.000000 0.846048
#
# Coordination Sequence:
#
# PCOD9204381 Si02
#       8
#     8   8   8   8   8   8   8   8
#     4  10  20  41  66  89 125 169 211 260 313 369
#     4  12  23  37  62  92 128 161 206 255 312 375
#     4  10  22  40  61  86 125 165 201 250 312 379
#     4  10  24  41  60  91 129 170 210 252 309 374
#     4  10  23  37  63  90 119 160 209 270 305 365
#     4  10  20  44  63  87 122 160 216 260 314 363
#     4  10  22  38  63  96 130 163 207 258 307 376
#     4   9  21  41  61  90 125 162 205 252 310 374
#
# _framework density 21.568612999999999
#
# number of rings (size 3 to 8) (size 9 to 14) (size 15 to 20)
#    0.000    1.875    2.500    0.375    3.500    2.000 
#    0.000    6.875    0.000    0.000    0.000    0.875 
#    0.000    0.000    0.000    0.000    0.000    0.000 
#
# Total GULP energy -178483.453336 kJ/mol
# GULP energy per Si atom -5577.607917 kJ/mol
# Density = 2.151952 g / cm^3
# Si number density = 21.568613 Si / 1000 Ang^3
#
#
#
# Elastic Constant Matrix: (Units=GPa)
#
#
# Indices 1 2 3 4 5 6 
#
# 1 75.5634 38.3753 16.9958 0.0000 16.9474 0.0000
# 2 38.3753 99.7505 36.7312 0.0000 14.4332 0.0000
# 3 16.9958 36.7312 94.0033 0.0000 16.0597 0.0000
# 4 0.0000 0.0000 0.0000 18.4978 0.0000 -2.4935
# 5 16.9474 14.4332 16.0597 0.0000 24.5822 0.0000
# 6 0.0000 0.0000 0.0000 -2.4935 0.0000 19.2408
#
#
#
# Elastic Compliance Matrix: (Units=1/GPa)
#
#
# Indices 1 2 3 4 5 6 
#
# 1 0.018202 -0.005855 0.000623 0.000000 -0.009518 0.000000
# 2 -0.005855 0.014026 -0.004170 0.000000 -0.001475 0.000000
# 3 0.000623 -0.004170 0.013294 0.000000 -0.006666 0.000000
# 4 0.000000 0.000000 0.000000 0.055022 0.000000 0.007130
# 5 -0.009518 -0.001475 -0.006666 0.000000 0.052462 0.000000
# 6 0.000000 0.000000 0.000000 0.007130 0.000000 0.052897
#
#
# Mechanical properties :
#
#
# Convention : Reuss Voigt Hill
#
# Bulk Modulus (GPa) = 37.42826 50.39132 43.90979
# Shear Modulus (GPa) = 21.40292 24.27847 22.84069
#
# Velocity S-wave (km/s) = 3.15353 3.35869 3.25773
# Velocity P-wave (km/s) = 5.53628 6.20122 5.87816
#
# Compressibility (1/GPa) = 0.02671778
#
# Stress axis : x y z
#
# Youngs Moduli (GPa) = 54.93932 71.29428 75.22417
#
# Poissons Ratio (x) = 0.41740 -0.04685
# Poissons Ratio (y) = 0.32165 0.31370
# Poissons Ratio (z) = -0.03422 0.29732
#
# Static dielectric constant tensor:
#      x y z
#    x 1.864710 0.000000 -0.029390 
#    y 0.000000 1.782910 0.000000 
#    z -0.029390 0.000000 1.798370 
# 
# From -- ./inp_files/225685.got.cif
#   From: 2010.05.17/outbox.cif.g08.bks.cpg/sg12_113_cif.got.tgz:225685.got - 2010.06.03 13:09:07.
