data_PCOD9204039
_publ_section_title
;
Structure prediction by ZEFSAII (Michael W. Deem and Ramdas Pophale) SiO2 
 PCOD9204039
Probable space group: C 2/M
;
_chemical_formula_sum "Si O2"
_cell_formula_units_Z 60
_cell_length_a 18.200759
_cell_length_b 25.967999
_cell_length_c 6.814322
_cell_angle_alpha 90.000000
_cell_angle_beta 117.048222
_cell_angle_gamma 90.000000
_cell_volume 2868.435488
_symmetry_space_group_name_H-M "C 2/M"
_symmetry_group_IT_number 12
_symmetry_cell_setting 'monoclinic'
loop_
_space_group_symop_operation_xyz
x,y,z
-x,y,-z
-x,-y,-z
x,-y,z
1/2+x,1/2+y,z
1/2-x,1/2+y,-z
1/2-x,1/2-y,-z
1/2+x,1/2-y,z
loop_
_atom_site_type_symbol
_atom_site_label
_atom_site_fract_x
_atom_site_fract_y
_atom_site_fract_z
Si Si1 0.000000 0.135947 0.000000
Si Si2 0.251018 0.692727 0.412608
Si Si3 0.291759 0.939069 0.970598
Si Si4 0.243670 0.582462 0.523007
Si Si5 0.129203 0.057214 0.027808
Si Si6 0.928866 0.682612 0.756100
Si Si7 0.070149 0.204162 0.426077
Si Si8 0.589661 0.089155 0.573468
O O1 0.941157 0.099251 0.055466
O O2 0.947743 0.170853 0.789263
O O3 0.250000 0.750000 0.500000
O O4 0.255674 0.644200 0.567801
O O5 0.157497 0.685023 0.227376
O O6 0.335805 0.691609 0.392455
O O7 0.205640 0.930274 0.978711
O O8 0.364463 0.906313 0.161058
O O9 0.312490 0.000000 0.013045
O O10 0.274647 0.926094 0.725513
O O11 0.326331 0.557538 0.705231
O O12 0.163425 0.562205 0.541349
O O13 0.098051 0.000000 0.945294
O O14 0.936687 0.736692 0.651979
O O15 0.927035 0.639041 0.584304
O O16 0.000000 0.674374 0.000000
O O17 0.000000 0.193599 0.500000
O O18 0.500000 0.064914 0.500000
#
# Coordination Sequence:
#
# PCOD9204039 Si02
#       8
#     4   8   8   8   8   8   8   8
#     4  12  23  38  64  90 134 166 207 266 322 372
#     4   9  20  38  61  87 125 163 211 256 308 376
#     4  10  23  42  65  91 121 166 215 263 322 380
#     4  10  20  40  64  86 125 163 206 265 314 372
#     4  10  22  40  63  92 124 166 214 259 315 382
#     4  10  21  41  66  90 128 171 214 259 319 378
#     4  11  23  41  61  93 131 171 209 265 317 380
#     4  10  23  38  62  91 124 161 211 259 314 383
#
# _framework density 20.917325000000002
#
# number of rings (size 3 to 8) (size 9 to 14) (size 15 to 20)
#    0.000    1.867    2.000    1.000    5.600    0.800 
#    0.000    1.333    0.000    3.200    0.000    0.000 
#    0.000    0.000    0.000    0.000    0.000    0.000 
#
# Total GULP energy -167197.205188 kJ/mol
# GULP energy per Si atom -5573.240173 kJ/mol
# Density = 2.086972 g / cm^3
# Si number density = 20.917325 Si / 1000 Ang^3
#
#
#
# Elastic Constant Matrix: (Units=GPa)
#
#
# Indices 1 2 3 4 5 6 
#
# 1 120.5151 10.6771 21.6027 0.0000 12.4010 0.0000
# 2 10.6771 90.7547 1.4229 0.0000 8.5378 0.0000
# 3 21.6027 1.4229 86.8867 0.0000 5.3747 0.0000
# 4 0.0000 0.0000 0.0000 4.3300 0.0000 -9.8975
# 5 12.4010 8.5378 5.3747 0.0000 27.8411 0.0000
# 6 0.0000 0.0000 0.0000 -9.8975 0.0000 0.0566
#
#
#
# Elastic Compliance Matrix: (Units=1/GPa)
#
#
# Indices 1 2 3 4 5 6 
#
# 1 0.009079 -0.000713 -0.002033 0.000000 -0.003433 0.000000
# 2 -0.000713 0.011402 0.000190 0.000000 -0.003216 0.000000
# 3 -0.002033 0.000190 0.012104 0.000000 -0.001489 0.000000
# 4 0.000000 0.000000 0.000000 -0.000579 0.000000 -0.101289
# 5 -0.003433 -0.003216 -0.001489 0.000000 0.038721 0.000000
# 6 0.000000 0.000000 0.000000 -0.101289 0.000000 -0.044312
#
#
# Mechanical properties :
#
#
# Convention : Reuss Voigt Hill
#
# Bulk Modulus (GPa) = 36.40257 40.61800 38.51029
# Shear Modulus (GPa) = 122.89713 24.07578 73.48646
#
# Velocity S-wave (km/s) = 7.67342 3.39632 5.93364
# Velocity P-wave (km/s) = 9.79537 5.90258 8.08671
#
# Compressibility (1/GPa) = 0.02747059
#
# Stress axis : x y z
#
# Youngs Moduli (GPa) = 110.14947 87.70273 82.61889
#
# Poissons Ratio (x) = 0.06256 0.16798
# Poissons Ratio (y) = 0.07857 -0.01566
# Poissons Ratio (z) = 0.22396 -0.01662
#
# Static dielectric constant tensor:
#      x y z
#    x 1.784220 0.000000 -0.001600 
#    y 0.000000 1.796950 0.000000 
#    z -0.001600 0.000000 1.740190 
# 
# From -- ./inp_files/18356.got.cif
#   From: 2010.05.17/outbox.cif.g08.bks.cpg/sg12_10_cif.got.tgz:18356.got - 2010.06.03 13:09:07.
