data_PCOD9204263
_publ_section_title
;
Structure prediction by ZEFSAII (Michael W. Deem and Ramdas Pophale) SiO2 
 PCOD9204263
Probable space group: C 2/M
;
_chemical_formula_sum "Si O2"
_cell_formula_units_Z 56
_cell_length_a 17.486132
_cell_length_b 17.657747
_cell_length_c 23.666940
_cell_angle_alpha 90.000000
_cell_angle_beta 22.162531
_cell_angle_gamma 90.000000
_cell_volume 2756.661193
_symmetry_space_group_name_H-M "C 2/M"
_symmetry_group_IT_number 12
_symmetry_cell_setting 'monoclinic'
loop_
_space_group_symop_operation_xyz
x,y,z
-x,y,-z
-x,-y,-z
x,-y,z
1/2+x,1/2+y,z
1/2-x,1/2+y,-z
1/2-x,1/2-y,-z
1/2+x,1/2-y,z
loop_
_atom_site_type_symbol
_atom_site_label
_atom_site_fract_x
_atom_site_fract_y
_atom_site_fract_z
Si Si1 0.810864 0.328434 0.171847
Si Si2 0.079617 0.407859 0.181307
Si Si3 0.234281 0.090455 0.335576
Si Si4 0.484022 0.409619 0.836367
Si Si5 0.832697 0.313987 0.658541
Si Si6 0.002895 0.088389 0.690953
Si Si7 0.983319 0.589092 0.368220
O O1 0.832379 0.387699 0.208644
O O2 0.767242 0.251002 0.234989
O O3 0.619843 0.356869 0.265905
O O4 0.000000 0.324863 0.000000
O O5 0.065848 0.500000 0.193239
O O6 0.878624 0.379607 0.286746
O O7 0.092353 0.381424 0.237047
O O8 0.278100 0.389672 0.009891
O O9 0.000000 0.115057 0.500000
O O10 0.232073 0.000000 0.341998
O O11 0.524388 0.500000 0.816025
O O12 0.665186 0.360903 0.738484
O O13 0.456074 0.396946 0.788779
O O14 0.000000 0.284456 0.500000
O O15 0.947346 0.368747 0.623635
O O16 0.244212 0.096901 0.520324
O O17 0.952543 0.000000 0.712489
O O18 0.026083 0.500000 0.346139
#
# Coordination Sequence:
#
# PCOD9204263 Si02
#       7
#     8   8   8   8   8   8   8
#     4  12  27  42  60  95 133 176 215 258 319 388
#     4   9  19  35  60  97 127 156 202 261 324 374
#     4  10  20  40  69  96 129 171 215 267 320 379
#     4  10  21  40  68  95 126 166 213 271 327 378
#     4  12  26  44  62  89 131 173 218 262 325 388
#     4  10  21  42  70  98 123 159 216 271 320 376
#     4  10  21  39  68  98 123 160 216 273 322 379
#
# _framework density 20.314429000000001
#
# number of rings (size 3 to 8) (size 9 to 14) (size 15 to 20)
#    0.000    1.571    1.429    3.000    2.000    5.714 
#    2.571    3.571    0.000    0.000    0.000    0.000 
#    0.000    0.000    0.000    0.000    0.000    0.000 
#
# Total GULP energy -156484.475646 kJ/mol
# GULP energy per Si atom -5588.731273 kJ/mol
# Density = 2.026819 g / cm^3
# Si number density = 20.314429 Si / 1000 Ang^3
#
#
#
# Elastic Constant Matrix: (Units=GPa)
#
#
# Indices 1 2 3 4 5 6 
#
# 1 80.7928 20.0619 9.5244 0.0268 2.1705 -0.0077
# 2 20.0619 28.4066 5.1495 0.0440 -9.9491 0.0351
# 3 9.5244 5.1495 69.5629 -0.0297 22.2279 0.0524
# 4 0.0268 0.0440 -0.0297 18.0628 0.0442 10.8611
# 5 2.1705 -9.9491 22.2279 0.0442 38.2487 -0.0105
# 6 -0.0077 0.0351 0.0524 10.8611 -0.0105 29.8353
#
#
#
# Elastic Compliance Matrix: (Units=1/GPa)
#
#
# Indices 1 2 3 4 5 6 
#
# 1 0.015579 -0.012506 0.000141 0.000010 -0.004219 0.000013
# 2 -0.012506 0.052217 -0.008253 -0.000183 0.019088 0.000023
# 3 0.000141 -0.008253 0.019226 0.000130 -0.013328 -0.000076
# 4 0.000010 -0.000183 0.000130 0.070878 -0.000213 -0.025802
# 5 -0.004219 0.019088 -0.013328 -0.000213 0.039095 0.000091
# 6 0.000013 0.000023 -0.000076 -0.025802 0.000091 0.042910
#
#
# Mechanical properties :
#
#
# Convention : Reuss Voigt Hill
#
# Bulk Modulus (GPa) = 21.84044 27.58154 24.71099
# Shear Modulus (GPa) = 16.86885 26.83113 21.84999
#
# Velocity S-wave (km/s) = 2.88477 3.63821 3.28318
# Velocity P-wave (km/s) = 4.67658 5.59067 5.15393
#
# Compressibility (1/GPa) = 0.04578662
#
# Stress axis : x y z
#
# Youngs Moduli (GPa) = 64.18691 19.15084 52.01298
#
# Poissons Ratio (x) = 0.23950 -0.00732
# Poissons Ratio (y) = 0.80272 0.42925
# Poissons Ratio (z) = -0.00904 0.15805
#
# Static dielectric constant tensor:
#      x y z
#    x 1.694780 0.000000 0.014520 
#    y 0.000000 1.720310 0.000030 
#    z 0.014520 0.000030 1.713660 
# 
# From -- ./inp_files/344739.got.cif
#   From: 2010.05.17/outbox.cif.g08.bks.cpg/sg12_173_cif.got.tgz:344739.got - 2010.06.03 13:09:07.
