data_PCOD9204763
_publ_section_title
;
Structure prediction by ZEFSAII (Michael W. Deem and Ramdas Pophale) SiO2 
 PCOD9204763
Probable space group: C 2/M
;
_chemical_formula_sum "Si O2"
_cell_formula_units_Z 48
_cell_length_a 16.280541
_cell_length_b 20.846913
_cell_length_c 14.247656
_cell_angle_alpha 90.000000
_cell_angle_beta 146.706750
_cell_angle_gamma 90.000000
_cell_volume 2654.400814
_symmetry_space_group_name_H-M "C 2/M"
_symmetry_group_IT_number 12
_symmetry_cell_setting 'monoclinic'
loop_
_space_group_symop_operation_xyz
x,y,z
-x,y,-z
-x,-y,-z
x,-y,z
1/2+x,1/2+y,z
1/2-x,1/2+y,-z
1/2-x,1/2-y,-z
1/2+x,1/2-y,z
loop_
_atom_site_type_symbol
_atom_site_label
_atom_site_fract_x
_atom_site_fract_y
_atom_site_fract_z
Si Si1 0.348189 0.752223 0.822948
Si Si2 0.101783 0.134438 0.269217
Si Si3 0.795832 0.928500 0.935648
Si Si4 0.149001 0.426965 0.596962
Si Si5 0.630354 0.279210 0.458268
Si Si6 0.321069 0.207982 0.152250
O O1 0.405903 0.694790 0.809874
O O2 0.221193 0.787987 0.641110
O O3 0.268338 0.723890 0.838009
O O4 0.500000 0.787753 0.000000
O O5 0.266519 0.106866 0.406737
O O6 0.078770 0.157709 0.353523
O O7 0.969874 0.085849 0.118604
O O8 0.500000 0.896523 0.500000
O O9 0.763342 0.927953 0.793229
O O10 0.703686 0.867930 0.888855
O O11 0.754787 0.000000 0.930207
O O12 0.110353 0.500000 0.533202
O O13 0.750000 0.250000 0.500000
O O14 0.490475 0.231211 0.330306
O O15 0.250000 0.250000 0.000000
#
# Coordination Sequence:
#
# PCOD9204763 Si02
#       6
#     8   8   8   8   8   8
#     4  11  20  36  54  82 114 150 191 244 287 342
#     4  11  19  37  54  81 116 155 194 228 285 343
#     4  11  22  35  55  82 117 158 192 229 288 351
#     4  10  21  33  51  81 118 161 192 224 283 348
#     4  10  23  34  55  82 113 154 196 237 289 338
#     4  12  21  37  57  82 116 155 192 245 291 346
#
# _framework density 18.083178
#
# number of rings (size 3 to 8) (size 9 to 14) (size 15 to 20)
#    0.000    1.167    5.000    2.500    4.667    1.333 
#    0.000    0.000    0.000    0.000    0.000    3.500 
#    0.000   12.667    0.000    0.000    0.000    0.167 
#
# Total GULP energy -133851.758550 kJ/mol
# GULP energy per Si atom -5577.156606 kJ/mol
# Density = 1.804202 g / cm^3
# Si number density = 18.083178 Si / 1000 Ang^3
#
#
#
# Elastic Constant Matrix: (Units=GPa)
#
#
# Indices 1 2 3 4 5 6 
#
# 1 66.4647 38.4738 45.9959 0.0000 10.1692 0.0000
# 2 38.4738 85.7764 36.5692 0.0000 -1.0010 0.0000
# 3 45.9959 36.5692 120.4242 0.0000 10.1950 0.0000
# 4 0.0000 0.0000 0.0000 21.0047 0.0000 5.6250
# 5 10.1692 -1.0010 10.1950 0.0000 39.6463 0.0000
# 6 0.0000 0.0000 0.0000 5.6250 0.0000 20.3786
#
#
#
# Elastic Compliance Matrix: (Units=1/GPa)
#
#
# Indices 1 2 3 4 5 6 
#
# 1 0.025414 -0.008616 -0.006665 0.000000 -0.005022 0.000000
# 2 -0.008616 0.016391 -0.001951 0.000000 0.003126 0.000000
# 3 -0.006665 -0.001951 0.011553 0.000000 -0.001311 0.000000
# 4 0.000000 0.000000 0.000000 0.051409 0.000000 -0.014190
# 5 -0.005022 0.003126 -0.001311 0.000000 0.026927 0.000000
# 6 0.000000 0.000000 0.000000 -0.014190 0.000000 0.052988
#
#
# Mechanical properties :
#
#
# Convention : Reuss Voigt Hill
#
# Bulk Modulus (GPa) = 52.92866 57.19370 55.06118
# Shear Modulus (GPa) = 22.17830 26.31432 24.24631
#
# Velocity S-wave (km/s) = 3.50588 3.81882 3.66570
# Velocity P-wave (km/s) = 6.76176 7.15132 6.95927
#
# Compressibility (1/GPa) = 0.01889335
#
# Stress axis : x y z
#
# Youngs Moduli (GPa) = 39.34814 61.00828 86.55582
#
# Poissons Ratio (x) = 0.52566 0.57692
# Poissons Ratio (y) = 0.33903 0.16889
# Poissons Ratio (z) = 0.26227 0.11904
#
# Static dielectric constant tensor:
#      x y z
#    x 1.617230 0.000000 0.007040 
#    y 0.000000 1.679960 0.000000 
#    z 0.007040 0.000000 1.717680 
# 
# From -- ./inp_files/227838.got.cif
#   From: 2010.05.17/outbox.cif.g08.bks.cpg/sg12_114_cif.got.tgz:227838.got - 2010.06.03 13:09:07.
