data_PCOD9204441
_publ_section_title
;
Structure prediction by ZEFSAII (Michael W. Deem and Ramdas Pophale) SiO2 
 PCOD9204441
Probable space group: C 2/M
;
_chemical_formula_sum "Si O2"
_cell_formula_units_Z 44
_cell_length_a 22.504599
_cell_length_b 17.545443
_cell_length_c 7.082751
_cell_angle_alpha 90.000000
_cell_angle_beta 52.899438
_cell_angle_gamma 90.000000
_cell_volume 2230.543841
_symmetry_space_group_name_H-M "C 2/M"
_symmetry_group_IT_number 12
_symmetry_cell_setting 'monoclinic'
loop_
_space_group_symop_operation_xyz
x,y,z
-x,y,-z
-x,-y,-z
x,-y,z
1/2+x,1/2+y,z
1/2-x,1/2+y,-z
1/2-x,1/2-y,-z
1/2+x,1/2-y,z
loop_
_atom_site_type_symbol
_atom_site_label
_atom_site_fract_x
_atom_site_fract_y
_atom_site_fract_z
Si Si1 0.444532 0.335702 0.925651
Si Si2 0.000000 0.276172 0.500000
Si Si3 0.913793 0.500000 0.226747
Si Si4 0.214685 0.000000 0.520088
Si Si5 0.229872 0.171705 0.645649
Si Si6 0.182352 0.500000 0.975142
Si Si7 0.438717 0.500000 0.956424
Si Si8 0.638227 0.123337 0.366205
O O1 0.358142 0.322354 0.143279
O O2 0.445774 0.420877 0.835907
O O3 0.500000 0.333937 0.000000
O O4 0.473058 0.275059 0.723895
O O5 0.069842 0.325539 0.433135
O O6 0.865831 0.500000 0.125673
O O7 0.892700 0.571319 0.401414
O O8 0.000000 0.500000 0.000000
O O9 0.241447 0.086665 0.529151
O O10 0.232680 0.000000 0.263017
O O11 0.136309 0.000000 0.776097
O O12 0.250000 0.250000 0.500000
O O13 0.288232 0.167413 0.706239
O O14 0.162525 0.570967 0.144353
O O15 0.500000 0.500000 0.000000
#
# Coordination Sequence:
#
# PCOD9204441 Si02
#       8
#     8   4   4   4   8   4   4   8
#     4  10  23  44  66  91 131 170 222 278 332 395
#     4  12  26  40  60  98 140 170 212 278 332 388
#     4  11  22  42  70  92 129 184 216 261 340 390
#     4  10  20  41  69  96 128 174 219 270 335 386
#     4  11  23  43  72  96 134 179 224 274 333 397
#     4  11  22  42  70  94 133 177 211 273 338 384
#     4   8  18  41  66  89 117 165 224 269 319 400
#     4  11  25  42  62 103 136 164 229 270 315 417
#
# _framework density 19.726133000000001
#
# number of rings (size 3 to 8) (size 9 to 14) (size 15 to 20)
#    0.000    1.455    1.818    2.727    2.545    6.182 
#    9.818    0.000    0.000    0.000    0.000    0.000 
#    0.000    0.000    0.000    0.000    0.000    0.000 
#
# Total GULP energy -122563.989526 kJ/mol
# GULP energy per Si atom -5571.090433 kJ/mol
# Density = 1.968123 g / cm^3
# Si number density = 19.726133 Si / 1000 Ang^3
#
#
#
# Elastic Constant Matrix: (Units=GPa)
#
#
# Indices 1 2 3 4 5 6 
#
# 1 142.3001 77.7767 56.3985 0.0000 -1.4267 0.0000
# 2 77.7767 161.8891 60.1911 0.0000 7.3722 0.0000
# 3 56.3985 60.1911 100.9332 0.0000 7.9002 0.0000
# 4 0.0000 0.0000 0.0000 12.8092 0.0000 -18.4131
# 5 -1.4267 7.3722 7.9002 0.0000 29.1413 0.0000
# 6 0.0000 0.0000 0.0000 -18.4131 0.0000 33.8092
#
#
#
# Elastic Compliance Matrix: (Units=1/GPa)
#
#
# Indices 1 2 3 4 5 6 
#
# 1 0.010671 -0.003792 -0.003900 0.000000 0.002539 0.000000
# 2 -0.003792 0.009300 -0.003298 0.000000 -0.001644 0.000000
# 3 -0.003900 -0.003298 0.014307 0.000000 -0.003235 0.000000
# 4 0.000000 0.000000 0.000000 0.359574 0.000000 0.195830
# 5 0.002539 -0.001644 -0.003235 0.000000 0.035733 0.000000
# 6 0.000000 0.000000 0.000000 0.195830 0.000000 0.136231
#
#
# Mechanical properties :
#
#
# Convention : Reuss Voigt Hill
#
# Bulk Modulus (GPa) = 81.32083 88.20613 84.76348
# Shear Modulus (GPa) = 8.44742 29.20233 18.82487
#
# Velocity S-wave (km/s) = 2.07163 3.85175 3.09254
# Velocity P-wave (km/s) = 6.85832 8.03703 7.47096
#
# Compressibility (1/GPa) = 0.01229697
#
# Stress axis : x y z
#
# Youngs Moduli (GPa) = 93.70833 107.52297 69.89613
#
# Poissons Ratio (x) = 0.40778 0.27259
# Poissons Ratio (y) = 0.35539 0.23054
# Poissons Ratio (z) = 0.36546 0.35465
#
# Static dielectric constant tensor:
#      x y z
#    x 1.770230 0.000000 -0.033850 
#    y 0.000000 1.733290 0.000000 
#    z -0.033850 0.000000 1.678840 
# 
# From -- ./inp_files/24946.got.cif
#   From: 2010.05.17/outbox.cif.g08.bks.cpg/sg12_13_cif.got.tgz:24946.got - 2010.06.03 13:09:07.
