data_PCOD9204498
_publ_section_title
;
Structure prediction by ZEFSAII (Michael W. Deem and Ramdas Pophale) SiO2 
 PCOD9204498
Probable space group: C 2/M
;
_chemical_formula_sum "Si O2"
_cell_formula_units_Z 32
_cell_length_a 11.412672
_cell_length_b 22.638149
_cell_length_c 7.175781
_cell_angle_alpha 90.000000
_cell_angle_beta 54.159031
_cell_angle_gamma 90.000000
_cell_volume 1502.893883
_symmetry_space_group_name_H-M "C 2/M"
_symmetry_group_IT_number 12
_symmetry_cell_setting 'monoclinic'
loop_
_space_group_symop_operation_xyz
x,y,z
-x,y,-z
-x,-y,-z
x,-y,z
1/2+x,1/2+y,z
1/2-x,1/2+y,-z
1/2-x,1/2-y,-z
1/2+x,1/2-y,z
loop_
_atom_site_type_symbol
_atom_site_label
_atom_site_fract_x
_atom_site_fract_y
_atom_site_fract_z
Si Si1 0.320599 0.596145 0.913656
Si Si2 0.052027 0.000000 0.738402
Si Si3 0.831984 0.821179 0.605870
Si Si4 0.669416 0.000000 0.304075
Si Si5 0.341006 0.707150 0.168740
O O1 0.467684 0.557904 0.742862
O O2 0.264353 0.622154 0.771382
O O3 0.215040 0.555165 0.131689
O O4 0.342673 0.653540 0.022299
O O5 0.224686 0.000000 0.609916
O O6 0.000000 0.000000 0.000000
O O7 0.770643 0.760342 0.748337
O O8 0.814677 0.818429 0.400473
O O9 0.000000 0.823361 0.500000
O O10 0.500000 0.000000 0.500000
O O11 0.500000 0.734783 0.000000
#
# Coordination Sequence:
#
# PCOD9204498 Si02
#       5
#     8   4   8   4   8
#     4  10  20  42  64  87 125 166 208 253 305 378
#     4   8  18  36  64  89 116 163 207 253 303 370
#     4  11  24  36  63  94 121 169 208 249 310 369
#     4  10  22  40  64  97 123 162 207 268 329 365
#     4  11  22  40  60  93 132 158 209 259 302 370
#
# _framework density 21.292255999999998
#
# number of rings (size 3 to 8) (size 9 to 14) (size 15 to 20)
#    0.000    2.000    2.500    3.000    0.000    1.000 
#    4.500    7.500    0.000    1.500    0.000    0.000 
#    0.000    0.000    0.000    0.000    0.000    0.000 
#
# Total GULP energy -89280.913326 kJ/mol
# GULP energy per Si atom -5580.057083 kJ/mol
# Density = 2.124379 g / cm^3
# Si number density = 21.292256 Si / 1000 Ang^3
#
#
#
# Elastic Constant Matrix: (Units=GPa)
#
#
# Indices 1 2 3 4 5 6 
#
# 1 58.4687 47.9935 45.6766 0.0000 -1.4091 0.0000
# 2 47.9935 129.7117 56.2194 0.0000 3.6571 0.0000
# 3 45.6766 56.2194 106.7603 0.0000 -5.3820 0.0000
# 4 0.0000 0.0000 0.0000 24.0107 0.0000 14.6304
# 5 -1.4091 3.6571 -5.3820 0.0000 44.2053 0.0000
# 6 0.0000 0.0000 0.0000 14.6304 0.0000 20.2452
#
#
#
# Elastic Compliance Matrix: (Units=1/GPa)
#
#
# Indices 1 2 3 4 5 6 
#
# 1 0.030129 -0.007235 -0.009058 0.000000 0.000456 0.000000
# 2 -0.007235 0.011823 -0.003211 0.000000 -0.001600 0.000000
# 3 -0.009058 -0.003211 0.015024 0.000000 0.001806 0.000000
# 4 0.000000 0.000000 0.000000 0.074416 0.000000 -0.053778
# 5 0.000456 -0.001600 0.001806 0.000000 0.022989 0.000000
# 6 0.000000 0.000000 0.000000 -0.053778 0.000000 0.088257
#
#
# Mechanical properties :
#
#
# Convention : Reuss Voigt Hill
#
# Bulk Modulus (GPa) = 55.65244 66.07998 60.86621
# Shear Modulus (GPa) = 17.38314 27.36230 22.37272
#
# Velocity S-wave (km/s) = 2.86038 3.58869 3.24504
# Velocity P-wave (km/s) = 6.09124 6.94793 6.53364
#
# Compressibility (1/GPa) = 0.01796866
#
# Stress axis : x y z
#
# Youngs Moduli (GPa) = 33.19098 84.57910 66.55976
#
# Poissons Ratio (x) = 0.61191 0.60287
# Poissons Ratio (y) = 0.24013 0.21375
# Poissons Ratio (z) = 0.30063 0.27161
#
# Static dielectric constant tensor:
#      x y z
#    x 1.818340 0.000000 0.041160 
#    y 0.000000 1.786960 0.000000 
#    z 0.041160 0.000000 1.811000 
# 
# From -- ./inp_files/51665.got.cif
#   From: 2010.05.17/outbox.cif.g08.bks.cpg/sg12_26_cif.got.tgz:51665.got - 2010.06.03 13:09:07.
