data_PCOD9204012
_publ_section_title
;
Structure prediction by ZEFSAII (Michael W. Deem and Ramdas Pophale) SiO2 
 PCOD9204012
Probable space group: C 2/M
;
_chemical_formula_sum "Si O2"
_cell_formula_units_Z 48
_cell_length_a 18.115642
_cell_length_b 18.072626
_cell_length_c 15.245008
_cell_angle_alpha 90.000000
_cell_angle_beta 150.451280
_cell_angle_gamma 90.000000
_cell_volume 2461.464317
_symmetry_space_group_name_H-M "C 2/M"
_symmetry_group_IT_number 12
_symmetry_cell_setting 'monoclinic'
loop_
_space_group_symop_operation_xyz
x,y,z
-x,y,-z
-x,-y,-z
x,-y,z
1/2+x,1/2+y,z
1/2-x,1/2+y,-z
1/2-x,1/2-y,-z
1/2+x,1/2-y,z
loop_
_atom_site_type_symbol
_atom_site_label
_atom_site_fract_x
_atom_site_fract_y
_atom_site_fract_z
Si Si1 0.348300 0.218555 0.684075
Si Si2 0.932893 0.130974 0.836856
Si Si3 0.965179 0.197669 0.566915
Si Si4 0.430264 0.155543 0.214373
Si Si5 0.388316 0.413489 0.148532
Si Si6 0.899145 0.417030 0.471558
O O1 0.250000 0.250000 0.500000
O O2 0.446832 0.282610 0.829731
O O3 0.215165 0.194523 0.609703
O O4 0.467722 0.163020 0.766400
O O5 0.755384 0.119915 0.662365
O O6 0.008250 0.090825 0.832222
O O7 0.000000 0.109756 0.000000
O O8 0.000000 0.199702 0.500000
O O9 0.033375 0.270280 0.689400
O O10 0.028418 0.126789 0.684845
O O11 0.495614 0.087226 0.336310
O O12 0.258310 0.136989 0.020526
O O13 0.353701 0.500000 0.129086
O O14 0.862188 0.500000 0.404734
O O15 0.000000 0.381336 0.500000
#
# Coordination Sequence:
#
# PCOD9204012 Si02
#       6
#     8   8   8   8   8   8
#     4  10  20  40  63  91 122 159 213 261 313 362
#     4  12  24  38  62  93 130 163 207 262 317 380
#     4  11  23  41  71  94 123 166 215 266 309 369
#     4  11  21  41  65  90 124 165 214 259 309 370
#     4  12  26  42  62  95 132 168 209 260 320 379
#     4  11  22  37  58  89 130 170 205 247 310 382
#
# _framework density 19.500589000000002
#
# number of rings (size 3 to 8) (size 9 to 14) (size 15 to 20)
#    0.000    0.833    6.667    3.000    2.333    3.000 
#    0.000    0.833    0.000    1.000    0.000    0.000 
#    0.000    0.000    0.000    0.000    0.000    0.000 
#
# Total GULP energy -133845.217137 kJ/mol
# GULP energy per Si atom -5576.884047 kJ/mol
# Density = 1.945620 g / cm^3
# Si number density = 19.500589 Si / 1000 Ang^3
#
#
#
# Elastic Constant Matrix: (Units=GPa)
#
#
# Indices 1 2 3 4 5 6 
#
# 1 159.7506 41.4522 30.8786 0.0000 15.4924 0.0000
# 2 41.4522 84.1430 21.0677 0.0000 -1.0281 0.0000
# 3 30.8786 21.0677 52.3392 0.0000 7.2295 0.0000
# 4 0.0000 0.0000 0.0000 -20.0177 0.0000 -11.7565
# 5 15.4924 -1.0281 7.2295 0.0000 33.2939 0.0000
# 6 0.0000 0.0000 0.0000 -11.7565 0.0000 -5.6936
#
#
#
# Elastic Compliance Matrix: (Units=1/GPa)
#
#
# Indices 1 2 3 4 5 6 
#
# 1 0.007978 -0.003225 -0.002971 0.000000 -0.003167 0.000000
# 2 -0.003225 0.014605 -0.004377 0.000000 0.002902 0.000000
# 3 -0.002971 -0.004377 0.023143 0.000000 -0.003778 0.000000
# 4 0.000000 0.000000 0.000000 0.234855 0.000000 -0.484943
# 5 -0.003167 0.002902 -0.003778 0.000000 0.032419 0.000000
# 6 0.000000 0.000000 0.000000 -0.484943 0.000000 0.825707
#
#
# Mechanical properties :
#
#
# Convention : Reuss Voigt Hill
#
# Bulk Modulus (GPa) = 40.68506 53.66998 47.17752
# Shear Modulus (GPa) = 4.28066 15.03879 9.65972
#
# Velocity S-wave (km/s) = 1.48321 2.78006 2.22807
# Velocity P-wave (km/s) = 4.88283 6.15524 5.55558
#
# Compressibility (1/GPa) = 0.02457905
#
# Stress axis : x y z
#
# Youngs Moduli (GPa) = 125.34444 68.47129 43.21023
#
# Poissons Ratio (x) = 0.22082 0.12839
# Poissons Ratio (y) = 0.40424 0.18913
# Poissons Ratio (z) = 0.37243 0.29969
#
# Static dielectric constant tensor:
#      x y z
#    x 1.720340 0.000000 0.009940 
#    y 0.000000 1.714850 0.000000 
#    z 0.009940 0.000000 1.715090 
# 
# From -- ./inp_files/75457.got.cif
#   From: 2010.05.17/outbox.cif.g08.bks.cpg/sg12_38_cif.got.tgz:75457.got - 2010.06.03 13:09:07.
