data_PCOD9204333
_publ_section_title
;
Structure prediction by ZEFSAII (Michael W. Deem and Ramdas Pophale) SiO2 
 PCOD9204333
Probable space group: C 2/M
;
_chemical_formula_sum "Si O2"
_cell_formula_units_Z 56
_cell_length_a 19.604255
_cell_length_b 8.908345
_cell_length_c 27.005278
_cell_angle_alpha 90.000000
_cell_angle_beta 142.039144
_cell_angle_gamma 90.000000
_cell_volume 2901.068394
_symmetry_space_group_name_H-M "C 2/M"
_symmetry_group_IT_number 12
_symmetry_cell_setting 'monoclinic'
loop_
_space_group_symop_operation_xyz
x,y,z
-x,y,-z
-x,-y,-z
x,-y,z
1/2+x,1/2+y,z
1/2-x,1/2+y,-z
1/2-x,1/2-y,-z
1/2+x,1/2-y,z
loop_
_atom_site_type_symbol
_atom_site_label
_atom_site_fract_x
_atom_site_fract_y
_atom_site_fract_z
Si Si1 0.422847 0.179537 0.690421
Si Si2 0.052491 0.820819 0.194583
Si Si3 0.023328 0.679602 0.639719
Si Si4 0.211911 0.679880 0.530357
Si Si5 0.665270 0.679828 0.989770
Si Si6 0.260094 0.821865 0.760994
Si Si7 0.132611 0.178922 0.080775
O O1 0.479073 0.248889 0.770918
O O2 0.483871 0.217951 0.673447
O O3 0.298066 0.246543 0.617335
O O4 0.418471 0.000000 0.690914
O O5 0.167061 0.753698 0.240317
O O6 0.958254 0.784744 0.100163
O O7 0.060199 0.000000 0.203612
O O8 0.042799 0.500000 0.650213
O O9 0.134010 0.765129 0.688898
O O10 0.919350 0.711375 0.543804
O O11 0.225891 0.500000 0.537956
O O12 0.250000 0.750000 0.500000
O O13 0.675774 0.500000 0.994936
O O14 0.750000 0.750000 0.000000
O O15 0.681729 0.727089 0.055897
O O16 0.314916 0.767237 0.843909
O O17 0.265615 0.000000 0.759884
O O18 0.152632 0.000000 0.099841
O O19 0.000000 0.197741 0.000000
#
# Coordination Sequence:
#
# PCOD9204333 Si02
#       7
#     8   8   8   8   8   8   8
#     4  10  21  37  60  90 120 153 192 239 292 343
#     4  11  23  42  61  82 117 158 195 235 291 351
#     4   9  20  38  60  86 118 155 193 233 284 345
#     4   9  17  33  58  87 117 153 193 236 287 342
#     4  10  23  40  61  86 114 150 190 238 290 342
#     4  12  25  38  58  88 118 151 195 245 290 338
#     4  10  20  41  64  81 109 154 197 232 285 348
#
# _framework density 19.303232999999999
#
# number of rings (size 3 to 8) (size 9 to 14) (size 15 to 20)
#    0.000    1.857    1.429    3.429    2.000    5.429 
#    0.000    0.714    0.000    4.286    0.000    0.000 
#    0.000    0.000    0.000    0.000    0.000    0.000 
#
# Total GULP energy -156356.683880 kJ/mol
# GULP energy per Si atom -5584.167281 kJ/mol
# Density = 1.925930 g / cm^3
# Si number density = 19.303233 Si / 1000 Ang^3
#
#
#
# Elastic Constant Matrix: (Units=GPa)
#
#
# Indices 1 2 3 4 5 6 
#
# 1 67.8867 18.3819 -3.5842 0.0000 11.9632 0.0000
# 2 18.3819 51.2129 16.6068 0.0000 14.4962 -0.0001
# 3 -3.5842 16.6068 25.1833 0.0000 10.6138 0.0000
# 4 0.0000 0.0000 0.0000 32.8254 0.0000 -2.3932
# 5 11.9632 14.4962 10.6138 0.0000 33.1395 0.0000
# 6 0.0000 -0.0001 0.0000 -2.3932 0.0000 27.2211
#
#
#
# Elastic Compliance Matrix: (Units=1/GPa)
#
#
# Indices 1 2 3 4 5 6 
#
# 1 0.018762 -0.008436 0.011020 0.000000 -0.006612 0.000000
# 2 -0.008436 0.029902 -0.019294 0.000000 -0.003855 0.000000
# 3 0.011020 -0.019294 0.060254 0.000000 -0.014836 0.000000
# 4 0.000000 0.000000 0.000000 0.030661 0.000000 0.002696
# 5 -0.006612 -0.003855 -0.014836 0.000000 0.039000 0.000000
# 6 0.000000 0.000000 0.000000 0.002696 0.000000 0.036973
#
#
# Mechanical properties :
#
#
# Convention : Reuss Voigt Hill
#
# Bulk Modulus (GPa) = 13.24561 23.01022 18.12791
# Shear Modulus (GPa) = 18.23899 26.16242 22.20070
#
# Velocity S-wave (km/s) = 3.07720 3.68549 3.39500
# Velocity P-wave (km/s) = 4.41614 5.48240 4.97790
#
# Compressibility (1/GPa) = 0.07549670
#
# Stress axis : x y z
#
# Youngs Moduli (GPa) = 53.30000 33.44247 16.59653
#
# Poissons Ratio (x) = 0.28212 -0.18290
# Poissons Ratio (y) = 0.44964 0.32022
# Poissons Ratio (z) = -0.58737 0.64525
#
# Static dielectric constant tensor:
#      x y z
#    x 1.658420 0.000000 0.021560 
#    y 0.000000 1.637410 0.000000 
#    z 0.021560 0.000000 1.671330 
# 
# From -- ./inp_files/363174.got.cif
#   From: 2010.05.17/outbox.cif.g08.bks.cpg/sg12_182_cif.got.tgz:363174.got - 2010.06.03 13:09:07.
