data_PCOD9204877
_publ_section_title
;
Structure prediction by ZEFSAII (Michael W. Deem and Ramdas Pophale) SiO2 
 PCOD9204877
Probable space group: C 2/M
;
_chemical_formula_sum "Si O2"
_cell_formula_units_Z 64
_cell_length_a 17.750014
_cell_length_b 17.785787
_cell_length_c 15.592720
_cell_angle_alpha 90.000000
_cell_angle_beta 143.486975
_cell_angle_gamma 90.000000
_cell_volume 2928.968195
_symmetry_space_group_name_H-M "C 2/M"
_symmetry_group_IT_number 12
_symmetry_cell_setting 'monoclinic'
loop_
_space_group_symop_operation_xyz
x,y,z
-x,y,-z
-x,-y,-z
x,-y,z
1/2+x,1/2+y,z
1/2-x,1/2+y,-z
1/2-x,1/2-y,-z
1/2+x,1/2-y,z
loop_
_atom_site_type_symbol
_atom_site_label
_atom_site_fract_x
_atom_site_fract_y
_atom_site_fract_z
Si Si1 0.694264 0.912000 0.500424
Si Si2 0.713218 0.332855 0.071624
Si Si3 0.469647 0.410726 0.324633
Si Si4 0.787734 0.651886 0.944476
Si Si5 0.229513 0.086271 0.631247
Si Si6 0.953270 0.684481 0.867619
Si Si7 0.441492 0.087050 0.352029
Si Si8 0.945905 0.837455 0.775184
O O1 0.727218 0.907642 0.429758
O O2 0.554093 0.882830 0.393573
O O3 0.807761 0.873397 0.656972
O O4 0.693882 0.000000 0.523735
O O5 0.718203 0.242052 0.076957
O O6 0.813012 0.366522 0.228330
O O7 0.761467 0.358592 0.021536
O O8 0.567154 0.359236 0.944647
O O9 0.479212 0.500000 0.313099
O O10 0.324616 0.389756 0.208595
O O11 0.580610 0.395864 0.494285
O O12 0.508297 0.361096 0.277524
O O13 0.931871 0.630249 0.055400
O O14 0.323506 0.141739 0.764209
O O15 0.245793 0.000000 0.673176
O O16 0.934282 0.748674 0.779781
O O17 0.000000 0.719142 0.000000
O O18 0.500000 0.089182 0.500000
O O19 0.414355 0.000000 0.304466
#
# Coordination Sequence:
#
# PCOD9204877 Si02
#       8
#     8   8   8   8   8   8   8   8
#     4   9  18  33  54  79 105 136 179 228 274 323
#     4   9  18  34  55  76 104 140 179 225 271 316
#     4   9  18  35  61  88 107 129 173 233 286 329
#     4   9  19  35  54  79 106 136 182 232 272 318
#     4   9  19  36  56  79 105 136 183 234 273 317
#     4  11  23  36  52  79 115 152 186 219 263 323
#     4  10  21  34  49  76 112 147 184 222 265 326
#     4   9  19  34  55  81 109 135 172 221 271 326
#
# _framework density 21.850698000000001
#
# number of rings (size 3 to 8) (size 9 to 14) (size 15 to 20)
#    0.000    2.625    0.000    2.625    0.000    8.250 
#    0.000    0.625    0.000    5.250    0.000    0.000 
#    0.000    0.000    0.000    0.000    0.000    0.000 
#
# Total GULP energy -178581.631091 kJ/mol
# GULP energy per Si atom -5580.675972 kJ/mol
# Density = 2.180096 g / cm^3
# Si number density = 21.850698 Si / 1000 Ang^3
#
#
#
# Elastic Constant Matrix: (Units=GPa)
#
#
# Indices 1 2 3 4 5 6 
#
# 1 60.9373 9.1644 6.9083 0.0000 6.0819 0.0000
# 2 9.1644 48.7695 50.9671 0.0000 -0.9091 0.0000
# 3 6.9083 50.9671 120.9465 0.0000 13.5644 0.0000
# 4 0.0000 0.0000 0.0000 29.7420 0.0000 12.2191
# 5 6.0819 -0.9091 13.5644 0.0000 15.8548 0.0000
# 6 0.0000 0.0000 0.0000 12.2191 0.0000 14.9451
#
#
#
# Elastic Compliance Matrix: (Units=1/GPa)
#
#
# Indices 1 2 3 4 5 6 
#
# 1 0.018035 -0.006480 0.002786 0.000000 -0.009673 0.000000
# 2 -0.006480 0.043600 -0.020532 0.000000 0.022552 0.000000
# 3 0.002786 -0.020532 0.018819 0.000000 -0.018346 0.000000
# 4 0.000000 0.000000 0.000000 0.050628 0.000000 -0.041394
# 5 -0.009673 0.022552 -0.018346 0.000000 0.083772 0.000000
# 6 0.000000 0.000000 0.000000 -0.041394 0.000000 0.100755
#
#
# Mechanical properties :
#
#
# Convention : Reuss Voigt Hill
#
# Bulk Modulus (GPa) = 31.25046 40.52588 35.88817
# Shear Modulus (GPa) = 13.34297 23.01596 18.17947
#
# Velocity S-wave (km/s) = 2.47380 3.24902 2.88755
# Velocity P-wave (km/s) = 4.74262 5.71505 5.25139
#
# Compressibility (1/GPa) = 0.03199953
#
# Stress axis : x y z
#
# Youngs Moduli (GPa) = 55.44925 22.93562 53.13792
#
# Poissons Ratio (x) = 0.14863 -0.14802
# Poissons Ratio (y) = 0.35932 1.09105
# Poissons Ratio (z) = -0.15445 0.47092
#
# Static dielectric constant tensor:
#      x y z
#    x 1.852300 0.000000 0.006860 
#    y 0.000000 1.753570 0.000000 
#    z 0.006860 0.000000 1.817220 
# 
# From -- ./inp_files/285243.got.cif
#   From: 2010.05.17/outbox.cif.g08.bks.cpg/sg12_143_cif.got.tgz:285243.got - 2010.06.03 13:09:07.
