data_PCOD9204277
_publ_section_title
;
Structure prediction by ZEFSAII (Michael W. Deem and Ramdas Pophale) SiO2 
 PCOD9204277
Probable space group: C 2/M
;
_chemical_formula_sum "Si O2"
_cell_formula_units_Z 32
_cell_length_a 31.291862
_cell_length_b 11.981025
_cell_length_c 9.309915
_cell_angle_alpha 90.000000
_cell_angle_beta 26.731745
_cell_angle_gamma 90.000000
_cell_volume 1570.015624
_symmetry_space_group_name_H-M "C 2/M"
_symmetry_group_IT_number 12
_symmetry_cell_setting 'monoclinic'
loop_
_space_group_symop_operation_xyz
x,y,z
-x,y,-z
-x,-y,-z
x,-y,z
1/2+x,1/2+y,z
1/2-x,1/2+y,-z
1/2-x,1/2-y,-z
1/2+x,1/2-y,z
loop_
_atom_site_type_symbol
_atom_site_label
_atom_site_fract_x
_atom_site_fract_y
_atom_site_fract_z
Si Si1 0.407118 0.500000 0.879139
Si Si2 0.554117 0.500000 0.690128
Si Si3 0.594208 0.871427 0.313866
Si Si4 0.092545 0.754677 0.619779
Si Si5 0.227905 0.215834 0.730972
O O1 0.500000 0.500000 0.500000
O O2 0.463464 0.500000 0.858111
O O3 0.340517 0.607942 0.061748
O O4 0.611020 0.383657 0.514788
O O5 0.500000 0.500000 0.000000
O O6 0.500000 0.864194 0.500000
O O7 0.579755 0.811466 0.509882
O O8 0.617611 0.000000 0.269320
O O9 0.673516 0.812487 0.979871
O O10 0.175990 0.702601 0.465883
O O11 0.000000 0.753873 0.000000
O O12 0.250000 0.250000 0.500000
#
# Coordination Sequence:
#
# PCOD9204277 Si02
#       5
#     4   4   8   8   8
#     4  12  26  46  75 101 140 184 241 295 349 425
#     4  10  20  40  70  97 133 180 228 285 344 411
#     4  11  25  44  67  98 143 187 230 294 358 425
#     4  11  24  44  72 103 143 184 238 292 360 426
#     4  12  26  44  73 105 142 183 244 293 361 429
#
# _framework density 20.381962000000001
#
# number of rings (size 3 to 8) (size 9 to 14) (size 15 to 20)
#    0.000    0.750    0.000    9.000    5.250    0.500 
#    0.000    0.000    0.000    0.000    0.000    0.000 
#    0.000    0.000    0.000    0.000    0.000    0.000 
#
# Total GULP energy -89410.397775 kJ/mol
# GULP energy per Si atom -5588.149861 kJ/mol
# Density = 2.033557 g / cm^3
# Si number density = 20.381962 Si / 1000 Ang^3
#
#
#
# Elastic Constant Matrix: (Units=GPa)
#
#
# Indices 1 2 3 4 5 6 
#
# 1 172.4555 92.0360 58.4273 0.0000 13.7467 0.0000
# 2 92.0360 153.0251 75.6496 0.0000 24.6865 0.0000
# 3 58.4273 75.6496 128.1521 0.0000 15.1894 0.0000
# 4 0.0000 0.0000 0.0000 44.3644 0.0000 -7.7530
# 5 13.7467 24.6865 15.1894 0.0000 44.1564 0.0000
# 6 0.0000 0.0000 0.0000 -7.7530 0.0000 36.5249
#
#
#
# Elastic Compliance Matrix: (Units=1/GPa)
#
#
# Indices 1 2 3 4 5 6 
#
# 1 0.008680 -0.004657 -0.001247 0.000000 0.000331 0.000000
# 2 -0.004657 0.012252 -0.004659 0.000000 -0.003797 0.000000
# 3 -0.001247 -0.004659 0.011225 0.000000 -0.000868 0.000000
# 4 0.000000 0.000000 0.000000 0.023409 0.000000 0.004969
# 5 0.000331 -0.003797 -0.000868 0.000000 0.024965 0.000000
# 6 0.000000 0.000000 0.000000 0.004969 0.000000 0.028433
#
#
# Mechanical properties :
#
#
# Convention : Reuss Voigt Hill
#
# Bulk Modulus (GPa) = 90.66374 100.65094 95.65734
# Shear Modulus (GPa) = 37.37785 40.17715 38.77750
#
# Velocity S-wave (km/s) = 4.28702 4.44465 4.36654
# Velocity P-wave (km/s) = 8.31165 8.70801 8.51214
#
# Compressibility (1/GPa) = 0.01102977
#
# Stress axis : x y z
#
# Youngs Moduli (GPa) = 115.20122 81.62074 89.08627
#
# Poissons Ratio (x) = 0.38014 0.11113
# Poissons Ratio (y) = 0.53654 0.41504
# Poissons Ratio (z) = 0.14371 0.38026
#
# Static dielectric constant tensor:
#      x y z
#    x 1.683040 0.000000 -0.029460 
#    y 0.000000 1.754000 0.000000 
#    z -0.029460 0.000000 1.739840 
# 
# From -- ./inp_files/110308.got.cif
#   From: 2010.05.17/outbox.cif.g08.bks.cpg/sg12_56_cif.got.tgz:110308.got - 2010.06.03 13:09:07.
