data_PCOD9204301
_publ_section_title
;
Structure prediction by ZEFSAII (Michael W. Deem and Ramdas Pophale) SiO2 
 PCOD9204301
Probable space group: C 2/M
;
_chemical_formula_sum "Si O2"
_cell_formula_units_Z 52
_cell_length_a 17.649475
_cell_length_b 14.827542
_cell_length_c 17.320666
_cell_angle_alpha 90.000000
_cell_angle_beta 144.076416
_cell_angle_gamma 90.000000
_cell_volume 2659.413536
_symmetry_space_group_name_H-M "C 2/M"
_symmetry_group_IT_number 12
_symmetry_cell_setting 'monoclinic'
loop_
_space_group_symop_operation_xyz
x,y,z
-x,y,-z
-x,-y,-z
x,-y,z
1/2+x,1/2+y,z
1/2-x,1/2+y,-z
1/2-x,1/2-y,-z
1/2+x,1/2-y,z
loop_
_atom_site_type_symbol
_atom_site_label
_atom_site_fract_x
_atom_site_fract_y
_atom_site_fract_z
Si Si1 0.000000 0.674513 0.500000
Si Si2 0.051735 0.258250 0.275835
Si Si3 0.282922 0.102748 0.838975
Si Si4 0.284681 0.681622 0.370989
Si Si5 0.108917 0.393496 0.751712
Si Si6 0.169879 0.234137 0.012790
Si Si7 0.981591 0.903269 0.633766
O O1 0.121885 0.738001 0.579627
O O2 0.044117 0.622081 0.613845
O O3 0.191242 0.285676 0.361414
O O4 0.047321 0.180011 0.335271
O O5 0.980658 0.343352 0.258157
O O6 0.972430 0.218064 0.137364
O O7 0.300591 0.141507 0.768243
O O8 0.336119 0.174127 0.943599
O O9 0.127831 0.104069 0.724934
O O10 0.328121 0.000000 0.885391
O O11 0.382032 0.605683 0.481876
O O12 0.122359 0.500000 0.777562
O O13 0.247212 0.341050 0.872940
O O14 0.250000 0.250000 0.000000
O O15 0.967061 0.000000 0.661223
#
# Coordination Sequence:
#
# PCOD9204301 Si02
#       7
#     4   8   8   8   8   8   8
#     4  12  21  42  63  88 118 166 209 242 313 362
#     4  11  24  40  62  93 126 165 202 254 309 361
#     4  11  21  38  66  92 118 158 205 254 309 373
#     4  12  21  40  64  88 130 159 197 258 311 369
#     4  11  23  41  65  90 122 162 209 256 300 365
#     4  10  20  41  60  88 120 162 207 240 307 365
#     4  11  21  38  64  93 122 160 208 254 304 366
#
# _framework density 19.553183000000001
#
# number of rings (size 3 to 8) (size 9 to 14) (size 15 to 20)
#    0.000    0.923    7.692    1.154    0.000    6.154 
#    0.000    1.538    0.000    0.923    0.000    0.000 
#    0.000    0.000    0.000    0.000    0.000    0.000 
#
# Total GULP energy -145129.885576 kJ/mol
# GULP energy per Si atom -5581.918676 kJ/mol
# Density = 1.950868 g / cm^3
# Si number density = 19.553183 Si / 1000 Ang^3
#
#
#
# Elastic Constant Matrix: (Units=GPa)
#
#
# Indices 1 2 3 4 5 6 
#
# 1 58.0602 27.4550 -0.9052 0.0000 1.9160 0.0000
# 2 27.4550 135.8559 21.0130 0.0000 -14.7814 0.0000
# 3 -0.9052 21.0130 80.7794 0.0000 -14.9118 0.0001
# 4 0.0000 0.0000 0.0000 3.7844 0.0000 4.5590
# 5 1.9160 -14.7814 -14.9118 0.0000 29.6363 0.0000
# 6 0.0000 0.0000 0.0001 4.5590 0.0000 4.4834
#
#
#
# Elastic Compliance Matrix: (Units=1/GPa)
#
#
# Indices 1 2 3 4 5 6 
#
# 1 0.019405 -0.004375 0.000795 0.000000 -0.003037 0.000000
# 2 -0.004375 0.008925 -0.001650 0.000000 0.003904 0.000000
# 3 0.000795 -0.001650 0.013952 0.000000 0.006146 0.000000
# 4 0.000000 0.000000 0.000000 -1.174559 -0.000001 1.194361
# 5 -0.003037 0.003904 0.006146 -0.000001 0.038978 0.000000
# 6 0.000000 0.000000 0.000000 1.194361 0.000000 -0.991451
#
#
# Mechanical properties :
#
#
# Convention : Reuss Voigt Hill
#
# Bulk Modulus (GPa) = 31.42488 41.09124 36.25806
# Shear Modulus (GPa) = -2.42285 22.72300 10.15008
#
# Velocity S-wave (km/s) = -1.11436 3.41268 2.28085
# Velocity P-wave (km/s) = 3.80140 6.04890 5.05173
#
# Compressibility (1/GPa) = 0.03182192
#
# Stress axis : x y z
#
# Youngs Moduli (GPa) = 51.53357 112.04723 71.67424
#
# Poissons Ratio (x) = 0.49019 -0.05698
# Poissons Ratio (y) = 0.22545 0.11826
# Poissons Ratio (z) = -0.04096 0.18487
#
# Static dielectric constant tensor:
#      x y z
#    x 1.678510 0.000000 0.005950 
#    y 0.000000 1.670490 0.000000 
#    z 0.005950 0.000000 1.719330 
# 
# From -- ./inp_files/225788.got.cif
#   From: 2010.05.17/outbox.cif.g08.bks.cpg/sg12_113_cif.got.tgz:225788.got - 2010.06.03 13:09:07.
