data_PCOD9204157
_publ_section_title
;
Structure prediction by ZEFSAII (Michael W. Deem and Ramdas Pophale) SiO2 
 PCOD9204157
Probable space group: C 2/M
;
_chemical_formula_sum "Si O2"
_cell_formula_units_Z 64
_cell_length_a 31.272771
_cell_length_b 8.565083
_cell_length_c 12.469191
_cell_angle_alpha 90.000000
_cell_angle_beta 89.112604
_cell_angle_gamma 90.000000
_cell_volume 3339.520602
_symmetry_space_group_name_H-M "C 2/M"
_symmetry_group_IT_number 12
_symmetry_cell_setting 'monoclinic'
loop_
_space_group_symop_operation_xyz
x,y,z
-x,y,-z
-x,-y,-z
x,-y,z
1/2+x,1/2+y,z
1/2-x,1/2+y,-z
1/2-x,1/2-y,-z
1/2+x,1/2-y,z
loop_
_atom_site_type_symbol
_atom_site_label
_atom_site_fract_x
_atom_site_fract_y
_atom_site_fract_z
Si Si1 0.797418 0.182711 0.987305
Si Si2 0.796790 0.312142 0.526211
Si Si3 0.575506 0.820230 0.251542
Si Si4 0.322560 0.820819 0.763679
Si Si5 0.951370 0.690980 0.977964
Si Si6 0.050131 0.311407 0.484036
Si Si7 0.373033 0.812631 0.132540
Si Si8 0.126248 0.814046 0.625311
O O1 0.810337 0.216070 0.864242
O O2 0.797549 0.000000 0.010889
O O3 0.750000 0.250000 0.000000
O O4 0.831799 0.263584 0.064377
O O5 0.797837 0.500000 0.521129
O O6 0.750000 0.250000 0.500000
O O7 0.806075 0.266717 0.649060
O O8 0.833816 0.249622 0.446237
O O9 0.626403 0.825702 0.245398
O O10 0.559881 0.750085 0.140600
O O11 0.562307 0.749992 0.365329
O O12 0.559097 0.000000 0.254158
O O13 0.307505 0.000000 0.783623
O O14 0.949144 0.500000 0.976668
O O15 0.915604 0.740222 0.065622
O O16 0.000000 0.734900 0.000000
O O17 0.056457 0.500000 0.487014
O O18 0.082359 0.241770 0.570188
O O19 0.000000 0.280195 0.500000
O O20 0.371606 0.745956 0.252571
O O21 0.374108 0.000000 0.139209
O O22 0.128022 0.000000 0.624964
#
# Coordination Sequence:
#
# PCOD9204157 Si02
#       8
#     8   8   8   8   8   8   8   8
#     4  12  26  43  65  93 127 165 210 256 315 379
#     4  11  24  43  67  94 126 163 212 263 315 375
#     4   9  16  33  59  89 122 155 200 258 308 356
#     4  10  20  40  66  90 122 161 206 260 312 365
#     4   9  18  32  59  95 123 153 199 256 310 362
#     4  10  21  38  65  96 125 164 216 266 315 374
#     4  11  23  42  66  91 124 165 214 264 316 373
#     4  12  26  43  62  89 131 172 211 259 322 386
#
# _framework density 19.164427
#
# number of rings (size 3 to 8) (size 9 to 14) (size 15 to 20)
#    0.000    1.500    2.500    3.000    3.500    1.250 
#    0.000    0.000    0.000    1.500    0.000    0.000 
#    0.000    0.000    0.000    0.000    0.000    0.000 
#
# Total GULP energy -178716.770927 kJ/mol
# GULP energy per Si atom -5584.899091 kJ/mol
# Density = 1.912081 g / cm^3
# Si number density = 19.164427 Si / 1000 Ang^3
#
#
#
# Elastic Constant Matrix: (Units=GPa)
#
#
# Indices 1 2 3 4 5 6 
#
# 1 142.2981 38.9383 90.8219 0.0000 13.1768 0.0000
# 2 38.9383 61.3605 46.1360 0.0000 -2.0992 0.0000
# 3 90.8219 46.1360 186.7146 0.0000 16.5499 0.0000
# 4 0.0000 0.0000 0.0000 -63.4860 0.0000 -1.6335
# 5 13.1768 -2.0992 16.5499 0.0000 36.1721 0.0000
# 6 0.0000 0.0000 0.0000 -1.6335 0.0000 24.6952
#
#
#
# Elastic Compliance Matrix: (Units=1/GPa)
#
#
# Indices 1 2 3 4 5 6 
#
# 1 0.010970 -0.003909 -0.004165 0.000000 -0.002318 0.000000
# 2 -0.003909 0.021861 -0.003897 0.000000 0.004476 0.000000
# 3 -0.004165 -0.003897 0.008578 0.000000 -0.002634 0.000000
# 4 0.000000 0.000000 0.000000 -0.015725 0.000000 -0.001040
# 5 -0.002318 0.004476 -0.002634 0.000000 0.029955 0.000000
# 6 0.000000 0.000000 0.000000 -0.001040 0.000000 0.040425
#
#
# Mechanical properties :
#
#
# Convention : Reuss Voigt Hill
#
# Bulk Modulus (GPa) = 57.25007 82.46285 69.85646
# Shear Modulus (GPa) = 39.73695 13.77474 26.75584
#
# Velocity S-wave (km/s) = 4.55848 2.68389 3.74052
# Velocity P-wave (km/s) = 7.59238 7.26133 7.42870
#
# Compressibility (1/GPa) = 0.01746723
#
# Stress axis : x y z
#
# Youngs Moduli (GPa) = 91.15849 45.74351 116.57926
#
# Poissons Ratio (x) = 0.17883 0.48551
# Poissons Ratio (y) = 0.35637 0.45429
# Poissons Ratio (z) = 0.37964 0.17826
#
# Static dielectric constant tensor:
#      x y z
#    x 1.667650 0.000000 -0.001850 
#    y 0.000000 1.666310 0.000000 
#    z -0.001850 0.000000 1.660040 
# 
# From -- ./inp_files/187468.got.cif
#   From: 2010.05.17/outbox.cif.g08.bks.cpg/sg12_94_cif.got.tgz:187468.got - 2010.06.03 13:09:07.
