data_PCOD9204471
_publ_section_title
;
Structure prediction by ZEFSAII (Michael W. Deem and Ramdas Pophale) SiO2 
 PCOD9204471
Probable space group: C 2/M
;
_chemical_formula_sum "Si O2"
_cell_formula_units_Z 64
_cell_length_a 9.156662
_cell_length_b 13.235537
_cell_length_c 26.486783
_cell_angle_alpha 90.000000
_cell_angle_beta 72.621508
_cell_angle_gamma 90.000000
_cell_volume 3063.492253
_symmetry_space_group_name_H-M "C 2/M"
_symmetry_group_IT_number 12
_symmetry_cell_setting 'monoclinic'
loop_
_space_group_symop_operation_xyz
x,y,z
-x,y,-z
-x,-y,-z
x,-y,z
1/2+x,1/2+y,z
1/2-x,1/2+y,-z
1/2-x,1/2-y,-z
1/2+x,1/2-y,z
loop_
_atom_site_type_symbol
_atom_site_label
_atom_site_fract_x
_atom_site_fract_y
_atom_site_fract_z
Si Si1 0.755862 0.806387 0.286796
Si Si2 0.644805 0.886742 0.958745
Si Si3 0.223335 0.111852 0.608783
Si Si4 0.862468 0.117690 0.637815
Si Si5 0.515430 0.380380 0.059202
Si Si6 0.426337 0.238267 0.786299
Si Si7 0.157297 0.212310 0.460958
Si Si8 0.387941 0.199291 0.138585
O O1 0.751481 0.881305 0.334082
O O2 0.714399 0.696109 0.315339
O O3 0.636518 0.826547 0.254227
O O4 0.927744 0.801709 0.247632
O O5 0.811695 0.841794 0.948157
O O6 0.606314 0.885337 0.904169
O O7 0.657991 0.000000 0.978603
O O8 0.500000 0.836396 0.000000
O O9 0.346733 0.184851 0.571028
O O10 0.045651 0.143359 0.617221
O O11 0.239665 0.000000 0.586960
O O12 0.793223 0.135803 0.588684
O O13 0.849133 0.000000 0.653528
O O14 0.499248 0.500000 0.076178
O O15 0.413129 0.304746 0.104095
O O16 0.500000 0.379366 0.000000
O O17 0.487759 0.186328 0.830615
O O18 0.277609 0.300568 0.818330
O O19 0.250000 0.250000 0.500000
O O20 0.000000 0.173497 0.500000
#
# Coordination Sequence:
#
# PCOD9204471 Si02
#       8
#     8   8   8   8   8   8   8   8
#     4  10  20  42  59  86 114 153 187 251 287 339
#     4  10  22  39  59  83 115 153 191 230 280 347
#     4  10  21  38  63  88 115 156 201 236 280 346
#     4  10  21  38  64  88 113 158 203 233 277 352
#     4  10  22  39  59  83 115 153 190 229 282 349
#     4  10  22  37  61  83 119 148 190 236 305 336
#     4  11  22  38  59  89 127 158 185 239 293 332
#     4  11  21  39  59  88 113 154 185 241 283 353
#
# _framework density 20.891189000000001
#
# number of rings (size 3 to 8) (size 9 to 14) (size 15 to 20)
#    0.000    1.750    3.750    0.375    1.750    2.000 
#    0.000    9.375    0.000    0.000    0.000    0.000 
#    0.000    0.000    0.000    0.000    0.000    0.000 
#
# Total GULP energy -178272.588156 kJ/mol
# GULP energy per Si atom -5571.018380 kJ/mol
# Density = 2.084364 g / cm^3
# Si number density = 20.891189 Si / 1000 Ang^3
#
#
#
# Elastic Constant Matrix: (Units=GPa)
#
#
# Indices 1 2 3 4 5 6 
#
# 1 72.7268 1.5808 28.1011 0.0000 20.0929 0.0000
# 2 1.5808 76.0650 4.8181 0.0000 -14.3082 0.0000
# 3 28.1011 4.8181 103.8829 0.0000 18.9648 0.0000
# 4 0.0000 0.0000 0.0000 2.4673 0.0000 7.8494
# 5 20.0929 -14.3082 18.9648 0.0000 48.3727 0.0000
# 6 0.0000 0.0000 0.0000 7.8494 0.0000 -0.6818
#
#
#
# Elastic Compliance Matrix: (Units=1/GPa)
#
#
# Indices 1 2 3 4 5 6 
#
# 1 0.016740 -0.001264 -0.003373 0.000000 -0.006005 0.000000
# 2 -0.001264 0.014239 -0.001274 0.000000 0.005236 0.000000
# 3 -0.003373 -0.001274 0.011213 0.000000 -0.003372 0.000000
# 4 0.000000 0.000000 0.000000 0.010772 0.000000 0.124013
# 5 -0.006005 0.005236 -0.003372 0.000000 0.026038 0.000000
# 6 0.000000 0.000000 0.000000 0.124013 0.000000 -0.038981
#
#
# Mechanical properties :
#
#
# Convention : Reuss Voigt Hill
#
# Bulk Modulus (GPa) = 32.92856 35.74161 34.33509
# Shear Modulus (GPa) = 80.68808 24.57662 52.63235
#
# Velocity S-wave (km/s) = 6.22148 3.43361 5.02476
# Velocity P-wave (km/s) = 8.21007 5.73281 7.08062
#
# Compressibility (1/GPa) = 0.03036878
#
# Stress axis : x y z
#
# Youngs Moduli (GPa) = 59.73713 70.23161 89.17843
#
# Poissons Ratio (x) = 0.08875 0.30084
# Poissons Ratio (y) = 0.07549 0.11365
# Poissons Ratio (z) = 0.20152 0.08951
#
# Static dielectric constant tensor:
#      x y z
#    x 1.794840 0.000000 0.024930 
#    y 0.000000 1.736930 0.000000 
#    z 0.024930 0.000000 1.783510 
# 
# From -- ./inp_files/332930.got.cif
#   From: 2010.05.17/outbox.cif.g08.bks.cpg/sg12_167_cif.got.tgz:332930.got - 2010.06.03 13:09:07.
