data_PCOD9204044
_publ_section_title
;
Structure prediction by ZEFSAII (Michael W. Deem and Ramdas Pophale) SiO2 
 PCOD9204044
Probable space group: C 2/M
;
_chemical_formula_sum "Si O2"
_cell_formula_units_Z 48
_cell_length_a 25.093625
_cell_length_b 8.862549
_cell_length_c 12.781990
_cell_angle_alpha 90.000000
_cell_angle_beta 109.297793
_cell_angle_gamma 90.000000
_cell_volume 2682.914269
_symmetry_space_group_name_H-M "C 2/M"
_symmetry_group_IT_number 12
_symmetry_cell_setting 'monoclinic'
loop_
_space_group_symop_operation_xyz
x,y,z
-x,y,-z
-x,-y,-z
x,-y,z
1/2+x,1/2+y,z
1/2-x,1/2+y,-z
1/2-x,1/2-y,-z
1/2+x,1/2-y,z
loop_
_atom_site_type_symbol
_atom_site_label
_atom_site_fract_x
_atom_site_fract_y
_atom_site_fract_z
Si Si1 0.934635 0.680138 0.625840
Si Si2 0.435147 0.818853 0.987205
Si Si3 0.245675 0.819581 0.612985
Si Si4 0.380360 0.679352 0.390994
Si Si5 0.858638 0.179732 0.759043
Si Si6 0.064129 0.319524 0.769584
O O1 0.926874 0.500000 0.628023
O O2 0.919929 0.736710 0.500645
O O3 0.892691 0.760072 0.679917
O O4 0.998932 0.714951 0.699148
O O5 0.393031 0.735193 0.882233
O O6 0.428764 0.000000 0.969095
O O7 0.500000 0.782434 0.000000
O O8 0.425624 0.781920 0.102554
O O9 0.250000 0.750000 0.500000
O O10 0.184308 0.785647 0.620917
O O11 0.296490 0.750701 0.713035
O O12 0.251881 0.000000 0.610177
O O13 0.388485 0.500000 0.406117
O O14 0.396417 0.734126 0.286217
O O15 0.855364 0.000000 0.752884
O O16 0.071349 0.500000 0.762022
#
# Coordination Sequence:
#
# PCOD9204044 Si02
#       6
#     8   8   8   8   8   8
#     4  11  21  37  61  88 121 160 199 242 293 359
#     4  10  20  40  64  87 118 158 202 244 292 355
#     4  11  23  40  62  87 118 159 200 246 297 355
#     4  11  24  39  58  89 124 156 196 247 303 355
#     4  12  24  37  59  93 123 153 198 250 302 350
#     4  10  22  39  61  88 119 161 202 237 294 362
#
# _framework density 17.890993000000002
#
# number of rings (size 3 to 8) (size 9 to 14) (size 15 to 20)
#    0.000    1.167    3.333    3.500    0.000    6.333 
#    0.000    0.833    0.000    0.000    0.000    0.000 
#    0.000    0.000    0.000    0.000    0.000    0.000 
#
# Total GULP energy -134205.931804 kJ/mol
# GULP energy per Si atom -5591.913825 kJ/mol
# Density = 1.785027 g / cm^3
# Si number density = 17.890993 Si / 1000 Ang^3
#
#
#
# Elastic Constant Matrix: (Units=GPa)
#
#
# Indices 1 2 3 4 5 6 
#
# 1 56.0269 39.3112 36.2639 0.0000 -1.5956 0.0000
# 2 39.3112 58.4208 39.1282 0.0000 0.7607 0.0000
# 3 36.2639 39.1282 107.7717 0.0000 -0.9053 0.0000
# 4 0.0000 0.0000 0.0000 32.6512 0.0000 -3.2062
# 5 -1.5956 0.7607 -0.9053 0.0000 32.3428 0.0000
# 6 0.0000 0.0000 0.0000 -3.2062 0.0000 27.4711
#
#
#
# Elastic Compliance Matrix: (Units=1/GPa)
#
#
# Indices 1 2 3 4 5 6 
#
# 1 0.035400 -0.020985 -0.004275 0.000000 0.002120 0.000000
# 2 -0.020985 0.035075 -0.005690 0.000000 -0.002019 0.000000
# 3 -0.004275 -0.005690 0.012786 0.000000 0.000281 0.000000
# 4 0.000000 0.000000 0.000000 0.030982 0.000000 0.003616
# 5 0.002120 -0.002019 0.000281 0.000000 0.031079 0.000000
# 6 0.000000 0.000000 0.000000 0.003616 0.000000 0.036824
#
#
# Mechanical properties :
#
#
# Convention : Reuss Voigt Hill
#
# Bulk Modulus (GPa) = 46.81552 50.18065 48.49808
# Shear Modulus (GPa) = 19.90712 25.66077 22.78394
#
# Velocity S-wave (km/s) = 3.33932 3.79130 3.57247
# Velocity P-wave (km/s) = 6.41030 6.87562 6.64704
#
# Compressibility (1/GPa) = 0.02136044
#
# Stress axis : x y z
#
# Youngs Moduli (GPa) = 28.24862 28.50997 78.21219
#
# Poissons Ratio (x) = 0.59828 0.33435
# Poissons Ratio (y) = 0.59279 0.44507
# Poissons Ratio (z) = 0.12076 0.16224
#
# Static dielectric constant tensor:
#      x y z
#    x 1.594240 0.000000 0.001630 
#    y 0.000000 1.596950 0.000000 
#    z 0.001630 0.000000 1.590610 
# 
# From -- ./inp_files/172062.got.cif
#   From: 2010.05.17/outbox.cif.g08.bks.cpg/sg12_87_cif.got.tgz:172062.got - 2010.06.03 13:09:07.
