data_PCOD9204649
_publ_section_title
;
Structure prediction by ZEFSAII (Michael W. Deem and Ramdas Pophale) SiO2 
 PCOD9204649
Probable space group: C 2/M
;
_chemical_formula_sum "Si O2"
_cell_formula_units_Z 64
_cell_length_a 22.306422
_cell_length_b 21.542163
_cell_length_c 9.206965
_cell_angle_alpha 90.000000
_cell_angle_beta 54.150283
_cell_angle_gamma 90.000000
_cell_volume 3586.069498
_symmetry_space_group_name_H-M "C 2/M"
_symmetry_group_IT_number 12
_symmetry_cell_setting 'monoclinic'
loop_
_space_group_symop_operation_xyz
x,y,z
-x,y,-z
-x,-y,-z
x,-y,z
1/2+x,1/2+y,z
1/2-x,1/2+y,-z
1/2-x,1/2-y,-z
1/2+x,1/2-y,z
loop_
_atom_site_type_symbol
_atom_site_label
_atom_site_fract_x
_atom_site_fract_y
_atom_site_fract_z
Si Si1 0.276496 0.928539 0.270252
Si Si2 0.285656 0.328166 0.839581
Si Si3 0.447183 0.931305 0.936299
Si Si4 0.421124 0.742644 0.181487
Si Si5 0.821797 0.649589 0.465604
Si Si6 0.461728 0.867673 0.414741
Si Si7 0.935526 0.779023 0.485720
Si Si8 0.295379 0.709365 0.149123
O O1 0.231450 0.893351 0.210147
O O2 0.273142 0.890687 0.425100
O O3 0.255495 0.000000 0.317251
O O4 0.362809 0.925682 0.102361
O O5 0.359508 0.299923 0.665145
O O6 0.221745 0.279586 0.881009
O O7 0.292846 0.329025 0.003035
O O8 0.475971 0.876429 0.794764
O O9 0.456932 0.000000 0.852651
O O10 0.500000 0.930563 0.000000
O O11 0.370637 0.801433 0.302411
O O12 0.435759 0.706352 0.312973
O O13 0.371202 0.708172 0.132201
O O14 0.500000 0.759509 0.000000
O O15 0.883475 0.608777 0.463385
O O16 0.769194 0.686298 0.651065
O O17 0.500000 0.897249 0.500000
O O18 0.443590 0.796016 0.475310
O O19 0.000000 0.803387 0.500000
#
# Coordination Sequence:
#
# PCOD9204649 Si02
#       8
#     8   8   8   8   8   8   8   8
#     4  11  24  39  59  80 114 164 210 242 285 347
#     4  11  22  37  60  83 120 151 197 250 303 358
#     4  10  21  36  52  75 107 156 206 240 270 331
#     4  11  21  33  55  85 120 153 187 233 297 356
#     4  11  21  36  55  81 117 154 200 244 291 349
#     4  10  21  31  53  78 115 147 189 235 296 334
#     4  10  21  36  55  88 118 144 186 241 303 367
#     4  11  22  37  58  89 114 156 193 248 312 355
#
# _framework density 17.846836
#
# number of rings (size 3 to 8) (size 9 to 14) (size 15 to 20)
#    0.000    1.375    5.000    1.875    5.250    1.250 
#    0.000    0.625    0.000    0.375    0.000    0.000 
#    0.000    4.500    0.000    0.000    0.000    0.000 
#
# Total GULP energy -178458.032399 kJ/mol
# GULP energy per Si atom -5576.813512 kJ/mol
# Density = 1.780622 g / cm^3
# Si number density = 17.846836 Si / 1000 Ang^3
#
#
#
# Elastic Constant Matrix: (Units=GPa)
#
#
# Indices 1 2 3 4 5 6 
#
# 1 117.3289 23.5191 40.4564 0.0000 29.7219 0.0000
# 2 23.5191 55.2866 32.9228 0.0000 9.4451 0.0000
# 3 40.4564 32.9228 108.2364 0.0000 11.1376 0.0000
# 4 0.0000 0.0000 0.0000 31.3723 0.0000 -5.8484
# 5 29.7219 9.4451 11.1376 0.0000 30.5064 0.0000
# 6 0.0000 0.0000 0.0000 -5.8484 0.0000 13.5729
#
#
#
# Elastic Compliance Matrix: (Units=1/GPa)
#
#
# Indices 1 2 3 4 5 6 
#
# 1 0.012633 -0.001705 -0.003108 0.000000 -0.010646 0.000000
# 2 -0.001705 0.022946 -0.006008 0.000000 -0.003250 0.000000
# 3 -0.003108 -0.006008 0.012183 0.000000 0.000440 0.000000
# 4 0.000000 0.000000 0.000000 0.034659 0.000000 0.014934
# 5 -0.010646 -0.003250 0.000440 0.000000 0.043998 0.000000
# 6 0.000000 0.000000 0.000000 0.014934 0.000000 0.080111
#
#
# Mechanical properties :
#
#
# Convention : Reuss Voigt Hill
#
# Bulk Modulus (GPa) = 38.28399 52.73871 45.51135
# Shear Modulus (GPa) = 21.10788 27.35388 24.23088
#
# Velocity S-wave (km/s) = 3.44281 3.91922 3.68871
# Velocity P-wave (km/s) = 6.10753 7.07780 6.61049
#
# Compressibility (1/GPa) = 0.02612058
#
# Stress axis : x y z
#
# Youngs Moduli (GPa) = 79.15590 43.58123 82.08222
#
# Poissons Ratio (x) = 0.07429 0.25512
# Poissons Ratio (y) = 0.13493 0.49314
# Poissons Ratio (z) = 0.24602 0.26183
#
# Static dielectric constant tensor:
#      x y z
#    x 1.674220 0.000000 0.055140 
#    y 0.000000 1.617900 0.000000 
#    z 0.055140 0.000000 1.650300 
# 
# From -- ./inp_files/78763.got.cif
#   From: 2010.05.17/outbox.cif.g08.bks.cpg/sg12_40_cif.got.tgz:78763.got - 2010.06.03 13:09:07.
