data_PCOD9204051
_publ_section_title
;
Structure prediction by ZEFSAII (Michael W. Deem and Ramdas Pophale) SiO2 
 PCOD9204051
Probable space group: C 2/M
;
_chemical_formula_sum "Si O2"
_cell_formula_units_Z 48
_cell_length_a 23.947501
_cell_length_b 11.838403
_cell_length_c 7.021627
_cell_angle_alpha 90.000000
_cell_angle_beta 103.705231
_cell_angle_gamma 90.000000
_cell_volume 1933.954136
_symmetry_space_group_name_H-M "C 2/M"
_symmetry_group_IT_number 12
_symmetry_cell_setting 'monoclinic'
loop_
_space_group_symop_operation_xyz
x,y,z
-x,y,-z
-x,-y,-z
x,-y,z
1/2+x,1/2+y,z
1/2-x,1/2+y,-z
1/2-x,1/2-y,-z
1/2+x,1/2-y,z
loop_
_atom_site_type_symbol
_atom_site_label
_atom_site_fract_x
_atom_site_fract_y
_atom_site_fract_z
Si Si1 0.491632 0.868391 0.220700
Si Si2 0.782411 0.000000 0.276091
Si Si3 0.619737 0.752636 0.944102
Si Si4 0.605419 0.249193 0.373664
Si Si5 0.717392 0.500000 0.232423
Si Si6 0.216368 0.738520 0.734574
Si Si7 0.870102 0.000000 0.092286
Si Si8 0.872541 0.000000 0.592264
O O1 0.427010 0.827467 0.200155
O O2 0.545647 0.811959 0.366771
O O3 0.495417 0.000000 0.257389
O O4 0.500000 0.845972 0.000000
O O5 0.759734 0.132349 0.265004
O O6 0.856105 0.000000 0.328191
O O7 0.795401 0.000000 0.033910
O O8 0.682705 0.765173 0.907547
O O9 0.601346 0.623222 0.892856
O O10 0.620780 0.778674 0.167393
O O11 0.662723 0.229109 0.542593
O O12 0.594685 0.382508 0.378689
O O13 0.746896 0.624854 0.258843
O O14 0.700932 0.500000 0.465764
O O15 0.645152 0.500000 0.169536
#
# Coordination Sequence:
#
# PCOD9204051 Si02
#       8
#     8   4   8   8   4   8   4   4
#     4   9  20  36  62  93 123 153 207 245 308 387
#     4   8  20  40  60  81 120 164 198 255 308 352
#     4  10  20  40  64  87 125 162 197 258 311 363
#     4  10  20  40  64  87 125 162 197 258 311 363
#     4  12  24  40  60  94 124 156 228 254 288 378
#     4  10  24  39  61  92 126 162 212 255 297 371
#     4  10  20  41  61  86 126 157 211 262 294 362
#     4  10  20  41  61  86 126 157 211 262 294 362
#
# _framework density 24.819614999999999
#
# number of rings (size 3 to 8) (size 9 to 14) (size 15 to 20)
#    0.000    2.167    1.667    0.000    2.333    6.667 
#    3.000    3.333    3.667    6.000    0.000    0.000 
#    0.000    0.000    0.000    0.000    0.000    0.000 
#
# Total GULP energy -133953.916472 kJ/mol
# GULP energy per Si atom -5581.413186 kJ/mol
# Density = 2.476312 g / cm^3
# Si number density = 24.819615 Si / 1000 Ang^3
#
#
#
# Elastic Constant Matrix: (Units=GPa)
#
#
# Indices 1 2 3 4 5 6 
#
# 1 54.4965 48.6683 15.7102 0.0000 3.0056 0.0000
# 2 48.6683 144.3167 31.9416 0.0000 40.6287 0.0000
# 3 15.7102 31.9416 166.2335 0.0000 -9.1986 0.0000
# 4 0.0000 0.0000 0.0000 43.9954 0.0000 13.0159
# 5 3.0056 40.6287 -9.1986 0.0000 37.7520 0.0000
# 6 0.0000 0.0000 0.0000 13.0159 0.0000 32.0734
#
#
#
# Elastic Compliance Matrix: (Units=1/GPa)
#
#
# Indices 1 2 3 4 5 6 
#
# 1 0.029678 -0.013611 0.000497 0.000000 0.012407 0.000000
# 2 -0.013611 0.017364 -0.003066 0.000000 -0.018350 0.000000
# 3 0.000497 -0.003066 0.006830 0.000000 0.004924 0.000000
# 4 0.000000 0.000000 0.000000 0.025831 0.000000 -0.010483
# 5 0.012407 -0.018350 0.004924 0.000000 0.046449 0.000000
# 6 0.000000 0.000000 0.000000 -0.010483 0.000000 0.035433
#
#
# Mechanical properties :
#
#
# Convention : Reuss Voigt Hill
#
# Bulk Modulus (GPa) = 46.48411 61.96521 54.22466
# Shear Modulus (GPa) = 24.86152 40.67928 32.77040
#
# Velocity S-wave (km/s) = 3.16838 4.05284 3.63759
# Velocity P-wave (km/s) = 5.67047 6.84990 6.28790
#
# Compressibility (1/GPa) = 0.02151273
#
# Stress axis : x y z
#
# Youngs Moduli (GPa) = 33.69540 57.59096 146.40980
#
# Poissons Ratio (x) = 0.78387 -0.07278
# Poissons Ratio (y) = 0.45863 0.44882
# Poissons Ratio (z) = -0.01675 0.17655
#
# Static dielectric constant tensor:
#      x y z
#    x 1.963590 0.000000 -0.168760 
#    y 0.000000 1.799220 0.000000 
#    z -0.168760 0.000000 2.399530 
# 
# From -- ./inp_files/95036.got.cif
#   From: 2010.05.17/outbox.cif.g08.bks.cpg/sg12_48_cif.got.tgz:95036.got - 2010.06.03 13:09:07.
