data_PCOD9204369
_publ_section_title
;
Structure prediction by ZEFSAII (Michael W. Deem and Ramdas Pophale) SiO2 
 PCOD9204369
Probable space group: C 2/M
;
_chemical_formula_sum "Si O2"
_cell_formula_units_Z 50
_cell_length_a 11.129888
_cell_length_b 24.682978
_cell_length_c 9.175911
_cell_angle_alpha 90.000000
_cell_angle_beta 72.354726
_cell_angle_gamma 90.000000
_cell_volume 2402.195311
_symmetry_space_group_name_H-M "C 2/M"
_symmetry_group_IT_number 12
_symmetry_cell_setting 'monoclinic'
loop_
_space_group_symop_operation_xyz
x,y,z
-x,y,-z
-x,-y,-z
x,-y,z
1/2+x,1/2+y,z
1/2-x,1/2+y,-z
1/2-x,1/2-y,-z
1/2+x,1/2-y,z
loop_
_atom_site_type_symbol
_atom_site_label
_atom_site_fract_x
_atom_site_fract_y
_atom_site_fract_z
Si Si1 0.056320 0.277606 0.141852
Si Si2 0.615036 0.138245 0.687811
Si Si3 0.691794 0.880690 0.983155
Si Si4 0.166211 0.098354 0.580928
Si Si5 0.456473 0.343391 0.847715
Si Si6 0.609591 0.938227 0.287755
Si Si7 0.000000 0.000000 0.500000
O O1 0.090850 0.217206 0.175814
O O2 0.948439 0.302656 0.284934
O O3 0.161980 0.324494 0.083929
O O4 0.000000 0.272355 0.000000
O O5 0.620577 0.121647 0.856114
O O6 0.750936 0.131693 0.566828
O O7 0.514274 0.098608 0.650518
O O8 0.837512 0.882839 0.888573
O O9 0.652376 0.927968 0.105120
O O10 0.271610 0.078365 0.657523
O O11 0.066372 0.135725 0.702972
O O12 0.093596 0.048124 0.534349
O O13 0.500000 0.342929 0.000000
O O14 0.576901 0.000000 0.325004
#
# Coordination Sequence:
#
# PCOD9204369 Si02
#       7
#     8   8   8   8   8   8   2
#     4   8  18  37  66  97 129 169 214 265 323 374
#     4  10  23  41  66  98 131 170 217 272 318 385
#     4  10  20  41  65  98 135 167 217 264 318 387
#     4  12  25  44  65  93 130 171 220 263 330 387
#     4  11  21  39  66  97 131 177 213 262 321 391
#     4  11  23  43  68  95 123 168 225 274 317 373
#     4  12  28  48  64  92 132 176 206 266 338 390
#
# _framework density 20.814294
#
# number of rings (size 3 to 8) (size 9 to 14) (size 15 to 20)
#    0.000    1.600    2.400    3.360    1.120    2.560 
#    4.320    1.200   14.080    0.000    0.000    0.000 
#    0.000    0.000    0.000    0.000    0.000    0.000 
#
# Total GULP energy -139304.583853 kJ/mol
# GULP energy per Si atom -5572.183354 kJ/mol
# Density = 2.076692 g / cm^3
# Si number density = 20.814294 Si / 1000 Ang^3
#
#
#
# Elastic Constant Matrix: (Units=GPa)
#
#
# Indices 1 2 3 4 5 6 
#
# 1 89.8216 7.2736 30.1761 0.0000 -9.1321 0.0000
# 2 7.2736 72.0199 34.7949 0.0000 -16.1218 0.0000
# 3 30.1761 34.7949 127.4438 0.0000 -29.5491 0.0000
# 4 0.0000 0.0000 0.0000 -4.5754 0.0000 3.4851
# 5 -9.1321 -16.1218 -29.5491 0.0000 41.9749 0.0000
# 6 0.0000 0.0000 0.0000 3.4851 0.0000 23.5336
#
#
#
# Elastic Compliance Matrix: (Units=1/GPa)
#
#
# Indices 1 2 3 4 5 6 
#
# 1 0.012119 0.000291 -0.002763 0.000000 0.000803 0.000000
# 2 0.000291 0.016489 -0.003690 0.000000 0.003799 0.000000
# 3 -0.002763 -0.003690 0.010804 0.000000 0.005587 0.000000
# 4 0.000000 0.000000 0.000000 -0.196404 0.000000 0.029086
# 5 0.000803 0.003799 0.005587 0.000000 0.029391 0.000000
# 6 0.000000 0.000000 0.000000 0.029086 0.000000 0.038185
#
#
# Mechanical properties :
#
#
# Convention : Reuss Voigt Hill
#
# Bulk Modulus (GPa) = 36.91679 48.19716 42.55698
# Shear Modulus (GPa) = -73.46103 26.65598 -23.40252
#
# Velocity S-wave (km/s) = -5.94728 3.58251 -3.35677
# Velocity P-wave (km/s) = 5.42083 6.34969 2.33807
#
# Compressibility (1/GPa) = 0.02708795
#
# Stress axis : x y z
#
# Youngs Moduli (GPa) = 82.51179 60.64759 92.56185
#
# Poissons Ratio (x) = -0.01762 0.25572
# Poissons Ratio (y) = -0.02398 0.34154
# Poissons Ratio (z) = 0.22795 0.22378
#
# Static dielectric constant tensor:
#      x y z
#    x 1.746800 0.000000 0.007330 
#    y 0.000000 1.718890 0.000000 
#    z 0.007330 0.000000 1.786250 
# 
# From -- ./inp_files/53094.got.cif
#   From: 2010.05.17/outbox.cif.g08.bks.cpg/sg12_27_cif.got.tgz:53094.got - 2010.06.03 13:09:07.
