data_PCOD9204477
_publ_section_title
;
Structure prediction by ZEFSAII (Michael W. Deem and Ramdas Pophale) SiO2 
 PCOD9204477
Probable space group: C 2/M
;
_chemical_formula_sum "Si O2"
_cell_formula_units_Z 34
_cell_length_a 25.550372
_cell_length_b 15.460070
_cell_length_c 4.984147
_cell_angle_alpha 90.000000
_cell_angle_beta 50.003874
_cell_angle_gamma 90.000000
_cell_volume 1508.266659
_symmetry_space_group_name_H-M "C 2/M"
_symmetry_group_IT_number 12
_symmetry_cell_setting 'monoclinic'
loop_
_space_group_symop_operation_xyz
x,y,z
-x,y,-z
-x,-y,-z
x,-y,z
1/2+x,1/2+y,z
1/2-x,1/2+y,-z
1/2-x,1/2-y,-z
1/2+x,1/2-y,z
loop_
_atom_site_type_symbol
_atom_site_label
_atom_site_fract_x
_atom_site_fract_y
_atom_site_fract_z
Si Si1 0.080976 0.740158 0.226487
Si Si2 0.735805 0.000000 0.218459
Si Si3 0.122352 0.639964 0.597557
Si Si4 0.175071 0.000000 0.576650
Si Si5 0.932202 0.902435 0.378094
Si Si6 0.500000 0.000000 0.000000
O O1 0.118222 0.676034 0.311050
O O2 0.086510 0.835904 0.329492
O O3 0.000000 0.719339 0.500000
O O4 0.111013 0.718904 0.838239
O O5 0.690251 0.084616 0.422328
O O6 0.801187 0.000000 0.197205
O O7 0.759218 0.000000 0.833152
O O8 0.059000 0.574935 0.844858
O O9 0.128549 0.919761 0.632317
O O10 0.947923 0.000000 0.429147
O O11 0.000000 0.870965 0.000000
#
# Coordination Sequence:
#
# PCOD9204477 Si02
#       6
#     8   4   8   4   8   2
#     4  12  22  40  64 104 135 164 214 289 336 389
#     4  11  24  45  65  92 137 186 230 256 329 410
#     4  11  24  39  65  97 138 172 223 268 328 394
#     4  10  23  46  68  93 128 188 222 278 322 405
#     4   9  22  45  72 101 130 170 227 284 350 396
#     4  10  20  42  60  94 128 186 202 274 322 386
#
# _framework density 22.542432999999999
#
# number of rings (size 3 to 8) (size 9 to 14) (size 15 to 20)
#    0.706    0.706    2.353    2.824    0.000    8.000 
#    0.000    7.059    0.000    0.000    0.000    0.000 
#    0.000    0.000    0.000    0.000    0.000    0.000 
#
# Total GULP energy -94834.952125 kJ/mol
# GULP energy per Si atom -5578.526596 kJ/mol
# Density = 2.249113 g / cm^3
# Si number density = 22.542433 Si / 1000 Ang^3
#
#
#
# Elastic Constant Matrix: (Units=GPa)
#
#
# Indices 1 2 3 4 5 6 
#
# 1 79.7354 8.6103 11.9566 0.0000 -0.4840 0.0000
# 2 8.6103 106.0378 17.8290 0.0000 -1.2579 0.0000
# 3 11.9566 17.8290 54.2631 0.0000 -5.2020 0.0000
# 4 0.0000 0.0000 0.0000 26.4122 0.0000 22.7937
# 5 -0.4840 -1.2579 -5.2020 0.0000 29.1428 0.0000
# 6 0.0000 0.0000 0.0000 22.7937 0.0000 43.6654
#
#
#
# Elastic Compliance Matrix: (Units=1/GPa)
#
#
# Indices 1 2 3 4 5 6 
#
# 1 0.013009 -0.000607 -0.002695 0.000000 -0.000291 0.000000
# 2 -0.000607 0.010011 -0.003169 0.000000 -0.000144 0.000000
# 3 -0.002695 -0.003169 0.020396 0.000000 0.003459 0.000000
# 4 0.000000 0.000000 0.000000 0.068901 0.000000 -0.035967
# 5 -0.000291 -0.000144 0.003459 0.000000 0.034920 0.000000
# 6 0.000000 0.000000 0.000000 -0.035967 0.000000 0.041676
#
#
# Mechanical properties :
#
#
# Convention : Reuss Voigt Hill
#
# Bulk Modulus (GPa) = 32.81534 35.20315 34.00924
# Shear Modulus (GPa) = 23.58341 33.28678 28.43509
#
# Velocity S-wave (km/s) = 3.23798 3.84686 3.55548
# Velocity P-wave (km/s) = 5.34491 5.94823 5.65462
#
# Compressibility (1/GPa) = 0.03047356
#
# Stress axis : x y z
#
# Youngs Moduli (GPa) = 76.86769 99.88957 49.03031
#
# Poissons Ratio (x) = 0.06060 0.13214
# Poissons Ratio (y) = 0.04663 0.15540
# Poissons Ratio (z) = 0.20717 0.31659
#
# Static dielectric constant tensor:
#      x y z
#    x 1.810980 0.000000 0.014930 
#    y 0.000000 1.831700 0.000000 
#    z 0.014930 0.000000 1.815830 
# 
# From -- ./inp_files/27824.got.cif
#   From: 2010.05.17/outbox.cif.g08.bks.cpg/sg12_14_cif.got.tgz:27824.got - 2010.06.03 13:09:07.
