data_PCOD9204968
_publ_section_title
;
Structure prediction by ZEFSAII (Michael W. Deem and Ramdas Pophale) SiO2 
 PCOD9204968
Probable space group: C 2/M
;
_chemical_formula_sum "Si O2"
_cell_formula_units_Z 36
_cell_length_a 7.108250
_cell_length_b 22.428146
_cell_length_c 13.995797
_cell_angle_alpha 90.000000
_cell_angle_beta 55.645625
_cell_angle_gamma 90.000000
_cell_volume 1842.060918
_symmetry_space_group_name_H-M "C 2/M"
_symmetry_group_IT_number 12
_symmetry_cell_setting 'monoclinic'
loop_
_space_group_symop_operation_xyz
x,y,z
-x,y,-z
-x,-y,-z
x,-y,z
1/2+x,1/2+y,z
1/2-x,1/2+y,-z
1/2-x,1/2-y,-z
1/2+x,1/2-y,z
loop_
_atom_site_type_symbol
_atom_site_label
_atom_site_fract_x
_atom_site_fract_y
_atom_site_fract_z
Si Si1 0.690518 0.198177 0.732829
Si Si2 0.000000 0.863760 0.500000
Si Si3 0.808908 0.679746 0.974804
Si Si4 0.262242 0.432335 0.394967
Si Si5 0.564774 0.334575 0.784271
O O1 0.441869 0.173083 0.836286
O O2 0.683587 0.269746 0.746997
O O3 0.796535 0.176822 0.602566
O O4 0.866799 0.174774 0.761418
O O5 0.902018 0.904427 0.443348
O O6 0.427523 0.651989 0.921077
O O7 0.750000 0.750000 0.000000
O O8 0.000000 0.665675 0.000000
O O9 0.338113 0.500000 0.353634
O O10 0.290257 0.389020 0.296486
O O11 0.000000 0.433267 0.500000
#
# Coordination Sequence:
#
# PCOD9204968 Si02
#       5
#     8   4   8   8   8
#     4   9  18  28  48  78 103 128 158 203 263 302
#     4  10  21  34  54  76 101 130 164 214 252 302
#     4   8  14  28  44  68 102 127 157 192 247 305
#     4  10  22  37  53  72  99 139 174 204 245 293
#     4   9  18  30  50  73 102 130 163 208 248 302
#
# _framework density 19.543326
#
# number of rings (size 3 to 8) (size 9 to 14) (size 15 to 20)
#    0.000    2.889    0.000    0.333    4.667    1.778 
#    0.000    0.000    0.000   18.000    0.000    3.111 
#    0.000    0.000    0.000    0.000    0.000    0.000 
#
# Total GULP energy -100295.594529 kJ/mol
# GULP energy per Si atom -5571.977474 kJ/mol
# Density = 1.949884 g / cm^3
# Si number density = 19.543326 Si / 1000 Ang^3
#
#
#
# Elastic Constant Matrix: (Units=GPa)
#
#
# Indices 1 2 3 4 5 6 
#
# 1 34.8475 15.8793 8.2671 0.0000 6.0691 0.0000
# 2 15.8793 101.2500 82.3059 0.0000 3.6812 0.0000
# 3 8.2671 82.3059 169.4936 0.0000 5.3886 0.0000
# 4 0.0000 0.0000 0.0000 -36.9981 0.0000 -24.8741
# 5 6.0691 3.6812 5.3886 0.0000 26.8154 0.0000
# 6 0.0000 0.0000 0.0000 -24.8741 0.0000 11.8757
#
#
#
# Elastic Compliance Matrix: (Units=1/GPa)
#
#
# Indices 1 2 3 4 5 6 
#
# 1 0.032290 -0.006134 0.001619 0.000000 -0.006792 0.000000
# 2 -0.006134 0.017494 -0.008216 0.000000 0.000638 0.000000
# 3 0.001619 -0.008216 0.009850 0.000000 -0.001218 0.000000
# 4 0.000000 0.000000 0.000000 -0.011224 0.000000 -0.023508
# 5 -0.006792 0.000638 -0.001218 0.000000 0.038986 0.000000
# 6 0.000000 0.000000 0.000000 -0.023508 0.000000 0.034966
#
#
# Mechanical properties :
#
#
# Convention : Reuss Voigt Hill
#
# Bulk Modulus (GPa) = 29.26305 57.61064 43.43684
# Shear Modulus (GPa) = 31.40404 13.61452 22.50928
#
# Velocity S-wave (km/s) = 4.01296 2.64224 3.39745
# Velocity P-wave (km/s) = 6.03968 6.23306 6.13713
#
# Compressibility (1/GPa) = 0.03417279
#
# Stress axis : x y z
#
# Youngs Moduli (GPa) = 30.96931 57.16122 101.52794
#
# Poissons Ratio (x) = 0.35061 -0.16442
# Poissons Ratio (y) = 0.18996 0.83419
# Poissons Ratio (z) = -0.05015 0.46966
#
# Static dielectric constant tensor:
#      x y z
#    x 1.806050 0.000000 0.028640 
#    y 0.000000 1.641780 0.000000 
#    z 0.028640 0.000000 1.773670 
# 
# From -- ./inp_files/256269.got.cif
#   From: 2010.05.17/outbox.cif.g08.bks.cpg/sg12_129_cif.got.tgz:256269.got - 2010.06.03 13:09:07.
