data_PCOD9204485
_publ_section_title
;
Structure prediction by ZEFSAII (Michael W. Deem and Ramdas Pophale) SiO2 
 PCOD9204485
Probable space group: C 2/M
;
_chemical_formula_sum "Si O2"
_cell_formula_units_Z 44
_cell_length_a 9.629232
_cell_length_b 16.793744
_cell_length_c 18.272828
_cell_angle_alpha 90.000000
_cell_angle_beta 131.244069
_cell_angle_gamma 90.000000
_cell_volume 2221.824151
_symmetry_space_group_name_H-M "C 2/M"
_symmetry_group_IT_number 12
_symmetry_cell_setting 'monoclinic'
loop_
_space_group_symop_operation_xyz
x,y,z
-x,y,-z
-x,-y,-z
x,-y,z
1/2+x,1/2+y,z
1/2-x,1/2+y,-z
1/2-x,1/2-y,-z
1/2+x,1/2-y,z
loop_
_atom_site_type_symbol
_atom_site_label
_atom_site_fract_x
_atom_site_fract_y
_atom_site_fract_z
Si Si1 0.478118 0.757925 0.163037
Si Si2 0.853800 0.832461 0.514811
Si Si3 0.656342 0.000000 0.216125
Si Si4 0.276328 0.500000 0.427029
Si Si5 0.849699 0.861195 0.000899
Si Si6 0.159046 0.500000 0.996003
Si Si7 0.149546 0.160509 0.740905
O O1 0.450332 0.711405 0.076972
O O2 0.687930 0.787350 0.240396
O O3 0.420646 0.704047 0.211179
O O4 0.327977 0.828352 0.104091
O O5 0.750000 0.750000 0.500000
O O6 0.738654 0.913063 0.451962
O O7 0.000000 0.816881 0.500000
O O8 0.979223 0.853606 0.627977
O O9 0.692668 0.000000 0.315987
O O10 0.444114 0.000000 0.118677
O O11 0.750759 0.923238 0.213272
O O12 0.500000 0.500000 0.500000
O O13 0.780237 0.921508 0.038084
O O14 0.000000 0.899005 0.000000
O O15 0.000000 0.500000 0.000000
#
# Coordination Sequence:
#
# PCOD9204485 Si02
#       7
#     8   8   4   4   8   4   8
#     4  11  24  38  63  91 125 170 213 264 326 384
#     4  11  22  40  67  96 128 167 214 267 328 393
#     4  12  22  39  67  92 126 167 217 266 315 387
#     4  10  20  42  62  95 128 170 206 267 328 384
#     4  11  23  42  59  87 134 168 211 274 327 377
#     4  12  25  39  66  95 124 172 229 263 323 400
#     4  12  22  40  64  94 125 164 218 264 318 398
#
# _framework density 19.803549
#
# number of rings (size 3 to 8) (size 9 to 14) (size 15 to 20)
#    0.000    0.727    7.273    2.455    0.000    0.000 
#    0.000    0.455    0.000    1.091    0.000    0.000 
#    0.000    0.000    0.000    0.000    0.000    0.000 
#
# Total GULP energy -122776.260272 kJ/mol
# GULP energy per Si atom -5580.739103 kJ/mol
# Density = 1.975848 g / cm^3
# Si number density = 19.803549 Si / 1000 Ang^3
#
#
#
# Elastic Constant Matrix: (Units=GPa)
#
#
# Indices 1 2 3 4 5 6 
#
# 1 95.4332 41.2651 2.4055 0.0000 -10.0353 0.0000
# 2 41.2651 120.2460 2.6920 0.0000 -6.3749 0.0000
# 3 2.4055 2.6920 62.5376 0.0000 -9.4012 0.0000
# 4 0.0000 0.0000 0.0000 20.2623 0.0000 10.5768
# 5 -10.0353 -6.3749 -9.4012 0.0000 25.0192 0.0000
# 6 0.0000 0.0000 0.0000 10.5768 0.0000 9.5273
#
#
#
# Elastic Compliance Matrix: (Units=1/GPa)
#
#
# Indices 1 2 3 4 5 6 
#
# 1 0.012700 -0.004145 0.000315 0.000000 0.004156 0.000000
# 2 -0.004145 0.009783 -0.000145 0.000000 0.000776 0.000000
# 3 0.000315 -0.000145 0.016956 0.000000 0.006461 0.000000
# 4 0.000000 0.000000 0.000000 0.117364 0.000000 -0.130292
# 5 0.004156 0.000776 0.006461 0.000000 0.044262 0.000000
# 6 0.000000 0.000000 0.000000 -0.130292 0.000000 0.249606
#
#
# Mechanical properties :
#
#
# Convention : Reuss Voigt Hill
#
# Bulk Modulus (GPa) = 31.75810 41.21580 36.48695
# Shear Modulus (GPa) = 10.65830 26.41870 18.53850
#
# Velocity S-wave (km/s) = 2.32243 3.65641 3.06293
# Velocity P-wave (km/s) = 4.82317 6.21959 5.56535
#
# Compressibility (1/GPa) = 0.03148803
#
# Stress axis : x y z
#
# Youngs Moduli (GPa) = 78.74068 102.21717 58.97713
#
# Poissons Ratio (x) = 0.42369 -0.01856
# Poissons Ratio (y) = 0.32638 0.00856
# Poissons Ratio (z) = -0.02478 0.01483
#
# Static dielectric constant tensor:
#      x y z
#    x 1.683560 0.000000 -0.009130 
#    y 0.000000 1.763700 0.000000 
#    z -0.009130 0.000000 1.701380 
# 
# From -- ./inp_files/195480.got.cif
#   From: 2010.05.17/outbox.cif.g08.bks.cpg/sg12_98_cif.got.tgz:195480.got - 2010.06.03 13:09:07.
