data_PCOD9204683
_publ_section_title
;
Structure prediction by ZEFSAII (Michael W. Deem and Ramdas Pophale) SiO2 
 PCOD9204683
Probable space group: C 2/M
;
_chemical_formula_sum "Si O2"
_cell_formula_units_Z 34
_cell_length_a 5.111705
_cell_length_b 23.009001
_cell_length_c 13.744744
_cell_angle_alpha 90.000000
_cell_angle_beta 87.146645
_cell_angle_gamma 90.000000
_cell_volume 1614.586938
_symmetry_space_group_name_H-M "C 2/M"
_symmetry_group_IT_number 12
_symmetry_cell_setting 'monoclinic'
loop_
_space_group_symop_operation_xyz
x,y,z
-x,y,-z
-x,-y,-z
x,-y,z
1/2+x,1/2+y,z
1/2-x,1/2+y,-z
1/2-x,1/2-y,-z
1/2+x,1/2-y,z
loop_
_atom_site_type_symbol
_atom_site_label
_atom_site_fract_x
_atom_site_fract_y
_atom_site_fract_z
Si Si1 0.395877 0.429269 0.106466
Si Si2 0.000661 0.780762 0.617064
Si Si3 0.822825 0.606937 0.592530
Si Si4 0.620672 0.070202 0.777202
Si Si5 0.000000 0.000000 0.500000
O O1 0.396709 0.500000 0.103698
O O2 0.103312 0.412509 0.141172
O O3 0.599438 0.411538 0.186617
O O4 0.500000 0.409312 0.000000
O O5 0.209232 0.734500 0.655424
O O6 0.120940 0.844060 0.630307
O O7 0.000000 0.774526 0.500000
O O8 0.021920 0.590659 0.674650
O O9 0.666540 0.551013 0.556062
O O10 0.000000 0.629777 0.500000
O O11 0.627494 0.000000 0.771223
#
# Coordination Sequence:
#
# PCOD9204683 Si02
#       5
#     8   8   8   8   2
#     4   9  18  33  51  72 101 139 181 225 269 321
#     4  10  21  38  58  76  99 145 199 243 277 303
#     4  12  25  37  54  79 120 154 194 225 268 334
#     4  10  21  32  51  75 107 143 180 217 270 332
#     4  12  26  36  52  78 118 170 186 214 266 340
#
# _framework density 21.058017
#
# number of rings (size 3 to 8) (size 9 to 14) (size 15 to 20)
#    0.000    1.647    2.353    3.176    3.294    2.824 
#    0.000    0.000    0.000    0.000    0.000    0.000 
#    0.000   18.824    0.000    0.000    0.000    0.000 
#
# Total GULP energy -94801.115859 kJ/mol
# GULP energy per Si atom -5576.536227 kJ/mol
# Density = 2.101009 g / cm^3
# Si number density = 21.058017 Si / 1000 Ang^3
#
#
#
# Elastic Constant Matrix: (Units=GPa)
#
#
# Indices 1 2 3 4 5 6 
#
# 1 71.2825 26.7863 -0.4438 0.0000 12.3826 0.0000
# 2 26.7863 81.9916 10.7841 0.0000 10.5577 0.0000
# 3 -0.4438 10.7841 62.5013 0.0000 -1.5483 0.0000
# 4 0.0000 0.0000 0.0000 2.4425 0.0000 -3.2173
# 5 12.3826 10.5577 -1.5483 0.0000 32.7709 0.0000
# 6 0.0000 0.0000 0.0000 -3.2173 0.0000 2.6836
#
#
#
# Elastic Compliance Matrix: (Units=1/GPa)
#
#
# Indices 1 2 3 4 5 6 
#
# 1 0.016714 -0.004972 0.000861 0.000000 -0.004673 0.000000
# 2 -0.004972 0.014542 -0.002617 0.000000 -0.002930 0.000000
# 3 0.000861 -0.002617 0.016489 0.000000 0.001297 0.000000
# 4 0.000000 0.000000 0.000000 -0.706929 0.000000 -0.847520
# 5 -0.004673 -0.002930 0.001297 0.000000 0.033286 0.000000
# 6 0.000000 0.000000 0.000000 -0.847520 0.000000 -0.643434
#
#
# Mechanical properties :
#
#
# Convention : Reuss Voigt Hill
#
# Bulk Modulus (GPa) = 29.16349 32.22540 30.69444
# Shear Modulus (GPa) = -4.01786 19.48933 7.73574
#
# Velocity S-wave (km/s) = -1.38280 3.04551 1.91873
# Velocity P-wave (km/s) = 3.36596 5.26339 4.41774
#
# Compressibility (1/GPa) = 0.03428945
#
# Stress axis : x y z
#
# Youngs Moduli (GPa) = 59.82955 68.76553 60.64482
#
# Poissons Ratio (x) = 0.34190 -0.05220
# Poissons Ratio (y) = 0.29747 0.15871
# Poissons Ratio (z) = -0.05150 0.17996
#
# Static dielectric constant tensor:
#      x y z
#    x 1.812240 0.000000 -0.027870 
#    y 0.000000 1.762890 0.000000 
#    z -0.027870 0.000000 1.771250 
# 
# From -- ./inp_files/191387.got.cif
#   From: 2010.05.17/outbox.cif.g08.bks.cpg/sg12_96_cif.got.tgz:191387.got - 2010.06.03 13:09:07.
