data_PCOD9204340
_publ_section_title
;
Structure prediction by ZEFSAII (Michael W. Deem and Ramdas Pophale) SiO2 
 PCOD9204340
Probable space group: C 2/M
;
_chemical_formula_sum "Si O2"
_cell_formula_units_Z 64
_cell_length_a 12.304175
_cell_length_b 19.355582
_cell_length_c 28.730875
_cell_angle_alpha 90.000000
_cell_angle_beta 28.928524
_cell_angle_gamma 90.000000
_cell_volume 3309.786507
_symmetry_space_group_name_H-M "C 2/M"
_symmetry_group_IT_number 12
_symmetry_cell_setting 'monoclinic'
loop_
_space_group_symop_operation_xyz
x,y,z
-x,y,-z
-x,-y,-z
x,-y,z
1/2+x,1/2+y,z
1/2-x,1/2+y,-z
1/2-x,1/2-y,-z
1/2+x,1/2-y,z
loop_
_atom_site_type_symbol
_atom_site_label
_atom_site_fract_x
_atom_site_fract_y
_atom_site_fract_z
Si Si1 0.439276 0.917508 0.422375
Si Si2 0.659209 0.145103 0.740863
Si Si3 0.656810 0.652879 0.671654
Si Si4 0.303100 0.922624 0.180177
Si Si5 0.759071 0.416919 0.390310
Si Si6 0.660499 0.740582 0.147572
Si Si7 0.409563 0.798747 0.969341
Si Si8 0.357857 0.692435 0.425595
O O1 0.641616 0.884034 0.376325
O O2 0.418938 0.900832 0.374814
O O3 0.217981 0.882201 0.526617
O O4 0.440683 0.000000 0.426919
O O5 0.676874 0.084262 0.771646
O O6 0.671350 0.120496 0.683206
O O7 0.433944 0.187832 0.835558
O O8 0.873720 0.193789 0.672044
O O9 0.451287 0.600630 0.737146
O O10 0.542753 0.708008 0.748095
O O11 0.717184 0.690905 0.600311
O O12 0.478736 0.867564 0.092959
O O13 0.345504 0.000000 0.148324
O O14 0.500000 0.398328 0.500000
O O15 0.763841 0.500000 0.381932
O O16 0.874947 0.748938 0.099826
O O17 0.759382 0.689203 0.071644
O O18 0.250000 0.750000 0.000000
O O19 0.250000 0.750000 0.500000
#
# Coordination Sequence:
#
# PCOD9204340 Si02
#       8
#     8   8   8   8   8   8   8   8
#     4  11  23  40  61  85 124 173 212 261 311 358
#     4  11  21  36  61  89 120 165 210 260 301 364
#     4  10  23  39  59  93 124 162 210 259 306 365
#     4  10  21  39  65  95 124 157 201 256 314 380
#     4  10  21  37  56  84 121 167 214 256 305 360
#     4  10  22  37  63  91 118 157 200 250 310 372
#     4  10  20  41  64  90 121 155 195 244 316 382
#     4  11  24  38  58  88 127 168 212 260 306 361
#
# _framework density 19.336594000000002
#
# number of rings (size 3 to 8) (size 9 to 14) (size 15 to 20)
#    0.000    1.625    2.500    1.875    1.750    4.000 
#    0.000    5.625    0.000    2.250    0.000    0.000 
#    0.000    0.000    0.000    0.000    0.000    0.000 
#
# Total GULP energy -178447.238416 kJ/mol
# GULP energy per Si atom -5576.476201 kJ/mol
# Density = 1.929258 g / cm^3
# Si number density = 19.336594 Si / 1000 Ang^3
#
#
#
# Elastic Constant Matrix: (Units=GPa)
#
#
# Indices 1 2 3 4 5 6 
#
# 1 133.0680 52.3336 49.3916 -0.0037 -5.3543 0.0046
# 2 52.3336 56.3730 31.3793 0.0105 -14.5437 0.0102
# 3 49.3916 31.3793 74.8196 0.0636 0.3482 -0.0193
# 4 -0.0037 0.0105 0.0636 23.4169 -0.0136 -1.2708
# 5 -5.3543 -14.5437 0.3482 -0.0136 32.2517 0.0094
# 6 0.0046 0.0102 -0.0193 -1.2708 0.0094 25.5310
#
#
#
# Elastic Compliance Matrix: (Units=1/GPa)
#
#
# Indices 1 2 3 4 5 6 
#
# 1 0.013098 -0.010427 -0.004262 0.000017 -0.002482 0.000000
# 2 -0.010427 0.035683 -0.008149 0.000012 0.014448 -0.000023
# 3 -0.004262 -0.008149 0.019618 -0.000052 -0.004594 0.000018
# 4 0.000017 0.000012 -0.000052 0.042820 0.000026 0.002131
# 5 -0.002482 0.014448 -0.004594 0.000026 0.037159 -0.000021
# 6 0.000000 -0.000023 0.000018 0.002131 -0.000021 0.039274
#
#
# Mechanical properties :
#
#
# Convention : Reuss Voigt Hill
#
# Bulk Modulus (GPa) = 44.00963 58.94106 51.47534
# Shear Modulus (GPa) = 20.75537 24.98365 22.86951
#
# Velocity S-wave (km/s) = 3.27979 3.59840 3.44278
# Velocity P-wave (km/s) = 6.09523 6.91465 6.51783
#
# Compressibility (1/GPa) = 0.02272230
#
# Stress axis : x y z
#
# Youngs Moduli (GPa) = 76.34834 28.02488 50.97384
#
# Poissons Ratio (x) = 0.29223 0.21723
# Poissons Ratio (y) = 0.79611 0.41538
# Poissons Ratio (z) = 0.32537 0.22837
#
# Static dielectric constant tensor:
#      x y z
#    x 1.787000 -0.000100 0.031080 
#    y -0.000100 1.689100 0.000210 
#    z 0.031080 0.000210 1.673640 
# 
# From -- ./inp_files/374454.got.cif
#   From: 2010.05.17/outbox.cif.g08.bks.cpg/sg12_188_cif.got.tgz:374454.got - 2010.06.03 13:09:07.
