data_PCOD9204202
_publ_section_title
;
Structure prediction by ZEFSAII (Michael W. Deem and Ramdas Pophale) SiO2 
 PCOD9204202
Probable space group: C 2/M
;
_chemical_formula_sum "Si O2"
_cell_formula_units_Z 32
_cell_length_a 12.614369
_cell_length_b 18.212585
_cell_length_c 15.018370
_cell_angle_alpha 90.000000
_cell_angle_beta 152.772395
_cell_angle_gamma 90.000000
_cell_volume 1578.614452
_symmetry_space_group_name_H-M "C 2/M"
_symmetry_group_IT_number 12
_symmetry_cell_setting 'monoclinic'
loop_
_space_group_symop_operation_xyz
x,y,z
-x,y,-z
-x,-y,-z
x,-y,z
1/2+x,1/2+y,z
1/2-x,1/2+y,-z
1/2-x,1/2-y,-z
1/2+x,1/2-y,z
loop_
_atom_site_type_symbol
_atom_site_label
_atom_site_fract_x
_atom_site_fract_y
_atom_site_fract_z
Si Si1 0.772518 0.500000 0.766459
Si Si2 0.413330 0.500000 0.035288
Si Si3 0.279098 0.658426 0.207392
Si Si4 0.000000 0.277712 0.500000
Si Si5 0.373179 0.378193 0.677945
Si Si6 0.361425 0.000000 0.621986
O O1 0.659201 0.577360 0.708068
O O2 0.811562 0.500000 0.690324
O O3 0.000000 0.500000 0.000000
O O4 0.510741 0.430511 0.161942
O O5 0.500000 0.500000 0.000000
O O6 0.137946 0.500000 0.825397
O O7 0.370125 0.724067 0.335177
O O8 0.416012 0.661584 0.216261
O O9 0.000000 0.662078 0.000000
O O10 0.813203 0.326244 0.413838
O O11 0.238800 0.429767 0.506138
#
# Coordination Sequence:
#
# PCOD9204202 Si02
#       6
#     4   4   8   4   8   4
#     4  10  20  40  67  95 120 154 213 267 315 374
#     4  11  22  40  69  96 127 173 216 265 322 377
#     4  11  24  42  66  94 127 167 211 267 324 377
#     4  12  26  42  62  94 134 174 214 258 316 386
#     4  11  25  43  64  98 132 166 220 265 314 387
#     4  11  22  41  70  96 129 170 209 271 327 369
#
# _framework density 20.270942000000002
#
# number of rings (size 3 to 8) (size 9 to 14) (size 15 to 20)
#    0.000    1.000    0.000    8.250    0.000    7.500 
#    0.000    0.000    0.000    0.000    0.000    0.000 
#    0.000    0.000    0.000    0.000    0.000    0.000 
#
# Total GULP energy -89440.923918 kJ/mol
# GULP energy per Si atom -5590.057745 kJ/mol
# Density = 2.022480 g / cm^3
# Si number density = 20.270942 Si / 1000 Ang^3
#
#
#
# Elastic Constant Matrix: (Units=GPa)
#
#
# Indices 1 2 3 4 5 6 
#
# 1 220.8180 91.1502 96.5493 -0.0240 18.0706 -0.0220
# 2 91.1502 120.8026 72.4378 -0.0672 15.6816 -0.0205
# 3 96.5493 72.4378 169.4806 -0.1462 14.1414 -0.0698
# 4 -0.0240 -0.0672 -0.1462 -1.9572 -0.0462 -29.0923
# 5 18.0706 15.6816 14.1414 -0.0462 47.6894 -0.0190
# 6 -0.0220 -0.0205 -0.0698 -29.0923 -0.0190 -3.4358
#
#
#
# Elastic Compliance Matrix: (Units=1/GPa)
#
#
# Indices 1 2 3 4 5 6 
#
# 1 0.007265 -0.003954 -0.002387 0.000002 -0.000745 0.000016
# 2 -0.003954 0.013536 -0.003370 0.000004 -0.001953 -0.000008
# 3 -0.002387 -0.003370 0.008749 -0.000013 -0.000582 -0.000032
# 4 0.000002 0.000004 -0.000013 0.004092 -0.000008 -0.034649
# 5 -0.000745 -0.001953 -0.000582 -0.000008 0.022066 -0.000026
# 6 0.000016 -0.000008 -0.000032 -0.034649 -0.000026 0.002331
#
#
# Mechanical properties :
#
#
# Convention : Reuss Voigt Hill
#
# Bulk Modulus (GPa) = 98.72886 114.59732 106.66309
# Shear Modulus (GPa) = 61.85314 25.19020 43.52167
#
# Velocity S-wave (km/s) = 5.52987 3.52898 4.63860
# Velocity P-wave (km/s) = 9.46483 8.55924 9.02340
#
# Compressibility (1/GPa) = 0.01012875
#
# Stress axis : x y z
#
# Youngs Moduli (GPa) = 137.64018 73.87881 114.30115
#
# Poissons Ratio (x) = 0.29212 0.27280
# Poissons Ratio (y) = 0.54424 0.38517
# Poissons Ratio (z) = 0.32850 0.24895
#
# Static dielectric constant tensor:
#      x y z
#    x 1.737910 0.000000 0.037080 
#    y 0.000000 1.698890 0.000000 
#    z 0.037080 0.000000 1.737820 
# 
# From -- ./inp_files/205903.got.cif
#   From: 2010.05.17/outbox.cif.g08.bks.cpg/sg12_103_cif.got.tgz:205903.got - 2010.06.03 13:09:07.
