data_PCOD9204626
_publ_section_title
;
Structure prediction by ZEFSAII (Michael W. Deem and Ramdas Pophale) SiO2 
 PCOD9204626
Probable space group: C 2/M
;
_chemical_formula_sum "Si O2"
_cell_formula_units_Z 30
_cell_length_a 14.314994
_cell_length_b 14.396961
_cell_length_c 6.467205
_cell_angle_alpha 90.000000
_cell_angle_beta 60.926174
_cell_angle_gamma 90.000000
_cell_volume 1164.896195
_symmetry_space_group_name_H-M "C 2/M"
_symmetry_group_IT_number 12
_symmetry_cell_setting 'monoclinic'
loop_
_space_group_symop_operation_xyz
x,y,z
-x,y,-z
-x,-y,-z
x,-y,z
1/2+x,1/2+y,z
1/2-x,1/2+y,-z
1/2-x,1/2-y,-z
1/2+x,1/2-y,z
loop_
_atom_site_type_symbol
_atom_site_label
_atom_site_fract_x
_atom_site_fract_y
_atom_site_fract_z
Si Si1 0.652975 0.500000 0.524791
Si Si2 0.147973 0.793186 0.996311
Si Si3 0.000000 0.500000 0.000000
Si Si4 0.500000 0.793508 0.500000
Si Si5 0.660256 0.856960 0.651626
Si Si6 0.910406 0.000000 0.887062
O O1 0.727936 0.410251 0.479280
O O2 0.618465 0.500000 0.324597
O O3 0.539679 0.500000 0.764179
O O4 0.051365 0.764831 0.256567
O O5 0.141179 0.903380 0.984487
O O6 0.250000 0.750000 0.000000
O O7 0.155453 0.742582 0.766897
O O8 0.091225 0.420039 0.880138
O O9 0.594169 0.853382 0.507350
#
# Coordination Sequence:
#
# PCOD9204626 Si02
#       6
#     4   8   2   4   8   4
#     4  10  22  46  82 118 159 207 265 324 403 485
#     4  12  26  50  81 115 160 211 267 328 403 476
#     4  10  20  46  76 106 164 192 266 332 380 458
#     4  12  26  50  80 110 162 212 266 330 398 462
#     4  11  24  48  81 118 158 207 268 331 392 478
#     4  11  24  50  79 115 163 209 257 336 404 470
#
# _framework density 25.753368999999999
#
# number of rings (size 3 to 8) (size 9 to 14) (size 15 to 20)
#    0.000    0.800    5.333    1.600    0.000    3.200 
#    4.800    4.000    0.000    0.000    0.000    0.000 
#    0.000    0.000    0.000    0.000    0.000    0.000 
#
# Total GULP energy -83791.323193 kJ/mol
# GULP energy per Si atom -5586.088213 kJ/mol
# Density = 2.569475 g / cm^3
# Si number density = 25.753369 Si / 1000 Ang^3
#
#
#
# Elastic Constant Matrix: (Units=GPa)
#
#
# Indices 1 2 3 4 5 6 
#
# 1 210.2426 95.1396 57.9589 0.0000 -0.4561 0.0000
# 2 95.1396 259.8320 63.4153 0.0000 -14.5646 0.0000
# 3 57.9589 63.4153 136.9943 0.0000 -29.1910 0.0000
# 4 0.0000 0.0000 0.0000 -33.5089 0.0000 -15.1981
# 5 -0.4561 -14.5646 -29.1910 0.0000 48.8243 0.0000
# 6 0.0000 0.0000 0.0000 -15.1981 0.0000 34.1087
#
#
#
# Elastic Compliance Matrix: (Units=1/GPa)
#
#
# Indices 1 2 3 4 5 6 
#
# 1 0.006174 -0.001838 -0.002138 0.000000 -0.001769 0.000000
# 2 -0.001838 0.004886 -0.001349 0.000000 0.000634 0.000000
# 3 -0.002138 -0.001349 0.010015 0.000000 0.005565 0.000000
# 4 0.000000 0.000000 0.000000 -0.024826 0.000000 -0.011062
# 5 -0.001769 0.000634 0.005565 0.000000 0.023981 0.000000
# 6 0.000000 0.000000 0.000000 -0.011062 0.000000 0.024389
#
#
# Mechanical properties :
#
#
# Convention : Reuss Voigt Hill
#
# Bulk Modulus (GPa) = 95.93201 115.56628 105.74914
# Shear Modulus (GPa) = 85.11397 35.92183 60.51790
#
# Velocity S-wave (km/s) = 5.75512 3.73881 4.85284
# Velocity P-wave (km/s) = 9.02735 7.97558 8.51771
#
# Compressibility (1/GPa) = 0.01042405
#
# Stress axis : x y z
#
# Youngs Moduli (GPa) = 161.97828 204.64794 99.85442
#
# Poissons Ratio (x) = 0.37611 0.21350
# Poissons Ratio (y) = 0.29769 0.13474
# Poissons Ratio (z) = 0.34632 0.27614
#
# Static dielectric constant tensor:
#      x y z
#    x 2.040300 0.000000 0.000580 
#    y 0.000000 1.950530 0.000000 
#    z 0.000580 0.000000 2.103600 
# 
# From -- ./inp_files/14412.got.cif
#   From: 2010.05.17/outbox.cif.g08.bks.cpg/sg12_8_cif.got.tgz:14412.got - 2010.06.03 13:09:07.
