data_PCOD9204624
_publ_section_title
;
Structure prediction by ZEFSAII (Michael W. Deem and Ramdas Pophale) SiO2 
 PCOD9204624
Probable space group: C 2/M
;
_chemical_formula_sum "Si O2"
_cell_formula_units_Z 36
_cell_length_a 14.838036
_cell_length_b 9.516086
_cell_length_c 11.762865
_cell_angle_alpha 90.000000
_cell_angle_beta 107.930385
_cell_angle_gamma 90.000000
_cell_volume 1580.248235
_symmetry_space_group_name_H-M "C 2/M"
_symmetry_group_IT_number 12
_symmetry_cell_setting 'monoclinic'
loop_
_space_group_symop_operation_xyz
x,y,z
-x,y,-z
-x,-y,-z
x,-y,z
1/2+x,1/2+y,z
1/2-x,1/2+y,-z
1/2-x,1/2-y,-z
1/2+x,1/2-y,z
loop_
_atom_site_type_symbol
_atom_site_label
_atom_site_fract_x
_atom_site_fract_y
_atom_site_fract_z
Si Si1 0.368682 0.734510 0.894976
Si Si2 0.157331 0.662721 0.780193
Si Si3 0.529095 0.333764 0.296793
Si Si4 0.340728 0.163713 0.492625
Si Si5 0.000000 0.500000 0.000000
Si Si6 0.500000 0.500000 0.000000
O O1 0.255936 0.726918 0.860690
O O2 0.396884 0.681107 0.778323
O O3 0.419990 0.620196 0.991624
O O4 0.420496 0.878992 0.937684
O O5 0.146318 0.500000 0.814644
O O6 0.159376 0.662214 0.643384
O O7 0.066365 0.754229 0.774638
O O8 0.515365 0.500000 0.312943
O O9 0.572036 0.248421 0.419328
O O10 0.250000 0.250000 0.500000
O O11 0.340510 0.000000 0.531133
#
# Coordination Sequence:
#
# PCOD9204624 Si02
#       6
#     8   8   8   8   2   2
#     4  11  23  47  69  95 132 171 221 271 342 389
#     4  11  24  43  68  98 135 178 217 265 328 396
#     4  12  25  42  68 101 136 177 219 268 327 395
#     4  11  23  40  67 101 139 179 218 262 323 392
#     4  10  28  42  74 100 124 168 228 286 334 380
#     4  10  20  46  74  84 124 180 208 282 326 400
#
# _framework density 22.781229
#
# number of rings (size 3 to 8) (size 9 to 14) (size 15 to 20)
#    0.000    0.889    4.444    2.000    4.667    4.444 
#    0.000    6.667    0.000    0.000    0.000    0.000 
#    0.000    0.000    0.000    0.000    0.000    0.000 
#
# Total GULP energy -100240.224541 kJ/mol
# GULP energy per Si atom -5568.901363 kJ/mol
# Density = 2.272938 g / cm^3
# Si number density = 22.781229 Si / 1000 Ang^3
#
#
#
# Elastic Constant Matrix: (Units=GPa)
#
#
# Indices 1 2 3 4 5 6 
#
# 1 123.5400 49.8202 43.1223 0.0000 50.6486 0.0000
# 2 49.8202 253.3022 54.0361 0.0000 35.4624 0.0000
# 3 43.1223 54.0361 87.8645 0.0000 20.9350 0.0000
# 4 0.0000 0.0000 0.0000 24.0758 0.0000 32.8318
# 5 50.6486 35.4624 20.9350 0.0000 58.6173 0.0000
# 6 0.0000 0.0000 0.0000 32.8318 0.0000 18.6175
#
#
#
# Elastic Compliance Matrix: (Units=1/GPa)
#
#
# Indices 1 2 3 4 5 6 
#
# 1 0.013929 -0.000416 -0.004123 0.000000 -0.010311 0.000000
# 2 -0.000416 0.004762 -0.002321 0.000000 -0.001692 0.000000
# 3 -0.004123 -0.002321 0.014918 0.000000 -0.000361 0.000000
# 4 0.000000 0.000000 0.000000 -0.029566 0.000000 0.052139
# 5 -0.010311 -0.001692 -0.000361 0.000000 0.027122 0.000000
# 6 0.000000 0.000000 0.000000 0.052139 0.000000 -0.038234
#
#
# Mechanical properties :
#
#
# Convention : Reuss Voigt Hill
#
# Bulk Modulus (GPa) = 50.28253 84.29601 67.28927
# Shear Modulus (GPa) = 376.46717 41.44399 208.95558
#
# Velocity S-wave (km/s) = 12.86903 4.26985 9.58759
# Velocity P-wave (km/s) = 15.58640 7.83528 12.33547
#
# Compressibility (1/GPa) = 0.01988762
#
# Stress axis : x y z
#
# Youngs Moduli (GPa) = 71.79302 210.00644 67.03240
#
# Poissons Ratio (x) = 0.08746 0.27639
# Poissons Ratio (y) = 0.02990 0.15558
# Poissons Ratio (z) = 0.29602 0.48741
#
# Static dielectric constant tensor:
#      x y z
#    x 1.913150 0.000000 0.004130 
#    y 0.000000 1.766920 0.000000 
#    z 0.004130 0.000000 1.996330 
# 
# From -- ./inp_files/210989.got.cif
#   From: 2010.05.17/outbox.cif.g08.bks.cpg/sg12_106_cif.got.tgz:210989.got - 2010.06.03 13:09:07.
