data_PCOD9204999
_publ_section_title
;
Structure prediction by ZEFSAII (Michael W. Deem and Ramdas Pophale) SiO2 
 PCOD9204999
Probable space group: C 2/M
;
_chemical_formula_sum "Si O2"
_cell_formula_units_Z 56
_cell_length_a 13.189628
_cell_length_b 29.829465
_cell_length_c 10.770328
_cell_angle_alpha 90.000000
_cell_angle_beta 37.327736
_cell_angle_gamma 90.000000
_cell_volume 2569.490914
_symmetry_space_group_name_H-M "C 2/M"
_symmetry_group_IT_number 12
_symmetry_cell_setting 'monoclinic'
loop_
_space_group_symop_operation_xyz
x,y,z
-x,y,-z
-x,-y,-z
x,-y,z
1/2+x,1/2+y,z
1/2-x,1/2+y,-z
1/2-x,1/2-y,-z
1/2+x,1/2-y,z
loop_
_atom_site_type_symbol
_atom_site_label
_atom_site_fract_x
_atom_site_fract_y
_atom_site_fract_z
Si Si1 0.102839 0.672761 0.525388
Si Si2 0.392014 0.278460 0.482082
Si Si3 0.942457 0.448650 0.684441
Si Si4 0.027178 0.823349 0.842185
Si Si5 0.623788 0.142357 0.763900
Si Si6 0.730589 0.448557 0.459474
Si Si7 0.927966 0.920347 0.932744
O O1 0.143760 0.725915 0.501903
O O2 0.289163 0.653878 0.332154
O O3 0.031983 0.649929 0.718937
O O4 0.000000 0.669506 0.500000
O O5 0.500000 0.281455 0.500000
O O6 0.488034 0.294009 0.264817
O O7 0.242859 0.313811 0.648589
O O8 0.906241 0.500000 0.688805
O O9 0.000000 0.425603 0.500000
O O10 0.102314 0.448152 0.618061
O O11 0.762019 0.434078 0.907589
O O12 0.913968 0.866570 0.943741
O O13 0.000000 0.799030 0.000000
O O14 0.732347 0.096156 0.658715
O O15 0.500000 0.142165 0.000000
O O16 0.719645 0.500000 0.417890
O O17 0.563137 0.438930 0.702456
O O18 0.000000 0.933170 0.000000
#
# Coordination Sequence:
#
# PCOD9204999 Si02
#       7
#     8   8   8   8   8   8   8
#     4  10  22  41  67  97 131 167 218 279 336 406
#     4  10  22  41  65  95 130 170 221 273 332 409
#     4  10  21  34  55  89 127 167 218 273 330 397
#     4  10  21  37  58  93 130 167 211 269 327 393
#     4  11  24  43  65  92 132 182 223 272 337 405
#     4  11  23  40  62  92 131 175 229 282 327 391
#     4  11  20  35  61  92 128 176 215 273 343 392
#
# _framework density 21.7942
#
# number of rings (size 3 to 8) (size 9 to 14) (size 15 to 20)
#    0.000    1.571    4.286    2.143    0.000    8.286 
#    0.000    2.857    0.000    0.429    0.000    0.000 
#    0.000    0.000    0.000    0.000    0.000    0.000 
#
# Total GULP energy -156175.134327 kJ/mol
# GULP energy per Si atom -5577.683369 kJ/mol
# Density = 2.174460 g / cm^3
# Si number density = 21.794200 Si / 1000 Ang^3
#
#
#
# Elastic Constant Matrix: (Units=GPa)
#
#
# Indices 1 2 3 4 5 6 
#
# 1 57.3768 13.5041 39.3322 0.0000 8.6386 0.0000
# 2 13.5041 150.4133 48.4768 0.0000 9.7313 0.0000
# 3 39.3322 48.4768 156.0909 0.0000 15.6068 0.0000
# 4 0.0000 0.0000 0.0000 -21.2781 0.0000 -39.0114
# 5 8.6386 9.7313 15.6068 0.0000 40.0842 0.0000
# 6 0.0000 0.0000 0.0000 -39.0114 0.0000 -10.4410
#
#
#
# Elastic Compliance Matrix: (Units=1/GPa)
#
#
# Indices 1 2 3 4 5 6 
#
# 1 0.021328 -0.000110 -0.005081 0.000000 -0.002591 0.000000
# 2 -0.000110 0.007422 -0.002185 0.000000 -0.000928 0.000000
# 3 -0.005081 -0.002185 0.008535 0.000000 -0.001698 0.000000
# 4 0.000000 0.000000 0.000000 0.008033 0.000000 -0.030015
# 5 -0.002591 -0.000928 -0.001698 0.000000 0.026392 0.000000
# 6 0.000000 0.000000 0.000000 -0.030015 0.000000 0.016371
#
#
# Mechanical properties :
#
#
# Convention : Reuss Voigt Hill
#
# Bulk Modulus (GPa) = 44.37668 62.94524 53.66096
# Shear Modulus (GPa) = 45.31276 19.17754 32.24515
#
# Velocity S-wave (km/s) = 4.56468 2.96959 3.85064
# Velocity P-wave (km/s) = 6.94173 6.37984 6.66671
#
# Compressibility (1/GPa) = 0.02253436
#
# Stress axis : x y z
#
# Youngs Moduli (GPa) = 46.88734 134.72852 117.16273
#
# Poissons Ratio (x) = 0.01476 0.59531
# Poissons Ratio (y) = 0.00514 0.25597
# Poissons Ratio (z) = 0.23824 0.29435
#
# Static dielectric constant tensor:
#      x y z
#    x 1.821690 0.000000 0.014690 
#    y 0.000000 1.856920 0.000000 
#    z 0.014690 0.000000 1.839840 
# 
# From -- ./inp_files/150402.got.cif
#   From: 2010.05.17/outbox.cif.g08.bks.cpg/sg12_76_cif.got.tgz:150402.got - 2010.06.03 13:09:07.
