data_PCOD9204249
_publ_section_title
;
Structure prediction by ZEFSAII (Michael W. Deem and Ramdas Pophale) SiO2 
 PCOD9204249
Probable space group: C 2/M
;
_chemical_formula_sum "Si O2"
_cell_formula_units_Z 44
_cell_length_a 8.827489
_cell_length_b 17.968403
_cell_length_c 15.750311
_cell_angle_alpha 90.000000
_cell_angle_beta 123.669559
_cell_angle_gamma 90.000000
_cell_volume 2079.165074
_symmetry_space_group_name_H-M "C 2/M"
_symmetry_group_IT_number 12
_symmetry_cell_setting 'monoclinic'
loop_
_space_group_symop_operation_xyz
x,y,z
-x,y,-z
-x,-y,-z
x,-y,z
1/2+x,1/2+y,z
1/2-x,1/2+y,-z
1/2-x,1/2-y,-z
1/2+x,1/2-y,z
loop_
_atom_site_type_symbol
_atom_site_label
_atom_site_fract_x
_atom_site_fract_y
_atom_site_fract_z
Si Si1 0.669361 0.000000 0.439387
Si Si2 0.612005 0.789224 0.856658
Si Si3 0.188462 0.719857 0.569200
Si Si4 0.500000 0.260362 0.000000
Si Si5 0.768780 0.000000 0.672313
Si Si6 0.729443 0.869514 0.324131
Si Si7 0.016324 0.131989 0.747833
O O1 0.756177 0.000000 0.562341
O O2 0.446705 0.000000 0.372390
O O3 0.729466 0.927934 0.401471
O O4 0.824332 0.807566 0.917602
O O5 0.474935 0.840157 0.760285
O O6 0.597327 0.701515 0.825621
O O7 0.553164 0.789649 0.936188
O O8 0.250000 0.750000 0.500000
O O9 0.166708 0.792317 0.621198
O O10 0.351497 0.671133 0.648661
O O11 0.000000 0.677113 0.500000
O O12 0.893477 0.933161 0.747841
O O13 0.831389 0.897386 0.270892
#
# Coordination Sequence:
#
# PCOD9204249 Si02
#       7
#     4   8   8   4   4   8   8
#     4  11  27  41  61  84 128 174 218 248 294 354
#     4  10  22  39  68 100 121 155 199 257 319 372
#     4  11  22  34  56  85 116 156 205 254 299 351
#     4  10  20  40  68  98 126 146 196 260 322 388
#     4  11  27  41  59  88 123 177 215 253 289 357
#     4  11  23  40  59  89 123 164 203 252 306 364
#     4  11  23  39  61  87 125 160 208 249 307 361
#
# _framework density 21.162338999999999
#
# number of rings (size 3 to 8) (size 9 to 14) (size 15 to 20)
#    0.000    1.273    3.636    1.636    7.636    0.727 
#    0.000    0.000    0.000    6.545    0.000    0.000 
#    0.000    0.000    0.000    0.000    0.000    0.000 
#
# Total GULP energy -122644.611940 kJ/mol
# GULP energy per Si atom -5574.755088 kJ/mol
# Density = 2.111417 g / cm^3
# Si number density = 21.162339 Si / 1000 Ang^3
#
#
#
# Elastic Constant Matrix: (Units=GPa)
#
#
# Indices 1 2 3 4 5 6 
#
# 1 91.2348 6.9087 17.6492 0.0000 23.0464 0.0000
# 2 6.9087 64.8282 10.7396 0.0000 7.0214 0.0000
# 3 17.6492 10.7396 78.7210 0.0000 25.2622 0.0000
# 4 0.0000 0.0000 0.0000 11.1434 0.0000 -5.5158
# 5 23.0464 7.0214 25.2622 0.0000 43.4372 0.0000
# 6 0.0000 0.0000 0.0000 -5.5158 0.0000 10.0139
#
#
#
# Elastic Compliance Matrix: (Units=1/GPa)
#
#
# Indices 1 2 3 4 5 6 
#
# 1 0.012722 -0.000554 -0.000786 0.000000 -0.006203 0.000000
# 2 -0.000554 0.015897 -0.001616 0.000000 -0.001336 0.000000
# 3 -0.000786 -0.001616 0.015838 0.000000 -0.008533 0.000000
# 4 0.000000 0.000000 0.000000 0.123377 0.000000 0.067958
# 5 -0.006203 -0.001336 -0.008533 0.000000 0.031491 0.000000
# 6 0.000000 0.000000 0.000000 0.067958 0.000000 0.137293
#
#
# Mechanical properties :
#
#
# Convention : Reuss Voigt Hill
#
# Bulk Modulus (GPa) = 25.94347 33.93101 29.93724
# Shear Modulus (GPa) = 14.06953 26.21797 20.14375
#
# Velocity S-wave (km/s) = 2.58124 3.52362 3.08858
# Velocity P-wave (km/s) = 4.60105 5.71165 5.18616
#
# Compressibility (1/GPa) = 0.03854534
#
# Stress axis : x y z
#
# Youngs Moduli (GPa) = 78.60617 62.90576 63.13922
#
# Poissons Ratio (x) = 0.03483 0.04963
# Poissons Ratio (y) = 0.04352 0.10202
# Poissons Ratio (z) = 0.06179 0.10165
#
# Static dielectric constant tensor:
#      x y z
#    x 1.790290 0.000000 -0.029980 
#    y 0.000000 1.818080 0.000000 
#    z -0.029980 0.000000 1.927980 
# 
# From -- ./inp_files/195545.got.cif
#   From: 2010.05.17/outbox.cif.g08.bks.cpg/sg12_98_cif.got.tgz:195545.got - 2010.06.03 13:09:07.
