data_PCOD9204719
_publ_section_title
;
Structure prediction by ZEFSAII (Michael W. Deem and Ramdas Pophale) SiO2 
 PCOD9204719
Probable space group: C 2/M
;
_chemical_formula_sum "Si O2"
_cell_formula_units_Z 56
_cell_length_a 13.387056
_cell_length_b 21.004501
_cell_length_c 8.593714
_cell_angle_alpha 90.000000
_cell_angle_beta 78.463948
_cell_angle_gamma 90.000000
_cell_volume 2367.638344
_symmetry_space_group_name_H-M "C 2/M"
_symmetry_group_IT_number 12
_symmetry_cell_setting 'monoclinic'
loop_
_space_group_symop_operation_xyz
x,y,z
-x,y,-z
-x,-y,-z
x,-y,z
1/2+x,1/2+y,z
1/2-x,1/2+y,-z
1/2-x,1/2-y,-z
1/2+x,1/2-y,z
loop_
_atom_site_type_symbol
_atom_site_label
_atom_site_fract_x
_atom_site_fract_y
_atom_site_fract_z
Si Si1 0.372096 0.727990 0.128308
Si Si2 0.396530 0.403628 0.984863
Si Si3 0.695547 0.070626 0.531396
Si Si4 0.820956 0.432562 0.830807
Si Si5 0.862079 0.715062 0.454790
Si Si6 0.627918 0.790386 0.194982
Si Si7 0.409945 0.574852 0.639587
O O1 0.406696 0.756542 0.281294
O O2 0.248377 0.728601 0.165597
O O3 0.398012 0.654496 0.104264
O O4 0.406748 0.757872 0.953672
O O5 0.402092 0.386913 0.801336
O O6 0.500000 0.438319 0.000000
O O7 0.284634 0.432323 0.041637
O O8 0.709341 0.068483 0.341479
O O9 0.641589 0.138484 0.574936
O O10 0.803928 0.076295 0.581875
O O11 0.651272 0.000000 0.588631
O O12 0.875192 0.500000 0.845064
O O13 0.878833 0.366421 0.835734
O O14 0.750000 0.750000 0.500000
O O15 0.906135 0.722811 0.616239
O O16 0.500000 0.597386 0.500000
O O17 0.430329 0.500000 0.673734
#
# Coordination Sequence:
#
# PCOD9204719 Si02
#       7
#     8   8   8   8   8   8   8
#     4   9  18  31  46  64  91 117 156 203 236 285
#     4  11  22  33  44  65  91 127 168 201 239 274
#     4   9  18  31  46  68  97 126 159 198 240 286
#     4   9  17  30  48  68  95 123 154 194 233 282
#     4   9  17  28  48  69  91 121 156 196 245 294
#     4   8  16  29  45  69  88 119 151 187 243 281
#     4  10  21  33  45  62  90 131 169 199 230 275
#
# _framework density 23.652260999999999
#
# number of rings (size 3 to 8) (size 9 to 14) (size 15 to 20)
#    0.000    2.714    0.000    2.143    8.000    2.286 
#    0.000    0.000    0.000    0.000    0.000    0.000 
#    0.000    2.286    0.000    7.143    0.000    0.000 
#
# Total GULP energy -156180.201498 kJ/mol
# GULP energy per Si atom -5577.864339 kJ/mol
# Density = 2.359843 g / cm^3
# Si number density = 23.652261 Si / 1000 Ang^3
#
#
#
# Elastic Constant Matrix: (Units=GPa)
#
#
# Indices 1 2 3 4 5 6 
#
# 1 33.0945 8.5819 17.8587 0.0000 7.0568 0.0000
# 2 8.5819 134.7107 80.5905 0.0000 13.5769 0.0000
# 3 17.8587 80.5905 125.1111 0.0000 -23.8444 0.0000
# 4 0.0000 0.0000 0.0000 25.1041 0.0000 14.6969
# 5 7.0568 13.5769 -23.8444 0.0000 35.0963 0.0000
# 6 0.0000 0.0000 0.0000 14.6969 0.0000 -10.8163
#
#
#
# Elastic Compliance Matrix: (Units=1/GPa)
#
#
# Indices 1 2 3 4 5 6 
#
# 1 0.041680 0.009653 -0.016630 0.000000 -0.023413 0.000000
# 2 0.009653 0.020289 -0.018739 0.000000 -0.022521 0.000000
# 3 -0.016630 -0.018739 0.028094 0.000000 0.029680 0.000000
# 4 0.000000 0.000000 0.000000 0.022186 0.000000 0.030145
# 5 -0.023413 -0.022521 0.029680 0.000000 0.062077 0.000000
# 6 0.000000 0.000000 0.000000 0.030145 0.000000 -0.051492
#
#
# Mechanical properties :
#
#
# Convention : Reuss Voigt Hill
#
# Bulk Modulus (GPa) = 25.88593 56.33093 41.10843
# Shear Modulus (GPa) = 26.71769 22.26918 24.49343
#
# Velocity S-wave (km/s) = 3.36460 3.07176 3.22151
# Velocity P-wave (km/s) = 5.10512 6.03729 5.59067
#
# Compressibility (1/GPa) = 0.03863102
#
# Stress axis : x y z
#
# Youngs Moduli (GPa) = 23.99259 49.28818 35.59463
#
# Poissons Ratio (x) = -0.47579 0.59193
# Poissons Ratio (y) = -0.23160 0.66701
# Poissons Ratio (z) = 0.39899 0.92362
#
# Static dielectric constant tensor:
#      x y z
#    x 1.901590 0.000000 -0.069410 
#    y 0.000000 1.952590 0.000000 
#    z -0.069410 0.000000 1.828280 
# 
# From -- ./inp_files/76828.got.cif
#   From: 2010.05.17/outbox.cif.g08.bks.cpg/sg12_39_cif.got.tgz:76828.got - 2010.06.03 13:09:07.
