data_PCOD9204131
_publ_section_title
;
Structure prediction by ZEFSAII (Michael W. Deem and Ramdas Pophale) SiO2 
 PCOD9204131
Probable space group: C 2/M
;
_chemical_formula_sum "Si O2"
_cell_formula_units_Z 58
_cell_length_a 25.116334
_cell_length_b 20.126663
_cell_length_c 9.093742
_cell_angle_alpha 90.000000
_cell_angle_beta 141.898615
_cell_angle_gamma 90.000000
_cell_volume 2836.576213
_symmetry_space_group_name_H-M "C 2/M"
_symmetry_group_IT_number 12
_symmetry_cell_setting 'monoclinic'
loop_
_space_group_symop_operation_xyz
x,y,z
-x,y,-z
-x,-y,-z
x,-y,z
1/2+x,1/2+y,z
1/2-x,1/2+y,-z
1/2-x,1/2-y,-z
1/2+x,1/2-y,z
loop_
_atom_site_type_symbol
_atom_site_label
_atom_site_fract_x
_atom_site_fract_y
_atom_site_fract_z
Si Si1 0.673939 0.635008 0.186878
Si Si2 0.165264 0.813239 0.710190
Si Si3 0.595588 0.576097 0.748244
Si Si4 0.966762 0.385233 0.177439
Si Si5 0.595628 0.711330 0.264518
Si Si6 0.367865 0.863336 0.665896
Si Si7 0.650867 0.772244 0.958117
Si Si8 0.500000 0.000000 0.500000
O O1 0.640670 0.651698 0.275846
O O2 0.773522 0.613726 0.410803
O O3 0.617972 0.585207 0.967562
O O4 0.659623 0.705753 0.073168
O O5 0.160362 0.878916 0.796206
O O6 0.094454 0.807762 0.431524
O O7 0.149571 0.752149 0.786757
O O8 0.257372 0.809085 0.830673
O O9 0.500000 0.600763 0.500000
O O10 0.601619 0.500000 0.717868
O O11 0.927717 0.318615 0.166576
O O12 0.975141 0.441598 0.320289
O O13 0.059728 0.375328 0.301341
O O14 0.902753 0.394223 0.895400
O O15 0.640226 0.782970 0.336460
O O16 0.500000 0.720815 0.000000
#
# Coordination Sequence:
#
# PCOD9204131 Si02
#       8
#     8   8   8   8   8   8   8   2
#     4  11  21  40  68 103 130 169 214 284 334 408
#     4  10  22  35  64 100 126 167 208 282 332 395
#     4  10  23  45  64  89 130 176 216 258 324 408
#     4  11  25  46  63  95 128 193 220 281 322 399
#     4  12  20  34  63 104 131 166 206 273 348 393
#     4  11  22  40  70  93 137 169 222 278 346 383
#     4  10  20  40  65  93 134 159 224 274 341 381
#     4  12  32  46  64  88 136 186 246 264 316 390
#
# _framework density 20.447185999999999
#
# number of rings (size 3 to 8) (size 9 to 14) (size 15 to 20)
#    0.000    1.241    4.138    2.069    1.931    2.207 
#    7.448    0.690    0.000    2.483    0.000    0.000 
#    0.000    0.000    0.000    0.000    0.000    0.000 
#
# Total GULP energy -161674.549595 kJ/mol
# GULP energy per Si atom -5574.984469 kJ/mol
# Density = 2.040065 g / cm^3
# Si number density = 20.447186 Si / 1000 Ang^3
#
#
#
# Elastic Constant Matrix: (Units=GPa)
#
#
# Indices 1 2 3 4 5 6 
#
# 1 57.7908 16.0585 32.4220 0.0000 -10.3933 0.0000
# 2 16.0585 49.8540 14.3006 0.0000 -6.8172 0.0000
# 3 32.4220 14.3006 114.8556 0.0000 -12.1435 0.0000
# 4 0.0000 0.0000 0.0000 23.6578 0.0000 -10.1059
# 5 -10.3933 -6.8172 -12.1435 0.0000 35.5679 0.0000
# 6 0.0000 0.0000 0.0000 -10.1059 0.0000 10.4893
#
#
#
# Elastic Compliance Matrix: (Units=1/GPa)
#
#
# Indices 1 2 3 4 5 6 
#
# 1 0.022377 -0.005183 -0.005276 0.000000 0.003744 0.000000
# 2 -0.005183 0.022363 -0.001067 0.000000 0.002408 0.000000
# 3 -0.005276 -0.001067 0.010524 0.000000 0.001847 0.000000
# 4 0.000000 0.000000 0.000000 0.071832 0.000000 0.069206
# 5 0.003744 0.002408 0.001847 0.000000 0.030301 0.000000
# 6 0.000000 0.000000 0.000000 0.069206 0.000000 0.162011
#
#
# Mechanical properties :
#
#
# Convention : Reuss Voigt Hill
#
# Bulk Modulus (GPa) = 31.04235 38.67361 34.85798
# Shear Modulus (GPa) = 14.15643 24.59096 19.37369
#
# Velocity S-wave (km/s) = 2.63409 3.47170 3.08149
# Velocity P-wave (km/s) = 4.94631 5.91821 5.45395
#
# Compressibility (1/GPa) = 0.03221405
#
# Stress axis : x y z
#
# Youngs Moduli (GPa) = 44.68878 44.71635 95.02175
#
# Poissons Ratio (x) = 0.23175 0.50129
# Poissons Ratio (y) = 0.23160 0.10138
# Poissons Ratio (z) = 0.23576 0.04771
#
# Static dielectric constant tensor:
#      x y z
#    x 1.752200 0.000000 -0.006410 
#    y 0.000000 1.720330 0.000000 
#    z -0.006410 0.000000 1.782650 
# 
# From -- ./inp_files/99280.got.cif
#   From: 2010.05.17/outbox.cif.g08.bks.cpg/sg12_50_cif.got.tgz:99280.got - 2010.06.03 13:09:07.
