data_PCOD9204141
_publ_section_title
;
Structure prediction by ZEFSAII (Michael W. Deem and Ramdas Pophale) SiO2 
 PCOD9204141
Probable space group: C 2/M
;
_chemical_formula_sum "Si O2"
_cell_formula_units_Z 36
_cell_length_a 14.962861
_cell_length_b 13.647158
_cell_length_c 7.860593
_cell_angle_alpha 90.000000
_cell_angle_beta 95.532171
_cell_angle_gamma 90.000000
_cell_volume 1597.660875
_symmetry_space_group_name_H-M "C 2/M"
_symmetry_group_IT_number 12
_symmetry_cell_setting 'monoclinic'
loop_
_space_group_symop_operation_xyz
x,y,z
-x,y,-z
-x,-y,-z
x,-y,z
1/2+x,1/2+y,z
1/2-x,1/2+y,-z
1/2-x,1/2-y,-z
1/2+x,1/2-y,z
loop_
_atom_site_type_symbol
_atom_site_label
_atom_site_fract_x
_atom_site_fract_y
_atom_site_fract_z
Si Si1 0.617287 0.500000 0.275698
Si Si2 0.954678 0.786671 0.809649
Si Si3 0.715434 0.170243 0.126199
Si Si4 0.185549 0.500000 0.879123
Si Si5 0.196645 0.000000 0.653938
Si Si6 0.618112 0.000000 0.506191
Si Si7 0.000000 0.319494 0.500000
O O1 0.566067 0.401523 0.214313
O O2 0.713671 0.500000 0.188914
O O3 0.626866 0.500000 0.484958
O O4 0.858020 0.730897 0.780615
O O5 0.016246 0.747981 0.666389
O O6 0.000000 0.767823 0.000000
O O7 0.791069 0.101132 0.233811
O O8 0.750000 0.250000 0.000000
O O9 0.668602 0.091285 0.996502
O O10 0.120647 0.500000 0.709142
O O11 0.287627 0.000000 0.563812
O O12 0.573190 0.898120 0.453134
#
# Coordination Sequence:
#
# PCOD9204141 Si02
#       7
#     4   8   8   4   4   4   4
#     4  11  25  44  64  97 130 178 222 270 323 392
#     4  12  26  45  67  97 136 179 222 269 331 398
#     4  11  22  42  67 100 130 172 223 271 334 390
#     4  10  21  38  66  98 128 166 218 280 331 379
#     4  10  23  41  69  98 132 161 223 282 325 390
#     4  10  20  40  65  96 132 164 217 275 330 400
#     4  11  24  43  64  98 136 177 214 267 338 394
#
# _framework density 22.532941999999998
#
# number of rings (size 3 to 8) (size 9 to 14) (size 15 to 20)
#    0.000    1.111    4.444    1.667    0.000    4.889 
#    0.000    3.333    0.000    0.000    0.000    0.000 
#    0.000    0.000    0.000    0.000    0.000    0.000 
#
# Total GULP energy -100369.401235 kJ/mol
# GULP energy per Si atom -5576.077846 kJ/mol
# Density = 2.248166 g / cm^3
# Si number density = 22.532942 Si / 1000 Ang^3
#
#
#
# Elastic Constant Matrix: (Units=GPa)
#
#
# Indices 1 2 3 4 5 6 
#
# 1 18.8086 18.9711 -3.4727 0.0000 -1.9680 0.0000
# 2 18.9711 171.7884 36.3429 0.0000 -9.9436 0.0000
# 3 -3.4727 36.3429 104.6034 0.0000 -2.6684 0.0000
# 4 0.0000 0.0000 0.0000 81.6503 0.0000 -27.2668
# 5 -1.9680 -9.9436 -2.6684 0.0000 22.5897 0.0000
# 6 0.0000 0.0000 0.0000 -27.2668 0.0000 24.0066
#
#
#
# Elastic Compliance Matrix: (Units=1/GPa)
#
#
# Indices 1 2 3 4 5 6 
#
# 1 0.062122 -0.007729 0.004814 0.000000 0.002578 0.000000
# 2 -0.007729 0.007390 -0.002767 0.000000 0.002253 0.000000
# 3 0.004814 -0.002767 0.010693 0.000000 0.000465 0.000000
# 4 0.000000 0.000000 0.000000 0.019731 0.000000 0.022411
# 5 0.002578 0.002253 0.000465 0.000000 0.045539 0.000000
# 6 0.000000 0.000000 0.000000 0.022411 0.000000 0.067110
#
#
# Mechanical properties :
#
#
# Convention : Reuss Voigt Hill
#
# Bulk Modulus (GPa) = 14.52643 44.32035 29.42339
# Shear Modulus (GPa) = 20.25133 41.87327 31.06230
#
# Velocity S-wave (km/s) = 3.00116 4.31549 3.71688
# Velocity P-wave (km/s) = 4.29767 6.67406 5.61307
#
# Compressibility (1/GPa) = 0.06884004
#
# Stress axis : x y z
#
# Youngs Moduli (GPa) = 16.09734 135.30978 93.52030
#
# Poissons Ratio (x) = 1.04587 -0.45017
# Poissons Ratio (y) = 0.12442 0.25876
# Poissons Ratio (z) = -0.07749 0.37438
#
# Static dielectric constant tensor:
#      x y z
#    x 1.905730 0.000000 0.027880 
#    y 0.000000 1.911830 0.000000 
#    z 0.027880 0.000000 1.868450 
# 
# From -- ./inp_files/70994.got.cif
#   From: 2010.05.17/outbox.cif.g08.bks.cpg/sg12_36_cif.got.tgz:70994.got - 2010.06.03 13:09:07.
