data_PCOD9204776
_publ_section_title
;
Structure prediction by ZEFSAII (Michael W. Deem and Ramdas Pophale) SiO2 
 PCOD9204776
Probable space group: C 2/M
;
_chemical_formula_sum "Si O2"
_cell_formula_units_Z 56
_cell_length_a 16.924999
_cell_length_b 17.206902
_cell_length_c 10.971485
_cell_angle_alpha 90.000000
_cell_angle_beta 61.709327
_cell_angle_gamma 90.000000
_cell_volume 2813.539391
_symmetry_space_group_name_H-M "C 2/M"
_symmetry_group_IT_number 12
_symmetry_cell_setting 'monoclinic'
loop_
_space_group_symop_operation_xyz
x,y,z
-x,y,-z
-x,-y,-z
x,-y,z
1/2+x,1/2+y,z
1/2-x,1/2+y,-z
1/2-x,1/2-y,-z
1/2+x,1/2-y,z
loop_
_atom_site_type_symbol
_atom_site_label
_atom_site_fract_x
_atom_site_fract_y
_atom_site_fract_z
Si Si1 0.706531 0.914081 0.609551
Si Si2 0.496665 0.283954 0.200164
Si Si3 0.954600 0.089030 0.666239
Si Si4 0.318234 0.293209 0.663113
Si Si5 0.938719 0.666376 0.443491
Si Si6 0.893648 0.418144 0.057652
Si Si7 0.142800 0.249104 0.917430
O O1 0.773218 0.842882 0.586481
O O2 0.634715 0.889728 0.561400
O O3 0.652987 0.918817 0.776400
O O4 0.746741 0.000000 0.558175
O O5 0.483135 0.362652 0.286637
O O6 0.492625 0.211361 0.296751
O O7 0.421158 0.264100 0.154364
O O8 0.591081 0.296772 0.060568
O O9 0.866375 0.141985 0.711211
O O10 0.000000 0.087635 0.500000
O O11 0.936843 0.000000 0.715581
O O12 0.388760 0.234955 0.553419
O O13 0.243526 0.245249 0.793571
O O14 0.000000 0.626325 0.500000
O O15 0.872037 0.500000 0.010413
O O16 0.864208 0.337016 0.025166
O O17 0.000000 0.414584 0.000000
#
# Coordination Sequence:
#
# PCOD9204776 Si02
#       7
#     8   8   8   8   8   8   8
#     4  10  21  33  52  82 115 145 185 236 284 338
#     4  11  19  40  56  86 116 150 193 234 286 355
#     4  11  23  39  61  87 116 151 193 244 295 337
#     4  11  20  36  59  88 110 148 196 246 283 332
#     4  12  21  36  59  82 116 153 192 234 287 342
#     4   9  14  26  47  75 107 137 176 225 267 317
#     4  10  21  33  60  85 112 153 191 236 289 341
#
# _framework density 19.903755
#
# number of rings (size 3 to 8) (size 9 to 14) (size 15 to 20)
#    0.000    1.429    7.143    0.857    0.000    1.429 
#    0.000    1.429    0.000    0.857    0.000    0.000 
#    0.000    0.000    0.000    0.000    0.000    0.000 
#
# Total GULP energy -156049.019533 kJ/mol
# GULP energy per Si atom -5573.179269 kJ/mol
# Density = 1.985845 g / cm^3
# Si number density = 19.903755 Si / 1000 Ang^3
#
#
#
# Elastic Constant Matrix: (Units=GPa)
#
#
# Indices 1 2 3 4 5 6 
#
# 1 54.4757 -5.7812 13.2138 0.0000 -0.8404 0.0000
# 2 -5.7812 54.8464 4.2423 0.0000 3.9842 0.0000
# 3 13.2138 4.2423 72.2370 0.0000 -6.6693 0.0000
# 4 0.0000 0.0000 0.0000 12.8877 0.0000 9.7463
# 5 -0.8404 3.9842 -6.6693 0.0000 22.6681 0.0000
# 6 0.0000 0.0000 0.0000 9.7463 0.0000 38.0670
#
#
#
# Elastic Compliance Matrix: (Units=1/GPa)
#
#
# Indices 1 2 3 4 5 6 
#
# 1 0.019519 0.002409 -0.003787 0.000000 -0.000814 0.000000
# 2 0.002409 0.018909 -0.001901 0.000000 -0.003794 0.000000
# 3 -0.003787 -0.001901 0.015075 0.000000 0.004629 0.000000
# 4 0.000000 0.000000 0.000000 0.096225 0.000000 -0.024636
# 5 -0.000814 -0.003794 0.004629 0.000000 0.046113 0.000000
# 6 0.000000 0.000000 0.000000 -0.024636 0.000000 0.032577
#
#
# Mechanical properties :
#
#
# Convention : Reuss Voigt Hill
#
# Bulk Modulus (GPa) = 21.30157 22.76763 22.03460
# Shear Modulus (GPa) = 19.95015 26.05017 23.00016
#
# Velocity S-wave (km/s) = 3.16940 3.62167 3.40305
# Velocity P-wave (km/s) = 4.91110 5.38074 5.15128
#
# Compressibility (1/GPa) = 0.04694490
#
# Stress axis : x y z
#
# Youngs Moduli (GPa) = 51.23329 52.88384 66.33451
#
# Poissons Ratio (x) = -0.12742 0.25121
# Poissons Ratio (y) = -0.12344 0.12613
# Poissons Ratio (z) = 0.19402 0.10056
#
# Static dielectric constant tensor:
#      x y z
#    x 1.764310 0.000000 0.005770 
#    y 0.000000 1.761860 0.000000 
#    z 0.005770 0.000000 1.755920 
# 
# From -- ./inp_files/157720.got.cif
#   From: 2010.05.17/outbox.cif.g08.bks.cpg/sg12_79_cif.got.tgz:157720.got - 2010.06.03 13:09:07.
