data_PCOD9204128
_publ_section_title
;
Structure prediction by ZEFSAII (Michael W. Deem and Ramdas Pophale) SiO2 
 PCOD9204128
Probable space group: C 2/M
;
_chemical_formula_sum "Si O2"
_cell_formula_units_Z 56
_cell_length_a 11.459798
_cell_length_b 27.316737
_cell_length_c 9.772577
_cell_angle_alpha 90.000000
_cell_angle_beta 64.796031
_cell_angle_gamma 90.000000
_cell_volume 2768.001388
_symmetry_space_group_name_H-M "C 2/M"
_symmetry_group_IT_number 12
_symmetry_cell_setting 'monoclinic'
loop_
_space_group_symop_operation_xyz
x,y,z
-x,y,-z
-x,-y,-z
x,-y,z
1/2+x,1/2+y,z
1/2-x,1/2+y,-z
1/2-x,1/2-y,-z
1/2+x,1/2-y,z
loop_
_atom_site_type_symbol
_atom_site_label
_atom_site_fract_x
_atom_site_fract_y
_atom_site_fract_z
Si Si1 0.340668 0.092535 0.779595
Si Si2 0.509433 0.672391 0.660577
Si Si3 0.214467 0.896881 0.127935
Si Si4 0.316626 0.500000 0.204650
Si Si5 0.087604 0.000000 0.158349
Si Si6 0.381664 0.941566 0.265927
Si Si7 0.399321 0.771432 0.420903
Si Si8 0.791036 0.629667 0.527361
O O1 0.470754 0.069728 0.772889
O O2 0.355488 0.128827 0.645402
O O3 0.265647 0.048266 0.745265
O O4 0.257800 0.110527 0.949883
O O5 0.500000 0.673266 0.500000
O O6 0.382679 0.645583 0.778567
O O7 0.530164 0.728439 0.700585
O O8 0.641396 0.643255 0.625200
O O9 0.140851 0.948787 0.184602
O O10 0.337389 0.908067 0.161045
O O11 0.435285 0.500000 0.246252
O O12 0.370499 0.500000 0.022061
O O13 0.304389 0.919849 0.434054
O O14 0.364860 0.000000 0.252115
O O15 0.500000 0.774008 0.500000
O O16 0.250000 0.750000 0.500000
O O17 0.364351 0.827559 0.404937
#
# Coordination Sequence:
#
# PCOD9204128 Si02
#       8
#     8   8   8   4   4   8   8   8
#     4  11  23  37  60  88 130 167 215 255 313 378
#     4  10  20  40  65  93 122 161 214 266 322 384
#     4  11  22  39  61  92 125 172 212 260 315 380
#     4   9  18  33  51  79 118 169 195 251 300 365
#     4   9  18  33  53  80 122 161 206 242 311 368
#     4  12  24  39  60  91 132 174 215 255 309 386
#     4   9  19  37  64  92 120 161 209 263 323 386
#     4  11  23  40  63  94 125 166 211 268 322 375
#
# _framework density 20.231204000000002
#
# number of rings (size 3 to 8) (size 9 to 14) (size 15 to 20)
#    0.000    1.571    2.857    2.571    1.000    2.857 
#    1.286    1.071    0.000    7.714   11.143    0.000 
#    0.000    0.000    0.000    0.000    0.000    0.000 
#
# Total GULP energy -155916.173511 kJ/mol
# GULP energy per Si atom -5568.434768 kJ/mol
# Density = 2.018516 g / cm^3
# Si number density = 20.231204 Si / 1000 Ang^3
#
#
#
# Elastic Constant Matrix: (Units=GPa)
#
#
# Indices 1 2 3 4 5 6 
#
# 1 82.7832 8.3368 -8.9022 0.0000 -2.1590 0.0000
# 2 8.3368 88.7174 28.8287 0.0000 -8.4885 0.0000
# 3 -8.9022 28.8287 62.6388 0.0000 8.4769 0.0000
# 4 0.0000 0.0000 0.0000 5.8410 0.0000 7.2075
# 5 -2.1590 -8.4885 8.4769 0.0000 19.7801 0.0000
# 6 0.0000 0.0000 0.0000 7.2075 0.0000 21.5419
#
#
#
# Elastic Compliance Matrix: (Units=1/GPa)
#
#
# Indices 1 2 3 4 5 6 
#
# 1 0.012595 -0.002211 0.002919 0.000000 -0.000825 0.000000
# 2 -0.002211 0.015267 -0.008699 0.000000 0.010038 0.000000
# 3 0.002919 -0.008699 0.022129 0.000000 -0.012898 0.000000
# 4 0.000000 0.000000 0.000000 0.291586 0.000000 -0.097559
# 5 -0.000825 0.010038 -0.012898 0.000000 0.060301 0.000000
# 6 0.000000 0.000000 0.000000 -0.097559 0.000000 0.079063
#
#
# Mechanical properties :
#
#
# Convention : Reuss Voigt Hill
#
# Bulk Modulus (GPa) = 29.40458 32.29624 30.85041
# Shear Modulus (GPa) = 9.83753 23.15767 16.49760
#
# Velocity S-wave (km/s) = 2.20751 3.38694 2.85871
# Velocity P-wave (km/s) = 4.58948 5.59405 5.11648
#
# Compressibility (1/GPa) = 0.03400831
#
# Stress axis : x y z
#
# Youngs Moduli (GPa) = 79.39770 65.50184 45.19054
#
# Poissons Ratio (x) = 0.14483 -0.13192
# Poissons Ratio (y) = 0.17556 0.39312
# Poissons Ratio (z) = -0.23178 0.56980
#
# Static dielectric constant tensor:
#      x y z
#    x 1.760320 0.000000 0.004040 
#    y 0.000000 1.827030 0.000000 
#    z 0.004040 0.000000 1.717000 
# 
# From -- ./inp_files/54626.got.cif
#   From: 2010.05.17/outbox.cif.g08.bks.cpg/sg12_28_cif.got.tgz:54626.got - 2010.06.03 13:09:07.
