data_PCOD9204311
_publ_section_title
;
Structure prediction by ZEFSAII (Michael W. Deem and Ramdas Pophale) SiO2 
 PCOD9204311
Probable space group: C 2/M
;
_chemical_formula_sum "Si O2"
_cell_formula_units_Z 64
_cell_length_a 14.839787
_cell_length_b 24.970876
_cell_length_c 8.850498
_cell_angle_alpha 90.000000
_cell_angle_beta 69.868848
_cell_angle_gamma 90.000000
_cell_volume 3079.298942
_symmetry_space_group_name_H-M "C 2/M"
_symmetry_group_IT_number 12
_symmetry_cell_setting 'monoclinic'
loop_
_space_group_symop_operation_xyz
x,y,z
-x,y,-z
-x,-y,-z
x,-y,z
1/2+x,1/2+y,z
1/2-x,1/2+y,-z
1/2-x,1/2-y,-z
1/2+x,1/2-y,z
loop_
_atom_site_type_symbol
_atom_site_label
_atom_site_fract_x
_atom_site_fract_y
_atom_site_fract_z
Si Si1 0.704783 0.374873 0.177554
Si Si2 0.561058 0.440028 0.819428
Si Si3 0.609281 0.301693 0.991657
Si Si4 0.767377 0.559573 0.860492
Si Si5 0.592720 0.759806 0.547111
Si Si6 0.130626 0.867383 0.531733
Si Si7 0.398502 0.189232 0.120419
Si Si8 0.225543 0.655700 0.321411
O O1 0.644062 0.390392 0.358321
O O2 0.806253 0.348662 0.168605
O O3 0.640920 0.330546 0.126024
O O4 0.731657 0.421674 0.045530
O O5 0.529141 0.500000 0.796385
O O6 0.670170 0.443235 0.816922
O O7 0.559961 0.400013 0.680484
O O8 0.500000 0.422916 0.000000
O O9 0.624283 0.238112 0.981575
O O10 0.681834 0.326262 0.827588
O O11 0.500000 0.308712 0.000000
O O12 0.810835 0.500000 0.836348
O O13 0.824330 0.609925 0.752702
O O14 0.500000 0.770630 0.500000
O O15 0.607351 0.695878 0.542733
O O16 0.588911 0.784313 0.719296
O O17 0.673684 0.790972 0.406034
O O18 0.234948 0.871206 0.549964
O O19 0.500000 0.166240 0.000000
#
# Coordination Sequence:
#
# PCOD9204311 Si02
#       8
#     8   8   8   8   8   8   8   8
#     4  11  23  38  63  90 128 165 207 271 325 374
#     4   9  20  41  65  88 125 173 221 267 311 371
#     4  10  22  38  58  87 127 175 214 244 302 391
#     4   9  21  39  63  89 115 162 217 262 325 387
#     4  12  26  38  60  94 132 170 214 264 321 390
#     4  11  22  36  60  92 128 167 211 264 316 372
#     4  11  24  40  60  90 125 172 215 256 317 394
#     4  10  20  41  62  82 129 169 206 265 315 385
#
# _framework density 20.783950999999998
#
# number of rings (size 3 to 8) (size 9 to 14) (size 15 to 20)
#    0.000    1.625    2.500    1.500    7.000    6.500 
#    0.000    0.000    0.000    3.375    0.000    0.000 
#    0.000    0.000    0.000    0.000    0.000    0.000 
#
# Total GULP energy -178698.440676 kJ/mol
# GULP energy per Si atom -5584.326271 kJ/mol
# Density = 2.073665 g / cm^3
# Si number density = 20.783951 Si / 1000 Ang^3
#
#
#
# Elastic Constant Matrix: (Units=GPa)
#
#
# Indices 1 2 3 4 5 6 
#
# 1 54.3965 15.7982 28.7868 0.0000 2.0631 0.0000
# 2 15.7982 107.1053 53.9892 0.0000 -13.2888 0.0000
# 3 28.7868 53.9892 147.6550 0.0000 -1.4533 0.0000
# 4 0.0000 0.0000 0.0000 21.5090 0.0000 -7.1470
# 5 2.0631 -13.2888 -1.4533 0.0000 25.2188 0.0000
# 6 0.0000 0.0000 0.0000 -7.1470 0.0000 0.7586
#
#
#
# Elastic Compliance Matrix: (Units=1/GPa)
#
#
# Indices 1 2 3 4 5 6 
#
# 1 0.020812 -0.001662 -0.003477 0.000000 -0.002779 0.000000
# 2 -0.001662 0.012493 -0.004180 0.000000 0.006478 0.000000
# 3 -0.003477 -0.004180 0.008965 0.000000 -0.001402 0.000000
# 4 0.000000 0.000000 0.000000 -0.021822 0.000000 -0.205590
# 5 -0.002779 0.006478 -0.001402 0.000000 0.043213 0.000000
# 6 0.000000 0.000000 0.000000 -0.205590 0.000000 -0.618723
#
#
# Mechanical properties :
#
#
# Convention : Reuss Voigt Hill
#
# Bulk Modulus (GPa) = 42.31683 56.25612 49.28648
# Shear Modulus (GPa) = -9.45989 23.53611 7.03811
#
# Velocity S-wave (km/s) = -2.13575 3.36879 1.84219
# Velocity P-wave (km/s) = 3.78453 6.50058 5.31884
#
# Compressibility (1/GPa) = 0.02363126
#
# Stress axis : x y z
#
# Youngs Moduli (GPa) = 48.05000 80.04786 111.54386
#
# Poissons Ratio (x) = 0.13302 0.38786
# Poissons Ratio (y) = 0.07985 0.46626
# Poissons Ratio (z) = 0.16708 0.33461
#
# Static dielectric constant tensor:
#      x y z
#    x 1.793320 0.000000 0.001870 
#    y 0.000000 1.812620 0.000000 
#    z 0.001870 0.000000 1.789620 
# 
# From -- ./inp_files/66919.got.cif
#   From: 2010.05.17/outbox.cif.g08.bks.cpg/sg12_34_cif.got.tgz:66919.got - 2010.06.03 13:09:07.
