data_PCOD9204689
_publ_section_title
;
Structure prediction by ZEFSAII (Michael W. Deem and Ramdas Pophale) SiO2 
 PCOD9204689
Probable space group: C 2/M
;
_chemical_formula_sum "Si O2"
_cell_formula_units_Z 64
_cell_length_a 13.578100
_cell_length_b 30.285195
_cell_length_c 8.231856
_cell_angle_alpha 90.000000
_cell_angle_beta 90.509428
_cell_angle_gamma 90.000000
_cell_volume 3384.932210
_symmetry_space_group_name_H-M "C 2/M"
_symmetry_group_IT_number 12
_symmetry_cell_setting 'monoclinic'
loop_
_space_group_symop_operation_xyz
x,y,z
-x,y,-z
-x,-y,-z
x,-y,z
1/2+x,1/2+y,z
1/2-x,1/2+y,-z
1/2-x,1/2-y,-z
1/2+x,1/2-y,z
loop_
_atom_site_type_symbol
_atom_site_label
_atom_site_fract_x
_atom_site_fract_y
_atom_site_fract_z
Si Si1 0.627953 0.257137 0.816316
Si Si2 0.379433 0.888207 0.504677
Si Si3 0.104338 0.164700 0.063889
Si Si4 0.179256 0.667508 0.979125
Si Si5 0.061531 0.778660 0.351885
Si Si6 0.196510 0.302345 0.342896
Si Si7 0.116545 0.550724 0.189861
Si Si8 0.893655 0.583114 0.154236
O O1 0.678890 0.212366 0.874067
O O2 0.520443 0.249724 0.745121
O O3 0.692792 0.287387 0.697194
O O4 0.612982 0.288541 0.970290
O O5 0.500000 0.882752 0.500000
O O6 0.327851 0.840679 0.529670
O O7 0.351622 0.917195 0.663013
O O8 0.350221 0.912335 0.335458
O O9 0.212093 0.144835 0.032107
O O10 0.095673 0.179786 0.248518
O O11 0.000000 0.144608 0.000000
O O12 0.100814 0.633956 0.904284
O O13 0.159632 0.680163 0.165387
O O14 0.143939 0.742972 0.389810
O O15 0.000000 0.796157 0.500000
O O16 0.135066 0.500000 0.231265
O O17 0.998957 0.559823 0.177074
O O18 0.154197 0.560707 0.006858
#
# Coordination Sequence:
#
# PCOD9204689 Si02
#       8
#     8   8   8   8   8   8   8   8
#     4  10  21  33  51  66  90 145 182 229 270 304
#     4  10  22  35  50  79 108 142 176 224 265 308
#     4   9  18  36  48  64  89 130 181 220 268 312
#     4  11  19  33  53  70  96 138 180 229 268 311
#     4  11  22  30  44  67  96 131 178 228 266 312
#     4  11  20  36  47  68 105 131 188 229 266 314
#     4  10  21  39  57  77 109 144 174 209 263 332
#     4  10  21  32  52  77 103 135 175 209 260 310
#
# _framework density 18.907321
#
# number of rings (size 3 to 8) (size 9 to 14) (size 15 to 20)
#    0.000    1.750    3.750    1.875    5.250    4.250 
#    0.000    0.000    0.000    0.000    0.000    0.000 
#    0.000    2.000    0.000    1.125    0.000    0.000 
#
# Total GULP energy -178309.455610 kJ/mol
# GULP energy per Si atom -5572.170488 kJ/mol
# Density = 1.886429 g / cm^3
# Si number density = 18.907321 Si / 1000 Ang^3
#
#
#
# Elastic Constant Matrix: (Units=GPa)
#
#
# Indices 1 2 3 4 5 6 
#
# 1 45.5788 6.5629 -2.8755 0.0000 -9.0501 0.0000
# 2 6.5629 49.4088 13.9753 0.0000 -4.9759 0.0000
# 3 -2.8755 13.9753 99.6352 0.0000 -14.8274 0.0000
# 4 0.0000 0.0000 0.0000 -137.3926 0.0000 -8.6475
# 5 -9.0501 -4.9759 -14.8274 0.0000 26.2376 0.0000
# 6 0.0000 0.0000 0.0000 -8.6475 0.0000 11.2076
#
#
#
# Elastic Compliance Matrix: (Units=1/GPa)
#
#
# Indices 1 2 3 4 5 6 
#
# 1 0.024368 -0.003013 0.002502 0.000000 0.009248 0.000000
# 2 -0.003013 0.021604 -0.002907 0.000000 0.001415 0.000000
# 3 0.002502 -0.002907 0.011533 0.000000 0.006829 0.000000
# 4 0.000000 0.000000 0.000000 -0.006941 0.000000 -0.005356
# 5 0.009248 0.001415 0.006829 0.000000 0.045431 0.000000
# 6 0.000000 0.000000 0.000000 -0.005356 0.000000 0.085093
#
#
# Mechanical properties :
#
#
# Convention : Reuss Voigt Hill
#
# Bulk Modulus (GPa) = 19.73567 25.54981 22.64274
# Shear Modulus (GPa) = 24.41258 -8.19214 8.11022
#
# Velocity S-wave (km/s) = 3.59718 -2.08379 2.07335
# Velocity P-wave (km/s) = 5.26439 2.78441 4.21110
#
# Compressibility (1/GPa) = 0.05066966
#
# Stress axis : x y z
#
# Youngs Moduli (GPa) = 41.03741 46.28720 86.70887
#
# Poissons Ratio (x) = 0.13947 -0.21696
# Poissons Ratio (y) = 0.12365 0.25203
# Poissons Ratio (z) = -0.10268 0.13454
#
# Static dielectric constant tensor:
#      x y z
#    x 1.706490 0.000000 0.015990 
#    y 0.000000 1.618050 0.000000 
#    z 0.015990 0.000000 1.775840 
# 
# From -- ./inp_files/67854.got.cif
#   From: 2010.05.17/outbox.cif.g08.bks.cpg/sg12_34_cif.got.tgz:67854.got - 2010.06.03 13:09:07.
