data_PCOD9204676
_publ_section_title
;
Structure prediction by ZEFSAII (Michael W. Deem and Ramdas Pophale) SiO2 
 PCOD9204676
Probable space group: C 2/M
;
_chemical_formula_sum "Si O2"
_cell_formula_units_Z 52
_cell_length_a 18.600684
_cell_length_b 17.439128
_cell_length_c 9.741600
_cell_angle_alpha 90.000000
_cell_angle_beta 134.780134
_cell_angle_gamma 90.000000
_cell_volume 2242.999371
_symmetry_space_group_name_H-M "C 2/M"
_symmetry_group_IT_number 12
_symmetry_cell_setting 'monoclinic'
loop_
_space_group_symop_operation_xyz
x,y,z
-x,y,-z
-x,-y,-z
x,-y,z
1/2+x,1/2+y,z
1/2-x,1/2+y,-z
1/2-x,1/2-y,-z
1/2+x,1/2-y,z
loop_
_atom_site_type_symbol
_atom_site_label
_atom_site_fract_x
_atom_site_fract_y
_atom_site_fract_z
Si Si1 0.500000 0.804987 0.000000
Si Si2 0.911834 0.088834 0.596097
Si Si3 0.107887 0.590292 0.496688
Si Si4 0.810326 0.410331 0.806700
Si Si5 0.171281 0.089144 0.217878
Si Si6 0.886180 0.353738 0.186357
Si Si7 0.423850 0.697966 0.133433
O O1 0.600150 0.858006 0.134838
O O2 0.489087 0.748361 0.113808
O O3 0.802869 0.111414 0.389619
O O4 0.902030 0.093580 0.749540
O O5 0.002915 0.144259 0.680360
O O6 0.930630 0.000000 0.585989
O O7 0.088854 0.500000 0.459550
O O8 0.215810 0.607281 0.573885
O O9 0.126470 0.613183 0.679807
O O10 0.005104 0.630307 0.313604
O O11 0.826022 0.500000 0.792426
O O12 0.821828 0.397364 0.985485
O O13 0.172073 0.000000 0.172992
O O14 0.143770 0.144563 0.056000
O O15 0.869167 0.262790 0.149892
#
# Coordination Sequence:
#
# PCOD9204676 Si02
#       7
#     4   8   8   8   8   8   8
#     4  10  21  32  49  78 114 152 174 224 285 330
#     4  10  21  37  59  85 116 155 191 231 281 337
#     4  10  21  41  65  84 108 149 199 240 279 335
#     4  10  21  35  54  83 115 149 187 229 284 344
#     4  10  21  37  61  85 110 154 200 236 273 332
#     4  10  22  37  59  87 113 150 182 238 298 335
#     4  11  21  37  55  83 119 149 189 232 283 337
#
# _framework density 23.183243000000001
#
# number of rings (size 3 to 8) (size 9 to 14) (size 15 to 20)
#    0.000    1.846    1.538    2.538    4.308    4.923 
#    0.000    1.538    0.000    0.000    0.000    8.615 
#    0.000    0.000    0.000    0.000    0.000    0.000 
#
# Total GULP energy -145413.938080 kJ/mol
# GULP energy per Si atom -5592.843772 kJ/mol
# Density = 2.313048 g / cm^3
# Si number density = 23.183243 Si / 1000 Ang^3
#
#
#
# Elastic Constant Matrix: (Units=GPa)
#
#
# Indices 1 2 3 4 5 6 
#
# 1 13.6844 7.9629 -0.3615 0.0000 3.3233 0.0000
# 2 7.9629 86.3517 52.1616 0.0000 29.0016 0.0000
# 3 -0.3615 52.1616 134.3675 0.0000 10.0727 0.0000
# 4 0.0000 0.0000 0.0000 105.1817 0.0000 36.4944
# 5 3.3233 29.0016 10.0727 0.0000 16.5327 0.0000
# 6 0.0000 0.0000 0.0000 36.4944 0.0000 -36.0914
#
#
#
# Elastic Compliance Matrix: (Units=1/GPa)
#
#
# Indices 1 2 3 4 5 6 
#
# 1 0.078877 -0.008354 0.003715 0.000000 -0.003463 0.000000
# 2 -0.008354 0.039054 -0.010660 0.000000 -0.060334 0.000000
# 3 0.003715 -0.010660 0.010735 0.000000 0.011413 0.000000
# 4 0.000000 0.000000 0.000000 0.007038 0.000000 0.007117
# 5 -0.003463 -0.060334 0.011413 0.000000 0.160067 0.000000
# 6 0.000000 0.000000 0.000000 0.007117 0.000000 -0.020511
#
#
# Mechanical properties :
#
#
# Convention : Reuss Voigt Hill
#
# Bulk Modulus (GPa) = 10.19722 39.32551 24.76136
# Shear Modulus (GPa) = 14.76896 28.76729 21.76812
#
# Velocity S-wave (km/s) = 2.52673 3.52641 3.06757
# Velocity P-wave (km/s) = 3.59452 5.79487 4.82188
#
# Compressibility (1/GPa) = 0.09806599
#
# Stress axis : x y z
#
# Youngs Moduli (GPa) = 12.67802 25.60560 93.15266
#
# Poissons Ratio (x) = 0.21392 -0.34606
# Poissons Ratio (y) = 0.10592 0.99304
# Poissons Ratio (z) = -0.04710 0.27297
#
# Static dielectric constant tensor:
#      x y z
#    x 1.977780 0.000000 -0.002090 
#    y 0.000000 1.887730 0.000000 
#    z -0.002090 0.000000 1.856950 
# 
# From -- ./inp_files/184360.got.cif
#   From: 2010.05.17/outbox.cif.g08.bks.cpg/sg12_93_cif.got.tgz:184360.got - 2010.06.03 13:09:07.
