data_PCOD9204584
_publ_section_title
;
Structure prediction by ZEFSAII (Michael W. Deem and Ramdas Pophale) SiO2 
 PCOD9204584
Probable space group: C 2/M
;
_chemical_formula_sum "Si O2"
_cell_formula_units_Z 60
_cell_length_a 25.546328
_cell_length_b 24.927002
_cell_length_c 7.680423
_cell_angle_alpha 90.000000
_cell_angle_beta 34.303098
_cell_angle_gamma 90.000000
_cell_volume 2756.335573
_symmetry_space_group_name_H-M "C 2/M"
_symmetry_group_IT_number 12
_symmetry_cell_setting 'monoclinic'
loop_
_space_group_symop_operation_xyz
x,y,z
-x,y,-z
-x,-y,-z
x,-y,z
1/2+x,1/2+y,z
1/2-x,1/2+y,-z
1/2-x,1/2-y,-z
1/2+x,1/2-y,z
loop_
_atom_site_type_symbol
_atom_site_label
_atom_site_fract_x
_atom_site_fract_y
_atom_site_fract_z
Si Si1 0.464181 0.058242 0.797252
Si Si2 0.605929 0.676407 0.145702
Si Si3 0.252277 0.094487 0.836022
Si Si4 0.908816 0.898050 0.136019
Si Si5 0.645358 0.500000 0.926021
Si Si6 0.889772 0.296111 0.774431
Si Si7 0.425504 0.844381 0.326599
Si Si8 0.214817 0.596947 0.858432
O O1 0.500000 0.060315 0.500000
O O2 0.511398 0.107910 0.763714
O O3 0.488749 0.000000 0.805492
O O4 0.353643 0.063234 0.076261
O O5 0.500000 0.672594 0.500000
O O6 0.634865 0.738086 0.086028
O O7 0.672125 0.638997 0.079498
O O8 0.609047 0.651805 0.944208
O O9 0.208008 0.046481 0.852297
O O10 0.336139 0.123634 0.502426
O O11 0.288002 0.079016 0.930910
O O12 0.818459 0.905642 0.504488
O O13 0.915517 0.952004 0.002283
O O14 0.000000 0.889957 0.000000
O O15 0.883506 0.304079 0.584065
O O16 0.000000 0.305106 0.500000
O O17 0.828897 0.343407 0.022835
O O18 0.500000 0.815601 0.000000
#
# Coordination Sequence:
#
# PCOD9204584 Si02
#       8
#     8   8   8   8   4   8   8   8
#     4  11  22  38  62  95 138 185 214 257 327 385
#     4  10  23  44  69  88 128 168 214 278 336 390
#     4  10  23  41  62  97 130 172 217 264 329 392
#     4  11  25  45  68 100 129 169 223 277 331 392
#     4  10  25  42  66  95 135 170 216 269 328 385
#     4  10  20  43  66  91 129 175 212 269 330 387
#     4  11  23  37  63  97 136 172 220 266 313 400
#     4  11  22  39  68  94 134 172 221 265 317 397
#
# _framework density 21.76803
#
# number of rings (size 3 to 8) (size 9 to 14) (size 15 to 20)
#    0.000    1.467    4.000    1.000    6.533    2.933 
#    0.000   18.000    0.000    0.000    0.000    0.000 
#    0.000    0.000    0.000    0.000    0.000    0.000 
#
# Total GULP energy -167102.054373 kJ/mol
# GULP energy per Si atom -5570.068479 kJ/mol
# Density = 2.171849 g / cm^3
# Si number density = 21.768030 Si / 1000 Ang^3
#
#
#
# Elastic Constant Matrix: (Units=GPa)
#
#
# Indices 1 2 3 4 5 6 
#
# 1 69.5914 25.7006 -10.0533 0.0000 -11.7715 0.0000
# 2 25.7006 123.6993 -6.8934 0.0000 -0.3379 0.0000
# 3 -10.0533 -6.8934 54.7595 0.0000 -7.4863 0.0000
# 4 0.0000 0.0000 0.0000 -2.2964 0.0000 -7.1649
# 5 -11.7715 -0.3379 -7.4863 0.0000 30.2680 0.0000
# 6 0.0000 0.0000 0.0000 -7.1649 0.0000 5.8011
#
#
#
# Elastic Compliance Matrix: (Units=1/GPa)
#
#
# Indices 1 2 3 4 5 6 
#
# 1 0.017483 -0.003397 0.003836 0.000000 0.007710 0.000000
# 2 -0.003397 0.008805 0.000329 0.000000 -0.001142 0.000000
# 3 0.003836 0.000329 0.019884 0.000000 0.006414 0.000000
# 4 0.000000 0.000000 0.000000 -0.089722 0.000000 -0.110814
# 5 0.007710 -0.001142 0.006414 0.000000 0.037610 0.000000
# 6 0.000000 0.000000 0.000000 -0.110814 0.000000 0.035516
#
#
# Mechanical properties :
#
#
# Convention : Reuss Voigt Hill
#
# Bulk Modulus (GPa) = 20.96167 29.50644 25.23406
# Shear Modulus (GPa) = 113.77892 22.70763 68.24327
#
# Velocity S-wave (km/s) = 7.23756 3.23331 5.60520
# Velocity P-wave (km/s) = 8.91591 5.24628 7.31495
#
# Compressibility (1/GPa) = 0.04770613
#
# Stress axis : x y z
#
# Youngs Moduli (GPa) = 57.19972 113.56932 50.29150
#
# Poissons Ratio (x) = 0.38585 -0.19292
# Poissons Ratio (y) = 0.19433 -0.01653
# Poissons Ratio (z) = -0.21942 -0.03732
#
# Static dielectric constant tensor:
#      x y z
#    x 1.847030 0.000000 0.032460 
#    y 0.000000 1.771630 0.000000 
#    z 0.032460 0.000000 1.832390 
# 
# From -- ./inp_files/106981.got.cif
#   From: 2010.05.17/outbox.cif.g08.bks.cpg/sg12_54_cif.got.tgz:106981.got - 2010.06.03 13:09:07.
