data_PCOD9204531
_publ_section_title
;
Structure prediction by ZEFSAII (Michael W. Deem and Ramdas Pophale) SiO2 
 PCOD9204531
Probable space group: C 2/M
;
_chemical_formula_sum "Si O2"
_cell_formula_units_Z 40
_cell_length_a 10.423417
_cell_length_b 27.736408
_cell_length_c 15.884320
_cell_angle_alpha 90.000000
_cell_angle_beta 22.947251
_cell_angle_gamma 90.000000
_cell_volume 1790.456690
_symmetry_space_group_name_H-M "C 2/M"
_symmetry_group_IT_number 12
_symmetry_cell_setting 'monoclinic'
loop_
_space_group_symop_operation_xyz
x,y,z
-x,y,-z
-x,-y,-z
x,-y,z
1/2+x,1/2+y,z
1/2-x,1/2+y,-z
1/2-x,1/2-y,-z
1/2+x,1/2-y,z
loop_
_atom_site_type_symbol
_atom_site_label
_atom_site_fract_x
_atom_site_fract_y
_atom_site_fract_z
Si Si1 0.335121 0.237371 0.851613
Si Si2 0.335722 0.920353 0.939023
Si Si3 0.372826 0.658426 0.806193
Si Si4 0.775932 0.637839 0.406815
Si Si5 0.874198 0.000000 0.292997
Si Si6 0.741684 0.500000 0.232115
O O1 0.514466 0.287595 0.720264
O O2 0.552569 0.190124 0.706307
O O3 0.250000 0.250000 0.000000
O O4 0.000000 0.231580 0.000000
O O5 0.205128 0.871378 0.062852
O O6 0.452362 0.902747 0.777749
O O7 0.047891 0.955746 0.140160
O O8 0.655524 0.951565 0.779976
O O9 0.596497 0.630691 0.604051
O O10 0.000000 0.664249 0.000000
O O11 0.500000 0.636535 0.500000
O O12 0.500000 0.000000 0.500000
O O13 0.922324 0.000000 0.366245
O O14 0.000000 0.500000 0.000000
#
# Coordination Sequence:
#
# PCOD9204531 Si02
#       6
#     8   8   8   8   4   4
#     4  11  23  44  66 100 146 186 233 290 343 412
#     4  10  20  42  66  96 127 170 232 275 336 418
#     4  11  20  38  65  95 134 173 228 281 327 403
#     4  12  23  38  68  99 131 181 229 283 342 402
#     4  10  22  42  68  97 135 172 215 290 365 412
#     4   8  18  36  68  91 126 167 223 279 340 405
#
# _framework density 22.340668999999998
#
# number of rings (size 3 to 8) (size 9 to 14) (size 15 to 20)
#    0.000    1.600    4.000    3.600    0.000    0.000 
#    3.600    7.000    0.000    1.200    0.000    0.000 
#    0.000    0.000    0.000    0.000    0.000    0.000 
#
# Total GULP energy -111388.192443 kJ/mol
# GULP energy per Si atom -5569.409622 kJ/mol
# Density = 2.228982 g / cm^3
# Si number density = 22.340669 Si / 1000 Ang^3
#
#
#
# Elastic Constant Matrix: (Units=GPa)
#
#
# Indices 1 2 3 4 5 6 
#
# 1 50.8073 -3.2722 41.4067 -0.0003 5.1976 0.0004
# 2 -3.2722 109.3459 37.0070 -0.0004 0.2343 -0.0006
# 3 41.4067 37.0070 107.1129 0.0003 16.0163 0.0058
# 4 -0.0003 -0.0004 0.0003 35.8806 -0.0004 8.1714
# 5 5.1976 0.2343 16.0163 -0.0004 45.2344 -0.0012
# 6 0.0004 -0.0006 0.0058 8.1714 -0.0012 26.0194
#
#
#
# Elastic Compliance Matrix: (Units=1/GPa)
#
#
# Indices 1 2 3 4 5 6 
#
# 1 0.031735 0.005857 -0.014510 0.000000 0.001461 0.000003
# 2 0.005857 0.011508 -0.006473 0.000000 0.001559 0.000002
# 3 -0.014510 -0.006473 0.017874 0.000001 -0.004628 -0.000004
# 4 0.000000 0.000000 0.000001 0.030017 0.000000 -0.009427
# 5 0.001461 0.001559 -0.004628 0.000000 0.023570 0.000002
# 6 0.000003 0.000002 -0.000004 -0.009427 0.000002 0.041393
#
#
# Mechanical properties :
#
#
# Convention : Reuss Voigt Hill
#
# Bulk Modulus (GPa) = 32.39946 46.39436 39.39691
# Shear Modulus (GPa) = 25.42747 34.23519 29.83133
#
# Velocity S-wave (km/s) = 3.37734 3.91886 3.65813
# Velocity P-wave (km/s) = 5.45367 6.42561 5.95948
#
# Compressibility (1/GPa) = 0.03086471
#
# Stress axis : x y z
#
# Youngs Moduli (GPa) = 31.51065 86.89537 55.94841
#
# Poissons Ratio (x) = -0.50897 0.81181
# Poissons Ratio (y) = -0.18457 0.36218
# Poissons Ratio (z) = 0.45722 0.56251
#
# Static dielectric constant tensor:
#      x y z
#    x 1.952010 0.000050 -0.023700 
#    y 0.000050 1.387560 -0.000010 
#    z -0.023700 -0.000010 1.811030 
# 
# From -- ./inp_files/266181.got.cif
#   From: 2010.05.17/outbox.cif.g08.bks.cpg/sg12_134_cif.got.tgz:266181.got - 2010.06.03 13:09:07.
