data_PCOD9204020
_publ_section_title
;
Structure prediction by ZEFSAII (Michael W. Deem and Ramdas Pophale) SiO2 
 PCOD9204020
Probable space group: C 2/M
;
_chemical_formula_sum "Si O2"
_cell_formula_units_Z 40
_cell_length_a 22.025832
_cell_length_b 17.495868
_cell_length_c 5.424189
_cell_angle_alpha 90.000000
_cell_angle_beta 118.029007
_cell_angle_gamma 90.000000
_cell_volume 1845.102845
_symmetry_space_group_name_H-M "C 2/M"
_symmetry_group_IT_number 12
_symmetry_cell_setting 'monoclinic'
loop_
_space_group_symop_operation_xyz
x,y,z
-x,y,-z
-x,-y,-z
x,-y,z
1/2+x,1/2+y,z
1/2-x,1/2+y,-z
1/2-x,1/2-y,-z
1/2+x,1/2-y,z
loop_
_atom_site_type_symbol
_atom_site_label
_atom_site_fract_x
_atom_site_fract_y
_atom_site_fract_z
Si Si1 0.165558 0.211326 0.523275
Si Si2 0.933275 0.867264 0.018278
Si Si3 0.726314 0.500000 0.503471
Si Si4 0.801554 0.348960 0.781586
Si Si5 0.364555 0.500000 0.165044
Si Si6 0.069654 0.709869 0.725905
O O1 0.132449 0.146392 0.285747
O O2 0.186842 0.284091 0.401215
O O3 0.232617 0.179701 0.791847
O O4 0.107522 0.242547 0.587500
O O5 0.910824 0.924445 0.194637
O O6 0.949437 0.780066 0.129566
O O7 0.000000 0.897349 0.000000
O O8 0.776876 0.427691 0.623268
O O9 0.689276 0.500000 0.167017
O O10 0.673917 0.500000 0.643577
O O11 0.872572 0.347278 0.063537
O O12 0.000000 0.672322 0.500000
#
# Coordination Sequence:
#
# PCOD9204020 Si02
#       6
#     8   8   4   8   4   8
#     4  10  20  40  63  94 124 168 222 272 328 387
#     4  11  22  39  61  96 134 176 211 269 327 403
#     4  12  26  46  66  97 133 181 221 281 328 393
#     4  10  23  38  66  92 126 169 225 274 327 392
#     4  12  27  42  66  96 142 178 223 259 333 404
#     4  11  22  38  66  94 128 168 221 279 334 387
#
# _framework density 21.679009000000001
#
# number of rings (size 3 to 8) (size 9 to 14) (size 15 to 20)
#    0.000    1.200    4.000    2.100    2.800    0.000 
#    0.000    2.000    0.000    1.200    0.000    0.000 
#    0.000    0.000    0.000    0.000    0.000    0.000 
#
# Total GULP energy -111657.001767 kJ/mol
# GULP energy per Si atom -5582.850088 kJ/mol
# Density = 2.162967 g / cm^3
# Si number density = 21.679009 Si / 1000 Ang^3
#
#
#
# Elastic Constant Matrix: (Units=GPa)
#
#
# Indices 1 2 3 4 5 6 
#
# 1 106.8734 16.4601 37.7318 0.0000 20.7700 0.0000
# 2 16.4601 62.0187 14.0924 0.0000 16.1481 0.0000
# 3 37.7318 14.0924 76.3649 0.0000 28.2427 0.0000
# 4 0.0000 0.0000 0.0000 44.8209 0.0000 -106.9893
# 5 20.7700 16.1481 28.2427 0.0000 50.7809 0.0000
# 6 0.0000 0.0000 0.0000 -106.9893 0.0000 505.9925
#
#
#
# Elastic Compliance Matrix: (Units=1/GPa)
#
#
# Indices 1 2 3 4 5 6 
#
# 1 0.011622 -0.001575 -0.004884 0.000000 -0.001537 0.000000
# 2 -0.001575 0.017927 -0.000831 0.000000 -0.004595 0.000000
# 3 -0.004884 -0.000831 0.018664 0.000000 -0.008119 0.000000
# 4 0.000000 0.000000 0.000000 0.045048 0.000000 0.009525
# 5 -0.001537 -0.004595 -0.008119 0.000000 0.026297 0.000000
# 6 0.000000 0.000000 0.000000 0.009525 0.000000 0.003990
#
#
# Mechanical properties :
#
#
# Convention : Reuss Voigt Hill
#
# Bulk Modulus (GPa) = 29.73117 42.42507 36.07812
# Shear Modulus (GPa) = 33.48086 132.11705 82.79896
#
# Velocity S-wave (km/s) = 3.93414 7.81503 6.18676
# Velocity P-wave (km/s) = 5.86350 10.05212 8.22878
#
# Compressibility (1/GPa) = 0.03363473
#
# Stress axis : x y z
#
# Youngs Moduli (GPa) = 86.04210 55.78108 53.57939
#
# Poissons Ratio (x) = 0.08784 0.26166
# Poissons Ratio (y) = 0.13550 0.04452
# Poissons Ratio (z) = 0.42019 0.04635
#
# Static dielectric constant tensor:
#      x y z
#    x 1.861910 0.000000 0.004210 
#    y 0.000000 1.789910 0.000000 
#    z 0.004210 0.000000 1.870860 
# 
# From -- ./inp_files/15170.got.cif
#   From: 2010.05.17/outbox.cif.g08.bks.cpg/sg12_8_cif.got.tgz:15170.got - 2010.06.03 13:09:07.
