data_PCOD9204699
_publ_section_title
;
Structure prediction by ZEFSAII (Michael W. Deem and Ramdas Pophale) SiO2 
 PCOD9204699
Probable space group: C 2/M
;
_chemical_formula_sum "Si O2"
_cell_formula_units_Z 56
_cell_length_a 13.700630
_cell_length_b 28.802716
_cell_length_c 12.001590
_cell_angle_alpha 90.000000
_cell_angle_beta 147.273121
_cell_angle_gamma 90.000000
_cell_volume 2560.453857
_symmetry_space_group_name_H-M "C 2/M"
_symmetry_group_IT_number 12
_symmetry_cell_setting 'monoclinic'
loop_
_space_group_symop_operation_xyz
x,y,z
-x,y,-z
-x,-y,-z
x,-y,z
1/2+x,1/2+y,z
1/2-x,1/2+y,-z
1/2-x,1/2-y,-z
1/2+x,1/2-y,z
loop_
_atom_site_type_symbol
_atom_site_label
_atom_site_fract_x
_atom_site_fract_y
_atom_site_fract_z
Si Si1 0.929913 0.853273 0.304590
Si Si2 0.257366 0.298362 0.447715
Si Si3 0.271523 0.447708 0.192165
Si Si4 0.285445 0.336866 0.816052
Si Si5 0.870536 0.447895 0.702945
Si Si6 0.705708 0.228628 0.159537
Si Si7 0.045328 0.363581 0.369106
O O1 0.865215 0.905180 0.220156
O O2 0.781689 0.812203 0.156027
O O3 0.000000 0.856929 0.500000
O O4 0.086456 0.834921 0.374879
O O5 0.250000 0.250000 0.500000
O O6 0.304981 0.281811 0.370463
O O7 0.076266 0.326156 0.300339
O O8 0.346667 0.500000 0.252245
O O9 0.253452 0.436812 0.307792
O O10 0.069990 0.448809 0.948922
O O11 0.272037 0.282946 0.844459
O O12 0.172277 0.344843 0.592441
O O13 0.160634 0.365116 0.784323
O O14 0.500000 0.346457 0.000000
O O15 0.825171 0.500000 0.621894
O O16 0.882518 0.411356 0.614714
O O17 0.500000 0.221767 0.000000
#
# Coordination Sequence:
#
# PCOD9204699 Si02
#       7
#     8   8   8   8   8   8   8
#     4  10  21  32  54  84 119 161 203 246 296 368
#     4  11  21  36  55  86 119 156 205 252 304 359
#     4   9  19  37  59  89 130 162 193 247 310 373
#     4  10  23  43  60  84 119 165 205 257 315 360
#     4   9  19  37  63  93 123 159 201 247 310 380
#     4  10  21  37  54  80 122 160 201 247 299 368
#     4  11  22  39  66  85 119 163 202 258 309 369
#
# _framework density 21.871123000000001
#
# number of rings (size 3 to 8) (size 9 to 14) (size 15 to 20)
#    0.000    2.000    1.429    3.429    8.000    1.429 
#    0.000    4.286    0.000    1.714    0.000    0.000 
#    0.000    0.000    0.000    0.000    0.000    0.000 
#
# Total GULP energy -156084.355706 kJ/mol
# GULP energy per Si atom -5574.441275 kJ/mol
# Density = 2.182134 g / cm^3
# Si number density = 21.871123 Si / 1000 Ang^3
#
#
#
# Elastic Constant Matrix: (Units=GPa)
#
#
# Indices 1 2 3 4 5 6 
#
# 1 88.1787 64.6121 21.8672 0.0000 23.8112 0.0000
# 2 64.6121 161.9091 40.0795 0.0000 24.6632 0.0000
# 3 21.8672 40.0795 73.7383 0.0000 19.3340 0.0000
# 4 0.0000 0.0000 0.0000 26.6348 0.0000 10.0534
# 5 23.8112 24.6632 19.3340 0.0000 27.3710 0.0000
# 6 0.0000 0.0000 0.0000 10.0534 0.0000 -33.5632
#
#
#
# Elastic Compliance Matrix: (Units=1/GPa)
#
#
# Indices 1 2 3 4 5 6 
#
# 1 0.018497 -0.005819 0.000640 0.000000 -0.011300 0.000000
# 2 -0.005819 0.009456 -0.003077 0.000000 -0.001285 0.000000
# 3 0.000640 -0.003077 0.017751 0.000000 -0.010323 0.000000
# 4 0.000000 0.000000 0.000000 0.033731 0.000000 0.010104
# 5 -0.011300 -0.001285 -0.010323 0.000000 0.054815 0.000000
# 6 0.000000 0.000000 0.000000 0.010104 0.000000 -0.026768
#
#
# Mechanical properties :
#
#
# Convention : Reuss Voigt Hill
#
# Bulk Modulus (GPa) = 34.25533 64.10484 49.18008
# Shear Modulus (GPa) = 37.39068 17.23969 27.31518
#
# Velocity S-wave (km/s) = 4.13921 2.81061 3.53783
# Velocity P-wave (km/s) = 6.20809 6.31717 6.26287
#
# Compressibility (1/GPa) = 0.02919254
#
# Stress axis : x y z
#
# Youngs Moduli (GPa) = 54.06343 105.75605 56.33561
#
# Poissons Ratio (x) = 0.61534 -0.03607
# Poissons Ratio (y) = 0.31457 0.17335
# Poissons Ratio (z) = -0.03462 0.32543
#
# Static dielectric constant tensor:
#      x y z
#    x 1.873460 0.000000 0.009000 
#    y 0.000000 1.309840 0.000000 
#    z 0.009000 0.000000 1.894110 
# 
# From -- ./inp_files/219136.got.cif
#   From: 2010.05.17/outbox.cif.g08.bks.cpg/sg12_110_cif.got.tgz:219136.got - 2010.06.03 13:09:07.
