data_PCOD9204898
_publ_section_title
;
Structure prediction by ZEFSAII (Michael W. Deem and Ramdas Pophale) SiO2 
 PCOD9204898
Probable space group: C 2/M
;
_chemical_formula_sum "Si O2"
_cell_formula_units_Z 36
_cell_length_a 34.698385
_cell_length_b 7.759100
_cell_length_c 10.114978
_cell_angle_alpha 90.000000
_cell_angle_beta 34.398913
_cell_angle_gamma 90.000000
_cell_volume 1538.496822
_symmetry_space_group_name_H-M "C 2/M"
_symmetry_group_IT_number 12
_symmetry_cell_setting 'monoclinic'
loop_
_space_group_symop_operation_xyz
x,y,z
-x,y,-z
-x,-y,-z
x,-y,z
1/2+x,1/2+y,z
1/2-x,1/2+y,-z
1/2-x,1/2-y,-z
1/2+x,1/2-y,z
loop_
_atom_site_type_symbol
_atom_site_label
_atom_site_fract_x
_atom_site_fract_y
_atom_site_fract_z
Si Si1 0.361705 0.500000 0.187322
Si Si2 0.243545 0.000000 0.731185
Si Si3 0.445388 0.803348 0.043358
Si Si4 0.937955 0.694184 0.497666
Si Si5 0.092819 0.000000 0.228223
Si Si6 0.698238 0.296573 0.266821
O O1 0.384612 0.668941 0.200428
O O2 0.411131 0.500000 0.917641
O O3 0.286884 0.500000 0.331877
O O4 0.281503 0.171464 0.670239
O O5 0.174446 0.000000 0.015590
O O6 0.491135 0.806203 0.781281
O O7 0.423179 0.000000 0.134216
O O8 0.500000 0.750190 0.000000
O O9 0.924198 0.500000 0.584300
O O10 0.934866 0.832057 0.622123
O O11 0.877481 0.748085 0.568300
O O12 0.703250 0.500000 0.282216
O O13 0.750000 0.250000 0.000000
#
# Coordination Sequence:
#
# PCOD9204898 Si02
#       6
#     4   4   8   8   4   8
#     4  10  22  39  59  81 120 152 178 232 281 359
#     4  10  22  33  51  83 117 156 173 218 281 337
#     4  10  23  41  61  84 104 147 199 244 278 319
#     4  11  20  33  57  85 116 148 187 234 278 326
#     4  10  21  34  50  90 118 152 178 220 284 349
#     4  12  18  30  52  80 116 146 185 224 267 335
#
# _framework density 23.399463999999998
#
# number of rings (size 3 to 8) (size 9 to 14) (size 15 to 20)
#    0.667    0.667    5.556    1.000    0.000    3.556 
#    0.000    2.222    0.000    1.333    0.000    0.000 
#    0.000    0.000    0.000    0.000    0.000    0.000 
#
# Total GULP energy -100722.457604 kJ/mol
# GULP energy per Si atom -5595.692089 kJ/mol
# Density = 2.334621 g / cm^3
# Si number density = 23.399464 Si / 1000 Ang^3
#
#
#
# Elastic Constant Matrix: (Units=GPa)
#
#
# Indices 1 2 3 4 5 6 
#
# 1 151.0571 91.3547 5.1358 0.0000 -10.9988 0.0000
# 2 91.3547 220.6923 35.0594 0.0000 -5.0694 0.0000
# 3 5.1358 35.0594 81.1306 0.0000 -3.3799 0.0000
# 4 0.0000 0.0000 0.0000 34.4763 0.0000 -24.1949
# 5 -10.9988 -5.0694 -3.3799 0.0000 30.0810 0.0000
# 6 0.0000 0.0000 0.0000 -24.1949 0.0000 110.4817
#
#
#
# Elastic Compliance Matrix: (Units=1/GPa)
#
#
# Indices 1 2 3 4 5 6 
#
# 1 0.009155 -0.003920 0.001232 0.000000 0.002825 0.000000
# 2 -0.003920 0.006554 -0.002610 0.000000 -0.000622 0.000000
# 3 0.001232 -0.002610 0.013439 0.000000 0.001521 0.000000
# 4 0.000000 0.000000 0.000000 0.034273 0.000000 0.007506
# 5 0.002825 -0.000622 0.001521 0.000000 0.034343 0.000000
# 6 0.000000 0.000000 0.000000 0.007506 0.000000 0.010695
#
#
# Mechanical properties :
#
#
# Convention : Reuss Voigt Hill
#
# Bulk Modulus (GPa) = 53.90321 79.55333 66.72827
# Shear Modulus (GPa) = 39.92366 56.42979 48.17672
#
# Velocity S-wave (km/s) = 4.13507 4.91612 4.54241
# Velocity P-wave (km/s) = 6.77381 8.14224 7.48934
#
# Compressibility (1/GPa) = 0.01855177
#
# Stress axis : x y z
#
# Youngs Moduli (GPa) = 109.23232 152.56880 74.40979
#
# Poissons Ratio (x) = 0.59814 -0.09170
# Poissons Ratio (y) = 0.42824 0.19422
# Poissons Ratio (z) = -0.13461 0.39823
#
# Static dielectric constant tensor:
#      x y z
#    x 1.887840 0.000000 0.024350 
#    y 0.000000 1.835150 0.000000 
#    z 0.024350 0.000000 1.897030 
# 
# From -- ./inp_files/107765.got.cif
#   From: 2010.05.17/outbox.cif.g08.bks.cpg/sg12_54_cif.got.tgz:107765.got - 2010.06.03 13:09:07.
