data_PCOD9204510
_publ_section_title
;
Structure prediction by ZEFSAII (Michael W. Deem and Ramdas Pophale) SiO2 
 PCOD9204510
Probable space group: C 2/M
;
_chemical_formula_sum "Si O2"
_cell_formula_units_Z 48
_cell_length_a 33.072696
_cell_length_b 8.168347
_cell_length_c 9.141404
_cell_angle_alpha 90.000000
_cell_angle_beta 86.272601
_cell_angle_gamma 90.000000
_cell_volume 2464.319538
_symmetry_space_group_name_H-M "C 2/M"
_symmetry_group_IT_number 12
_symmetry_cell_setting 'monoclinic'
loop_
_space_group_symop_operation_xyz
x,y,z
-x,y,-z
-x,-y,-z
x,-y,z
1/2+x,1/2+y,z
1/2-x,1/2+y,-z
1/2-x,1/2-y,-z
1/2+x,1/2-y,z
loop_
_atom_site_type_symbol
_atom_site_label
_atom_site_fract_x
_atom_site_fract_y
_atom_site_fract_z
Si Si1 0.178238 0.252240 0.757194
Si Si2 0.510942 0.803497 0.664248
Si Si3 0.675171 0.000000 0.496282
Si Si4 0.589547 0.199098 0.821800
Si Si5 0.689051 0.000000 0.014455
Si Si6 0.749548 0.500000 0.741748
Si Si7 0.886153 0.500000 0.745026
Si Si8 0.935260 0.191185 0.850002
O O1 0.176025 0.350180 0.606831
O O2 0.131305 0.202550 0.790173
O O3 0.218107 0.145890 0.732153
O O4 0.186734 0.349742 0.904617
O O5 0.500000 0.759544 0.500000
O O6 0.557041 0.772234 0.701626
O O7 0.480955 0.711824 0.781808
O O8 0.504388 0.000000 0.681705
O O9 0.635139 0.000000 0.407100
O O10 0.714374 0.000000 0.383605
O O11 0.598164 0.000000 0.824449
O O12 0.570298 0.253473 0.980522
O O13 0.728393 0.000000 0.106686
O O14 0.650082 0.000000 0.128141
O O15 0.910915 0.332071 0.765465
O O16 0.922631 0.000000 0.835310
#
# Coordination Sequence:
#
# PCOD9204510 Si02
#       8
#     8   8   4   8   4   4   4   8
#     4  11  21  40  64  95 124 168 217 268 319 397
#     4  10  23  40  66  94 130 178 221 263 322 389
#     4  10  24  42  67  84 133 174 209 254 348 386
#     4  11  21  40  66  91 127 174 222 267 325 380
#     4  10  20  42  65  90 127 173 210 266 329 384
#     4  11  24  38  64  98 128 164 213 275 325 397
#     4  11  22  44  66  94 133 172 215 276 318 387
#     4  12  24  41  66  97 132 171 223 267 326 379
#
# _framework density 19.477992
#
# number of rings (size 3 to 8) (size 9 to 14) (size 15 to 20)
#    0.000    1.167    5.000    1.500    3.500    3.000 
#    1.500    0.000    3.667    0.000    0.000    0.000 
#    0.000    0.000    0.000    0.000    0.000    0.000 
#
# Total GULP energy -133863.941234 kJ/mol
# GULP energy per Si atom -5577.664218 kJ/mol
# Density = 1.943366 g / cm^3
# Si number density = 19.477992 Si / 1000 Ang^3
#
#
#
# Elastic Constant Matrix: (Units=GPa)
#
#
# Indices 1 2 3 4 5 6 
#
# 1 119.7482 31.2674 60.2594 0.0000 16.3342 0.0000
# 2 31.2674 70.7128 21.7418 0.0000 14.7986 0.0000
# 3 60.2594 21.7418 119.9839 0.0000 22.0428 0.0000
# 4 0.0000 0.0000 0.0000 41.8780 0.0000 -3.5367
# 5 16.3342 14.7986 22.0428 0.0000 40.5519 0.0000
# 6 0.0000 0.0000 0.0000 -3.5367 0.0000 112.1521
#
#
#
# Elastic Compliance Matrix: (Units=1/GPa)
#
#
# Indices 1 2 3 4 5 6 
#
# 1 0.012023 -0.003554 -0.005269 0.000000 -0.000682 0.000000
# 2 -0.003554 0.016780 -0.000438 0.000000 -0.004454 0.000000
# 3 -0.005269 -0.000438 0.011821 0.000000 -0.004144 0.000000
# 4 0.000000 0.000000 0.000000 0.023943 0.000000 0.000755
# 5 -0.000682 -0.004454 -0.004144 0.000000 0.028812 0.000000
# 6 0.000000 0.000000 0.000000 0.000755 0.000000 0.008940
#
#
# Mechanical properties :
#
#
# Convention : Reuss Voigt Hill
#
# Bulk Modulus (GPa) = 45.24152 59.66466 52.45309
# Shear Modulus (GPa) = 38.99907 52.06149 45.53028
#
# Velocity S-wave (km/s) = 4.47946 5.17556 4.84004
# Velocity P-wave (km/s) = 7.07330 8.14945 7.63037
#
# Compressibility (1/GPa) = 0.02210359
#
# Stress axis : x y z
#
# Youngs Moduli (GPa) = 83.17168 59.59581 84.59263
#
# Poissons Ratio (x) = 0.21178 0.44574
# Poissons Ratio (y) = 0.29556 0.03702
# Poissons Ratio (z) = 0.43825 0.02608
#
# Static dielectric constant tensor:
#      x y z
#    x 1.672670 0.000000 0.001630 
#    y 0.000000 1.675930 0.000000 
#    z 0.001630 0.000000 1.646340 
# 
# From -- ./inp_files/108861.got.cif
#   From: 2010.05.17/outbox.cif.g08.bks.cpg/sg12_55_cif.got.tgz:108861.got - 2010.06.03 13:09:07.
