data_PCOD9204118
_publ_section_title
;
Structure prediction by ZEFSAII (Michael W. Deem and Ramdas Pophale) SiO2 
 PCOD9204118
Probable space group: C 2/M
;
_chemical_formula_sum "Si O2"
_cell_formula_units_Z 40
_cell_length_a 23.038525
_cell_length_b 9.078625
_cell_length_c 10.025542
_cell_angle_alpha 90.000000
_cell_angle_beta 90.264928
_cell_angle_gamma 90.000000
_cell_volume 2096.901191
_symmetry_space_group_name_H-M "C 2/M"
_symmetry_group_IT_number 12
_symmetry_cell_setting 'monoclinic'
loop_
_space_group_symop_operation_xyz
x,y,z
-x,y,-z
-x,-y,-z
x,-y,z
1/2+x,1/2+y,z
1/2-x,1/2+y,-z
1/2-x,1/2-y,-z
1/2+x,1/2-y,z
loop_
_atom_site_type_symbol
_atom_site_label
_atom_site_fract_x
_atom_site_fract_y
_atom_site_fract_z
Si Si1 0.378260 0.826314 0.204296
Si Si2 0.381223 0.676120 0.704637
Si Si3 0.810981 0.674245 0.473052
Si Si4 0.188189 0.824400 0.029661
Si Si5 0.998614 0.323180 0.657890
O O1 0.331410 0.806133 0.321610
O O2 0.440641 0.789591 0.269061
O O3 0.378942 0.000000 0.168612
O O4 0.358191 0.731597 0.079228
O O5 0.382872 0.500000 0.690257
O O6 0.357327 0.751941 0.571245
O O7 0.337565 0.712413 0.825066
O O8 0.445410 0.739917 0.726202
O O9 0.808127 0.500000 0.499272
O O10 0.750000 0.750000 0.500000
O O11 0.194981 0.000000 0.022178
O O12 0.250000 0.750000 0.000000
O O13 0.989687 0.500000 0.664484
O O14 0.000000 0.284249 0.500000
#
# Coordination Sequence:
#
# PCOD9204118 Si02
#       5
#     8   8   8   8   8
#     4  10  22  40  63  89 121 159 202 251 304 360
#     4  11  24  40  60  90 124 161 202 251 306 361
#     4  11  22  38  60  89 121 156 203 256 304 362
#     4  11  25  43  62  88 125 163 205 252 303 362
#     4  10  20  40  65  91 123 160 203 252 303 359
#
# _framework density 19.075768
#
# number of rings (size 3 to 8) (size 9 to 14) (size 15 to 20)
#    0.000    1.400    2.000    3.000    0.000   11.600 
#    0.000    4.000    0.000    0.000    0.000    0.000 
#    0.000    0.000    0.000    0.000    0.000    0.000 
#
# Total GULP energy -111808.311041 kJ/mol
# GULP energy per Si atom -5590.415552 kJ/mol
# Density = 1.903235 g / cm^3
# Si number density = 19.075768 Si / 1000 Ang^3
#
#
#
# Elastic Constant Matrix: (Units=GPa)
#
#
# Indices 1 2 3 4 5 6 
#
# 1 59.5277 6.8401 -14.2122 0.0000 -11.4133 0.0000
# 2 6.8401 30.6885 21.8315 0.0000 -11.7171 0.0000
# 3 -14.2122 21.8315 49.4749 0.0000 -0.3419 0.0000
# 4 0.0000 0.0000 0.0000 33.0509 0.0000 1.2600
# 5 -11.4133 -11.7171 -0.3419 0.0000 30.9287 0.0000
# 6 0.0000 0.0000 0.0000 1.2600 0.0000 38.1926
#
#
#
# Elastic Compliance Matrix: (Units=1/GPa)
#
#
# Indices 1 2 3 4 5 6 
#
# 1 0.021494 -0.011314 0.011193 0.000000 0.003769 0.000000
# 2 -0.011314 0.065731 -0.032114 0.000000 0.020372 0.000000
# 3 0.011193 -0.032114 0.037546 0.000000 -0.007621 0.000000
# 4 0.000000 0.000000 0.000000 0.030294 0.000000 -0.000999
# 5 0.003769 0.020372 -0.007621 0.000000 0.041357 0.000000
# 6 0.000000 0.000000 0.000000 -0.000999 0.000000 0.026216
#
#
# Mechanical properties :
#
#
# Convention : Reuss Voigt Hill
#
# Bulk Modulus (GPa) = 16.58377 18.73441 17.65909
# Shear Modulus (GPa) = 16.27561 28.78323 22.52942
#
# Velocity S-wave (km/s) = 2.92414 3.88866 3.44037
# Velocity P-wave (km/s) = 4.48479 5.47764 5.00589
#
# Compressibility (1/GPa) = 0.06029993
#
# Stress axis : x y z
#
# Youngs Moduli (GPa) = 46.52471 15.21355 26.63423
#
# Poissons Ratio (x) = 0.17213 -0.29812
# Poissons Ratio (y) = 0.52639 0.85533
# Poissons Ratio (z) = -0.52075 0.48857
#
# Static dielectric constant tensor:
#      x y z
#    x 1.727390 0.000000 0.043420 
#    y 0.000000 1.631020 0.000000 
#    z 0.043420 0.000000 1.669800 
# 
# From -- ./inp_files/92820.got.cif
#   From: 2010.05.17/outbox.cif.g08.bks.cpg/sg12_47_cif.got.tgz:92820.got - 2010.06.03 13:09:07.
