data_PCOD9204279
_publ_section_title
;
Structure prediction by ZEFSAII (Michael W. Deem and Ramdas Pophale) SiO2 
 PCOD9204279
Probable space group: C 2/M
;
_chemical_formula_sum "Si O2"
_cell_formula_units_Z 56
_cell_length_a 19.000830
_cell_length_b 21.756399
_cell_length_c 16.515562
_cell_angle_alpha 90.000000
_cell_angle_beta 22.156565
_cell_angle_gamma 90.000000
_cell_volume 2574.863129
_symmetry_space_group_name_H-M "C 2/M"
_symmetry_group_IT_number 12
_symmetry_cell_setting 'monoclinic'
loop_
_space_group_symop_operation_xyz
x,y,z
-x,y,-z
-x,-y,-z
x,-y,z
1/2+x,1/2+y,z
1/2-x,1/2+y,-z
1/2-x,1/2-y,-z
1/2+x,1/2-y,z
loop_
_atom_site_type_symbol
_atom_site_label
_atom_site_fract_x
_atom_site_fract_y
_atom_site_fract_z
Si Si1 0.781003 0.654003 0.546125
Si Si2 0.528955 0.072046 0.788005
Si Si3 0.613741 0.751389 0.222533
Si Si4 0.409636 0.318832 0.011198
Si Si5 0.760647 0.931232 0.696644
Si Si6 0.865456 0.114984 0.751591
Si Si7 0.785271 0.570709 0.701542
O O1 0.843274 0.615965 0.401987
O O2 0.779856 0.606289 0.622282
O O3 0.933328 0.706836 0.399479
O O4 0.572642 0.681167 0.770549
O O5 0.595839 0.079804 0.809527
O O6 0.551457 0.000000 0.743748
O O7 0.313367 0.091662 0.008158
O O8 0.735079 0.780105 0.166538
O O9 0.568853 0.681583 0.291640
O O10 0.750000 0.750000 0.000000
O O11 0.336324 0.387808 0.107836
O O12 0.500000 0.296570 0.000000
O O13 0.791935 0.885227 0.737091
O O14 0.954376 0.928342 0.440325
O O15 0.741011 0.000000 0.752731
O O16 0.724625 0.500000 0.761074
O O17 0.000000 0.571385 0.500000
#
# Coordination Sequence:
#
# PCOD9204279 Si02
#       7
#     8   8   8   8   8   8   8
#     4  11  24  42  67  94 136 173 220 265 329 393
#     4  11  23  40  65  98 132 167 214 270 331 397
#     4  12  26  45  64  95 134 175 222 273 321 387
#     4  10  25  43  68  97 131 170 222 272 323 389
#     4  10  23  42  66  98 128 162 217 273 328 396
#     4  11  23  41  67  89 127 175 213 268 327 382
#     4  10  20  40  70  98 131 169 213 270 329 391
#
# _framework density 21.748729000000001
#
# number of rings (size 3 to 8) (size 9 to 14) (size 15 to 20)
#    0.000    1.286    2.857    2.571    2.000   11.714 
#    0.000    0.000    0.000    0.000    0.000    0.000 
#    0.000    0.000    0.000    0.000    0.000    0.000 
#
# Total GULP energy -156591.978748 kJ/mol
# GULP energy per Si atom -5592.570670 kJ/mol
# Density = 2.169923 g / cm^3
# Si number density = 21.748729 Si / 1000 Ang^3
#
#
#
# Elastic Constant Matrix: (Units=GPa)
#
#
# Indices 1 2 3 4 5 6 
#
# 1 41.2163 36.7088 4.9948 0.0611 -3.1734 -0.0162
# 2 36.7088 104.0459 19.7286 -0.0013 -0.6194 -0.0092
# 3 4.9948 19.7286 111.2082 0.0083 -4.7267 -0.0158
# 4 0.0611 -0.0013 0.0083 5.9461 -0.0016 15.2892
# 5 -3.1734 -0.6194 -4.7267 -0.0016 32.2838 0.0048
# 6 -0.0162 -0.0092 -0.0158 15.2892 0.0048 22.7207
#
#
#
# Elastic Compliance Matrix: (Units=1/GPa)
#
#
# Indices 1 2 3 4 5 6 
#
# 1 0.035788 -0.012758 0.000800 0.000579 0.003390 -0.000369
# 2 -0.012758 0.014494 -0.002052 -0.000203 -0.001277 0.000132
# 3 0.000800 -0.002052 0.009380 0.000050 0.001413 -0.000028
# 4 0.000579 -0.000203 0.000050 -0.230289 0.000026 0.154966
# 5 0.003390 -0.001277 0.001413 0.000026 0.031491 -0.000021
# 6 -0.000369 0.000132 -0.000028 0.154966 -0.000021 -0.060266
#
#
# Mechanical properties :
#
#
# Convention : Reuss Voigt Hill
#
# Bulk Modulus (GPa) = 31.60434 42.14832 36.87633
# Shear Modulus (GPa) = -31.08797 25.19268 -2.94764
#
# Velocity S-wave (km/s) = -3.78486 3.40715 -1.16544
# Velocity P-wave (km/s) = 2.13005 5.90762 3.89633
#
# Compressibility (1/GPa) = 0.03164122
#
# Stress axis : x y z
#
# Youngs Moduli (GPa) = 27.94226 68.99439 106.60572
#
# Poissons Ratio (x) = 0.88023 -0.08528
# Poissons Ratio (y) = 0.35649 0.21880
# Poissons Ratio (z) = -0.02235 0.14161
#
# Static dielectric constant tensor:
#      x y z
#    x 1.792690 0.000000 0.005970 
#    y 0.000000 1.752080 0.000060 
#    z 0.005970 0.000060 1.834050 
# 
# From -- ./inp_files/286026.got.cif
#   From: 2010.05.17/outbox.cif.g08.bks.cpg/sg12_144_cif.got.tgz:286026.got - 2010.06.03 13:09:07.
