data_PCOD9204486
_publ_section_title
;
Structure prediction by ZEFSAII (Michael W. Deem and Ramdas Pophale) SiO2 
 PCOD9204486
Probable space group: C 2/M
;
_chemical_formula_sum "Si O2"
_cell_formula_units_Z 26
_cell_length_a 18.384658
_cell_length_b 5.422668
_cell_length_c 11.575629
_cell_angle_alpha 90.000000
_cell_angle_beta 114.685789
_cell_angle_gamma 90.000000
_cell_volume 1048.555782
_symmetry_space_group_name_H-M "C 2/M"
_symmetry_group_IT_number 12
_symmetry_cell_setting 'monoclinic'
loop_
_space_group_symop_operation_xyz
x,y,z
-x,y,-z
-x,-y,-z
x,-y,z
1/2+x,1/2+y,z
1/2-x,1/2+y,-z
1/2-x,1/2-y,-z
1/2+x,1/2-y,z
loop_
_atom_site_type_symbol
_atom_site_label
_atom_site_fract_x
_atom_site_fract_y
_atom_site_fract_z
Si Si1 0.102559 0.500000 0.645609
Si Si2 0.268594 0.500000 0.862805
Si Si3 0.460723 0.000000 0.725923
Si Si4 0.500000 0.000000 0.000000
Si Si5 0.826428 0.000000 0.399169
Si Si6 0.183492 0.500000 0.114309
Si Si7 0.355007 0.500000 0.666723
O O1 0.174153 0.500000 0.787968
O O2 0.016967 0.500000 0.649476
O O3 0.122208 0.753571 0.591201
O O4 0.303036 0.745227 0.940326
O O5 0.306870 0.500000 0.755813
O O6 0.409591 0.745668 0.695059
O O7 0.521121 0.000000 0.875539
O O8 0.406322 0.000000 0.901829
O O9 0.751064 0.000000 0.261404
O O10 0.800812 0.000000 0.515933
#
# Coordination Sequence:
#
# PCOD9204486 Si02
#       7
#     4   4   4   2   4   4   4
#     4  10  23  42  63  98 140 170 213 265 333 391
#     4  10  20  42  62  98 130 168 219 258 317 397
#     4  12  27  42  68  99 132 176 219 273 330 377
#     4  12  24  48  66  94 134 168 228 278 318 386
#     4  10  23  42  69  96 138 168 218 261 328 402
#     4  10  22  39  67  93 128 169 214 272 318 377
#     4  12  23  42  70  99 132 176 217 264 325 395
#
# _framework density 24.796011
#
# number of rings (size 3 to 8) (size 9 to 14) (size 15 to 20)
#    0.000    1.231    3.077    1.846    0.000   11.077 
#    0.000    6.154    0.000    0.000    0.000    0.000 
#    0.000    0.000    0.000    0.000    0.000    0.000 
#
# Total GULP energy -72479.276248 kJ/mol
# GULP energy per Si atom -5575.328942 kJ/mol
# Density = 2.473957 g / cm^3
# Si number density = 24.796011 Si / 1000 Ang^3
#
#
#
# Elastic Constant Matrix: (Units=GPa)
#
#
# Indices 1 2 3 4 5 6 
#
# 1 172.7984 60.3165 34.7083 0.0000 -6.8953 0.0000
# 2 60.3165 241.4679 22.0460 0.0000 9.4235 0.0000
# 3 34.7083 22.0460 102.2270 0.0000 -15.4379 0.0000
# 4 0.0000 0.0000 0.0000 -3.9459 0.0000 -5.0165
# 5 -6.8953 9.4235 -15.4379 0.0000 44.8607 0.0000
# 6 0.0000 0.0000 0.0000 -5.0165 0.0000 41.8825
#
#
#
# Elastic Compliance Matrix: (Units=1/GPa)
#
#
# Indices 1 2 3 4 5 6 
#
# 1 0.006723 -0.001539 -0.001841 0.000000 0.000723 0.000000
# 2 -0.001539 0.004646 -0.000699 0.000000 -0.001453 0.000000
# 3 -0.001841 -0.000699 0.011115 0.000000 0.003689 0.000000
# 4 0.000000 0.000000 0.000000 -0.219937 0.000000 -0.026343
# 5 0.000723 -0.001453 0.003689 0.000000 0.023977 0.000000
# 6 0.000000 0.000000 0.000000 -0.026343 0.000000 0.020721
#
#
# Mechanical properties :
#
#
# Convention : Reuss Voigt Hill
#
# Bulk Modulus (GPa) = 69.80688 83.40389 76.60538
# Shear Modulus (GPa) = -35.76035 43.18763 3.71364
#
# Velocity S-wave (km/s) = -3.80173 4.17792 1.22512
# Velocity P-wave (km/s) = 2.99044 7.54866 5.74130
#
# Compressibility (1/GPa) = 0.01432524
#
# Stress axis : x y z
#
# Youngs Moduli (GPa) = 148.73895 215.22064 89.96737
#
# Poissons Ratio (x) = 0.33133 0.16567
# Poissons Ratio (y) = 0.22898 0.06287
# Poissons Ratio (z) = 0.27390 0.15039
#
# Static dielectric constant tensor:
#      x y z
#    x 1.934420 0.000000 -0.091430 
#    y 0.000000 2.012120 0.000000 
#    z -0.091430 0.000000 2.025500 
# 
# From -- ./inp_files/161465.got.cif
#   From: 2010.05.17/outbox.cif.g08.bks.cpg/sg12_81_cif.got.tgz:161465.got - 2010.06.03 13:09:07.
