data_PCOD9204304
_publ_section_title
;
Structure prediction by ZEFSAII (Michael W. Deem and Ramdas Pophale) SiO2 
 PCOD9204304
Probable space group: C 2/M
;
_chemical_formula_sum "Si O2"
_cell_formula_units_Z 50
_cell_length_a 10.621026
_cell_length_b 13.678480
_cell_length_c 14.707345
_cell_angle_alpha 90.000000
_cell_angle_beta 104.605314
_cell_angle_gamma 90.000000
_cell_volume 2067.630617
_symmetry_space_group_name_H-M "C 2/M"
_symmetry_group_IT_number 12
_symmetry_cell_setting 'monoclinic'
loop_
_space_group_symop_operation_xyz
x,y,z
-x,y,-z
-x,-y,-z
x,-y,z
1/2+x,1/2+y,z
1/2-x,1/2+y,-z
1/2-x,1/2-y,-z
1/2+x,1/2-y,z
loop_
_atom_site_type_symbol
_atom_site_label
_atom_site_fract_x
_atom_site_fract_y
_atom_site_fract_z
Si Si1 0.207491 0.109146 0.730991
Si Si2 0.000000 0.000000 0.000000
Si Si3 0.865942 0.675340 0.261239
Si Si4 0.710389 0.387138 0.402847
Si Si5 0.627122 0.827050 0.407229
Si Si6 0.697901 0.641554 0.069395
Si Si7 0.139595 0.631760 0.065054
O O1 0.128562 0.206071 0.746003
O O2 0.259226 0.137625 0.640655
O O3 0.325979 0.106018 0.825598
O O4 0.148552 0.000000 0.720136
O O5 0.927365 0.917085 0.925118
O O6 0.751560 0.640755 0.308166
O O7 0.823694 0.634677 0.156468
O O8 0.997196 0.641611 0.332371
O O9 0.664811 0.500000 0.401806
O O10 0.626130 0.291839 0.418063
O O11 0.837658 0.374397 0.490354
O O12 0.653120 0.752189 0.059546
O O13 0.742693 0.600535 0.980057
O O14 0.000000 0.603251 0.000000
#
# Coordination Sequence:
#
# PCOD9204304 Si02
#       7
#     8   2   8   8   8   8   8
#     4  10  22  38  58  88 117 156 204 248 312 367
#     4  12  24  44  62  92 124 170 212 270 308 396
#     4  10  22  41  60  90 120 160 208 254 307 368
#     4  10  22  39  62  94 122 161 206 244 313 373
#     4  10  21  41  63  86 129 161 195 262 307 363
#     4  10  23  40  63  90 126 166 208 263 324 366
#     4  10  20  41  61  86 124 164 207 261 319 378
#
# _framework density 24.182269999999999
#
# number of rings (size 3 to 8) (size 9 to 14) (size 15 to 20)
#    0.000    1.920    0.800    1.920    2.240    2.880 
#    5.760    0.000    0.000    5.760    0.000    0.000 
#    0.000    0.000    0.000    0.000    0.000    0.000 
#
# Total GULP energy -139277.381200 kJ/mol
# GULP energy per Si atom -5571.095248 kJ/mol
# Density = 2.412723 g / cm^3
# Si number density = 24.182270 Si / 1000 Ang^3
#
#
#
# Elastic Constant Matrix: (Units=GPa)
#
#
# Indices 1 2 3 4 5 6 
#
# 1 27.4829 -5.8926 12.8098 0.0000 18.8760 0.0000
# 2 -5.8926 175.2029 20.2633 0.0000 -2.9504 0.0000
# 3 12.8098 20.2633 100.2272 0.0000 10.0841 0.0000
# 4 0.0000 0.0000 0.0000 -30.2771 0.0000 9.7426
# 5 18.8760 -2.9504 10.0841 0.0000 44.1987 0.0000
# 6 0.0000 0.0000 0.0000 9.7426 0.0000 -5.5194
#
#
#
# Elastic Compliance Matrix: (Units=1/GPa)
#
#
# Indices 1 2 3 4 5 6 
#
# 1 0.054232 0.002051 -0.005148 0.000000 -0.021850 0.000000
# 2 0.002051 0.005942 -0.001448 0.000000 -0.000149 0.000000
# 3 -0.005148 -0.001448 0.010968 0.000000 -0.000401 0.000000
# 4 0.000000 0.000000 0.000000 -0.076454 0.000000 -0.134954
# 5 -0.021850 -0.000149 -0.000401 0.000000 0.032038 0.000000
# 6 0.000000 0.000000 0.000000 -0.134954 0.000000 -0.419397
#
#
# Mechanical properties :
#
#
# Convention : Reuss Voigt Hill
#
# Bulk Modulus (GPa) = 16.11528 39.69711 27.90619
# Shear Modulus (GPa) = -13.77804 20.06260 3.14228
#
# Velocity S-wave (km/s) = -2.38955 2.88347 1.14116
# Velocity P-wave (km/s) = 0.96680 5.24760 3.64710
#
# Compressibility (1/GPa) = 0.06205289
#
# Stress axis : x y z
#
# Youngs Moduli (GPa) = 18.43921 168.30263 91.17094
#
# Poissons Ratio (x) = -0.34526 0.46932
# Poissons Ratio (y) = -0.03783 0.13206
# Poissons Ratio (z) = 0.09492 0.24378
#
# Static dielectric constant tensor:
#      x y z
#    x 2.053730 0.000000 0.000370 
#    y 0.000000 1.945420 0.000000 
#    z 0.000370 0.000000 1.882080 
# 
# From -- ./inp_files/205073.got.cif
#   From: 2010.05.17/outbox.cif.g08.bks.cpg/sg12_103_cif.got.tgz:205073.got - 2010.06.03 13:09:07.
