data_PCOD9204402
_publ_section_title
;
Structure prediction by ZEFSAII (Michael W. Deem and Ramdas Pophale) SiO2 
 PCOD9204402
Probable space group: C 2/M
;
_chemical_formula_sum "Si O2"
_cell_formula_units_Z 40
_cell_length_a 19.970545
_cell_length_b 8.884736
_cell_length_c 15.129331
_cell_angle_alpha 90.000000
_cell_angle_beta 49.211838
_cell_angle_gamma 90.000000
_cell_volume 2032.472365
_symmetry_space_group_name_H-M "C 2/M"
_symmetry_group_IT_number 12
_symmetry_cell_setting 'monoclinic'
loop_
_space_group_symop_operation_xyz
x,y,z
-x,y,-z
-x,-y,-z
x,-y,z
1/2+x,1/2+y,z
1/2-x,1/2+y,-z
1/2-x,1/2-y,-z
1/2+x,1/2-y,z
loop_
_atom_site_type_symbol
_atom_site_label
_atom_site_fract_x
_atom_site_fract_y
_atom_site_fract_z
Si Si1 0.829128 0.179097 0.876665
Si Si2 0.276249 0.820985 0.741745
Si Si3 0.028801 0.821106 0.743736
Si Si4 0.588732 0.179353 0.869812
Si Si5 0.419775 0.319130 0.502551
O O1 0.826464 0.252487 0.782726
O O2 0.923711 0.206917 0.839572
O O3 0.817908 0.000000 0.877907
O O4 0.750000 0.250000 0.000000
O O5 0.176506 0.759695 0.829288
O O6 0.330699 0.761479 0.610717
O O7 0.276121 0.000000 0.745164
O O8 0.076018 0.727946 0.779183
O O9 0.057262 0.785014 0.618898
O O10 0.044240 0.000000 0.744305
O O11 0.599333 0.000000 0.868577
O O12 0.500000 0.223325 0.000000
O O13 0.500000 0.276469 0.500000
O O14 0.409192 0.500000 0.519582
#
# Coordination Sequence:
#
# PCOD9204402 Si02
#       5
#     8   8   8   8   8
#     4  11  22  39  62  92 126 164 210 260 315 374
#     4  12  25  40  63  94 127 167 211 259 313 375
#     4  10  22  40  65  92 123 164 207 256 317 375
#     4  11  25  44  65  90 125 168 212 262 316 374
#     4  10  20  41  67  92 126 167 207 259 318 372
#
# _framework density 19.680464000000001
#
# number of rings (size 3 to 8) (size 9 to 14) (size 15 to 20)
#    0.000    1.200    2.000    4.200    0.000    8.400 
#    0.000    0.000    0.000    0.000    0.000    0.000 
#    0.000    0.000    0.000    0.000    0.000    0.000 
#
# Total GULP energy -111861.347750 kJ/mol
# GULP energy per Si atom -5593.067387 kJ/mol
# Density = 1.963567 g / cm^3
# Si number density = 19.680464 Si / 1000 Ang^3
#
#
#
# Elastic Constant Matrix: (Units=GPa)
#
#
# Indices 1 2 3 4 5 6 
#
# 1 48.4045 16.3938 -14.1417 0.0000 -0.2154 0.0000
# 2 16.3938 38.6108 5.5834 0.0000 -11.2205 0.0000
# 3 -14.1417 5.5834 58.6667 0.0000 -8.8526 0.0001
# 4 0.0000 0.0000 0.0000 27.7574 0.0000 1.9980
# 5 -0.2154 -11.2205 -8.8526 0.0000 31.5080 0.0000
# 6 0.0000 0.0000 0.0001 1.9980 0.0000 34.5076
#
#
#
# Elastic Compliance Matrix: (Units=1/GPa)
#
#
# Indices 1 2 3 4 5 6 
#
# 1 0.027393 -0.013440 0.007507 0.000000 -0.002490 0.000000
# 2 -0.013440 0.035571 -0.004937 0.000000 0.011189 0.000000
# 3 0.007507 -0.004937 0.019911 0.000000 0.003888 0.000000
# 4 0.000000 0.000000 0.000000 0.036177 0.000000 -0.002095
# 5 -0.002490 0.011189 0.003888 0.000000 0.036798 0.000000
# 6 0.000000 0.000000 0.000000 -0.002095 0.000000 0.029100
#
#
# Mechanical properties :
#
#
# Convention : Reuss Voigt Hill
#
# Bulk Modulus (GPa) = 16.35713 17.92813 17.14263
# Shear Modulus (GPa) = 22.01962 27.94437 24.98199
#
# Velocity S-wave (km/s) = 3.34856 3.77225 3.56670
# Velocity P-wave (km/s) = 4.82492 5.30118 5.06865
#
# Compressibility (1/GPa) = 0.06113541
#
# Stress axis : x y z
#
# Youngs Moduli (GPa) = 36.50545 28.11246 50.22256
#
# Poissons Ratio (x) = 0.37783 -0.37700
# Poissons Ratio (y) = 0.49063 0.24794
# Poissons Ratio (z) = -0.27403 0.13879
#
# Static dielectric constant tensor:
#      x y z
#    x 1.636320 0.000000 -0.009040 
#    y 0.000000 1.648950 0.000000 
#    z -0.009040 0.000000 1.690900 
# 
# From -- ./inp_files/229634.got.cif
#   From: 2010.05.17/outbox.cif.g08.bks.cpg/sg12_115_cif.got.tgz:229634.got - 2010.06.03 13:09:07.
