data_PCOD9204289
_publ_section_title
;
Structure prediction by ZEFSAII (Michael W. Deem and Ramdas Pophale) SiO2 
 PCOD9204289
Probable space group: C 2/M
;
_chemical_formula_sum "Si O2"
_cell_formula_units_Z 54
_cell_length_a 14.226816
_cell_length_b 12.354794
_cell_length_c 28.163402
_cell_angle_alpha 90.000000
_cell_angle_beta 30.541640
_cell_angle_gamma 90.000000
_cell_volume 2515.547911
_symmetry_space_group_name_H-M "C 2/M"
_symmetry_group_IT_number 12
_symmetry_cell_setting 'monoclinic'
loop_
_space_group_symop_operation_xyz
x,y,z
-x,y,-z
-x,-y,-z
x,-y,z
1/2+x,1/2+y,z
1/2-x,1/2+y,-z
1/2-x,1/2-y,-z
1/2+x,1/2-y,z
loop_
_atom_site_type_symbol
_atom_site_label
_atom_site_fract_x
_atom_site_fract_y
_atom_site_fract_z
Si Si1 0.453316 0.721209 0.392851
Si Si2 0.407763 0.500000 0.837633
Si Si3 0.500000 0.000000 0.500000
Si Si4 0.368546 0.713639 0.903382
Si Si5 0.713654 0.375285 0.898068
Si Si6 0.837705 0.877911 0.610136
Si Si7 0.249359 0.875459 0.769987
Si Si8 0.850020 0.841814 0.334751
O O1 0.250000 0.750000 0.500000
O O2 0.563478 0.651064 0.383294
O O3 0.566335 0.832047 0.334519
O O4 0.435504 0.661658 0.350285
O O5 0.306805 0.596287 0.912173
O O6 0.516569 0.404964 0.758961
O O7 0.342913 0.093991 0.579027
O O8 0.339780 0.801673 0.875430
O O9 0.580567 0.698258 0.826948
O O10 0.250000 0.750000 0.000000
O O11 0.727955 0.500000 0.906801
O O12 0.759161 0.369783 0.822482
O O13 0.500000 0.342149 0.000000
O O14 0.697147 0.781668 0.658973
O O15 0.000000 0.875401 0.500000
O O16 0.758313 0.000000 0.644927
O O17 0.205020 0.000000 0.774533
#
# Coordination Sequence:
#
# PCOD9204289 Si02
#       8
#     8   4   2   8   8   8   8   8
#     4  12  25  45  74 108 151 203 265 313 376 443
#     4  11  26  43  71 104 148 192 244 310 374 466
#     4  10  20  40  74 102 140 206 252 308 396 432
#     4  12  24  44  79 111 152 187 247 313 390 464
#     4  10  22  45  79 110 147 191 245 310 385 466
#     4  11  24  44  67 102 146 195 254 319 377 435
#     4  11  25  47  75 111 147 198 256 308 379 467
#     4  11  23  46  71 104 152 197 262 319 376 452
#
# _framework density 21.466497
#
# number of rings (size 3 to 8) (size 9 to 14) (size 15 to 20)
#    0.000    0.889    4.444    1.778    3.111    2.370 
#    0.000    4.815    1.630    0.000    0.000    0.000 
#    0.000    0.000    0.000    0.000    0.000    0.000 
#
# Total GULP energy -150421.090432 kJ/mol
# GULP energy per Si atom -5571.151497 kJ/mol
# Density = 2.141764 g / cm^3
# Si number density = 21.466497 Si / 1000 Ang^3
#
#
#
# Elastic Constant Matrix: (Units=GPa)
#
#
# Indices 1 2 3 4 5 6 
#
# 1 111.8536 64.3973 41.2072 0.0000 14.6266 0.0000
# 2 64.3973 156.3370 56.4634 0.0001 8.0404 0.0000
# 3 41.2072 56.4634 113.0602 -0.0004 0.4430 -0.0002
# 4 0.0000 0.0001 -0.0004 41.2500 0.0001 7.6807
# 5 14.6266 8.0404 0.4430 0.0001 22.0332 0.0000
# 6 0.0000 0.0000 -0.0002 7.6807 0.0000 27.7963
#
#
#
# Elastic Compliance Matrix: (Units=1/GPa)
#
#
# Indices 1 2 3 4 5 6 
#
# 1 0.013263 -0.004092 -0.002762 0.000000 -0.007255 0.000000
# 2 -0.004092 0.009240 -0.003120 0.000000 -0.000592 0.000000
# 3 -0.002762 -0.003120 0.011399 0.000000 0.002743 0.000000
# 4 0.000000 0.000000 0.000000 0.025557 0.000000 -0.007062
# 5 -0.007255 -0.000592 0.002743 0.000000 0.050363 0.000000
# 6 0.000000 0.000000 0.000000 -0.007062 0.000000 0.037927
#
#
# Mechanical properties :
#
#
# Convention : Reuss Voigt Hill
#
# Bulk Modulus (GPa) = 71.67348 78.37630 75.02489
# Shear Modulus (GPa) = 29.01088 32.82809 30.91949
#
# Velocity S-wave (km/s) = 3.68019 3.91483 3.79932
# Velocity P-wave (km/s) = 7.17771 7.55148 7.36696
#
# Compressibility (1/GPa) = 0.01395216
#
# Stress axis : x y z
#
# Youngs Moduli (GPa) = 75.40041 108.22921 87.72708
#
# Poissons Ratio (x) = 0.44293 0.24226
# Poissons Ratio (y) = 0.30858 0.27375
# Poissons Ratio (z) = 0.20822 0.33772
#
# Static dielectric constant tensor:
#      x y z
#    x 1.781300 0.000000 0.017740 
#    y 0.000000 1.767170 0.000000 
#    z 0.017740 0.000000 1.773890 
# 
# From -- ./inp_files/376255.got.cif
#   From: 2010.05.17/outbox.cif.g08.bks.cpg/sg12_189_cif.got.tgz:376255.got - 2010.06.03 13:09:07.
