data_PCOD9204251
_publ_section_title
;
Structure prediction by ZEFSAII (Michael W. Deem and Ramdas Pophale) SiO2 
 PCOD9204251
Probable space group: C 2/M
;
_chemical_formula_sum "Si O2"
_cell_formula_units_Z 58
_cell_length_a 10.880947
_cell_length_b 18.186723
_cell_length_c 26.437154
_cell_angle_alpha 90.000000
_cell_angle_beta 147.953315
_cell_angle_gamma 90.000000
_cell_volume 2775.948131
_symmetry_space_group_name_H-M "C 2/M"
_symmetry_group_IT_number 12
_symmetry_cell_setting 'monoclinic'
loop_
_space_group_symop_operation_xyz
x,y,z
-x,y,-z
-x,-y,-z
x,-y,z
1/2+x,1/2+y,z
1/2-x,1/2+y,-z
1/2-x,1/2-y,-z
1/2+x,1/2-y,z
loop_
_atom_site_type_symbol
_atom_site_label
_atom_site_fract_x
_atom_site_fract_y
_atom_site_fract_z
Si Si1 0.500000 0.000000 0.000000
Si Si2 0.646444 0.330644 0.959932
Si Si3 0.141825 0.617654 0.131691
Si Si4 0.416103 0.587686 0.527258
Si Si5 0.708668 0.864014 0.265638
Si Si6 0.997768 0.199698 0.796450
Si Si7 0.124099 0.414873 0.671299
Si Si8 0.722576 0.917930 0.825326
O O1 0.634889 0.937138 0.081969
O O2 0.575655 0.333761 0.876950
O O3 0.419440 0.359335 0.908837
O O4 0.750000 0.250000 0.000000
O O5 0.869277 0.379002 0.049706
O O6 0.255017 0.604886 0.225789
O O7 0.274151 0.691581 0.158788
O O8 0.500000 0.607751 0.500000
O O9 0.459747 0.500000 0.548306
O O10 0.566447 0.629892 0.621017
O O11 0.141588 0.599483 0.435726
O O12 0.608506 0.780203 0.231263
O O13 0.503635 0.909945 0.220026
O O14 0.799808 0.143533 0.708447
O O15 0.182785 0.500000 0.679764
O O16 0.143186 0.407556 0.739215
O O17 0.823532 0.000000 0.864057
#
# Coordination Sequence:
#
# PCOD9204251 Si02
#       8
#     2   8   8   8   8   8   8   8
#     4  12  28  44  64  90 136 184 224 260 318 406
#     4  11  21  43  66  87 129 175 220 270 333 391
#     4  12  27  42  66  95 129 182 224 266 327 398
#     4  10  20  40  68  98 132 172 213 273 345 396
#     4  12  25  40  67 100 139 166 221 279 337 399
#     4  11  24  42  66  94 132 179 224 269 329 401
#     4   9  20  40  68  94 125 173 224 271 328 395
#     4  10  22  38  64  98 127 166 221 280 326 385
#
# _framework density 20.893761999999999
#
# number of rings (size 3 to 8) (size 9 to 14) (size 15 to 20)
#    0.000    1.241    4.138    1.241    5.793    1.103 
#    0.000    1.379    0.000    1.655    0.000    0.000 
#    0.000    0.000    0.000    0.000    0.000    0.000 
#
# Total GULP energy -161484.704208 kJ/mol
# GULP energy per Si atom -5568.438076 kJ/mol
# Density = 2.084621 g / cm^3
# Si number density = 20.893762 Si / 1000 Ang^3
#
#
#
# Elastic Constant Matrix: (Units=GPa)
#
#
# Indices 1 2 3 4 5 6 
#
# 1 46.8481 18.9344 33.1408 -0.0001 -1.5959 0.0000
# 2 18.9344 77.0855 43.6091 -0.0001 3.2233 0.0000
# 3 33.1408 43.6091 125.7173 -0.0004 -5.2232 -0.0002
# 4 -0.0001 -0.0001 -0.0004 30.6456 -0.0002 7.7876
# 5 -1.5959 3.2233 -5.2232 -0.0002 32.7471 0.0000
# 6 0.0000 0.0000 -0.0002 7.7876 0.0000 13.1347
#
#
#
# Elastic Compliance Matrix: (Units=1/GPa)
#
#
# Indices 1 2 3 4 5 6 
#
# 1 0.026883 -0.003284 -0.005919 0.000000 0.000689 0.000000
# 2 -0.003284 0.016747 -0.005052 0.000000 -0.002614 0.000000
# 3 -0.005919 -0.005052 0.011351 0.000000 0.002019 0.000000
# 4 0.000000 0.000000 0.000000 0.038420 0.000000 -0.022779
# 5 0.000689 -0.002614 0.002019 0.000000 0.031150 0.000000
# 6 0.000000 0.000000 0.000000 -0.022779 0.000000 0.089640
#
#
# Mechanical properties :
#
#
# Convention : Reuss Voigt Hill
#
# Bulk Modulus (GPa) = 37.77656 49.00217 43.38937
# Shear Modulus (GPa) = 19.87879 25.56992 22.72435
#
# Velocity S-wave (km/s) = 3.08786 3.50209 3.30148
# Velocity P-wave (km/s) = 5.55272 6.31322 5.94514
#
# Compressibility (1/GPa) = 0.02647144
#
# Stress axis : x y z
#
# Youngs Moduli (GPa) = 37.19757 59.71376 88.09694
#
# Poissons Ratio (x) = 0.19607 0.52147
# Poissons Ratio (y) = 0.12214 0.44508
# Poissons Ratio (z) = 0.22018 0.30168
#
# Static dielectric constant tensor:
#      x y z
#    x 1.823490 0.000000 0.019140 
#    y 0.000000 1.841260 0.000000 
#    z 0.019140 0.000000 1.824600 
# 
# From -- ./inp_files/358816.got.cif
#   From: 2010.05.17/outbox.cif.g08.bks.cpg/sg12_180_cif.got.tgz:358816.got - 2010.06.03 13:09:07.
