data_PCOD9204833
_publ_section_title
;
Structure prediction by ZEFSAII (Michael W. Deem and Ramdas Pophale) SiO2 
 PCOD9204833
Probable space group: C 2/M
;
_chemical_formula_sum "Si O2"
_cell_formula_units_Z 64
_cell_length_a 8.164470
_cell_length_b 26.004042
_cell_length_c 29.618662
_cell_angle_alpha 90.000000
_cell_angle_beta 32.070867
_cell_angle_gamma 90.000000
_cell_volume 3338.892666
_symmetry_space_group_name_H-M "C 2/M"
_symmetry_group_IT_number 12
_symmetry_cell_setting 'monoclinic'
loop_
_space_group_symop_operation_xyz
x,y,z
-x,y,-z
-x,-y,-z
x,-y,z
1/2+x,1/2+y,z
1/2-x,1/2+y,-z
1/2-x,1/2-y,-z
1/2+x,1/2-y,z
loop_
_atom_site_type_symbol
_atom_site_label
_atom_site_fract_x
_atom_site_fract_y
_atom_site_fract_z
Si Si1 0.052356 0.061369 0.707236
Si Si2 0.762184 0.839586 0.188882
Si Si3 0.690404 0.642848 0.171693
Si Si4 0.792010 0.439135 0.405430
Si Si5 0.858424 0.794050 0.410499
Si Si6 0.059972 0.766914 0.707954
Si Si7 0.855379 0.101311 0.657406
Si Si8 0.713227 0.190970 0.994849
O O1 0.385877 0.079723 0.648766
O O2 0.819775 0.094755 0.792203
O O3 0.012738 0.073629 0.663296
O O4 0.020069 0.000000 0.721408
O O5 0.641819 0.784218 0.235711
O O6 0.463989 0.873940 0.251074
O O7 0.980256 0.864928 0.176131
O O8 0.959467 0.830641 0.097815
O O9 0.532759 0.691390 0.233555
O O10 0.028427 0.659752 0.075978
O O11 0.500000 0.416310 0.500000
O O12 0.798862 0.500000 0.412320
O O13 0.737255 0.430730 0.365178
O O14 0.500000 0.782628 0.500000
O O15 0.983741 0.793205 0.329904
O O16 0.085131 0.751517 0.377960
O O17 0.933410 0.851429 0.409415
O O18 0.500000 0.189897 0.000000
O O19 0.750000 0.250000 0.000000
#
# Coordination Sequence:
#
# PCOD9204833 Si02
#       8
#     8   8   8   8   8   8   8   8
#     4  11  24  42  66  93 123 166 212 260 318 372
#     4  10  21  38  57  91 123 164 202 249 316 376
#     4  11  20  38  61  88 127 165 202 258 315 377
#     4  10  23  42  65  92 122 160 211 272 323 363
#     4  11  24  36  53  86 123 165 205 248 303 371
#     4  11  20  36  57  79 123 162 201 247 303 368
#     4  11  23  39  65  89 124 166 209 257 315 374
#     4  10  21  33  60  92 128 161 202 256 312 371
#
# _framework density 19.168030999999999
#
# number of rings (size 3 to 8) (size 9 to 14) (size 15 to 20)
#    0.000    1.375    5.000    0.750    1.750    1.000 
#    0.000    3.750    0.000    5.625    0.000    0.000 
#    0.000    0.000    0.000    0.000    0.000    0.000 
#
# Total GULP energy -178559.229065 kJ/mol
# GULP energy per Si atom -5579.975908 kJ/mol
# Density = 1.912440 g / cm^3
# Si number density = 19.168031 Si / 1000 Ang^3
#
#
#
# Elastic Constant Matrix: (Units=GPa)
#
#
# Indices 1 2 3 4 5 6 
#
# 1 76.2743 2.3011 25.3461 0.0072 11.3824 0.0072
# 2 2.3011 37.8719 25.2863 0.0122 3.7434 0.0066
# 3 25.3461 25.2863 113.4313 -0.0216 -1.5531 -0.0073
# 4 0.0072 0.0122 -0.0216 -20.4033 0.0047 -7.3312
# 5 11.3824 3.7434 -1.5531 0.0047 22.6832 -0.0011
# 6 0.0072 0.0066 -0.0073 -7.3312 -0.0011 26.2649
#
#
#
# Elastic Compliance Matrix: (Units=1/GPa)
#
#
# Indices 1 2 3 4 5 6 
#
# 1 0.015725 0.002729 -0.004240 0.000011 -0.008632 -0.000004
# 2 0.002729 0.032223 -0.007892 0.000028 -0.007227 -0.000003
# 3 -0.004240 -0.007892 0.011580 -0.000018 0.004223 0.000002
# 4 0.000011 0.000028 -0.000018 -0.044544 -0.000003 -0.012433
# 5 -0.008632 -0.007227 0.004223 -0.000003 0.049899 0.000007
# 6 -0.000004 -0.000003 0.000002 -0.012433 0.000007 0.034603
#
#
# Mechanical properties :
#
#
# Convention : Reuss Voigt Hill
#
# Bulk Modulus (GPa) = 24.55678 37.04938 30.80308
# Shear Modulus (GPa) = 37.91712 17.35192 27.63452
#
# Velocity S-wave (km/s) = 4.45246 3.01201 3.80109
# Velocity P-wave (km/s) = 6.26671 5.60954 5.94721
#
# Compressibility (1/GPa) = 0.04072195
#
# Stress axis : x y z
#
# Youngs Moduli (GPa) = 63.59136 31.03410 86.35211
#
# Poissons Ratio (x) = -0.08469 0.36616
# Poissons Ratio (y) = -0.17353 0.68148
# Poissons Ratio (z) = 0.26965 0.24492
#
# Static dielectric constant tensor:
#      x y z
#    x 1.756810 0.000010 -0.007780 
#    y 0.000010 2.026410 0.000030 
#    z -0.007780 0.000030 1.683380 
# 
# From -- ./inp_files/373274.got.cif
#   From: 2010.05.17/outbox.cif.g08.bks.cpg/sg12_187_cif.got.tgz:373274.got - 2010.06.03 13:09:07.
