data_PCOD9204335
_publ_section_title
;
Structure prediction by ZEFSAII (Michael W. Deem and Ramdas Pophale) SiO2 
 PCOD9204335
Probable space group: C 2/M
;
_chemical_formula_sum "Si O2"
_cell_formula_units_Z 48
_cell_length_a 25.405061
_cell_length_b 9.320301
_cell_length_c 14.218561
_cell_angle_alpha 90.000000
_cell_angle_beta 41.504529
_cell_angle_gamma 90.000000
_cell_volume 2231.049451
_symmetry_space_group_name_H-M "C 2/M"
_symmetry_group_IT_number 12
_symmetry_cell_setting 'monoclinic'
loop_
_space_group_symop_operation_xyz
x,y,z
-x,y,-z
-x,-y,-z
x,-y,z
1/2+x,1/2+y,z
1/2-x,1/2+y,-z
1/2-x,1/2-y,-z
1/2+x,1/2-y,z
loop_
_atom_site_type_symbol
_atom_site_label
_atom_site_fract_x
_atom_site_fract_y
_atom_site_fract_z
Si Si1 0.676616 0.833771 0.641168
Si Si2 0.403308 0.834803 0.523641
Si Si3 0.646664 0.670696 0.017219
Si Si4 0.247646 0.165365 0.263430
Si Si5 0.500936 0.170720 0.111768
Si Si6 0.914103 0.665415 0.735124
O O1 0.750000 0.750000 0.500000
O O2 0.688462 0.827039 0.738055
O O3 0.587533 0.786792 0.735910
O O4 0.683560 0.000000 0.604779
O O5 0.334642 0.727131 0.586093
O O6 0.492462 0.806098 0.369711
O O7 0.405834 0.823848 0.634106
O O8 0.383638 0.000000 0.526087
O O9 0.648069 0.500000 0.011122
O O10 0.569630 0.737055 0.067514
O O11 0.639084 0.728476 0.133365
O O12 0.721518 0.737163 0.862601
O O13 0.239224 0.000000 0.246188
O O14 0.513115 0.000000 0.114983
O O15 0.500000 0.186979 0.000000
O O16 0.897070 0.500000 0.784332
#
# Coordination Sequence:
#
# PCOD9204335 Si02
#       6
#     8   8   8   8   8   8
#     4  10  23  40  60  86 118 156 196 238 290 350
#     4   9  20  40  65  91 117 152 197 243 292 351
#     4  12  25  38  59  91 121 154 201 247 291 347
#     4  11  23  41  61  86 121 159 197 242 297 351
#     4  10  20  41  64  82 114 159 199 237 290 350
#     4   9  20  41  65  88 119 156 194 238 296 358
#
# _framework density 21.514538000000002
#
# number of rings (size 3 to 8) (size 9 to 14) (size 15 to 20)
#    0.000    1.833    1.667    3.000    2.333    4.333 
#    0.000    1.667    0.000    0.000    0.000    0.000 
#    0.000    0.000    0.000    0.000    0.000    0.000 
#
# Total GULP energy -134243.376168 kJ/mol
# GULP energy per Si atom -5593.474007 kJ/mol
# Density = 2.146557 g / cm^3
# Si number density = 21.514538 Si / 1000 Ang^3
#
#
#
# Elastic Constant Matrix: (Units=GPa)
#
#
# Indices 1 2 3 4 5 6 
#
# 1 51.2987 12.9342 -2.7459 0.0000 -5.1396 0.0000
# 2 12.9342 94.4880 48.9053 -0.0001 -5.2711 0.0000
# 3 -2.7459 48.9053 96.6568 0.0000 -2.7297 0.0000
# 4 0.0000 -0.0001 0.0000 29.4024 0.0000 -2.1867
# 5 -5.1396 -5.2711 -2.7297 0.0000 39.0134 0.0000
# 6 0.0000 0.0000 0.0000 -2.1867 0.0000 26.9809
#
#
#
# Elastic Compliance Matrix: (Units=1/GPa)
#
#
# Indices 1 2 3 4 5 6 
#
# 1 0.020932 -0.004166 0.002770 0.000000 0.002388 0.000000
# 2 -0.004166 0.015248 -0.007806 0.000000 0.000965 0.000000
# 3 0.002770 -0.007806 0.014383 0.000000 0.000317 0.000000
# 4 0.000000 0.000000 0.000000 0.034217 0.000000 0.002773
# 5 0.002388 0.000965 0.000317 0.000000 0.026099 0.000000
# 6 0.000000 0.000000 0.000000 0.002773 0.000000 0.037288
#
#
# Mechanical properties :
#
#
# Convention : Reuss Voigt Hill
#
# Bulk Modulus (GPa) = 31.09578 40.07008 35.58293
# Shear Modulus (GPa) = 28.20243 31.30266 29.75255
#
# Velocity S-wave (km/s) = 3.62450 3.81852 3.72278
# Velocity P-wave (km/s) = 5.65692 6.17305 5.92061
#
# Compressibility (1/GPa) = 0.03215870
#
# Stress axis : x y z
#
# Youngs Moduli (GPa) = 47.77484 65.58409 69.52631
#
# Poissons Ratio (x) = 0.27320 -0.19257
# Poissons Ratio (y) = 0.19901 0.54271
# Poissons Ratio (z) = -0.13232 0.51194
#
# Static dielectric constant tensor:
#      x y z
#    x 1.832520 0.000000 0.025510 
#    y 0.000000 1.708470 0.000000 
#    z 0.025510 0.000000 1.788270 
# 
# From -- ./inp_files/244715.got.cif
#   From: 2010.05.17/outbox.cif.g08.bks.cpg/sg12_123_cif.got.tgz:244715.got - 2010.06.03 13:09:07.
