data_PCOD9204534
_publ_section_title
;
Structure prediction by ZEFSAII (Michael W. Deem and Ramdas Pophale) SiO2 
 PCOD9204534
Probable space group: C 2/M
;
_chemical_formula_sum "Si O2"
_cell_formula_units_Z 36
_cell_length_a 11.886810
_cell_length_b 26.357519
_cell_length_c 5.319735
_cell_angle_alpha 90.000000
_cell_angle_beta 107.980176
_cell_angle_gamma 90.000000
_cell_volume 1585.312807
_symmetry_space_group_name_H-M "C 2/M"
_symmetry_group_IT_number 12
_symmetry_cell_setting 'monoclinic'
loop_
_space_group_symop_operation_xyz
x,y,z
-x,y,-z
-x,-y,-z
x,-y,z
1/2+x,1/2+y,z
1/2-x,1/2+y,-z
1/2-x,1/2-y,-z
1/2+x,1/2-y,z
loop_
_atom_site_type_symbol
_atom_site_label
_atom_site_fract_x
_atom_site_fract_y
_atom_site_fract_z
Si Si1 0.767362 0.442626 0.100994
Si Si2 0.500000 0.710136 0.000000
Si Si3 0.675794 0.853502 0.486629
Si Si4 0.500000 0.908927 0.000000
Si Si5 0.500000 0.775882 0.500000
Si Si6 0.622213 0.361681 0.736593
O O1 0.738092 0.500000 0.151122
O O2 0.778629 0.402882 0.335252
O O3 0.896137 0.440662 0.058198
O O4 0.672632 0.416392 0.851047
O O5 0.477806 0.743763 0.737720
O O6 0.601524 0.672002 0.970833
O O7 0.566350 0.873564 0.244583
O O8 0.617718 0.810061 0.615161
O O9 0.778727 0.836360 0.370511
O O10 0.500000 0.365187 0.500000
#
# Coordination Sequence:
#
# PCOD9204534 Si02
#       6
#     8   4   8   4   4   8
#     4  11  24  42  75 108 148 198 241 306 378 441
#     4  12  27  50  76 108 147 201 256 305 378 434
#     4  11  24  44  75 109 153 187 247 307 371 454
#     4  10  20  42  67 108 158 183 240 301 373 448
#     4  12  26  46  79 114 145 198 242 310 392 436
#     4  11  26  51  69 104 153 197 253 311 355 448
#
# _framework density 22.708452000000001
#
# number of rings (size 3 to 8) (size 9 to 14) (size 15 to 20)
#    0.000    0.889    3.333    2.333    3.111    7.556 
#    0.000    3.889    0.000    0.000    0.000    0.000 
#    0.000    0.000    0.000    0.000    0.000    0.000 
#
# Total GULP energy -100689.788332 kJ/mol
# GULP energy per Si atom -5593.877130 kJ/mol
# Density = 2.265677 g / cm^3
# Si number density = 22.708452 Si / 1000 Ang^3
#
#
#
# Elastic Constant Matrix: (Units=GPa)
#
#
# Indices 1 2 3 4 5 6 
#
# 1 142.5665 76.1105 49.0950 0.0000 -18.6937 0.0000
# 2 76.1105 122.0577 48.2075 0.0000 -11.2525 0.0000
# 3 49.0950 48.2075 118.4355 0.0000 -1.3097 0.0000
# 4 0.0000 0.0000 0.0000 15.4812 0.0000 31.8664
# 5 -18.6937 -11.2525 -1.3097 0.0000 53.3303 0.0000
# 6 0.0000 0.0000 0.0000 31.8664 0.0000 -71.9368
#
#
#
# Elastic Compliance Matrix: (Units=1/GPa)
#
#
# Indices 1 2 3 4 5 6 
#
# 1 0.011290 -0.005908 -0.002246 0.000000 0.002656 0.000000
# 2 -0.005908 0.013064 -0.002862 0.000000 0.000615 0.000000
# 3 -0.002246 -0.002862 0.010527 0.000000 -0.001132 0.000000
# 4 0.000000 0.000000 0.000000 0.033787 0.000000 0.014967
# 5 0.002656 0.000615 -0.001132 0.000000 0.019784 0.000000
# 6 0.000000 0.000000 0.000000 0.014967 0.000000 -0.007271
#
#
# Mechanical properties :
#
#
# Convention : Reuss Voigt Hill
#
# Bulk Modulus (GPa) = 77.82487 81.09841 79.46164
# Shear Modulus (GPa) = 46.51404 13.35140 29.93272
#
# Velocity S-wave (km/s) = 4.53074 2.42740 3.63455
# Velocity P-wave (km/s) = 7.85594 6.60657 7.25819
#
# Compressibility (1/GPa) = 0.01284936
#
# Stress axis : x y z
#
# Youngs Moduli (GPa) = 88.57376 76.54709 94.99744
#
# Poissons Ratio (x) = 0.45225 0.21335
# Poissons Ratio (y) = 0.52331 0.27184
# Poissons Ratio (z) = 0.19892 0.21904
#
# Static dielectric constant tensor:
#      x y z
#    x 1.842380 0.000000 -0.011070 
#    y 0.000000 1.846870 0.000000 
#    z -0.011070 0.000000 1.891580 
# 
# From -- ./inp_files/7830.got.cif
#   From: 2010.05.17/outbox.cif.g08.bks.cpg/sg12_4_cif.got.tgz:7830.got - 2010.06.03 13:09:07.
