data_PCOD9204705
_publ_section_title
;
Structure prediction by ZEFSAII (Michael W. Deem and Ramdas Pophale) SiO2 
 PCOD9204705
Probable space group: C 2/M
;
_chemical_formula_sum "Si O2"
_cell_formula_units_Z 56
_cell_length_a 8.870665
_cell_length_b 30.908057
_cell_length_c 12.532259
_cell_angle_alpha 90.000000
_cell_angle_beta 51.361250
_cell_angle_gamma 90.000000
_cell_volume 2683.879219
_symmetry_space_group_name_H-M "C 2/M"
_symmetry_group_IT_number 12
_symmetry_cell_setting 'monoclinic'
loop_
_space_group_symop_operation_xyz
x,y,z
-x,y,-z
-x,-y,-z
x,-y,z
1/2+x,1/2+y,z
1/2-x,1/2+y,-z
1/2-x,1/2-y,-z
1/2+x,1/2-y,z
loop_
_atom_site_type_symbol
_atom_site_label
_atom_site_fract_x
_atom_site_fract_y
_atom_site_fract_z
Si Si1 0.339458 0.095988 0.309766
Si Si2 0.993095 0.310567 0.261116
Si Si3 0.717551 0.949940 0.447090
Si Si4 0.858535 0.548339 0.959379
Si Si5 0.073020 0.100039 0.218493
Si Si6 0.190090 0.242570 0.790621
Si Si7 0.302360 0.307917 0.930341
O O1 0.385725 0.144535 0.328092
O O2 0.280728 0.064268 0.430327
O O3 0.182056 0.095690 0.284440
O O4 0.537764 0.078419 0.171420
O O5 0.133389 0.290960 0.288509
O O6 0.840593 0.273549 0.296838
O O7 0.138723 0.315103 0.092995
O O8 0.500000 0.947380 0.500000
O O9 0.854787 0.915192 0.328973
O O10 0.784313 0.000000 0.405199
O O11 0.837134 0.500000 0.927090
O O12 0.664584 0.567783 0.091453
O O13 0.000000 0.547335 0.000000
O O14 0.127516 0.147445 0.152477
O O15 0.225175 0.275799 0.872747
O O16 0.993700 0.215493 0.888182
#
# Coordination Sequence:
#
# PCOD9204705 Si02
#       7
#     8   8   8   8   8   8   8
#     4  11  22  38  66  95 128 162 210 260 307 380
#     4  11  19  34  56  94 133 168 208 254 313 368
#     4  11  27  49  67  88 121 168 216 260 316 381
#     4   9  18  34  59  94 126 153 192 261 325 367
#     4  11  22  38  66  95 128 162 210 260 307 380
#     4  10  21  32  56  89 134 175 206 253 308 375
#     4  11  19  34  56  94 133 168 208 254 313 368
#
# _framework density 20.865321000000002
#
# number of rings (size 3 to 8) (size 9 to 14) (size 15 to 20)
#    0.000    1.429    2.857    4.714    2.000    2.286 
#    0.000    0.714    0.000    7.714    0.000    0.000 
#    0.000    0.000    0.000    0.000    0.000    0.000 
#
# Total GULP energy -156431.386688 kJ/mol
# GULP energy per Si atom -5586.835239 kJ/mol
# Density = 2.081783 g / cm^3
# Si number density = 20.865321 Si / 1000 Ang^3
#
#
#
# Elastic Constant Matrix: (Units=GPa)
#
#
# Indices 1 2 3 4 5 6 
#
# 1 72.0806 28.8737 2.7785 0.0000 -13.8706 0.0000
# 2 28.8737 91.2775 8.0297 0.0000 -1.2763 0.0000
# 3 2.7785 8.0297 39.1059 0.0000 -8.6690 0.0000
# 4 0.0000 0.0000 0.0000 19.9400 0.0000 -4.6679
# 5 -13.8706 -1.2763 -8.6690 0.0000 16.5419 0.0000
# 6 0.0000 0.0000 0.0000 -4.6679 0.0000 21.6436
#
#
#
# Elastic Compliance Matrix: (Units=1/GPa)
#
#
# Indices 1 2 3 4 5 6 
#
# 1 0.019749 -0.006338 0.003916 0.000000 0.018123 0.000000
# 2 -0.006338 0.013193 -0.003633 0.000000 -0.006201 0.000000
# 3 0.003916 -0.003633 0.030215 0.000000 0.018838 0.000000
# 4 0.000000 0.000000 0.000000 0.052817 0.000000 0.011391
# 5 0.018123 -0.006201 0.018838 0.000000 0.085042 0.000000
# 6 0.000000 0.000000 0.000000 0.011391 0.000000 0.048660
#
#
# Mechanical properties :
#
#
# Convention : Reuss Voigt Hill
#
# Bulk Modulus (GPa) = 19.59015 31.31420 25.45218
# Shear Modulus (GPa) = 17.93377 22.47724 20.20551
#
# Velocity S-wave (km/s) = 2.93491 3.28571 3.11525
# Velocity P-wave (km/s) = 4.57101 5.42540 5.01643
#
# Compressibility (1/GPa) = 0.05104607
#
# Stress axis : x y z
#
# Youngs Moduli (GPa) = 50.63619 75.79505 33.09566
#
# Poissons Ratio (x) = 0.48040 -0.12959
# Poissons Ratio (y) = 0.32094 0.12025
# Poissons Ratio (z) = -0.19828 0.27539
#
# Static dielectric constant tensor:
#      x y z
#    x 1.769020 0.000000 0.009050 
#    y 0.000000 1.746530 0.000000 
#    z 0.009050 0.000000 1.739710 
# 
# From -- ./inp_files/200832.got.cif
#   From: 2010.05.17/outbox.cif.g08.bks.cpg/sg12_101_cif.got.tgz:200832.got - 2010.06.03 13:09:07.
