data_PCOD9204423
_publ_section_title
;
Structure prediction by ZEFSAII (Michael W. Deem and Ramdas Pophale) SiO2 
 PCOD9204423
Probable space group: C 2/M
;
_chemical_formula_sum "Si O2"
_cell_formula_units_Z 64
_cell_length_a 16.229470
_cell_length_b 29.076560
_cell_length_c 11.333521
_cell_angle_alpha 90.000000
_cell_angle_beta 31.890847
_cell_angle_gamma 90.000000
_cell_volume 2825.498297
_symmetry_space_group_name_H-M "C 2/M"
_symmetry_group_IT_number 12
_symmetry_cell_setting 'monoclinic'
loop_
_space_group_symop_operation_xyz
x,y,z
-x,y,-z
-x,-y,-z
x,-y,z
1/2+x,1/2+y,z
1/2-x,1/2+y,-z
1/2-x,1/2-y,-z
1/2+x,1/2-y,z
loop_
_atom_site_type_symbol
_atom_site_label
_atom_site_fract_x
_atom_site_fract_y
_atom_site_fract_z
Si Si1 0.045884 0.601484 0.652510
Si Si2 0.910015 0.916586 0.798608
Si Si3 0.177400 0.787375 0.328307
Si Si4 0.753306 0.879624 0.620042
Si Si5 0.334779 0.301489 0.141185
Si Si6 0.220817 0.327208 0.028014
Si Si7 0.316483 0.050322 0.096592
Si Si8 0.828774 0.911736 0.159155
O O1 0.149938 0.622799 0.630349
O O2 0.166520 0.576221 0.418821
O O3 0.933253 0.643532 0.746835
O O4 0.936319 0.563999 0.848212
O O5 0.850602 0.948127 0.766151
O O6 0.091685 0.909095 0.595904
O O7 0.843071 0.866861 0.843312
O O8 0.833027 0.926754 0.018222
O O9 0.204756 0.829186 0.384448
O O10 0.217178 0.737215 0.331225
O O11 0.000000 0.787091 0.500000
O O12 0.289918 0.797682 0.078059
O O13 0.674562 0.909477 0.818632
O O14 0.299269 0.301622 0.043089
O O15 0.319314 0.355940 0.183756
O O16 0.500000 0.289133 0.000000
O O17 0.344118 0.000000 0.113062
O O18 0.000000 0.925565 0.000000
#
# Coordination Sequence:
#
# PCOD9204423 Si02
#       8
#     8   8   8   8   8   8   8   8
#     4  11  24  40  72  98 129 178 220 277 342 400
#     4  10  20  41  68  91 129 173 221 267 327 396
#     4  12  23  39  61  93 137 179 223 280 331 394
#     4  12  22  41  68  98 134 177 220 272 340 406
#     4  10  25  40  61  91 132 177 235 279 322 386
#     4  10  22  41  60  90 133 173 217 279 337 388
#     4  11  25  43  67 103 136 168 216 275 339 407
#     4  10  21  44  66  92 126 176 230 278 321 393
#
# _framework density 22.650873000000001
#
# number of rings (size 3 to 8) (size 9 to 14) (size 15 to 20)
#    0.000    1.250    5.000    1.125    3.500    6.000 
#    0.000    2.500    0.000    0.750    0.000    0.000 
#    0.000    0.000    0.000    0.000    0.000    0.000 
#
# Total GULP energy -178592.397649 kJ/mol
# GULP energy per Si atom -5581.012427 kJ/mol
# Density = 2.259932 g / cm^3
# Si number density = 22.650873 Si / 1000 Ang^3
#
#
#
# Elastic Constant Matrix: (Units=GPa)
#
#
# Indices 1 2 3 4 5 6 
#
# 1 117.3687 -3.1413 14.9107 -0.0002 -16.4364 -0.0007
# 2 -3.1413 29.6096 -14.3166 0.0000 -5.8626 0.0000
# 3 14.9107 -14.3166 110.7550 -0.0002 -3.5923 -0.0018
# 4 -0.0002 0.0000 -0.0002 3.1373 0.0002 -8.0101
# 5 -16.4364 -5.8626 -3.5923 0.0002 35.1169 0.0011
# 6 -0.0007 0.0000 -0.0018 -8.0101 0.0011 24.3358
#
#
#
# Elastic Compliance Matrix: (Units=1/GPa)
#
#
# Indices 1 2 3 4 5 6 
#
# 1 0.009306 0.001433 -0.000922 0.000002 0.004500 0.000001
# 2 0.001433 0.037793 0.004935 0.000002 0.007485 0.000001
# 3 -0.000922 0.004935 0.009836 0.000014 0.001399 0.000005
# 4 0.000002 0.000002 0.000014 1.996839 -0.000030 0.657258
# 5 0.004500 0.007485 0.001399 -0.000030 0.031975 -0.000011
# 6 0.000001 0.000001 0.000005 0.657258 -0.000011 0.257428
#
#
# Mechanical properties :
#
#
# Convention : Reuss Voigt Hill
#
# Bulk Modulus (GPa) = 14.74329 28.07100 21.40715
# Shear Modulus (GPa) = 2.12324 29.87002 15.99663
#
# Velocity S-wave (km/s) = 0.96923 3.63535 2.66037
# Velocity P-wave (km/s) = 2.78848 5.48095 4.34836
#
# Compressibility (1/GPa) = 0.06782745
#
# Stress axis : x y z
#
# Youngs Moduli (GPa) = 107.45934 26.45996 101.66402
#
# Poissons Ratio (x) = -0.03791 0.09370
# Poissons Ratio (y) = -0.15396 -0.50173
# Poissons Ratio (z) = 0.09904 -0.13058
#
# Static dielectric constant tensor:
#      x y z
#    x 1.869700 0.000000 -0.009570 
#    y 0.000000 1.868650 0.000000 
#    z -0.009570 0.000000 1.910210 
# 
# From -- ./inp_files/161203.got.cif
#   From: 2010.05.17/outbox.cif.g08.bks.cpg/sg12_81_cif.got.tgz:161203.got - 2010.06.03 13:09:07.
