data_PCOD9204934
_publ_section_title
;
Structure prediction by ZEFSAII (Michael W. Deem and Ramdas Pophale) SiO2 
 PCOD9204934
Probable space group: C 2/M
;
_chemical_formula_sum "Si O2"
_cell_formula_units_Z 56
_cell_length_a 30.483510
_cell_length_b 17.367148
_cell_length_c 6.483202
_cell_angle_alpha 90.000000
_cell_angle_beta 118.233111
_cell_angle_gamma 90.000000
_cell_volume 3023.944637
_symmetry_space_group_name_H-M "C 2/M"
_symmetry_group_IT_number 12
_symmetry_cell_setting 'monoclinic'
loop_
_space_group_symop_operation_xyz
x,y,z
-x,y,-z
-x,-y,-z
x,-y,z
1/2+x,1/2+y,z
1/2-x,1/2+y,-z
1/2-x,1/2-y,-z
1/2+x,1/2-y,z
loop_
_atom_site_type_symbol
_atom_site_label
_atom_site_fract_x
_atom_site_fract_y
_atom_site_fract_z
Si Si1 0.623976 0.819546 0.584848
Si Si2 0.186750 0.911972 0.784464
Si Si3 0.215480 0.824530 0.448932
Si Si4 0.056012 0.727361 0.048036
Si Si5 0.945411 0.412160 0.277086
Si Si6 0.779449 0.586554 0.303924
Si Si7 0.126505 0.186283 0.928128
O O1 0.592081 0.786031 0.323899
O O2 0.593050 0.886468 0.631614
O O3 0.676423 0.853332 0.628993
O O4 0.631458 0.755295 0.775947
O O5 0.194095 0.849806 0.620617
O O6 0.139555 0.889049 0.822473
O O7 0.181850 0.000000 0.699270
O O8 0.236964 0.906837 0.033911
O O9 0.250000 0.750000 0.500000
O O10 0.249978 0.894508 0.447108
O O11 0.170010 0.811485 0.193326
O O12 0.057442 0.649190 0.914485
O O13 0.076551 0.795556 0.945592
O O14 0.000000 0.740816 0.000000
O O15 0.936469 0.500000 0.189501
O O16 0.000000 0.407331 0.500000
O O17 0.799227 0.500000 0.347378
#
# Coordination Sequence:
#
# PCOD9204934 Si02
#       7
#     8   8   8   8   8   8   8
#     4  11  21  37  55  81 116 153 192 237 281 328
#     4  10  21  38  58  82 115 151 184 227 283 344
#     4  11  20  35  56  83 111 147 187 229 278 336
#     4  11  22  37  57  82 109 149 196 241 286 332
#     4  10  21  36  53  77 111 152 195 237 278 324
#     4  10  21  34  52  80 114 151 188 228 273 327
#     4  10  22  36  57  83 109 144 186 234 283 338
#
# _framework density 18.518858000000002
#
# number of rings (size 3 to 8) (size 9 to 14) (size 15 to 20)
#    0.000    1.571    1.429    4.286    0.000    5.429 
#    0.000    0.000    0.000    0.429    0.000    4.000 
#    0.000    0.000    0.000    0.000    0.000    0.000 
#
# Total GULP energy -156233.844396 kJ/mol
# GULP energy per Si atom -5579.780157 kJ/mol
# Density = 1.847671 g / cm^3
# Si number density = 18.518858 Si / 1000 Ang^3
#
#
#
# Elastic Constant Matrix: (Units=GPa)
#
#
# Indices 1 2 3 4 5 6 
#
# 1 132.0707 37.9875 34.9360 0.0000 -14.2822 0.0000
# 2 37.9875 72.6832 27.3425 0.0000 -3.1027 0.0000
# 3 34.9360 27.3425 47.4492 0.0000 -16.0864 0.0000
# 4 0.0000 0.0000 0.0000 18.7515 0.0000 -4.9578
# 5 -14.2822 -3.1027 -16.0864 0.0000 23.2213 0.0000
# 6 0.0000 0.0000 0.0000 -4.9578 0.0000 23.0957
#
#
#
# Elastic Compliance Matrix: (Units=1/GPa)
#
#
# Indices 1 2 3 4 5 6 
#
# 1 0.010037 -0.003426 -0.004546 0.000000 0.002567 0.000000
# 2 -0.003426 0.019422 -0.011114 0.000000 -0.007211 0.000000
# 3 -0.004546 -0.011114 0.038392 0.000000 0.022315 0.000000
# 4 0.000000 0.000000 0.000000 0.056538 0.000000 0.012137
# 5 0.002567 -0.007211 0.022315 0.000000 0.059137 0.000000
# 6 0.000000 0.000000 0.000000 0.012137 0.000000 0.045903
#
#
# Mechanical properties :
#
#
# Convention : Reuss Voigt Hill
#
# Bulk Modulus (GPa) = 33.69395 50.30391 41.99893
# Shear Modulus (GPa) = 18.01834 23.14284 20.58059
#
# Velocity S-wave (km/s) = 3.12263 3.53893 3.33728
# Velocity P-wave (km/s) = 5.58883 6.62731 6.13010
#
# Compressibility (1/GPa) = 0.02967892
#
# Stress axis : x y z
#
# Youngs Moduli (GPa) = 99.62935 51.48733 26.04727
#
# Poissons Ratio (x) = 0.17641 0.11840
# Poissons Ratio (y) = 0.34136 0.28949
# Poissons Ratio (z) = 0.45288 0.57224
#
# Static dielectric constant tensor:
#      x y z
#    x 1.651350 0.000000 -0.026760 
#    y 0.000000 1.643940 0.000000 
#    z -0.026760 0.000000 1.621160 
# 
# From -- ./inp_files/28745.got.cif
#   From: 2010.05.17/outbox.cif.g08.bks.cpg/sg12_15_cif.got.tgz:28745.got - 2010.06.03 13:09:07.
