data_PCOD9204680
_publ_section_title
;
Structure prediction by ZEFSAII (Michael W. Deem and Ramdas Pophale) SiO2 
 PCOD9204680
Probable space group: C 2/M
;
_chemical_formula_sum "Si O2"
_cell_formula_units_Z 48
_cell_length_a 14.283603
_cell_length_b 25.364402
_cell_length_c 15.046701
_cell_angle_alpha 90.000000
_cell_angle_beta 150.162088
_cell_angle_gamma 90.000000
_cell_volume 2712.306171
_symmetry_space_group_name_H-M "C 2/M"
_symmetry_group_IT_number 12
_symmetry_cell_setting 'monoclinic'
loop_
_space_group_symop_operation_xyz
x,y,z
-x,y,-z
-x,-y,-z
x,-y,z
1/2+x,1/2+y,z
1/2-x,1/2+y,-z
1/2-x,1/2-y,-z
1/2+x,1/2-y,z
loop_
_atom_site_type_symbol
_atom_site_label
_atom_site_fract_x
_atom_site_fract_y
_atom_site_fract_z
Si Si1 0.390318 0.870052 0.175932
Si Si2 0.969072 0.938836 0.078165
Si Si3 0.158719 0.390738 0.552625
Si Si4 0.899780 0.744071 0.274422
Si Si5 0.572911 0.810872 0.959713
Si Si6 0.266678 0.728997 0.664576
O O1 0.545824 0.896354 0.367827
O O2 0.368414 0.810918 0.198250
O O3 0.452920 0.859827 0.126704
O O4 0.196461 0.901823 0.022155
O O5 0.170739 0.930304 0.290445
O O6 0.912935 0.000000 0.037127
O O7 0.000000 0.924794 0.000000
O O8 0.256705 0.332943 0.636836
O O9 0.000000 0.392942 0.500000
O O10 0.810923 0.735231 0.299045
O O11 0.118031 0.754424 0.473754
O O12 0.788822 0.792297 0.140638
O O13 0.459347 0.760814 0.825665
O O14 0.500000 0.819787 0.000000
#
# Coordination Sequence:
#
# PCOD9204680 Si02
#       6
#     8   8   8   8   8   8
#     4  11  21  35  53  78 108 144 176 214 267 312
#     4  11  23  37  57  81 105 134 169 219 276 326
#     4  11  19  34  55  79 110 142 173 212 260 320
#     4   9  16  29  48  73 105 143 176 209 251 303
#     4  10  21  32  50  77 109 145 184 217 246 296
#     4   9  16  30  47  73 108 143 176 207 249 301
#
# _framework density 17.697116999999999
#
# number of rings (size 3 to 8) (size 9 to 14) (size 15 to 20)
#    0.000    1.833    5.000    1.500    0.000    6.333 
#    0.000    0.000    0.000    0.500    0.000    1.167 
#    0.000    0.000    0.000    0.000    0.000    0.000 
#
# Total GULP energy -133925.182897 kJ/mol
# GULP energy per Si atom -5580.215954 kJ/mol
# Density = 1.765684 g / cm^3
# Si number density = 17.697117 Si / 1000 Ang^3
#
#
#
# Elastic Constant Matrix: (Units=GPa)
#
#
# Indices 1 2 3 4 5 6 
#
# 1 70.5845 27.4829 40.3461 0.0003 -1.6364 0.0001
# 2 27.4829 19.6615 17.6473 0.0000 -5.7159 0.0000
# 3 40.3461 17.6473 87.6177 0.0009 -11.9613 0.0002
# 4 0.0003 0.0000 0.0009 2.8865 0.0006 -0.8872
# 5 -1.6364 -5.7159 -11.9613 0.0006 7.1190 0.0001
# 6 0.0001 0.0000 0.0002 -0.8872 0.0001 8.4254
#
#
#
# Elastic Compliance Matrix: (Units=1/GPa)
#
#
# Indices 1 2 3 4 5 6 
#
# 1 0.062733 -0.096407 -0.023446 0.000022 -0.102380 0.000004
# 2 -0.096407 0.219009 0.027592 -0.000042 0.200041 -0.000007
# 3 -0.023446 0.027592 0.024579 -0.000017 0.058061 -0.000003
# 4 0.000022 -0.000042 -0.000017 0.358029 -0.000086 0.037701
# 5 -0.102380 0.200041 0.058061 -0.000086 0.375101 -0.000014
# 6 0.000004 -0.000007 -0.000003 0.037701 -0.000014 0.122659
#
#
# Mechanical properties :
#
#
# Convention : Reuss Voigt Hill
#
# Bulk Modulus (GPa) = 8.21043 38.75736 23.48390
# Shear Modulus (GPa) = 3.60430 9.84534 6.72482
#
# Velocity S-wave (km/s) = 1.42866 2.36121 1.95146
# Velocity P-wave (km/s) = 2.71495 5.42049 4.28676
#
# Compressibility (1/GPa) = 0.12179629
#
# Stress axis : x y z
#
# Youngs Moduli (GPa) = 15.94052 4.56603 40.68556
#
# Poissons Ratio (x) = 0.44020 0.95393
# Poissons Ratio (y) = 1.53678 -1.12258
# Poissons Ratio (z) = 0.37375 -0.12598
#
# Static dielectric constant tensor:
#      x y z
#    x 1.645940 0.000000 -0.014500 
#    y 0.000000 1.562560 0.000000 
#    z -0.014500 0.000000 1.645550 
# 
# From -- ./inp_files/218545.got.cif
#   From: 2010.05.17/outbox.cif.g08.bks.cpg/sg12_110_cif.got.tgz:218545.got - 2010.06.03 13:09:07.
