data_PCOD9204365
_publ_section_title
;
Structure prediction by ZEFSAII (Michael W. Deem and Ramdas Pophale) SiO2 
 PCOD9204365
Probable space group: C 2/M
;
_chemical_formula_sum "Si O2"
_cell_formula_units_Z 48
_cell_length_a 12.537328
_cell_length_b 24.466920
_cell_length_c 14.172106
_cell_angle_alpha 90.000000
_cell_angle_beta 30.338329
_cell_angle_gamma 90.000000
_cell_volume 2195.838678
_symmetry_space_group_name_H-M "C 2/M"
_symmetry_group_IT_number 12
_symmetry_cell_setting 'monoclinic'
loop_
_space_group_symop_operation_xyz
x,y,z
-x,y,-z
-x,-y,-z
x,-y,z
1/2+x,1/2+y,z
1/2-x,1/2+y,-z
1/2-x,1/2-y,-z
1/2+x,1/2-y,z
loop_
_atom_site_type_symbol
_atom_site_label
_atom_site_fract_x
_atom_site_fract_y
_atom_site_fract_z
Si Si1 0.891579 0.936657 0.487983
Si Si2 0.270634 0.263937 0.707286
Si Si3 0.897089 0.910271 0.864858
Si Si4 0.202673 0.864730 0.775805
Si Si5 0.038615 0.437451 0.280906
Si Si6 0.333195 0.797484 0.000766
O O1 0.666846 0.915905 0.619130
O O2 0.000000 0.912832 0.500000
O O3 0.050401 0.933894 0.277784
O O4 0.845401 0.000000 0.546291
O O5 0.500000 0.280515 0.500000
O O6 0.251825 0.197978 0.711596
O O7 0.229449 0.279941 0.846389
O O8 0.084573 0.295720 0.796430
O O9 0.780595 0.852882 0.937801
O O10 0.115320 0.899174 0.754104
O O11 0.734878 0.940655 0.057634
O O12 0.384027 0.896482 0.695415
O O13 0.000000 0.861191 0.000000
O O14 0.996790 0.500000 0.346805
O O15 0.250000 0.750000 0.000000
#
# Coordination Sequence:
#
# PCOD9204365 Si02
#       6
#     8   8   8   8   8   8
#     4  10  24  44  64  94 133 169 216 269 318 386
#     4  11  24  40  64  92 130 172 220 268 330 385
#     4  11  23  39  68  91 129 174 217 262 326 388
#     4  10  20  41  65  95 133 172 210 268 324 391
#     4  10  23  41  67 101 133 167 212 267 327 392
#     4  11  22  42  60  91 129 170 218 271 320 384
#
# _framework density 21.859528999999998
#
# number of rings (size 3 to 8) (size 9 to 14) (size 15 to 20)
#    0.000    1.500    3.333    1.500    2.333    9.667 
#    0.000    4.167    0.000    0.000    0.000    0.000 
#    0.000    0.000    0.000    0.000    0.000    0.000 
#
# Total GULP energy -134092.804024 kJ/mol
# GULP energy per Si atom -5587.200168 kJ/mol
# Density = 2.180978 g / cm^3
# Si number density = 21.859529 Si / 1000 Ang^3
#
#
#
# Elastic Constant Matrix: (Units=GPa)
#
#
# Indices 1 2 3 4 5 6 
#
# 1 142.5395 29.8428 44.6787 0.0004 -32.9211 -0.0004
# 2 29.8428 81.0614 1.0420 -0.0021 -16.3147 -0.0046
# 3 44.6787 1.0420 113.7377 -0.0216 -27.8317 -0.0208
# 4 0.0004 -0.0021 -0.0216 32.8188 0.0018 -4.3249
# 5 -32.9211 -16.3147 -27.8317 0.0018 41.3286 0.0117
# 6 -0.0004 -0.0046 -0.0208 -4.3249 0.0117 26.5329
#
#
#
# Elastic Compliance Matrix: (Units=1/GPa)
#
#
# Indices 1 2 3 4 5 6 
#
# 1 0.009437 -0.002463 -0.002494 -0.000003 0.004865 -0.000005
# 2 -0.002463 0.014233 0.002074 0.000002 0.005053 0.000002
# 3 -0.002494 0.002074 0.011335 0.000008 0.006465 0.000008
# 4 -0.000003 0.000002 0.000008 0.031139 0.000001 0.005076
# 5 0.004865 0.005053 0.006465 0.000001 0.034421 -0.000009
# 6 -0.000005 0.000002 0.000008 0.005076 -0.000009 0.038516
#
#
# Mechanical properties :
#
#
# Convention : Reuss Voigt Hill
#
# Bulk Modulus (GPa) = 34.20114 54.27397 44.23755
# Shear Modulus (GPa) = 32.34291 37.58774 34.96533
#
# Velocity S-wave (km/s) = 3.85070 4.15120 4.00377
# Velocity P-wave (km/s) = 5.95402 6.91802 6.45405
#
# Compressibility (1/GPa) = 0.02923879
#
# Stress axis : x y z
#
# Youngs Moduli (GPa) = 105.97025 70.25724 88.22365
#
# Poissons Ratio (x) = 0.17303 0.22001
# Poissons Ratio (y) = 0.26099 -0.18294
# Poissons Ratio (z) = 0.26427 -0.14569
#
# Static dielectric constant tensor:
#      x y z
#    x 1.819570 -0.000010 -0.015060 
#    y -0.000010 1.768220 0.000010 
#    z -0.015060 0.000010 1.798310 
# 
# From -- ./inp_files/209263.got.cif
#   From: 2010.05.17/outbox.cif.g08.bks.cpg/sg12_105_cif.got.tgz:209263.got - 2010.06.03 13:09:07.
