data_PCOD9204447
_publ_section_title
;
Structure prediction by ZEFSAII (Michael W. Deem and Ramdas Pophale) SiO2 
 PCOD9204447
Probable space group: C 2/M
;
_chemical_formula_sum "Si O2"
_cell_formula_units_Z 56
_cell_length_a 14.294217
_cell_length_b 21.610919
_cell_length_c 8.635144
_cell_angle_alpha 90.000000
_cell_angle_beta 72.257036
_cell_angle_gamma 90.000000
_cell_volume 2540.608403
_symmetry_space_group_name_H-M "C 2/M"
_symmetry_group_IT_number 12
_symmetry_cell_setting 'monoclinic'
loop_
_space_group_symop_operation_xyz
x,y,z
-x,y,-z
-x,-y,-z
x,-y,z
1/2+x,1/2+y,z
1/2-x,1/2+y,-z
1/2-x,1/2-y,-z
1/2+x,1/2-y,z
loop_
_atom_site_type_symbol
_atom_site_label
_atom_site_fract_x
_atom_site_fract_y
_atom_site_fract_z
Si Si1 0.799855 0.927961 0.947285
Si Si2 0.201236 0.748997 0.190162
Si Si3 0.998644 0.924981 0.314308
Si Si4 0.700151 0.373900 0.717020
Si Si5 0.086889 0.568767 0.080169
Si Si6 0.213471 0.685830 0.596098
Si Si7 0.992046 0.306896 0.815045
O O1 0.900724 0.904221 0.821921
O O2 0.806424 0.000000 0.908002
O O3 0.792953 0.917940 0.136703
O O4 0.689397 0.911262 0.950068
O O5 0.259938 0.690375 0.232289
O O6 0.225446 0.809480 0.276763
O O7 0.085658 0.739083 0.223310
O O8 0.250000 0.750000 0.000000
O O9 0.910189 0.884743 0.287131
O O10 0.000000 0.917198 0.500000
O O11 0.982401 0.000000 0.294399
O O12 0.763173 0.372649 0.525106
O O13 0.098291 0.500000 0.143467
O O14 0.054743 0.625892 0.200286
O O15 0.000000 0.564804 0.000000
O O16 0.250000 0.750000 0.500000
O O17 0.099740 0.694112 0.691105
O O18 0.000000 0.299096 0.000000
#
# Coordination Sequence:
#
# PCOD9204447 Si02
#       7
#     8   8   8   8   8   8   8
#     4  10  20  41  70 100 137 177 217 268 329 405
#     4  11  23  45  67  96 126 174 232 285 335 399
#     4  10  23  43  68 101 139 175 215 275 342 399
#     4  11  23  42  63  96 130 177 217 272 328 406
#     4   9  19  36  64 100 129 166 218 268 328 400
#     4  10  25  45  61  93 132 171 221 282 342 389
#     4  11  21  42  73  94 130 175 222 284 339 395
#
# _framework density 22.041965000000001
#
# number of rings (size 3 to 8) (size 9 to 14) (size 15 to 20)
#    0.000    1.714    2.857    0.857    0.000    6.857 
#   15.429    2.857    0.000    1.714    0.000    0.000 
#    0.000    0.000    0.000    0.000    0.000    0.000 
#
# Total GULP energy -155948.515250 kJ/mol
# GULP energy per Si atom -5569.589830 kJ/mol
# Density = 2.199180 g / cm^3
# Si number density = 22.041965 Si / 1000 Ang^3
#
#
#
# Elastic Constant Matrix: (Units=GPa)
#
#
# Indices 1 2 3 4 5 6 
#
# 1 196.9842 39.9566 79.8861 0.0000 -35.7637 0.0000
# 2 39.9566 39.1805 13.6420 0.0000 -9.3540 0.0000
# 3 79.8861 13.6420 114.1640 0.0000 -33.7159 0.0000
# 4 0.0000 0.0000 0.0000 16.3702 0.0000 0.0074
# 5 -35.7637 -9.3540 -33.7159 0.0000 49.9927 0.0000
# 6 0.0000 0.0000 0.0000 0.0074 0.0000 33.8472
#
#
#
# Elastic Compliance Matrix: (Units=1/GPa)
#
#
# Indices 1 2 3 4 5 6 
#
# 1 0.008704 -0.006802 -0.004764 0.000000 0.001741 0.000000
# 2 -0.006802 0.032459 0.001546 0.000000 0.002249 0.000000
# 3 -0.004764 0.001546 0.013720 0.000000 0.006134 0.000000
# 4 0.000000 0.000000 0.000000 0.061087 0.000000 -0.000013
# 5 0.001741 0.002249 0.006134 0.000000 0.025806 0.000000
# 6 0.000000 0.000000 0.000000 -0.000013 0.000000 0.029545
#
#
# Mechanical properties :
#
#
# Convention : Reuss Voigt Hill
#
# Bulk Modulus (GPa) = 28.70109 68.58865 48.64487
# Shear Modulus (GPa) = 24.63347 34.49829 29.56588
#
# Velocity S-wave (km/s) = 3.34664 3.96045 3.66641
# Velocity P-wave (km/s) = 5.28987 7.21792 6.32776
#
# Compressibility (1/GPa) = 0.03484188
#
# Stress axis : x y z
#
# Youngs Moduli (GPa) = 114.88342 30.80810 72.88817
#
# Poissons Ratio (x) = 0.20957 0.34722
# Poissons Ratio (y) = 0.78149 -0.11266
# Poissons Ratio (z) = 0.54728 -0.04762
#
# Static dielectric constant tensor:
#      x y z
#    x 1.818640 0.000000 0.050560 
#    y 0.000000 1.878280 0.000000 
#    z 0.050560 0.000000 1.918100 
# 
# From -- ./inp_files/65740.got.cif
#   From: 2010.05.17/outbox.cif.g08.bks.cpg/sg12_33_cif.got.tgz:65740.got - 2010.06.03 13:09:07.
