data_PCOD9204221
_publ_section_title
;
Structure prediction by ZEFSAII (Michael W. Deem and Ramdas Pophale) SiO2 
 PCOD9204221
Probable space group: C 2/M
;
_chemical_formula_sum "Si O2"
_cell_formula_units_Z 48
_cell_length_a 9.946351
_cell_length_b 30.098312
_cell_length_c 19.536820
_cell_angle_alpha 90.000000
_cell_angle_beta 153.507063
_cell_angle_gamma 90.000000
_cell_volume 2609.034603
_symmetry_space_group_name_H-M "C 2/M"
_symmetry_group_IT_number 12
_symmetry_cell_setting 'monoclinic'
loop_
_space_group_symop_operation_xyz
x,y,z
-x,y,-z
-x,-y,-z
x,-y,z
1/2+x,1/2+y,z
1/2-x,1/2+y,-z
1/2-x,1/2-y,-z
1/2+x,1/2-y,z
loop_
_atom_site_type_symbol
_atom_site_label
_atom_site_fract_x
_atom_site_fract_y
_atom_site_fract_z
Si Si1 0.195630 0.306690 0.405119
Si Si2 0.273771 0.052878 0.576131
Si Si3 0.651885 0.450200 0.363126
Si Si4 0.853603 0.130543 0.147163
Si Si5 0.190228 0.879470 0.156436
Si Si6 0.167707 0.204360 0.379369
O O1 0.500000 0.310894 0.500000
O O2 0.076714 0.255827 0.346651
O O3 0.297106 0.316157 0.529224
O O4 0.927817 0.338894 0.261134
O O5 0.157427 0.059652 0.446085
O O6 0.586579 0.078562 0.730192
O O7 0.000000 0.067991 0.500000
O O8 0.319937 0.000000 0.607286
O O9 0.527544 0.500000 0.294986
O O10 0.491001 0.412335 0.247397
O O11 0.000000 0.450695 0.500000
O O12 0.972085 0.128222 0.122775
O O13 0.974212 0.174609 0.240302
O O14 0.500000 0.129330 0.000000
O O15 0.000000 0.883549 0.000000
O O16 0.500000 0.205343 0.500000
#
# Coordination Sequence:
#
# PCOD9204221 Si02
#       6
#     8   8   8   8   8   8
#     4  10  22  39  67  92 113 153 205 254 299 355
#     4  10  22  41  67  93 119 158 205 252 300 354
#     4  10  20  40  68  90 113 156 211 255 291 347
#     4  12  26  40  60  89 127 166 197 246 307 360
#     4  12  26  41  58  90 130 162 197 247 306 364
#     4  10  20  42  66  88 115 155 207 253 298 352
#
# _framework density 18.397608999999999
#
# number of rings (size 3 to 8) (size 9 to 14) (size 15 to 20)
#    0.000    1.333    3.333    2.000    4.667    1.333 
#    0.000    1.667    0.000    0.000    0.000    0.000 
#    0.000    0.000    0.000    0.000    0.000    0.000 
#
# Total GULP energy -134010.956971 kJ/mol
# GULP energy per Si atom -5583.789874 kJ/mol
# Density = 1.835574 g / cm^3
# Si number density = 18.397609 Si / 1000 Ang^3
#
#
#
# Elastic Constant Matrix: (Units=GPa)
#
#
# Indices 1 2 3 4 5 6 
#
# 1 125.1916 18.7567 35.9845 -0.0001 -8.7728 0.0000
# 2 18.7567 88.4141 57.7509 -0.0002 -5.5334 -0.0002
# 3 35.9845 57.7509 96.5746 -0.0029 0.1752 -0.0017
# 4 -0.0001 -0.0002 -0.0029 -24.2805 -0.0005 -2.8236
# 5 -8.7728 -5.5334 0.1752 -0.0005 28.4778 -0.0001
# 6 0.0000 -0.0002 -0.0017 -2.8236 -0.0001 31.3867
#
#
#
# Elastic Compliance Matrix: (Units=1/GPa)
#
#
# Indices 1 2 3 4 5 6 
#
# 1 0.009203 0.000787 -0.003905 0.000000 0.003012 0.000000
# 2 0.000787 0.019020 -0.011674 0.000001 0.004010 0.000000
# 3 -0.003905 -0.011674 0.018798 -0.000002 -0.003587 0.000001
# 4 0.000000 0.000001 -0.000002 -0.040759 0.000000 -0.003667
# 5 0.003012 0.004010 -0.003587 0.000000 0.036844 0.000000
# 6 0.000000 0.000000 0.000001 -0.003667 0.000000 0.031531
#
#
# Mechanical properties :
#
#
# Convention : Reuss Voigt Hill
#
# Bulk Modulus (GPa) = 57.35410 59.46271 58.40840
# Shear Modulus (GPa) = 45.44046 20.29602 32.86824
#
# Velocity S-wave (km/s) = 4.97521 3.32503 4.23134
# Velocity P-wave (km/s) = 8.01536 6.86529 7.46251
#
# Compressibility (1/GPa) = 0.01743555
#
# Stress axis : x y z
#
# Youngs Moduli (GPa) = 108.65481 52.57648 53.19856
#
# Poissons Ratio (x) = -0.04138 0.20776
# Poissons Ratio (y) = -0.08551 0.62105
# Poissons Ratio (z) = 0.42433 0.61379
#
# Static dielectric constant tensor:
#      x y z
#    x 1.650870 0.000000 -0.004370 
#    y 0.000000 1.677620 0.000000 
#    z -0.004370 0.000000 1.585040 
# 
# From -- ./inp_files/260434.got.cif
#   From: 2010.05.17/outbox.cif.g08.bks.cpg/sg12_131_cif.got.tgz:260434.got - 2010.06.03 13:09:07.
