data_PCOD9204272
_publ_section_title
;
Structure prediction by ZEFSAII (Michael W. Deem and Ramdas Pophale) SiO2 
 PCOD9204272
Probable space group: C 2/M
;
_chemical_formula_sum "Si O2"
_cell_formula_units_Z 44
_cell_length_a 29.543062
_cell_length_b 10.056079
_cell_length_c 15.728522
_cell_angle_alpha 90.000000
_cell_angle_beta 28.564392
_cell_angle_gamma 90.000000
_cell_volume 2234.254966
_symmetry_space_group_name_H-M "C 2/M"
_symmetry_group_IT_number 12
_symmetry_cell_setting 'monoclinic'
loop_
_space_group_symop_operation_xyz
x,y,z
-x,y,-z
-x,-y,-z
x,-y,z
1/2+x,1/2+y,z
1/2-x,1/2+y,-z
1/2-x,1/2-y,-z
1/2+x,1/2-y,z
loop_
_atom_site_type_symbol
_atom_site_label
_atom_site_fract_x
_atom_site_fract_y
_atom_site_fract_z
Si Si1 0.019280 0.000000 0.369631
Si Si2 0.705902 0.500000 0.959578
Si Si3 0.087879 0.500000 0.420431
Si Si4 0.310480 0.646530 0.348285
Si Si5 0.185484 0.222254 0.851215
Si Si6 0.110016 0.771754 0.492180
Si Si7 0.979194 0.839261 0.185033
O O1 0.000000 0.000000 0.500000
O O2 0.965809 0.127871 0.421514
O O3 0.128869 0.000000 0.160846
O O4 0.817374 0.500000 0.794415
O O5 0.689510 0.625735 0.925484
O O6 0.094062 0.629201 0.472357
O O7 0.000000 0.500000 0.500000
O O8 0.282674 0.500000 0.423437
O O9 0.250000 0.750000 0.500000
O O10 0.297553 0.655185 0.268811
O O11 0.418703 0.666354 0.198921
O O12 0.279623 0.312153 0.704677
O O13 0.073623 0.250584 0.029884
O O14 0.086685 0.783877 0.630528
O O15 0.000645 0.000000 0.163455
#
# Coordination Sequence:
#
# PCOD9204272 Si02
#       7
#     4   4   4   8   8   8   8
#     4  12  24  46  69  95 121 154 212 271 320 375
#     4  10  20  40  70  86 118 170 207 242 309 391
#     4  10  24  44  62  92 124 160 209 256 316 390
#     4  11  22  34  61  93 126 169 212 257 298 353
#     4  11  19  37  62  92 124 162 214 244 303 369
#     4  11  22  39  67  90 124 165 198 263 317 366
#     4  11  20  38  64  92 126 166 218 252 296 377
#
# _framework density 19.693365
#
# number of rings (size 3 to 8) (size 9 to 14) (size 15 to 20)
#    0.000    1.091    6.364    1.091    0.000    1.455 
#    3.273    2.727    0.000    1.091    0.000    0.000 
#    0.000    0.000    0.000    0.000    0.000    0.000 
#
# Total GULP energy -122527.893436 kJ/mol
# GULP energy per Si atom -5569.449702 kJ/mol
# Density = 1.964854 g / cm^3
# Si number density = 19.693365 Si / 1000 Ang^3
#
#
#
# Elastic Constant Matrix: (Units=GPa)
#
#
# Indices 1 2 3 4 5 6 
#
# 1 85.2591 10.0816 30.9862 0.0000 -5.1008 0.0000
# 2 10.0816 57.1741 34.1426 0.0000 0.3654 0.0000
# 3 30.9862 34.1426 155.7830 0.0000 -5.5343 0.0000
# 4 0.0000 0.0000 0.0000 23.8553 0.0000 2.8644
# 5 -5.1008 0.3654 -5.5343 0.0000 40.3277 0.0000
# 6 0.0000 0.0000 0.0000 2.8644 0.0000 -3.4761
#
#
#
# Elastic Compliance Matrix: (Units=1/GPa)
#
#
# Indices 1 2 3 4 5 6 
#
# 1 0.012746 -0.000885 -0.002295 0.000000 0.001305 0.000000
# 2 -0.000885 0.020211 -0.004285 0.000000 -0.000883 0.000000
# 3 -0.002295 -0.004285 0.007844 0.000000 0.000825 0.000000
# 4 0.000000 0.000000 0.000000 0.038145 0.000000 0.031433
# 5 0.001305 -0.000883 0.000825 0.000000 0.025083 0.000000
# 6 0.000000 0.000000 0.000000 0.031433 0.000000 -0.261778
#
#
# Mechanical properties :
#
#
# Convention : Reuss Voigt Hill
#
# Bulk Modulus (GPa) = 38.65386 49.84856 44.25121
# Shear Modulus (GPa) = -37.25929 27.00844 -5.12543
#
# Velocity S-wave (km/s) = -4.35440 3.70732 -1.61501
# Velocity P-wave (km/s) = 2.36867 6.61007 4.36362
#
# Compressibility (1/GPa) = 0.02587064
#
# Stress axis : x y z
#
# Youngs Moduli (GPa) = 78.45756 49.47803 127.48534
#
# Poissons Ratio (x) = 0.04381 0.29255
# Poissons Ratio (y) = 0.06947 0.54626
# Poissons Ratio (z) = 0.18004 0.21201
#
# Static dielectric constant tensor:
#      x y z
#    x 1.761190 0.000000 -0.027680 
#    y 0.000000 1.698040 0.000000 
#    z -0.027680 0.000000 1.721090 
# 
# From -- ./inp_files/245574.got.cif
#   From: 2010.05.17/outbox.cif.g08.bks.cpg/sg12_123_cif.got.tgz:245574.got - 2010.06.03 13:09:07.
