data_PCOD9204687
_publ_section_title
;
Structure prediction by ZEFSAII (Michael W. Deem and Ramdas Pophale) SiO2 
 PCOD9204687
Probable space group: C 2/M
;
_chemical_formula_sum "Si O2"
_cell_formula_units_Z 64
_cell_length_a 12.648725
_cell_length_b 13.830870
_cell_length_c 22.267853
_cell_angle_alpha 90.000000
_cell_angle_beta 110.519968
_cell_angle_gamma 90.000000
_cell_volume 3648.426504
_symmetry_space_group_name_H-M "C 2/M"
_symmetry_group_IT_number 12
_symmetry_cell_setting 'monoclinic'
loop_
_space_group_symop_operation_xyz
x,y,z
-x,y,-z
-x,-y,-z
x,-y,z
1/2+x,1/2+y,z
1/2-x,1/2+y,-z
1/2-x,1/2-y,-z
1/2+x,1/2-y,z
loop_
_atom_site_type_symbol
_atom_site_label
_atom_site_fract_x
_atom_site_fract_y
_atom_site_fract_z
Si Si1 0.867024 0.384647 0.849417
Si Si2 0.740532 0.115326 0.295707
Si Si3 0.731771 0.386946 0.944892
Si Si4 0.428311 0.186856 0.430300
Si Si5 0.771523 0.885088 0.544610
Si Si6 0.964643 0.887448 0.401174
Si Si7 0.870414 0.382523 0.600699
Si Si8 0.067485 0.722914 0.952222
O O1 0.890991 0.500000 0.850122
O O2 0.813498 0.348123 0.776444
O O3 0.778895 0.373396 0.886728
O O4 0.979567 0.327978 0.890255
O O5 0.875960 0.127350 0.329236
O O6 0.679713 0.148534 0.345059
O O7 0.723756 0.000000 0.291438
O O8 0.707840 0.500000 0.949307
O O9 0.626993 0.317253 0.937179
O O10 0.833423 0.351229 0.008455
O O11 0.500000 0.144053 0.500000
O O12 0.303794 0.147764 0.414273
O O13 0.424246 0.302396 0.436481
O O14 0.504249 0.157408 0.388649
O O15 0.711855 0.849531 0.470726
O O16 0.903480 0.865996 0.580751
O O17 0.763373 0.000000 0.538656
O O18 0.951466 0.000000 0.418637
O O19 0.874137 0.500000 0.600662
O O20 0.000000 0.746741 0.000000
#
# Coordination Sequence:
#
# PCOD9204687 Si02
#       8
#     8   8   8   8   8   8   8   8
#     4   9  17  33  53  72  98 134 173 207 242 290
#     4   9  19  34  51  72  99 132 171 212 253 297
#     4   9  17  30  51  80 109 137 168 206 247 286
#     4  10  21  32  52  72  98 124 164 207 260 315
#     4   9  19  35  53  72  96 127 162 207 264 317
#     4  10  22  35  49  71 100 129 162 208 259 308
#     4   9  18  33  53  75  98 125 164 213 260 307
#     4   9  17  30  51  79 108 135 169 206 243 289
#
# _framework density 17.541809000000001
#
# number of rings (size 3 to 8) (size 9 to 14) (size 15 to 20)
#    0.000    2.750    0.000    0.750    3.500    4.500 
#    2.250    0.000    0.000    0.000    0.000    0.875 
#    0.000    0.000    0.000    0.000    0.000    0.000 
#
# Total GULP energy -178260.260922 kJ/mol
# GULP energy per Si atom -5570.633154 kJ/mol
# Density = 1.750188 g / cm^3
# Si number density = 17.541809 Si / 1000 Ang^3
#
#
#
# Elastic Constant Matrix: (Units=GPa)
#
#
# Indices 1 2 3 4 5 6 
#
# 1 130.4472 45.7201 63.6110 0.0000 8.1467 0.0000
# 2 45.7201 56.5152 37.7973 0.0000 -1.5362 0.0000
# 3 63.6110 37.7973 118.0072 0.0000 12.5631 0.0000
# 4 0.0000 0.0000 0.0000 17.0614 0.0000 1.3013
# 5 8.1467 -1.5362 12.5631 0.0000 12.8631 0.0000
# 6 0.0000 0.0000 0.0000 1.3013 0.0000 29.6392
#
#
#
# Elastic Compliance Matrix: (Units=1/GPa)
#
#
# Indices 1 2 3 4 5 6 
#
# 1 0.012534 -0.007813 -0.003694 0.000000 -0.005264 0.000000
# 2 -0.007813 0.028835 -0.006605 0.000000 0.014842 0.000000
# 3 -0.003694 -0.006605 0.013856 0.000000 -0.011982 0.000000
# 4 0.000000 0.000000 0.000000 0.058809 0.000000 -0.002582
# 5 -0.005264 0.014842 -0.011982 0.000000 0.094551 0.000000
# 6 0.000000 0.000000 0.000000 -0.002582 0.000000 0.033853
#
#
# Mechanical properties :
#
#
# Convention : Reuss Voigt Hill
#
# Bulk Modulus (GPa) = 52.62128 66.58071 59.60100
# Shear Modulus (GPa) = 17.54421 22.43549 19.98985
#
# Velocity S-wave (km/s) = 3.16592 3.58015 3.37939
# Velocity P-wave (km/s) = 6.58991 7.42481 7.01978
#
# Compressibility (1/GPa) = 0.01900372
#
# Stress axis : x y z
#
# Youngs Moduli (GPa) = 79.78247 34.67967 72.17000
#
# Poissons Ratio (x) = 0.27094 0.26657
# Poissons Ratio (y) = 0.62332 0.47665
# Poissons Ratio (z) = 0.29469 0.22905
#
# Static dielectric constant tensor:
#      x y z
#    x 1.624110 0.000000 0.002210 
#    y 0.000000 1.618990 0.000000 
#    z 0.002210 0.000000 1.603260 
# 
# From -- ./inp_files/305479.got.cif
#   From: 2010.05.17/outbox.cif.g08.bks.cpg/sg12_153_cif.got.tgz:305479.got - 2010.06.03 13:09:07.
