data_PCOD9204726
_publ_section_title
;
Structure prediction by ZEFSAII (Michael W. Deem and Ramdas Pophale) SiO2 
 PCOD9204726
Probable space group: C 2/M
;
_chemical_formula_sum "Si O2"
_cell_formula_units_Z 64
_cell_length_a 7.487060
_cell_length_b 14.244967
_cell_length_c 26.590743
_cell_angle_alpha 90.000000
_cell_angle_beta 113.388188
_cell_angle_gamma 90.000000
_cell_volume 2602.966323
_symmetry_space_group_name_H-M "C 2/M"
_symmetry_group_IT_number 12
_symmetry_cell_setting 'monoclinic'
loop_
_space_group_symop_operation_xyz
x,y,z
-x,y,-z
-x,-y,-z
x,-y,z
1/2+x,1/2+y,z
1/2-x,1/2+y,-z
1/2-x,1/2-y,-z
1/2+x,1/2-y,z
loop_
_atom_site_type_symbol
_atom_site_label
_atom_site_fract_x
_atom_site_fract_y
_atom_site_fract_z
Si Si1 0.568571 0.891948 0.894951
Si Si2 0.285477 0.114201 0.491763
Si Si3 0.374399 0.385363 0.750528
Si Si4 0.212238 0.614124 0.216544
Si Si5 0.069160 0.887525 0.128109
Si Si6 0.870688 0.885493 0.414530
Si Si7 0.454234 0.114748 0.697907
Si Si8 0.304509 0.357300 0.010376
O O1 0.375924 0.853365 0.846780
O O2 0.619089 0.896138 0.959376
O O3 0.755738 0.848990 0.887218
O O4 0.565720 0.000000 0.879337
O O5 0.500000 0.148418 0.500000
O O6 0.226196 0.137200 0.542396
O O7 0.096457 0.145054 0.438472
O O8 0.292275 0.000000 0.489438
O O9 0.367995 0.500000 0.749092
O O10 0.571518 0.352888 0.746619
O O11 0.405499 0.355843 0.812111
O O12 0.169006 0.354248 0.705808
O O13 0.229158 0.500000 0.217338
O O14 0.071232 0.638366 0.246291
O O15 0.086511 0.000000 0.132705
O O16 0.869139 0.873679 0.074761
O O17 0.726072 0.851583 0.355143
O O18 0.876352 0.000000 0.412775
O O19 0.450116 0.000000 0.694677
O O20 0.500000 0.384118 0.000000
O O21 0.250000 0.250000 0.000000
#
# Coordination Sequence:
#
# PCOD9204726 Si02
#       8
#     8   8   8   8   8   8   8   8
#     4   9  16  30  49  65  83 111 147 182 221 274
#     4   8  13  21  30  41  61  92 135 177 208 248
#     4   9  16  25  39  59  79 101 131 169 217 268
#     4   9  16  25  39  59  79 101 131 169 217 268
#     4   9  16  30  49  65  83 111 147 182 221 274
#     4   8  14  21  30  44  63  94 130 169 219 256
#     4   9  15  24  35  51  78 101 127 175 223 263
#     4  10  21  33  47  67  91 116 141 179 229 272
#
# _framework density 24.587330999999999
#
# number of rings (size 3 to 8) (size 9 to 14) (size 15 to 20)
#    0.000    3.125    1.250    1.125    0.000    3.500 
#    0.000    5.000    0.000    3.750    0.000    0.000 
#    0.000    0.000    0.000    0.000    0.000    0.000 
#
# Total GULP energy -178502.665869 kJ/mol
# GULP energy per Si atom -5578.208308 kJ/mol
# Density = 2.453137 g / cm^3
# Si number density = 24.587331 Si / 1000 Ang^3
#
#
#
# Elastic Constant Matrix: (Units=GPa)
#
#
# Indices 1 2 3 4 5 6 
#
# 1 130.0177 1.3701 51.2296 0.0000 48.2448 0.0000
# 2 1.3701 64.7756 -4.4561 0.0000 3.6195 0.0000
# 3 51.2296 -4.4561 119.4409 0.0000 52.3768 0.0000
# 4 0.0000 0.0000 0.0000 -49.2900 0.0000 -33.8973
# 5 48.2448 3.6195 52.3768 0.0000 40.4025 0.0000
# 6 0.0000 0.0000 0.0000 -33.8973 0.0000 -11.9426
#
#
#
# Elastic Compliance Matrix: (Units=1/GPa)
#
#
# Indices 1 2 3 4 5 6 
#
# 1 0.014382 0.001135 0.003358 0.000000 -0.021629 0.000000
# 2 0.001135 0.016006 0.003090 0.000000 -0.006796 0.000000
# 3 0.003358 0.003090 0.020688 0.000000 -0.031106 0.000000
# 4 0.000000 0.000000 0.000000 0.021312 0.000000 -0.060490
# 5 -0.021629 -0.006796 -0.031106 0.000000 0.091512 0.000000
# 6 0.000000 0.000000 0.000000 -0.060490 0.000000 0.087958
#
#
# Mechanical properties :
#
#
# Convention : Reuss Voigt Hill
#
# Bulk Modulus (GPa) = 15.09575 45.61349 30.35462
# Shear Modulus (GPa) = 19.32214 13.57335 16.44774
#
# Velocity S-wave (km/s) = 2.80636 2.35212 2.58922
# Velocity P-wave (km/s) = 4.08091 5.09593 4.61640
#
# Compressibility (1/GPa) = 0.06624379
#
# Stress axis : x y z
#
# Youngs Moduli (GPa) = 69.53335 62.47568 48.33770
#
# Poissons Ratio (x) = -0.07093 -0.16234
# Poissons Ratio (y) = -0.07895 -0.14938
# Poissons Ratio (z) = -0.23352 -0.19307
#
# Static dielectric constant tensor:
#      x y z
#    x 2.048820 0.000000 0.085810 
#    y 0.000000 2.153150 0.000000 
#    z 0.085810 0.000000 1.995130 
# 
# From -- ./inp_files/356815.got.cif
#   From: 2010.05.17/outbox.cif.g08.bks.cpg/sg12_179_cif.got.tgz:356815.got - 2010.06.03 13:09:07.
