data_PCOD9204070
_publ_section_title
;
Structure prediction by ZEFSAII (Michael W. Deem and Ramdas Pophale) SiO2 
 PCOD9204070
Probable space group: C 2/M
;
_chemical_formula_sum "Si O2"
_cell_formula_units_Z 40
_cell_length_a 9.288697
_cell_length_b 24.995375
_cell_length_c 17.330605
_cell_angle_alpha 90.000000
_cell_angle_beta 29.629649
_cell_angle_gamma 90.000000
_cell_volume 1989.295881
_symmetry_space_group_name_H-M "C 2/M"
_symmetry_group_IT_number 12
_symmetry_cell_setting 'monoclinic'
loop_
_space_group_symop_operation_xyz
x,y,z
-x,y,-z
-x,-y,-z
x,-y,z
1/2+x,1/2+y,z
1/2-x,1/2+y,-z
1/2-x,1/2-y,-z
1/2+x,1/2-y,z
loop_
_atom_site_type_symbol
_atom_site_label
_atom_site_fract_x
_atom_site_fract_y
_atom_site_fract_z
Si Si1 0.328976 0.649346 0.656162
Si Si2 0.119125 0.116837 0.833962
Si Si3 0.406040 0.937961 0.826435
Si Si4 0.846155 0.830245 0.341297
Si Si5 0.166591 0.281729 0.170389
O O1 0.500000 0.667187 0.500000
O O2 0.538630 0.650058 0.630681
O O3 0.210764 0.589609 0.700456
O O4 0.043113 0.688090 0.793975
O O5 0.335856 0.072568 0.768562
O O6 0.068762 0.129830 0.768397
O O7 0.267040 0.171965 0.797140
O O8 0.825568 0.096691 0.014211
O O9 0.380063 0.000000 0.856941
O O10 0.500000 0.825207 0.500000
O O11 0.991933 0.771945 0.267564
O O12 0.500000 0.264990 0.000000
#
# Coordination Sequence:
#
# PCOD9204070 Si02
#       5
#     8   8   8   8   8
#     4  11  24  43  64  91 131 168 212 257 314 376
#     4  10  20  40  64  93 126 164 208 255 312 371
#     4  10  21  43  69  92 120 163 210 262 326 375
#     4  12  26  39  61  95 134 173 207 256 306 367
#     4  11  22  40  64  93 131 173 210 248 307 376
#
# _framework density 20.107619
#
# number of rings (size 3 to 8) (size 9 to 14) (size 15 to 20)
#    0.000    1.200    4.000    5.400    2.800    4.400 
#    0.000    3.000    0.000    4.200    0.000    0.000 
#    0.000    0.000    0.000    0.000    0.000    0.000 
#
# Total GULP energy -111387.629163 kJ/mol
# GULP energy per Si atom -5569.381458 kJ/mol
# Density = 2.006185 g / cm^3
# Si number density = 20.107619 Si / 1000 Ang^3
#
#
#
# Elastic Constant Matrix: (Units=GPa)
#
#
# Indices 1 2 3 4 5 6 
#
# 1 167.8598 44.4925 50.2979 -0.0002 -10.9330 0.0000
# 2 44.4925 103.1826 52.4890 -0.0003 -3.7809 0.0007
# 3 50.2979 52.4890 71.9809 -0.0029 -18.9708 0.0000
# 4 -0.0002 -0.0003 -0.0029 15.3588 0.0003 -2.7053
# 5 -10.9330 -3.7809 -18.9708 0.0003 33.2880 -0.0004
# 6 0.0000 0.0007 0.0000 -2.7053 -0.0004 -11.4004
#
#
#
# Elastic Compliance Matrix: (Units=1/GPa)
#
#
# Indices 1 2 3 4 5 6 
#
# 1 0.007592 -0.000865 -0.004757 -0.000001 -0.000316 0.000000
# 2 -0.000865 0.016403 -0.012874 -0.000002 -0.005758 0.000002
# 3 -0.004757 -0.012874 0.030369 0.000005 0.014282 -0.000003
# 4 -0.000001 -0.000002 0.000005 0.062497 0.000002 -0.014830
# 5 -0.000316 -0.005758 0.014282 0.000002 0.037423 -0.000002
# 6 0.000000 0.000002 -0.000003 -0.014830 -0.000002 -0.084197
#
#
# Mechanical properties :
#
#
# Convention : Reuss Voigt Hill
#
# Bulk Modulus (GPa) = 57.56916 70.84247 64.20582
# Shear Modulus (GPa) = 44.29979 20.49888 32.39933
#
# Velocity S-wave (km/s) = 4.69885 3.19636 4.01845
# Velocity P-wave (km/s) = 7.62441 6.99503 7.31649
#
# Compressibility (1/GPa) = 0.01737041
#
# Stress axis : x y z
#
# Youngs Moduli (GPa) = 131.72598 60.96628 32.92879
#
# Poissons Ratio (x) = 0.05274 0.15665
# Poissons Ratio (y) = 0.11395 0.42392
# Poissons Ratio (z) = 0.62664 0.78487
#
# Static dielectric constant tensor:
#      x y z
#    x 1.731050 0.000000 0.019340 
#    y 0.000000 1.711390 0.000000 
#    z 0.019340 0.000000 1.796390 
# 
# From -- ./inp_files/259332.got.cif
#   From: 2010.05.17/outbox.cif.g08.bks.cpg/sg12_130_cif.got.tgz:259332.got - 2010.06.03 13:09:07.
