data_PCOD9204728
_publ_section_title
;
Structure prediction by ZEFSAII (Michael W. Deem and Ramdas Pophale) SiO2 
 PCOD9204728
Probable space group: C 2/M
;
_chemical_formula_sum "Si O2"
_cell_formula_units_Z 64
_cell_length_a 7.432014
_cell_length_b 17.360842
_cell_length_c 30.682923
_cell_angle_alpha 90.000000
_cell_angle_beta 125.993276
_cell_angle_gamma 90.000000
_cell_volume 3203.086770
_symmetry_space_group_name_H-M "C 2/M"
_symmetry_group_IT_number 12
_symmetry_cell_setting 'monoclinic'
loop_
_space_group_symop_operation_xyz
x,y,z
-x,y,-z
-x,-y,-z
x,-y,z
1/2+x,1/2+y,z
1/2-x,1/2+y,-z
1/2-x,1/2-y,-z
1/2+x,1/2-y,z
loop_
_atom_site_type_symbol
_atom_site_label
_atom_site_fract_x
_atom_site_fract_y
_atom_site_fract_z
Si Si1 0.570436 0.909647 0.880757
Si Si2 0.292446 0.841441 0.503004
Si Si3 0.357371 0.405866 0.786806
Si Si4 0.322044 0.593734 0.239754
Si Si5 0.948207 0.910997 0.097874
Si Si6 0.802552 0.907266 0.418590
Si Si7 0.361428 0.093939 0.698913
Si Si8 0.263736 0.338707 0.990154
O O1 0.384506 0.882389 0.820315
O O2 0.586429 0.865636 0.928949
O O3 0.807907 0.905315 0.890062
O O4 0.529332 0.000000 0.884424
O O5 0.250000 0.750000 0.500000
O O6 0.318893 0.873008 0.556121
O O7 0.000000 0.643531 0.500000
O O8 0.060297 0.880551 0.455033
O O9 0.359032 0.500000 0.790335
O O10 0.460429 0.383658 0.755442
O O11 0.509521 0.376575 0.848249
O O12 0.102621 0.382148 0.750957
O O13 0.312592 0.500000 0.239235
O O14 0.306389 0.619685 0.287155
O O15 0.892431 0.000000 0.095696
O O16 0.774418 0.878663 0.038615
O O17 0.693200 0.881273 0.357583
O O18 0.796098 0.000000 0.420592
O O19 0.360580 0.000000 0.697477
O O20 0.500000 0.355004 0.000000
O O21 0.250000 0.250000 0.000000
#
# Coordination Sequence:
#
# PCOD9204728 Si02
#       8
#     8   8   8   8   8   8   8   8
#     4   9  16  30  51  73  96 127 173 224 267 319
#     4  11  21  39  64  89 120 169 205 242 293 349
#     4   9  16  27  48  77 106 139 177 219 276 334
#     4   9  16  27  48  77 106 139 177 219 276 334
#     4   9  16  30  51  73  96 127 173 224 267 319
#     4  10  22  37  60  98 129 156 202 253 295 344
#     4   9  17  32  51  79 122 151 173 227 284 325
#     4  10  21  33  47  69  95 134 167 213 275 336
#
# _framework density 19.980726000000001
#
# number of rings (size 3 to 8) (size 9 to 14) (size 15 to 20)
#    0.000    2.500    2.500    1.125    0.000    4.500 
#    0.000    2.500    0.000    5.250    0.000    0.000 
#    0.000    0.000    0.000    0.000    0.000    0.000 
#
# Total GULP energy -178404.497201 kJ/mol
# GULP energy per Si atom -5575.140538 kJ/mol
# Density = 1.993525 g / cm^3
# Si number density = 19.980726 Si / 1000 Ang^3
#
#
#
# Elastic Constant Matrix: (Units=GPa)
#
#
# Indices 1 2 3 4 5 6 
#
# 1 89.6817 6.9176 38.8816 0.0000 -33.6178 0.0000
# 2 6.9176 35.4861 23.6317 0.0000 -12.2735 0.0000
# 3 38.8816 23.6317 139.7791 0.0000 -39.5879 0.0000
# 4 0.0000 0.0000 0.0000 -6.2597 0.0000 -8.1194
# 5 -33.6178 -12.2735 -39.5879 0.0000 28.5986 0.0000
# 6 0.0000 0.0000 0.0000 -8.1194 0.0000 16.5225
#
#
#
# Elastic Compliance Matrix: (Units=1/GPa)
#
#
# Indices 1 2 3 4 5 6 
#
# 1 0.020892 0.004862 0.001502 0.000000 0.028724 0.000000
# 2 0.004862 0.034802 -0.002282 0.000000 0.017492 0.000000
# 3 0.001502 -0.002282 0.012081 0.000000 0.017509 0.000000
# 4 0.000000 0.000000 0.000000 -0.097564 0.000000 -0.047944
# 5 0.028724 0.017492 0.017509 0.000000 0.100475 0.000000
# 6 0.000000 0.000000 0.000000 -0.047944 0.000000 0.036963
#
#
# Mechanical properties :
#
#
# Convention : Reuss Voigt Hill
#
# Bulk Modulus (GPa) = 13.16869 44.86762 29.01816
# Shear Modulus (GPa) = 40.06441 20.80668 30.43555
#
# Velocity S-wave (km/s) = 4.48275 3.23048 3.90711
# Velocity P-wave (km/s) = 5.77914 6.03480 5.90835
#
# Compressibility (1/GPa) = 0.07593767
#
# Stress axis : x y z
#
# Youngs Moduli (GPa) = 47.86592 28.73400 82.77325
#
# Poissons Ratio (x) = -0.13970 -0.12430
# Poissons Ratio (y) = -0.23272 0.18891
# Poissons Ratio (z) = -0.07188 0.06558
#
# Static dielectric constant tensor:
#      x y z
#    x 1.739910 0.000000 -0.011240 
#    y 0.000000 1.702250 0.000000 
#    z -0.011240 0.000000 1.723980 
# 
# From -- ./inp_files/356814.got.cif
#   From: 2010.05.17/outbox.cif.g08.bks.cpg/sg12_179_cif.got.tgz:356814.got - 2010.06.03 13:09:07.
