data_PCOD9204857
_publ_section_title
;
Structure prediction by ZEFSAII (Michael W. Deem and Ramdas Pophale) SiO2 
 PCOD9204857
Probable space group: C 2/M
;
_chemical_formula_sum "Si O2"
_cell_formula_units_Z 56
_cell_length_a 23.295451
_cell_length_b 7.414000
_cell_length_c 19.650895
_cell_angle_alpha 90.000000
_cell_angle_beta 47.414185
_cell_angle_gamma 90.000000
_cell_volume 2498.848832
_symmetry_space_group_name_H-M "C 2/M"
_symmetry_group_IT_number 12
_symmetry_cell_setting 'monoclinic'
loop_
_space_group_symop_operation_xyz
x,y,z
-x,y,-z
-x,-y,-z
x,-y,z
1/2+x,1/2+y,z
1/2-x,1/2+y,-z
1/2-x,1/2-y,-z
1/2+x,1/2-y,z
loop_
_atom_site_type_symbol
_atom_site_label
_atom_site_fract_x
_atom_site_fract_y
_atom_site_fract_z
Si Si1 0.376228 0.784664 0.285492
Si Si2 0.077597 0.719873 0.900994
Si Si3 0.748007 0.219439 0.803079
Si Si4 0.291962 0.719728 0.615678
Si Si5 0.534406 0.279401 0.544827
Si Si6 0.684187 0.715795 0.108851
Si Si7 0.482264 0.715089 0.730515
O O1 0.412982 0.720157 0.184560
O O2 0.286586 0.719333 0.360004
O O3 0.436455 0.747623 0.296836
O O4 0.370510 0.000000 0.284640
O O5 0.075320 0.500000 0.902256
O O6 0.157144 0.771295 0.875084
O O7 0.000000 0.783688 0.000000
O O8 0.783465 0.273902 0.701870
O O9 0.789259 0.283116 0.838180
O O10 0.751346 0.000000 0.800460
O O11 0.292561 0.500000 0.614074
O O12 0.375441 0.777501 0.521097
O O13 0.500000 0.221504 0.500000
O O14 0.532580 0.500000 0.545761
O O15 0.487238 0.218548 0.648896
O O16 0.680833 0.500000 0.115691
O O17 0.595459 0.781945 0.168540
O O18 0.750000 0.750000 0.000000
O O19 0.475237 0.500000 0.732072
#
# Coordination Sequence:
#
# PCOD9204857 Si02
#       7
#     8   8   8   8   8   8   8
#     4   9  18  31  49  73 101 131 164 203 245 290
#     4   8  14  24  43  70  91 113 157 208 239 269
#     4   8  14  26  44  67  93 118 152 203 247 276
#     4   8  14  27  48  75  99 122 163 211 244 281
#     4   9  16  28  50  75 100 131 165 204 251 292
#     4  10  21  34  49  70  97 129 163 200 246 295
#     4  10  21  34  48  73 105 131 161 203 246 297
#
# _framework density 22.410319000000001
#
# number of rings (size 3 to 8) (size 9 to 14) (size 15 to 20)
#    0.000    3.143    0.000    2.571    2.000    4.571 
#    0.000    0.000    0.000    4.286    0.000    0.000 
#    0.000    0.000    0.000    0.000    0.000    0.000 
#
# Total GULP energy -156256.830536 kJ/mol
# GULP energy per Si atom -5580.601091 kJ/mol
# Density = 2.235931 g / cm^3
# Si number density = 22.410319 Si / 1000 Ang^3
#
#
#
# Elastic Constant Matrix: (Units=GPa)
#
#
# Indices 1 2 3 4 5 6 
#
# 1 128.7338 1.0227 61.3655 0.0055 -2.7330 -0.0152
# 2 1.0227 70.9846 4.2133 0.0130 -2.4391 -0.0086
# 3 61.3655 4.2133 111.2750 -0.0023 -30.1337 0.0045
# 4 0.0055 0.0130 -0.0023 0.0931 -0.0025 0.2032
# 5 -2.7330 -2.4391 -30.1337 -0.0025 30.8140 0.0131
# 6 -0.0152 -0.0086 0.0045 0.2032 0.0131 8.0287
#
#
#
# Elastic Compliance Matrix: (Units=1/GPa)
#
#
# Indices 1 2 3 4 5 6 
#
# 1 0.011577 0.000083 -0.008308 -0.001241 -0.007091 0.000070
# 2 0.000083 0.014135 -0.000375 -0.002121 0.000759 0.000068
# 3 -0.008308 -0.000375 0.018193 0.001662 0.017025 -0.000096
# 4 -0.001241 -0.002121 0.001662 11.368574 0.002387 -0.287739
# 5 -0.007091 0.000759 0.017025 0.002387 0.048533 -0.000162
# 6 0.000070 0.000068 -0.000096 -0.287739 -0.000162 0.131836
#
#
# Mechanical properties :
#
#
# Convention : Reuss Voigt Hill
#
# Bulk Modulus (GPa) = 37.44741 49.35517 43.40129
# Shear Modulus (GPa) = 0.43033 24.07995 12.25514
#
# Velocity S-wave (km/s) = 0.43868 3.28152 2.34102
# Velocity P-wave (km/s) = 4.12344 6.03565 5.16874
#
# Compressibility (1/GPa) = 0.02670412
#
# Stress axis : x y z
#
# Youngs Moduli (GPa) = 86.37712 70.74574 54.96584
#
# Poissons Ratio (x) = -0.00586 0.45666
# Poissons Ratio (y) = -0.00716 0.02064
# Poissons Ratio (z) = 0.71763 0.02656
#
# Static dielectric constant tensor:
#      x y z
#    x 1.844900 0.000000 -0.037370 
#    y 0.000000 1.889650 0.000000 
#    z -0.037370 0.000000 1.817090 
# 
# From -- ./inp_files/288200.got.cif
#   From: 2010.05.17/outbox.cif.g08.bks.cpg/sg12_145_cif.got.tgz:288200.got - 2010.06.03 13:09:07.
