data_PCOD9204037
_publ_section_title
;
Structure prediction by ZEFSAII (Michael W. Deem and Ramdas Pophale) SiO2 
 PCOD9204037
Probable space group: C 2/M
;
_chemical_formula_sum "Si O2"
_cell_formula_units_Z 44
_cell_length_a 11.805912
_cell_length_b 17.244982
_cell_length_c 14.715252
_cell_angle_alpha 90.000000
_cell_angle_beta 52.894813
_cell_angle_gamma 90.000000
_cell_volume 2389.332814
_symmetry_space_group_name_H-M "C 2/M"
_symmetry_group_IT_number 12
_symmetry_cell_setting 'monoclinic'
loop_
_space_group_symop_operation_xyz
x,y,z
-x,y,-z
-x,-y,-z
x,-y,z
1/2+x,1/2+y,z
1/2-x,1/2+y,-z
1/2-x,1/2-y,-z
1/2+x,1/2-y,z
loop_
_atom_site_type_symbol
_atom_site_label
_atom_site_fract_x
_atom_site_fract_y
_atom_site_fract_z
Si Si1 0.978016 0.088527 0.704048
Si Si2 0.749888 0.190940 0.735500
Si Si3 0.102025 0.144748 0.822803
Si Si4 0.492538 0.092817 0.897982
Si Si5 0.811316 0.910570 0.034666
Si Si6 0.000000 0.147335 0.500000
O O1 0.089936 0.111739 0.726917
O O2 0.033864 0.097784 0.573747
O O3 0.846379 0.149555 0.766903
O O4 0.929686 0.000000 0.741170
O O5 0.678142 0.272595 0.789751
O O6 0.620837 0.132088 0.782150
O O7 0.861905 0.195195 0.598358
O O8 0.181134 0.093601 0.860064
O O9 0.937830 0.142603 0.935467
O O10 0.340636 0.113026 0.929613
O O11 0.507534 0.000000 0.887959
O O12 0.500000 0.117507 0.000000
O O13 0.840237 0.000000 0.993050
#
# Coordination Sequence:
#
# PCOD9204037 Si02
#       6
#     8   8   8   8   8   4
#     4  10  20  40  64  86 115 161 211 248 298 359
#     4  10  23  37  60  92 122 155 203 258 306 355
#     4  11  22  36  62  86 124 161 196 249 303 368
#     4  10  21  36  59  88 123 157 198 252 303 361
#     4  10  22  39  58  88 125 163 203 240 298 380
#     4   8  23  40  62  86 119 156 216 258 297 348
#
# _framework density 18.415181
#
# number of rings (size 3 to 8) (size 9 to 14) (size 15 to 20)
#    1.091    0.909    0.000    4.091    5.091    2.909 
#    0.000    0.000    0.000    0.000    0.000    8.273 
#    0.000    0.000    0.000    0.000    0.000    0.000 
#
# Total GULP energy -122497.720656 kJ/mol
# GULP energy per Si atom -5568.078212 kJ/mol
# Density = 1.837327 g / cm^3
# Si number density = 18.415181 Si / 1000 Ang^3
#
#
#
# Elastic Constant Matrix: (Units=GPa)
#
#
# Indices 1 2 3 4 5 6 
#
# 1 136.7493 38.0710 56.9395 0.0000 5.8271 0.0000
# 2 38.0710 82.3847 36.8423 0.0000 -10.2997 0.0000
# 3 56.9395 36.8423 93.0705 0.0000 -6.7742 0.0000
# 4 0.0000 0.0000 0.0000 17.4344 0.0000 -20.3416
# 5 5.8271 -10.2997 -6.7742 0.0000 41.1256 0.0000
# 6 0.0000 0.0000 0.0000 -20.3416 0.0000 -91.2951
#
#
#
# Elastic Compliance Matrix: (Units=1/GPa)
#
#
# Indices 1 2 3 4 5 6 
#
# 1 0.010537 -0.002762 -0.005579 0.000000 -0.003104 0.000000
# 2 -0.002762 0.015791 -0.004296 0.000000 0.003638 0.000000
# 3 -0.005579 -0.004296 0.016029 0.000000 0.002355 0.000000
# 4 0.000000 0.000000 0.000000 0.045523 0.000000 -0.010143
# 5 -0.003104 0.003638 0.002355 0.000000 0.026055 0.000000
# 6 0.000000 0.000000 0.000000 -0.010143 0.000000 -0.008693
#
#
# Mechanical properties :
#
#
# Convention : Reuss Voigt Hill
#
# Bulk Modulus (GPa) = 58.53814 63.99000 61.26407
# Shear Modulus (GPa) = 36.70801 5.47644 21.09223
#
# Velocity S-wave (km/s) = 4.46955 1.72636 3.38801
# Velocity P-wave (km/s) = 7.64806 6.22878 6.97461
#
# Compressibility (1/GPa) = 0.01708288
#
# Stress axis : x y z
#
# Youngs Moduli (GPa) = 94.90531 63.32817 62.38501
#
# Poissons Ratio (x) = 0.17494 0.34803
# Poissons Ratio (y) = 0.26217 0.26800
# Poissons Ratio (z) = 0.52945 0.27206
#
# Static dielectric constant tensor:
#      x y z
#    x 1.638690 0.000000 0.023960 
#    y 0.000000 1.641520 0.000000 
#    z 0.023960 0.000000 1.661530 
# 
# From -- ./inp_files/205978.got.cif
#   From: 2010.05.17/outbox.cif.g08.bks.cpg/sg12_103_cif.got.tgz:205978.got - 2010.06.03 13:09:07.
