data_PCOD9204436
_publ_section_title
;
Structure prediction by ZEFSAII (Michael W. Deem and Ramdas Pophale) SiO2 
 PCOD9204436
Probable space group: C 2/M
;
_chemical_formula_sum "Si O2"
_cell_formula_units_Z 42
_cell_length_a 5.265978
_cell_length_b 24.240024
_cell_length_c 13.646847
_cell_angle_alpha 90.000000
_cell_angle_beta 91.310146
_cell_angle_gamma 90.000000
_cell_volume 1741.529593
_symmetry_space_group_name_H-M "C 2/M"
_symmetry_group_IT_number 12
_symmetry_cell_setting 'monoclinic'
loop_
_space_group_symop_operation_xyz
x,y,z
-x,y,-z
-x,-y,-z
x,-y,z
1/2+x,1/2+y,z
1/2-x,1/2+y,-z
1/2-x,1/2-y,-z
1/2+x,1/2-y,z
loop_
_atom_site_type_symbol
_atom_site_label
_atom_site_fract_x
_atom_site_fract_y
_atom_site_fract_z
Si Si1 0.070878 0.902331 0.115193
Si Si2 0.195803 0.773870 0.390313
Si Si3 0.500000 0.500000 0.500000
Si Si4 0.511580 0.722579 0.118550
Si Si5 0.563811 0.937645 0.222344
Si Si6 0.301855 0.895702 0.410304
O O1 0.107013 0.838310 0.143078
O O2 0.830577 0.922063 0.176347
O O3 0.332639 0.932628 0.142970
O O4 0.000000 0.907274 0.000000
O O5 0.250000 0.750000 0.500000
O O6 0.462472 0.759121 0.343363
O O7 0.146374 0.839033 0.395697
O O8 0.639600 0.450285 0.434842
O O9 0.726190 0.766104 0.149022
O O10 0.500000 0.724470 0.000000
O O11 0.469659 0.903738 0.314777
O O12 0.588708 0.000000 0.258760
O O13 0.500000 0.886945 0.500000
#
# Coordination Sequence:
#
# PCOD9204436 Si02
#       6
#     8   8   2   8   8   8
#     4  11  25  47  73 101 140 192 240 296 367 423
#     4  10  20  41  69 100 136 189 223 289 348 421
#     4  12  26  44  76 102 134 206 234 286 362 428
#     4   9  17  34  65  97 131 172 221 284 353 419
#     4  12  28  46  69 106 143 182 246 306 350 426
#     4  12  27  45  75 104 146 191 241 291 367 429
#
# _framework density 24.116731999999999
#
# number of rings (size 3 to 8) (size 9 to 14) (size 15 to 20)
#    0.000    1.143    2.857    3.714    2.667    5.333 
#    0.000    5.714    0.000    0.000    0.000    0.000 
#    0.000    0.000    0.000    0.000    0.000    0.000 
#
# Total GULP energy -117298.485902 kJ/mol
# GULP energy per Si atom -5585.642186 kJ/mol
# Density = 2.406184 g / cm^3
# Si number density = 24.116732 Si / 1000 Ang^3
#
#
#
# Elastic Constant Matrix: (Units=GPa)
#
#
# Indices 1 2 3 4 5 6 
#
# 1 108.8812 13.2855 -0.0822 0.0000 -19.4850 0.0000
# 2 13.2855 135.3532 -3.7380 0.0000 -13.5770 0.0000
# 3 -0.0822 -3.7380 87.9910 0.0000 -1.3155 0.0000
# 4 0.0000 0.0000 0.0000 22.3161 0.0000 -18.2128
# 5 -19.4850 -13.5770 -1.3155 0.0000 41.8366 0.0000
# 6 0.0000 0.0000 0.0000 -18.2128 0.0000 35.1028
#
#
#
# Elastic Compliance Matrix: (Units=1/GPa)
#
#
# Indices 1 2 3 4 5 6 
#
# 1 0.010057 -0.000533 0.000054 0.000000 0.004513 0.000000
# 2 -0.000533 0.007676 0.000359 0.000000 0.002254 0.000000
# 3 0.000054 0.000359 0.011388 0.000000 0.000500 0.000000
# 4 0.000000 0.000000 0.000000 0.077721 0.000000 0.040325
# 5 0.004513 0.002254 0.000500 0.000000 0.026752 0.000000
# 6 0.000000 0.000000 0.000000 0.040325 0.000000 0.049410
#
#
# Mechanical properties :
#
#
# Convention : Reuss Voigt Hill
#
# Bulk Modulus (GPa) = 34.62350 39.01733 36.82042
# Shear Modulus (GPa) = 25.92424 41.36843 33.64634
#
# Velocity S-wave (km/s) = 3.28220 4.14616 3.73922
# Velocity P-wave (km/s) = 5.36205 6.25576 5.82607
#
# Compressibility (1/GPa) = 0.02888212
#
# Stress axis : x y z
#
# Youngs Moduli (GPa) = 99.43355 130.26880 87.81486
#
# Poissons Ratio (x) = 0.06943 -0.00476
# Poissons Ratio (y) = 0.05300 -0.03155
# Poissons Ratio (z) = -0.00539 -0.04681
#
# Static dielectric constant tensor:
#      x y z
#    x 2.081360 0.000000 -0.100050 
#    y 0.000000 1.880640 0.000000 
#    z -0.100050 0.000000 2.101490 
# 
# From -- ./inp_files/191589.got.cif
#   From: 2010.05.17/outbox.cif.g08.bks.cpg/sg12_96_cif.got.tgz:191589.got - 2010.06.03 13:09:07.
