data_PCOD9204137
_publ_section_title
;
Structure prediction by ZEFSAII (Michael W. Deem and Ramdas Pophale) SiO2 
 PCOD9204137
Probable space group: C 2/M
;
_chemical_formula_sum "Si O2"
_cell_formula_units_Z 56
_cell_length_a 8.552538
_cell_length_b 29.402804
_cell_length_c 12.144024
_cell_angle_alpha 90.000000
_cell_angle_beta 52.121778
_cell_angle_gamma 90.000000
_cell_volume 2410.449953
_symmetry_space_group_name_H-M "C 2/M"
_symmetry_group_IT_number 12
_symmetry_cell_setting 'monoclinic'
loop_
_space_group_symop_operation_xyz
x,y,z
-x,y,-z
-x,-y,-z
x,-y,z
1/2+x,1/2+y,z
1/2-x,1/2+y,-z
1/2-x,1/2-y,-z
1/2+x,1/2-y,z
loop_
_atom_site_type_symbol
_atom_site_label
_atom_site_fract_x
_atom_site_fract_y
_atom_site_fract_z
Si Si1 0.496954 0.277032 0.685424
Si Si2 0.561033 0.346392 0.853692
Si Si3 0.743317 0.000000 0.011211
Si Si4 0.274119 0.586724 0.634529
Si Si5 0.912603 0.588039 0.648757
Si Si6 0.293019 0.193664 0.359696
Si Si7 0.793786 0.408328 0.083117
Si Si8 0.313949 0.500000 0.242269
O O1 0.557457 0.307158 0.763584
O O2 0.512942 0.223340 0.701206
O O3 0.288870 0.290251 0.722872
O O4 0.647650 0.290998 0.521866
O O5 0.765002 0.375621 0.768487
O O6 0.387758 0.381590 0.891729
O O7 0.500000 0.329309 0.000000
O O8 0.653785 0.047725 0.013308
O O9 0.951272 0.000000 0.855978
O O10 0.771791 0.000000 0.129119
O O11 0.500000 0.577553 0.500000
O O12 0.220740 0.639873 0.636993
O O13 0.264624 0.578120 0.768112
O O14 0.090764 0.566689 0.644578
O O15 0.778041 0.545561 0.670085
O O16 0.000000 0.609919 0.500000
O O17 0.000000 0.380642 0.000000
#
# Coordination Sequence:
#
# PCOD9204137 Si02
#       8
#     8   8   4   8   8   8   8   4
#     4  10  21  39  65  97 131 174 224 277 333 405
#     4  12  24  45  68 102 140 183 227 278 344 419
#     4  11  23  42  70  95 133 180 229 273 338 412
#     4  12  24  44  66  99 138 170 223 290 343 393
#     4  12  26  43  71 100 134 182 231 277 343 406
#     4  10  20  40  65  95 132 171 225 279 335 397
#     4  12  24  43  69  98 131 178 228 280 336 404
#     4  11  23  44  66  98 137 175 225 289 330 401
#
# _framework density 23.232175999999999
#
# number of rings (size 3 to 8) (size 9 to 14) (size 15 to 20)
#    0.000    0.714    4.286    4.714    2.000    0.571 
#    0.000    2.143    0.000    0.000    0.000    0.000 
#    0.000    0.000    0.000    0.000    0.000    0.000 
#
# Total GULP energy -156522.417242 kJ/mol
# GULP energy per Si atom -5590.086330 kJ/mol
# Density = 2.317930 g / cm^3
# Si number density = 23.232176 Si / 1000 Ang^3
#
#
#
# Elastic Constant Matrix: (Units=GPa)
#
#
# Indices 1 2 3 4 5 6 
#
# 1 97.1662 -13.3276 33.6368 0.0000 -5.9669 0.0000
# 2 -13.3276 56.9990 -3.7153 0.0000 -5.1486 0.0000
# 3 33.6368 -3.7153 111.5063 0.0000 10.8317 0.0000
# 4 0.0000 0.0000 0.0000 -24.6388 0.0000 13.2722
# 5 -5.9669 -5.1486 10.8317 0.0000 44.2335 0.0000
# 6 0.0000 0.0000 0.0000 13.2722 0.0000 19.3518
#
#
#
# Elastic Compliance Matrix: (Units=1/GPa)
#
#
# Indices 1 2 3 4 5 6 
#
# 1 0.012204 0.002866 -0.003870 0.000000 0.002928 0.000000
# 2 0.002866 0.018421 -0.000509 0.000000 0.002655 0.000000
# 3 -0.003870 -0.000509 0.010423 0.000000 -0.003134 0.000000
# 4 0.000000 0.000000 0.000000 -0.029637 0.000000 0.020326
# 5 0.002928 0.002655 -0.003134 0.000000 0.024079 0.000000
# 6 0.000000 0.000000 0.000000 0.020326 0.000000 0.037734
#
#
# Mechanical properties :
#
#
# Convention : Reuss Voigt Hill
#
# Bulk Modulus (GPa) = 26.30067 33.20661 29.75364
# Shear Modulus (GPa) = 56.22744 24.39449 40.31097
#
# Velocity S-wave (km/s) = 4.92493 3.24393 4.17001
# Velocity P-wave (km/s) = 6.60949 5.32496 6.00169
#
# Compressibility (1/GPa) = 0.03802184
#
# Stress axis : x y z
#
# Youngs Moduli (GPa) = 81.93776 54.28599 95.94060
#
# Poissons Ratio (x) = -0.15557 0.37133
# Poissons Ratio (y) = -0.23482 0.04880
# Poissons Ratio (z) = 0.31714 0.02761
#
# Static dielectric constant tensor:
#      x y z
#    x 1.898570 0.000000 -0.023940 
#    y 0.000000 1.895400 0.000000 
#    z -0.023940 0.000000 1.842340 
# 
# From -- ./inp_files/125685.got.cif
#   From: 2010.05.17/outbox.cif.g08.bks.cpg/sg12_63_cif.got.tgz:125685.got - 2010.06.03 13:09:07.
