data_PCOD9204677
_publ_section_title
;
Structure prediction by ZEFSAII (Michael W. Deem and Ramdas Pophale) SiO2 
 PCOD9204677
Probable space group: C 2/M
;
_chemical_formula_sum "Si O2"
_cell_formula_units_Z 56
_cell_length_a 14.380927
_cell_length_b 30.031133
_cell_length_c 15.325823
_cell_angle_alpha 90.000000
_cell_angle_beta 152.069476
_cell_angle_gamma 90.000000
_cell_volume 3100.272147
_symmetry_space_group_name_H-M "C 2/M"
_symmetry_group_IT_number 12
_symmetry_cell_setting 'monoclinic'
loop_
_space_group_symop_operation_xyz
x,y,z
-x,y,-z
-x,-y,-z
x,-y,z
1/2+x,1/2+y,z
1/2-x,1/2+y,-z
1/2-x,1/2-y,-z
1/2+x,1/2-y,z
loop_
_atom_site_type_symbol
_atom_site_label
_atom_site_fract_x
_atom_site_fract_y
_atom_site_fract_z
Si Si1 0.783646 0.770071 0.796865
Si Si2 0.982872 0.287389 0.254698
Si Si3 0.153531 0.803079 0.329928
Si Si4 0.201770 0.830215 0.721160
Si Si5 0.143328 0.451224 0.987158
Si Si6 0.236841 0.072085 0.715978
Si Si7 0.704419 0.356068 0.926316
O O1 0.641578 0.776446 0.761261
O O2 0.728440 0.794058 0.661169
O O3 0.802843 0.717247 0.794795
O O4 0.000000 0.787854 0.000000
O O5 0.019421 0.241224 0.234275
O O6 0.196208 0.304788 0.464516
O O7 0.868842 0.323791 0.104114
O O8 0.005486 0.844361 0.203456
O O9 0.296558 0.875459 0.763520
O O10 0.175097 0.841414 0.801007
O O11 0.000000 0.825260 0.500000
O O12 0.204366 0.500000 0.005001
O O13 0.902484 0.449402 0.791431
O O14 0.219496 0.446070 0.150784
O O15 0.230334 0.407306 0.013762
O O16 0.000000 0.067735 0.500000
#
# Coordination Sequence:
#
# PCOD9204677 Si02
#       7
#     8   8   8   8   8   8   8
#     4  12  22  35  56  80 119 155 189 226 271 329
#     4  11  23  38  54  84 114 150 190 231 270 334
#     4  11  23  36  58  80 116 150 188 228 276 327
#     4  10  21  32  49  79 113 151 192 224 263 321
#     4  10  22  36  53  76 106 141 186 241 283 331
#     4   9  19  33  53  78 108 146 187 226 274 329
#     4  11  22  39  53  78 112 147 192 231 280 328
#
# _framework density 18.062930999999999
#
# number of rings (size 3 to 8) (size 9 to 14) (size 15 to 20)
#    0.000    1.429    2.857    3.429    8.000    3.429 
#    0.000    0.000    0.000    0.000    0.000    2.000 
#    0.000    2.286    0.000    0.000    0.000    0.000 
#
# Total GULP energy -156335.120698 kJ/mol
# GULP energy per Si atom -5583.397168 kJ/mol
# Density = 1.802182 g / cm^3
# Si number density = 18.062931 Si / 1000 Ang^3
#
#
#
# Elastic Constant Matrix: (Units=GPa)
#
#
# Indices 1 2 3 4 5 6 
#
# 1 73.7706 34.2833 13.8192 -0.0010 5.0264 -0.0001
# 2 34.2833 117.9228 44.5159 0.0001 8.9504 0.0001
# 3 13.8192 44.5159 89.8738 -0.0017 2.2924 -0.0001
# 4 -0.0010 0.0001 -0.0017 -6.4643 -0.0016 3.3694
# 5 5.0264 8.9504 2.2924 -0.0016 25.4983 -0.0001
# 6 -0.0001 0.0001 -0.0001 3.3694 -0.0001 15.7645
#
#
#
# Elastic Compliance Matrix: (Units=1/GPa)
#
#
# Indices 1 2 3 4 5 6 
#
# 1 0.015735 -0.004377 -0.000212 -0.000002 -0.001546 0.000000
# 2 -0.004377 0.011916 -0.005156 0.000002 -0.002856 -0.000001
# 3 -0.000212 -0.005156 0.013697 -0.000003 0.000620 0.000001
# 4 -0.000002 0.000002 -0.000003 -0.139188 -0.000009 0.029750
# 5 -0.001546 -0.002856 0.000620 -0.000009 0.040470 0.000002
# 6 0.000000 -0.000001 0.000001 0.029750 0.000002 0.057075
#
#
# Mechanical properties :
#
#
# Convention : Reuss Voigt Hill
#
# Bulk Modulus (GPa) = 45.75077 51.86709 48.80893
# Shear Modulus (GPa) = 188.80920 19.55628 104.18274
#
# Velocity S-wave (km/s) = 10.23501 3.29397 7.60282
# Velocity P-wave (km/s) = 12.84747 6.57602 10.20543
#
# Compressibility (1/GPa) = 0.02185755
#
# Stress axis : x y z
#
# Youngs Moduli (GPa) = 63.55351 83.92097 73.00622
#
# Poissons Ratio (x) = 0.36734 0.01547
# Poissons Ratio (y) = 0.27818 0.37644
# Poissons Ratio (z) = 0.01347 0.43272
#
# Static dielectric constant tensor:
#      x y z
#    x 1.639290 0.000000 0.012830 
#    y 0.000000 1.624280 0.000000 
#    z 0.012830 0.000000 1.682750 
# 
# From -- ./inp_files/219362.got.cif
#   From: 2010.05.17/outbox.cif.g08.bks.cpg/sg12_110_cif.got.tgz:219362.got - 2010.06.03 13:09:07.
