data_PCOD9204787
_publ_section_title
;
Structure prediction by ZEFSAII (Michael W. Deem and Ramdas Pophale) SiO2 
 PCOD9204787
Probable space group: C 2/M
;
_chemical_formula_sum "Si O2"
_cell_formula_units_Z 58
_cell_length_a 16.211144
_cell_length_b 9.698959
_cell_length_c 17.936832
_cell_angle_alpha 90.000000
_cell_angle_beta 68.770069
_cell_angle_gamma 90.000000
_cell_volume 2628.834420
_symmetry_space_group_name_H-M "C 2/M"
_symmetry_group_IT_number 12
_symmetry_cell_setting 'monoclinic'
loop_
_space_group_symop_operation_xyz
x,y,z
-x,y,-z
-x,-y,-z
x,-y,z
1/2+x,1/2+y,z
1/2-x,1/2+y,-z
1/2-x,1/2-y,-z
1/2+x,1/2-y,z
loop_
_atom_site_type_symbol
_atom_site_label
_atom_site_fract_x
_atom_site_fract_y
_atom_site_fract_z
Si Si1 0.593591 0.335034 0.881153
Si Si2 0.894652 0.232512 0.591340
Si Si3 0.382571 0.664299 0.961702
Si Si4 0.739202 0.340538 0.731327
Si Si5 0.667162 0.345055 0.543820
Si Si6 0.872886 0.659102 0.827984
Si Si7 0.493717 0.656825 0.304283
Si Si8 0.000000 0.500000 0.500000
O O1 0.608135 0.500000 0.876030
O O2 0.488747 0.316851 0.915786
O O3 0.646612 0.282175 0.792246
O O4 0.631826 0.288498 0.948479
O O5 0.794420 0.258823 0.652141
O O6 0.890410 0.159655 0.513135
O O7 0.945162 0.157365 0.641479
O O8 0.942346 0.378786 0.561908
O O9 0.363014 0.500000 0.961196
O O10 0.341137 0.756609 0.910656
O O11 0.729329 0.500000 0.710818
O O12 0.801321 0.339881 0.784966
O O13 0.698033 0.500000 0.546761
O O14 0.750000 0.250000 0.500000
O O15 0.602915 0.303746 0.632715
O O16 0.891326 0.500000 0.840847
O O17 0.958316 0.737401 0.766100
O O18 0.490872 0.500000 0.274620
#
# Coordination Sequence:
#
# PCOD9204787 Si02
#       8
#     8   8   8   8   8   8   8   2
#     4   8  16  32  54  75 103 140 183 220 258 320
#     4  11  21  35  59  81 111 146 188 226 280 335
#     4   9  17  33  56  78 102 141 181 219 266 318
#     4   9  18  32  51  80 107 137 176 222 267 319
#     4  11  25  39  56  81 112 145 184 233 280 329
#     4  10  21  33  53  81 110 137 173 220 275 328
#     4  10  21  39  59  78 105 144 188 229 271 327
#     4  12  20  32  62  88 108 150 184 234 284 344
#
# _framework density 22.063009000000001
#
# number of rings (size 3 to 8) (size 9 to 14) (size 15 to 20)
#    0.000    2.207    2.069    1.655    1.931    3.310 
#    0.000    4.138    0.000    8.276    0.000    0.000 
#    0.000    0.000    0.000    0.000    0.000    0.000 
#
# Total GULP energy -161773.815744 kJ/mol
# GULP energy per Si atom -5578.407439 kJ/mol
# Density = 2.201279 g / cm^3
# Si number density = 22.063009 Si / 1000 Ang^3
#
#
#
# Elastic Constant Matrix: (Units=GPa)
#
#
# Indices 1 2 3 4 5 6 
#
# 1 52.9585 16.4324 11.4324 0.0000 1.4021 0.0000
# 2 16.4324 74.1174 17.8617 0.0000 5.5196 0.0000
# 3 11.4324 17.8617 115.6401 0.0000 0.5427 0.0000
# 4 0.0000 0.0000 0.0000 23.0884 0.0000 2.6724
# 5 1.4021 5.5196 0.5427 0.0000 51.3958 0.0000
# 6 0.0000 0.0000 0.0000 2.6724 0.0000 10.2721
#
#
#
# Elastic Compliance Matrix: (Units=1/GPa)
#
#
# Indices 1 2 3 4 5 6 
#
# 1 0.020486 -0.004204 -0.001376 0.000000 -0.000093 0.000000
# 2 -0.004204 0.014990 -0.001893 0.000000 -0.001475 0.000000
# 3 -0.001376 -0.001893 0.009075 0.000000 0.000145 0.000000
# 4 0.000000 0.000000 0.000000 0.044657 0.000000 -0.011618
# 5 -0.000093 -0.001475 0.000145 0.000000 0.019616 0.000000
# 6 0.000000 0.000000 0.000000 -0.011618 0.000000 0.100373
#
#
# Mechanical properties :
#
#
# Convention : Reuss Voigt Hill
#
# Bulk Modulus (GPa) = 33.77506 37.12988 35.45247
# Shear Modulus (GPa) = 21.36648 30.08389 25.72519
#
# Velocity S-wave (km/s) = 3.11534 3.69663 3.41836
# Velocity P-wave (km/s) = 5.31809 5.92331 5.62884
#
# Compressibility (1/GPa) = 0.02960765
#
# Stress axis : x y z
#
# Youngs Moduli (GPa) = 48.81277 66.71068 110.19036
#
# Poissons Ratio (x) = 0.28042 0.15158
# Poissons Ratio (y) = 0.20519 0.20857
# Poissons Ratio (z) = 0.06715 0.12627
#
# Static dielectric constant tensor:
#      x y z
#    x 1.917210 0.000000 -0.005190 
#    y 0.000000 1.742310 0.000000 
#    z -0.005190 0.000000 1.838920 
# 
# From -- ./inp_files/282174.got.cif
#   From: 2010.05.17/outbox.cif.g08.bks.cpg/sg12_142_cif.got.tgz:282174.got - 2010.06.03 13:09:07.
