data_PCOD9204909
_publ_section_title
;
Structure prediction by ZEFSAII (Michael W. Deem and Ramdas Pophale) SiO2 
 PCOD9204909
Probable space group: C 2/M
;
_chemical_formula_sum "Si O2"
_cell_formula_units_Z 48
_cell_length_a 12.666392
_cell_length_b 14.618761
_cell_length_c 14.422904
_cell_angle_alpha 90.000000
_cell_angle_beta 68.094358
_cell_angle_gamma 90.000000
_cell_volume 2477.823383
_symmetry_space_group_name_H-M "C 2/M"
_symmetry_group_IT_number 12
_symmetry_cell_setting 'monoclinic'
loop_
_space_group_symop_operation_xyz
x,y,z
-x,y,-z
-x,-y,-z
x,-y,z
1/2+x,1/2+y,z
1/2-x,1/2+y,-z
1/2-x,1/2-y,-z
1/2+x,1/2-y,z
loop_
_atom_site_type_symbol
_atom_site_label
_atom_site_fract_x
_atom_site_fract_y
_atom_site_fract_z
Si Si1 0.064731 0.602572 0.880941
Si Si2 0.542591 0.740885 0.736143
Si Si3 0.378617 0.397791 0.017812
Si Si4 0.809043 0.832176 0.850209
Si Si5 0.754729 0.851057 0.235172
Si Si6 0.510127 0.102319 0.386512
O O1 0.035214 0.500000 0.855780
O O2 0.029300 0.684999 0.824646
O O3 0.201805 0.607988 0.850825
O O4 0.000000 0.613666 0.000000
O O5 0.441243 0.665320 0.773559
O O6 0.659143 0.687067 0.716075
O O7 0.542494 0.809250 0.648241
O O8 0.398144 0.500000 0.972298
O O9 0.318945 0.407185 0.135732
O O10 0.500000 0.353031 0.000000
O O11 0.313767 0.344149 0.959077
O O12 0.780026 0.734562 0.817245
O O13 0.642640 0.894383 0.314055
O O14 0.500000 0.112428 0.500000
O O15 0.464895 0.000000 0.376588
#
# Coordination Sequence:
#
# PCOD9204909 Si02
#       6
#     8   8   8   8   8   8
#     4  10  22  34  49  76 110 149 185 216 259 320
#     4  10  21  36  58  79 107 142 182 226 268 325
#     4  11  21  32  50  78 114 149 181 215 262 321
#     4  10  21  34  51  74 110 147 181 218 263 314
#     4  10  21  35  57  80 107 144 184 225 269 323
#     4  10  22  40  60  82 108 139 180 233 285 326
#
# _framework density 19.371841
#
# number of rings (size 3 to 8) (size 9 to 14) (size 15 to 20)
#    0.000    1.833    1.667    2.000    9.333    0.667 
#    0.000    0.000    0.000    0.000    0.000    0.000 
#    0.000   20.000    0.000    0.000    0.000    0.000 
#
# Total GULP energy -133675.124298 kJ/mol
# GULP energy per Si atom -5569.796846 kJ/mol
# Density = 1.932775 g / cm^3
# Si number density = 19.371841 Si / 1000 Ang^3
#
#
#
# Elastic Constant Matrix: (Units=GPa)
#
#
# Indices 1 2 3 4 5 6 
#
# 1 69.3308 9.9035 7.4793 0.0000 7.8529 0.0000
# 2 9.9035 55.8240 16.6104 0.0000 1.7866 0.0000
# 3 7.4793 16.6104 88.4768 0.0000 8.7714 0.0000
# 4 0.0000 0.0000 0.0000 1.7510 0.0000 3.8041
# 5 7.8529 1.7866 8.7714 0.0000 18.4514 0.0000
# 6 0.0000 0.0000 0.0000 3.8041 0.0000 11.7454
#
#
#
# Elastic Compliance Matrix: (Units=1/GPa)
#
#
# Indices 1 2 3 4 5 6 
#
# 1 0.015511 -0.002485 -0.000225 0.000000 -0.006254 0.000000
# 2 -0.002485 0.019372 -0.003511 0.000000 0.000851 0.000000
# 3 -0.000225 -0.003511 0.012528 0.000000 -0.005520 0.000000
# 4 0.000000 0.000000 0.000000 1.927080 0.000000 -0.624142
# 5 -0.006254 0.000851 -0.005520 0.000000 0.059400 0.000000
# 6 0.000000 0.000000 0.000000 -0.624142 0.000000 0.287287
#
#
# Mechanical properties :
#
#
# Convention : Reuss Voigt Hill
#
# Bulk Modulus (GPa) = 28.59631 31.29089 29.94360
# Shear Modulus (GPa) = 2.13195 18.36544 10.24869
#
# Velocity S-wave (km/s) = 1.05020 3.08238 2.30261
# Velocity P-wave (km/s) = 4.03292 5.37177 4.74975
#
# Compressibility (1/GPa) = 0.03496954
#
# Stress axis : x y z
#
# Youngs Moduli (GPa) = 64.46965 51.62160 79.82260
#
# Poissons Ratio (x) = 0.12827 0.01794
# Poissons Ratio (y) = 0.16019 0.28027
# Poissons Ratio (z) = 0.01449 0.18125
#
# Static dielectric constant tensor:
#      x y z
#    x 1.773240 0.000000 -0.015120 
#    y 0.000000 1.710430 0.000000 
#    z -0.015120 0.000000 1.649860 
# 
# From -- ./inp_files/131675.got.cif
#   From: 2010.05.17/outbox.cif.g08.bks.cpg/sg12_66_cif.got.tgz:131675.got - 2010.06.03 13:09:07.
