data_PCOD9204318
_publ_section_title
;
Structure prediction by ZEFSAII (Michael W. Deem and Ramdas Pophale) SiO2 
 PCOD9204318
Probable space group: C 2/M
;
_chemical_formula_sum "Si O2"
_cell_formula_units_Z 60
_cell_length_a 19.032380
_cell_length_b 21.748713
_cell_length_c 9.239550
_cell_angle_alpha 90.000000
_cell_angle_beta 128.186394
_cell_angle_gamma 90.000000
_cell_volume 3006.090743
_symmetry_space_group_name_H-M "C 2/M"
_symmetry_group_IT_number 12
_symmetry_cell_setting 'monoclinic'
loop_
_space_group_symop_operation_xyz
x,y,z
-x,y,-z
-x,-y,-z
x,-y,z
1/2+x,1/2+y,z
1/2-x,1/2+y,-z
1/2-x,1/2-y,-z
1/2+x,1/2-y,z
loop_
_atom_site_type_symbol
_atom_site_label
_atom_site_fract_x
_atom_site_fract_y
_atom_site_fract_z
Si Si1 0.489887 0.182603 0.158727
Si Si2 0.943532 0.571207 0.573075
Si Si3 0.012042 0.804305 0.344072
Si Si4 0.262292 0.427794 0.641956
Si Si5 0.281426 0.186680 0.967116
Si Si6 0.684527 0.617158 0.593869
Si Si7 0.851088 0.885858 0.030249
Si Si8 0.854574 0.000000 0.245534
O O1 0.528186 0.119165 0.268935
O O2 0.535322 0.241330 0.292876
O O3 0.500000 0.186308 0.000000
O O4 0.386273 0.185851 0.073809
O O5 0.962338 0.500000 0.637040
O O6 0.837043 0.576660 0.417569
O O7 0.000000 0.584700 0.500000
O O8 0.922458 0.833503 0.161384
O O9 0.000000 0.792259 0.500000
O O10 0.088944 0.854963 0.430177
O O11 0.282980 0.500000 0.653610
O O12 0.262822 0.397561 0.485126
O O13 0.334890 0.398072 0.841383
O O14 0.232976 0.168082 0.755541
O O15 0.245119 0.134876 0.029594
O O16 0.250000 0.250000 0.000000
O O17 0.670014 0.555020 0.667831
O O18 0.876920 0.946355 0.152154
#
# Coordination Sequence:
#
# PCOD9204318 Si02
#       8
#     8   8   8   8   8   8   8   4
#     4  12  26  44  64  99 135 169 213 280 333 389
#     4  10  23  46  72  96 126 171 219 269 330 399
#     4  12  24  43  66  94 135 174 227 262 322 389
#     4  11  23  42  65 100 138 166 217 272 333 387
#     4  11  22  44  68  92 129 172 228 261 325 395
#     4  11  24  40  67  99 132 177 213 276 329 384
#     4  11  23  40  69  97 129 178 221 272 314 393
#     4  10  20  41  62  98 125 176 223 258 324 372
#
# _framework density 19.959478000000001
#
# number of rings (size 3 to 8) (size 9 to 14) (size 15 to 20)
#    0.000    0.933    5.333    2.000    1.867    2.400 
#    4.800    2.667    0.000    0.000    0.000    0.000 
#    0.000    0.000    0.000    0.000    0.000    0.000 
#
# Total GULP energy -167054.149187 kJ/mol
# GULP energy per Si atom -5568.471640 kJ/mol
# Density = 1.991405 g / cm^3
# Si number density = 19.959478 Si / 1000 Ang^3
#
#
#
# Elastic Constant Matrix: (Units=GPa)
#
#
# Indices 1 2 3 4 5 6 
#
# 1 24.5894 26.3273 27.8465 0.0000 -15.2090 0.0000
# 2 26.3273 106.1249 57.1420 0.0000 -13.8340 0.0000
# 3 27.8465 57.1420 102.1894 0.0000 -21.1402 0.0000
# 4 0.0000 0.0000 0.0000 14.5474 0.0000 -7.1936
# 5 -15.2090 -13.8340 -21.1402 0.0000 35.3312 0.0000
# 6 0.0000 0.0000 0.0000 -7.1936 0.0000 16.8593
#
#
#
# Elastic Compliance Matrix: (Units=1/GPa)
#
#
# Indices 1 2 3 4 5 6 
#
# 1 0.078564 -0.010761 -0.010576 0.000000 0.023278 0.000000
# 2 -0.010761 0.014980 -0.005922 0.000000 -0.002310 0.000000
# 3 -0.010576 -0.005922 0.016614 0.000000 0.003070 0.000000
# 4 0.000000 0.000000 0.000000 0.087124 0.000000 0.037174
# 5 0.023278 -0.002310 0.003070 0.000000 0.039256 0.000000
# 6 0.000000 0.000000 0.000000 0.037174 0.000000 0.075176
#
#
# Mechanical properties :
#
#
# Convention : Reuss Voigt Hill
#
# Bulk Modulus (GPa) = 17.97253 50.61502 34.29377
# Shear Modulus (GPa) = 12.99448 21.45344 17.22396
#
# Velocity S-wave (km/s) = 2.55432 3.28205 2.94078
# Velocity P-wave (km/s) = 4.20993 6.30685 5.36190
#
# Compressibility (1/GPa) = 0.05564048
#
# Stress axis : x y z
#
# Youngs Moduli (GPa) = 12.72845 66.75578 60.19014
#
# Poissons Ratio (x) = 0.71838 0.63654
# Poissons Ratio (y) = 0.13698 0.35644
# Poissons Ratio (z) = 0.13461 0.39532
#
# Static dielectric constant tensor:
#      x y z
#    x 1.714300 0.000000 0.015270 
#    y 0.000000 1.695270 0.000000 
#    z 0.015270 0.000000 1.714600 
# 
# From -- ./inp_files/89855.got.cif
#   From: 2010.05.17/outbox.cif.g08.bks.cpg/sg12_45_cif.got.tgz:89855.got - 2010.06.03 13:09:07.
