data_PCOD9204688
_publ_section_title
;
Structure prediction by ZEFSAII (Michael W. Deem and Ramdas Pophale) SiO2 
 PCOD9204688
Probable space group: C 2/M
;
_chemical_formula_sum "Si O2"
_cell_formula_units_Z 48
_cell_length_a 20.387392
_cell_length_b 19.250990
_cell_length_c 23.505579
_cell_angle_alpha 90.000000
_cell_angle_beta 16.793796
_cell_angle_gamma 90.000000
_cell_volume 2665.480635
_symmetry_space_group_name_H-M "C 2/M"
_symmetry_group_IT_number 12
_symmetry_cell_setting 'monoclinic'
loop_
_space_group_symop_operation_xyz
x,y,z
-x,y,-z
-x,-y,-z
x,-y,z
1/2+x,1/2+y,z
1/2-x,1/2+y,-z
1/2-x,1/2-y,-z
1/2+x,1/2-y,z
loop_
_atom_site_type_symbol
_atom_site_label
_atom_site_fract_x
_atom_site_fract_y
_atom_site_fract_z
Si Si1 0.979351 0.417748 0.764359
Si Si2 0.736319 0.420883 0.359386
Si Si3 0.234569 0.618488 0.788060
Si Si4 0.895919 0.802769 0.917592
Si Si5 0.820979 0.312358 0.484670
Si Si6 0.684314 0.266260 0.890227
O O1 0.951736 0.500000 0.778210
O O2 0.092540 0.406489 0.732043
O O3 0.144953 0.381547 0.581030
O O4 0.748184 0.373507 0.955267
O O5 0.770305 0.500000 0.310741
O O6 0.768528 0.372750 0.277766
O O7 0.478516 0.415649 0.595942
O O8 0.227568 0.689579 0.829326
O O9 0.000000 0.581443 0.000000
O O10 0.128776 0.816197 0.691719
O O11 0.750000 0.750000 0.000000
O O12 0.918682 0.769295 0.960989
O O13 0.750000 0.250000 0.500000
O O14 0.065382 0.298260 0.310364
O O15 0.500000 0.299058 0.000000
#
# Coordination Sequence:
#
# PCOD9204688 Si02
#       6
#     8   8   8   8   8   8
#     4  10  23  40  61  91 125 160 207 259 311 373
#     4  10  22  36  51  78 119 166 204 241 289 358
#     4  10  21  32  52  75 115 159 203 243 292 345
#     4  11  23  38  64  90 121 161 210 258 311 363
#     4  11  21  39  64  88 122 165 211 259 311 366
#     4  10  23  36  57  93 120 153 202 264 311 361
#
# _framework density 18.008009000000001
#
# number of rings (size 3 to 8) (size 9 to 14) (size 15 to 20)
#    0.000    1.667    3.333    2.000    4.667    5.333 
#    0.000    3.333    0.000    8.000    0.000    9.333 
#    0.000    0.000    0.000    0.000    0.000    0.000 
#
# Total GULP energy -133835.509266 kJ/mol
# GULP energy per Si atom -5576.479553 kJ/mol
# Density = 1.796702 g / cm^3
# Si number density = 18.008009 Si / 1000 Ang^3
#
#
#
# Elastic Constant Matrix: (Units=GPa)
#
#
# Indices 1 2 3 4 5 6 
#
# 1 129.2691 55.6721 51.1851 -0.0121 6.1597 0.0902
# 2 55.6721 102.4203 33.8824 0.0070 10.6992 -0.0070
# 3 51.1851 33.8824 138.1472 -0.0075 20.4731 0.2449
# 4 -0.0121 0.0070 -0.0075 24.1310 0.0050 1.2063
# 5 6.1597 10.6992 20.4731 0.0050 38.5461 -0.1416
# 6 0.0902 -0.0070 0.2449 1.2063 -0.1416 0.8156
#
#
#
# Elastic Compliance Matrix: (Units=1/GPa)
#
#
# Indices 1 2 3 4 5 6 
#
# 1 0.011100 -0.005163 -0.003035 0.000014 0.001270 -0.000160
# 2 -0.005163 0.013131 -0.000967 -0.000038 -0.002304 0.000630
# 3 -0.003035 -0.000967 0.009222 0.000173 -0.004157 -0.003420
# 4 0.000014 -0.000038 0.000173 0.044755 -0.000333 -0.066310
# 5 0.001270 -0.002304 -0.004157 -0.000333 0.028612 0.006547
# 6 -0.000160 0.000630 -0.003420 -0.066310 0.006547 1.326388
#
#
# Mechanical properties :
#
#
# Convention : Reuss Voigt Hill
#
# Bulk Modulus (GPa) = 66.11880 72.36840 69.24360
# Shear Modulus (GPa) = 3.43270 27.97167 15.70218
#
# Velocity S-wave (km/s) = 1.38215 3.94546 2.95609
# Velocity P-wave (km/s) = 6.27241 7.81214 7.08423
#
# Compressibility (1/GPa) = 0.01512429
#
# Stress axis : x y z
#
# Youngs Moduli (GPa) = 90.08770 76.15809 108.43087
#
# Poissons Ratio (x) = 0.39317 0.32904
# Poissons Ratio (y) = 0.46508 0.10490
# Poissons Ratio (z) = 0.27338 0.07368
#
# Static dielectric constant tensor:
#      x y z
#    x 1.626970 -0.000010 -0.017660 
#    y -0.000010 1.622210 0.000060 
#    z -0.017660 0.000060 1.643060 
# 
# From -- ./inp_files/317888.got.cif
#   From: 2010.05.17/outbox.cif.g08.bks.cpg/sg12_159_cif.got.tgz:317888.got - 2010.06.03 13:09:07.
