data_PCOD9204809
_publ_section_title
;
Structure prediction by ZEFSAII (Michael W. Deem and Ramdas Pophale) SiO2 
 PCOD9204809
Probable space group: C 2/M
;
_chemical_formula_sum "Si O2"
_cell_formula_units_Z 48
_cell_length_a 24.296840
_cell_length_b 7.823717
_cell_length_c 12.333793
_cell_angle_alpha 90.000000
_cell_angle_beta 90.420513
_cell_angle_gamma 90.000000
_cell_volume 2344.487302
_symmetry_space_group_name_H-M "C 2/M"
_symmetry_group_IT_number 12
_symmetry_cell_setting 'monoclinic'
loop_
_space_group_symop_operation_xyz
x,y,z
-x,y,-z
-x,-y,-z
x,-y,z
1/2+x,1/2+y,z
1/2-x,1/2+y,-z
1/2-x,1/2-y,-z
1/2+x,1/2-y,z
loop_
_atom_site_type_symbol
_atom_site_label
_atom_site_fract_x
_atom_site_fract_y
_atom_site_fract_z
Si Si1 0.841123 0.698259 0.020179
Si Si2 0.040074 0.199592 0.909845
Si Si3 0.757923 0.298240 0.838039
Si Si4 0.912998 0.208489 0.540479
Si Si5 0.290950 0.704344 0.597811
Si Si6 0.021977 0.791033 0.668207
O O1 0.854489 0.500000 0.002283
O O2 0.897460 0.789790 0.049416
O O3 0.797524 0.714204 0.117555
O O4 0.808566 0.764960 0.913768
O O5 0.033882 0.272697 0.788920
O O6 0.024445 0.000000 0.898845
O O7 0.000000 0.276697 0.000000
O O8 0.752280 0.500000 0.860029
O O9 0.769471 0.271227 0.712512
O O10 0.852571 0.268850 0.572278
O O11 0.933591 0.263272 0.421579
O O12 0.961523 0.258302 0.624084
O O13 0.911679 0.000000 0.539828
O O14 0.293601 0.500000 0.606235
O O15 0.250000 0.750000 0.500000
O O16 0.023658 0.000000 0.667887
#
# Coordination Sequence:
#
# PCOD9204809 Si02
#       6
#     8   8   8   8   8   8
#     4  10  22  40  61  85 114 152 193 241 300 354
#     4  10  21  33  55  88 118 150 191 237 282 341
#     4  10  22  41  62  83 112 152 196 243 295 353
#     4   8  16  31  53  77 107 147 190 233 277 326
#     4  11  23  36  57  88 119 153 193 240 290 344
#     4   8  15  31  52  78 109 145 188 232 277 326
#
# _framework density 20.473559999999999
#
# number of rings (size 3 to 8) (size 9 to 14) (size 15 to 20)
#    0.000    2.500    0.000    2.500    4.667    2.333 
#    0.000    0.000    0.000    0.000    0.000    5.833 
#    0.000    0.000    0.000    0.000    0.000    0.000 
#
# Total GULP energy -133986.011007 kJ/mol
# GULP energy per Si atom -5582.750459 kJ/mol
# Density = 2.042696 g / cm^3
# Si number density = 20.473560 Si / 1000 Ang^3
#
#
#
# Elastic Constant Matrix: (Units=GPa)
#
#
# Indices 1 2 3 4 5 6 
#
# 1 101.6790 -16.2687 67.7716 0.0000 -2.1491 0.0000
# 2 -16.2687 26.5170 -9.0280 0.0000 0.8435 0.0000
# 3 67.7716 -9.0280 158.4543 0.0000 -2.5965 0.0000
# 4 0.0000 0.0000 0.0000 14.3739 0.0000 5.4104
# 5 -2.1491 0.8435 -2.5965 0.0000 14.0347 0.0000
# 6 0.0000 0.0000 0.0000 5.4104 0.0000 17.5633
#
#
#
# Elastic Compliance Matrix: (Units=1/GPa)
#
#
# Indices 1 2 3 4 5 6 
#
# 1 0.014984 0.007130 -0.005990 0.000000 0.000758 0.000000
# 2 0.007130 0.041901 -0.000687 0.000000 -0.001554 0.000000
# 3 -0.005990 -0.000687 0.008846 0.000000 0.000761 0.000000
# 4 0.000000 0.000000 0.000000 0.078695 0.000000 -0.024242
# 5 0.000758 -0.001554 0.000761 0.000000 0.071602 0.000000
# 6 0.000000 0.000000 0.000000 -0.024242 0.000000 0.064405
#
#
# Mechanical properties :
#
#
# Convention : Reuss Voigt Hill
#
# Bulk Modulus (GPa) = 15.00704 41.28893 28.14799
# Shear Modulus (GPa) = 16.57045 25.47273 21.02159
#
# Velocity S-wave (km/s) = 2.84801 3.53112 3.20780
# Velocity P-wave (km/s) = 4.26154 6.06925 5.24388
#
# Compressibility (1/GPa) = 0.06663538
#
# Stress axis : x y z
#
# Youngs Moduli (GPa) = 66.73677 23.86574 113.04163
#
# Poissons Ratio (x) = -0.17015 0.67714
# Poissons Ratio (y) = -0.47580 0.07772
# Poissons Ratio (z) = 0.39977 0.01641
#
# Static dielectric constant tensor:
#      x y z
#    x 1.692560 0.000000 -0.001630 
#    y 0.000000 1.759900 0.000000 
#    z -0.001630 0.000000 1.819210 
# 
# From -- ./inp_files/172319.got.cif
#   From: 2010.05.17/outbox.cif.g08.bks.cpg/sg12_87_cif.got.tgz:172319.got - 2010.06.03 13:09:07.
