data_PCOD9204521
_publ_section_title
;
Structure prediction by ZEFSAII (Michael W. Deem and Ramdas Pophale) SiO2 
 PCOD9204521
Probable space group: C 2/M
;
_chemical_formula_sum "Si O2"
_cell_formula_units_Z 44
_cell_length_a 33.712446
_cell_length_b 11.655336
_cell_length_c 20.818850
_cell_angle_alpha 90.000000
_cell_angle_beta 163.268687
_cell_angle_gamma 90.000000
_cell_volume 2354.990923
_symmetry_space_group_name_H-M "C 2/M"
_symmetry_group_IT_number 12
_symmetry_cell_setting 'monoclinic'
loop_
_space_group_symop_operation_xyz
x,y,z
-x,y,-z
-x,-y,-z
x,-y,z
1/2+x,1/2+y,z
1/2-x,1/2+y,-z
1/2-x,1/2-y,-z
1/2+x,1/2-y,z
loop_
_atom_site_type_symbol
_atom_site_label
_atom_site_fract_x
_atom_site_fract_y
_atom_site_fract_z
Si Si1 0.180273 0.217652 0.459153
Si Si2 0.669745 0.000000 0.105755
Si Si3 0.172004 0.712016 0.943814
Si Si4 0.662949 0.000000 0.244451
Si Si5 0.355148 0.138590 0.465686
Si Si6 0.840748 0.000000 0.259663
Si Si7 0.371172 0.736715 0.984223
O O1 0.250000 0.250000 0.500000
O O2 0.268238 0.111415 0.619864
O O3 0.176334 0.310289 0.511782
O O4 0.020393 0.185461 0.200306
O O5 0.606200 0.876585 0.987014
O O6 0.688704 0.000000 0.209470
O O7 0.814177 0.000000 0.294094
O O8 0.011102 0.675886 0.686868
O O9 0.250000 0.750000 0.000000
O O10 0.264307 0.606677 0.110490
O O11 0.168675 0.790385 0.003417
O O12 0.500000 0.000000 0.000000
O O13 0.245422 0.193804 0.245677
O O14 0.347248 0.000000 0.453744
O O15 0.000000 0.000000 0.500000
#
# Coordination Sequence:
#
# PCOD9204521 Si02
#       7
#     8   4   8   4   8   4   8
#     4  11  26  41  67  98 127 172 219 266 325 387
#     4  10  20  42  66  86 121 171 216 266 318 370
#     4  10  23  41  63  93 126 167 219 262 321 384
#     4  12  24  42  67  94 129 165 222 269 316 385
#     4  11  24  45  65  92 136 174 211 269 332 387
#     4  10  22  36  63  90 119 161 216 263 314 371
#     4  10  23  42  65  92 128 169 218 267 325 380
#
# _framework density 18.683724000000002
#
# number of rings (size 3 to 8) (size 9 to 14) (size 15 to 20)
#    0.000    1.455    2.727    1.091   11.455    0.000 
#    1.636    1.818    0.000    0.000    0.000    0.000 
#    0.000    0.000    0.000    0.000    0.000    0.000 
#
# Total GULP energy -122607.025256 kJ/mol
# GULP energy per Si atom -5573.046603 kJ/mol
# Density = 1.864120 g / cm^3
# Si number density = 18.683724 Si / 1000 Ang^3
#
#
#
# Elastic Constant Matrix: (Units=GPa)
#
#
# Indices 1 2 3 4 5 6 
#
# 1 222.3680 57.4423 91.1961 0.0000 7.0173 0.0000
# 2 57.4423 90.5577 53.8856 0.0000 6.2177 0.0000
# 3 91.1961 53.8856 188.2509 0.0000 15.8973 0.0000
# 4 0.0000 0.0000 0.0000 19.2018 0.0000 -8.5509
# 5 7.0173 6.2177 15.8973 0.0000 33.7692 0.0000
# 6 0.0000 0.0000 0.0000 -8.5509 0.0000 0.7229
#
#
#
# Elastic Compliance Matrix: (Units=1/GPa)
#
#
# Indices 1 2 3 4 5 6 
#
# 1 0.006058 -0.002533 -0.002232 0.000000 0.000258 0.000000
# 2 -0.002533 0.014384 -0.002823 0.000000 -0.000793 0.000000
# 3 -0.002232 -0.002823 0.007413 0.000000 -0.002506 0.000000
# 4 0.000000 0.000000 0.000000 -0.012203 0.000000 -0.144349
# 5 0.000258 -0.000793 -0.002506 0.000000 0.030885 0.000000
# 6 0.000000 0.000000 0.000000 -0.144349 0.000000 -0.324149
#
#
# Mechanical properties :
#
#
# Convention : Reuss Voigt Hill
#
# Bulk Modulus (GPa) = 78.86728 100.69162 89.77945
# Shear Modulus (GPa) = -19.36414 30.64895 5.64241
#
# Velocity S-wave (km/s) = -3.22284 4.05459 1.73969
# Velocity P-wave (km/s) = 5.33428 8.71374 7.22440
#
# Compressibility (1/GPa) = 0.01267953
#
# Stress axis : x y z
#
# Youngs Moduli (GPa) = 165.05930 69.52333 134.89800
#
# Poissons Ratio (x) = 0.17608 0.30106
# Poissons Ratio (y) = 0.41804 0.38086
# Poissons Ratio (z) = 0.36837 0.19629
#
# Static dielectric constant tensor:
#      x y z
#    x 1.673060 0.000000 -0.018970 
#    y 0.000000 1.622480 0.000000 
#    z -0.018970 0.000000 1.620490 
# 
# From -- ./inp_files/296565.got.cif
#   From: 2010.05.17/outbox.cif.g08.bks.cpg/sg12_149_cif.got.tgz:296565.got - 2010.06.03 13:09:07.
