data_PCOD9204695
_publ_section_title
;
Structure prediction by ZEFSAII (Michael W. Deem and Ramdas Pophale) SiO2 
 PCOD9204695
Probable space group: C 2/M
;
_chemical_formula_sum "Si O2"
_cell_formula_units_Z 24
_cell_length_a 18.420958
_cell_length_b 5.527845
_cell_length_c 20.444896
_cell_angle_alpha 90.000000
_cell_angle_beta 150.891259
_cell_angle_gamma 90.000000
_cell_volume 1012.763070
_symmetry_space_group_name_H-M "C 2/M"
_symmetry_group_IT_number 12
_symmetry_cell_setting 'monoclinic'
loop_
_space_group_symop_operation_xyz
x,y,z
-x,y,-z
-x,-y,-z
x,-y,z
1/2+x,1/2+y,z
1/2-x,1/2+y,-z
1/2-x,1/2-y,-z
1/2+x,1/2-y,z
loop_
_atom_site_type_symbol
_atom_site_label
_atom_site_fract_x
_atom_site_fract_y
_atom_site_fract_z
Si Si1 0.775694 0.500000 0.362308
Si Si2 0.327322 0.000000 0.851384
Si Si3 0.826080 0.500000 0.251089
Si Si4 0.400177 0.000000 0.174826
Si Si5 0.156106 0.000000 0.584421
Si Si6 0.554278 0.500000 0.864352
O O1 0.852064 0.500000 0.349972
O O2 0.824403 0.746384 0.435557
O O3 0.596455 0.500000 0.211275
O O4 0.259377 0.246177 0.826078
O O5 0.283874 0.000000 0.740799
O O6 0.500000 0.000000 0.000000
O O7 0.943319 0.500000 0.284820
O O8 0.450983 0.751296 0.180496
O O9 0.217539 0.000000 0.026179
O O10 0.000000 0.000000 0.500000
#
# Coordination Sequence:
#
# PCOD9204695 Si02
#       6
#     4   4   4   4   4   4
#     4  10  21  36  59  83 108 150 197 237 274 348
#     4  10  21  32  53  86 112 142 185 236 283 335
#     4  10  21  34  53  83 110 154 179 235 282 340
#     4  10  21  34  51  75 120 153 181 232 286 348
#     4  10  21  36  55  86 118 149 186 241 291 333
#     4  10  21  35  49  79 113 154 189 225 289 340
#
# _framework density 23.697547
#
# number of rings (size 3 to 8) (size 9 to 14) (size 15 to 20)
#    0.000    2.000    0.000    3.000    9.333    0.000 
#    0.000    0.000    0.000    0.000    0.000   93.333 
#    0.000    0.000    0.000    0.000    0.000    0.000 
#
# Total GULP energy -67005.589250 kJ/mol
# GULP energy per Si atom -5583.799104 kJ/mol
# Density = 2.364361 g / cm^3
# Si number density = 23.697547 Si / 1000 Ang^3
#
#
#
# Elastic Constant Matrix: (Units=GPa)
#
#
# Indices 1 2 3 4 5 6 
#
# 1 80.6214 38.6700 23.1063 -0.0001 -7.8550 0.0001
# 2 38.6700 269.3338 30.3057 0.0000 -0.9047 0.0012
# 3 23.1063 30.3057 100.2117 -0.0002 4.0511 0.0002
# 4 -0.0001 0.0000 -0.0002 -8.3970 -0.0002 23.1200
# 5 -7.8550 -0.9047 4.0511 -0.0002 21.3574 0.0001
# 6 0.0001 0.0012 0.0002 23.1200 0.0001 31.1792
#
#
#
# Elastic Compliance Matrix: (Units=1/GPa)
#
#
# Indices 1 2 3 4 5 6 
#
# 1 0.014706 -0.001742 -0.003103 0.000000 0.005924 0.000000
# 2 -0.001742 0.004053 -0.000811 0.000000 -0.000315 0.000000
# 3 -0.003103 -0.000811 0.011072 0.000000 -0.003276 0.000000
# 4 0.000000 0.000000 0.000000 -0.039153 -0.000001 0.029033
# 5 0.005924 -0.000315 -0.003276 -0.000001 0.049609 0.000000
# 6 0.000000 0.000000 0.000000 0.029033 0.000000 0.010544
#
#
# Mechanical properties :
#
#
# Convention : Reuss Voigt Hill
#
# Bulk Modulus (GPa) = 54.00321 70.48120 62.24220
# Shear Modulus (GPa) = 73.18679 32.70024 52.94352
#
# Velocity S-wave (km/s) = 5.56334 3.71873 4.73179
# Velocity P-wave (km/s) = 8.00660 6.94587 7.49503
#
# Compressibility (1/GPa) = 0.01851742
#
# Stress axis : x y z
#
# Youngs Moduli (GPa) = 67.99974 246.71546 90.31617
#
# Poissons Ratio (x) = 0.42986 0.28028
# Poissons Ratio (y) = 0.11848 0.07327
# Poissons Ratio (z) = 0.21103 0.20016
#
# Static dielectric constant tensor:
#      x y z
#    x 1.904080 0.000000 -0.084630 
#    y 0.000000 2.004740 0.000000 
#    z -0.084630 0.000000 2.069510 
# 
# From -- ./inp_files/170952.got.cif
#   From: 2010.05.17/outbox.cif.g08.bks.cpg/sg12_86_cif.got.tgz:170952.got - 2010.06.03 13:09:07.
