data_PCOD9204109
_publ_section_title
;
Structure prediction by ZEFSAII (Michael W. Deem and Ramdas Pophale) SiO2 
 PCOD9204109
Probable space group: C 2/M
;
_chemical_formula_sum "Si O2"
_cell_formula_units_Z 56
_cell_length_a 19.194590
_cell_length_b 8.853880
_cell_length_c 19.235914
_cell_angle_alpha 90.000000
_cell_angle_beta 120.127542
_cell_angle_gamma 90.000000
_cell_volume 2827.459154
_symmetry_space_group_name_H-M "C 2/M"
_symmetry_group_IT_number 12
_symmetry_cell_setting 'monoclinic'
loop_
_space_group_symop_operation_xyz
x,y,z
-x,y,-z
-x,-y,-z
x,-y,z
1/2+x,1/2+y,z
1/2-x,1/2+y,-z
1/2-x,1/2-y,-z
1/2+x,1/2-y,z
loop_
_atom_site_type_symbol
_atom_site_label
_atom_site_fract_x
_atom_site_fract_y
_atom_site_fract_z
Si Si1 0.995653 0.317617 0.653241
Si Si2 0.673869 0.182642 0.502642
Si Si3 0.770621 0.322683 0.083710
Si Si4 0.062818 0.178810 0.820266
Si Si5 0.341092 0.816457 0.344260
Si Si6 0.181992 0.821573 0.178449
Si Si7 0.013552 0.679025 0.087112
O O1 0.999017 0.500000 0.659768
O O2 0.911293 0.276216 0.575487
O O3 0.003097 0.248636 0.733564
O O4 0.074240 0.267499 0.647893
O O5 0.750000 0.250000 0.500000
O O6 0.669583 0.231127 0.581216
O O7 0.680182 0.000000 0.504588
O O8 0.787357 0.500000 0.083516
O O9 0.849316 0.242423 0.153181
O O10 0.701642 0.306369 0.106568
O O11 0.750000 0.250000 0.000000
O O12 0.043616 0.235528 0.887957
O O13 0.060865 0.000000 0.816515
O O14 0.261791 0.774686 0.260617
O O15 0.343859 0.000000 0.344866
O O16 0.103752 0.724177 0.154343
O O17 0.166778 0.000000 0.185249
O O18 0.000493 0.500000 0.086244
O O19 0.000000 0.723343 0.000000
#
# Coordination Sequence:
#
# PCOD9204109 Si02
#       7
#     8   8   8   8   8   8   8
#     4  10  20  40  65  90 121 163 208 251 301 364
#     4  10  22  38  63  94 125 160 200 247 304 367
#     4  11  22  39  63  92 126 162 203 253 306 364
#     4  12  25  40  62  91 124 165 209 256 308 366
#     4   9  18  38  64  90 120 158 202 247 301 365
#     4  10  21  38  62  90 122 160 201 251 304 365
#     4  11  25  43  62  86 121 163 207 260 314 368
#
# _framework density 19.805768
#
# number of rings (size 3 to 8) (size 9 to 14) (size 15 to 20)
#    0.000    1.571    1.429    3.429    2.000    6.857 
#    0.000    0.714    0.000    1.714    0.000    0.000 
#    0.000    0.000    0.000    0.000    0.000    0.000 
#
# Total GULP energy -156471.716276 kJ/mol
# GULP energy per Si atom -5588.275581 kJ/mol
# Density = 1.976069 g / cm^3
# Si number density = 19.805768 Si / 1000 Ang^3
#
#
#
# Elastic Constant Matrix: (Units=GPa)
#
#
# Indices 1 2 3 4 5 6 
#
# 1 78.0724 19.3737 17.3072 0.0000 2.8343 0.0000
# 2 19.3737 29.3380 15.8691 0.0000 -4.6744 0.0000
# 3 17.3072 15.8691 93.3809 0.0000 -4.2945 0.0000
# 4 0.0000 0.0000 0.0000 22.9402 0.0000 0.7394
# 5 2.8343 -4.6744 -4.2945 0.0000 32.8372 0.0000
# 6 0.0000 0.0000 0.0000 0.7394 0.0000 33.3235
#
#
#
# Elastic Compliance Matrix: (Units=1/GPa)
#
#
# Indices 1 2 3 4 5 6 
#
# 1 0.015728 -0.010141 -0.001328 0.000000 -0.002975 0.000000
# 2 -0.010141 0.044759 -0.005426 0.000000 0.006537 0.000000
# 3 -0.001328 -0.005426 0.011919 0.000000 0.000901 0.000000
# 4 0.000000 0.000000 0.000000 0.043623 0.000000 -0.000968
# 5 -0.002975 0.006537 0.000901 0.000000 0.031758 0.000000
# 6 0.000000 0.000000 0.000000 -0.000968 0.000000 0.030030
#
#
# Mechanical properties :
#
#
# Convention : Reuss Voigt Hill
#
# Bulk Modulus (GPa) = 25.89765 33.98793 29.94279
# Shear Modulus (GPa) = 22.27373 27.70294 24.98834
#
# Velocity S-wave (km/s) = 3.35716 3.74402 3.55585
# Velocity P-wave (km/s) = 5.30392 5.99067 5.65772
#
# Compressibility (1/GPa) = 0.03861355
#
# Stress axis : x y z
#
# Youngs Moduli (GPa) = 63.58205 22.34187 83.90272
#
# Poissons Ratio (x) = 0.22658 0.11145
# Poissons Ratio (y) = 0.64481 0.45526
# Poissons Ratio (z) = 0.08446 0.12123
#
# Static dielectric constant tensor:
#      x y z
#    x 1.694710 0.000000 -0.001000 
#    y 0.000000 1.662240 0.000000 
#    z -0.001000 0.000000 1.696840 
# 
# From -- ./inp_files/281764.got.cif
#   From: 2010.05.17/outbox.cif.g08.bks.cpg/sg12_141_cif.got.tgz:281764.got - 2010.06.03 13:09:07.
