data_PCOD9204865
_publ_section_title
;
Structure prediction by ZEFSAII (Michael W. Deem and Ramdas Pophale) SiO2 
 PCOD9204865
Probable space group: C 2/M
;
_chemical_formula_sum "Si O2"
_cell_formula_units_Z 48
_cell_length_a 30.740805
_cell_length_b 14.702513
_cell_length_c 16.826208
_cell_angle_alpha 90.000000
_cell_angle_beta 162.931245
_cell_angle_gamma 90.000000
_cell_volume 2232.180811
_symmetry_space_group_name_H-M "C 2/M"
_symmetry_group_IT_number 12
_symmetry_cell_setting 'monoclinic'
loop_
_space_group_symop_operation_xyz
x,y,z
-x,y,-z
-x,-y,-z
x,-y,z
1/2+x,1/2+y,z
1/2-x,1/2+y,-z
1/2-x,1/2-y,-z
1/2+x,1/2-y,z
loop_
_atom_site_type_symbol
_atom_site_label
_atom_site_fract_x
_atom_site_fract_y
_atom_site_fract_z
Si Si1 0.439434 0.611497 0.141032
Si Si2 0.248126 0.337195 0.388990
Si Si3 0.325703 0.368938 0.693311
Si Si4 0.863077 0.610216 0.974228
Si Si5 0.160171 0.600395 0.561810
Si Si6 0.052092 0.889768 0.505891
O O1 0.450165 0.500000 0.149070
O O2 0.582663 0.653678 0.347610
O O3 0.447369 0.630852 0.248271
O O4 0.286042 0.645120 0.835466
O O5 0.254691 0.390804 0.483852
O O6 0.194809 0.238097 0.322864
O O7 0.149915 0.365278 0.141608
O O8 0.238809 0.410643 0.614433
O O9 0.500000 0.390927 0.000000
O O10 0.871450 0.500000 0.990503
O O11 0.005540 0.646540 0.270219
O O12 0.714851 0.638566 0.761161
O O13 0.129934 0.500000 0.544034
O O14 0.000000 0.854119 0.500000
O O15 0.057239 0.000000 0.520416
#
# Coordination Sequence:
#
# PCOD9204865 Si02
#       6
#     8   8   8   8   8   8
#     4   9  17  33  53  74 102 135 168 202 251 304
#     4  10  21  34  52  69  98 133 173 217 245 289
#     4  11  23  35  50  72 100 131 178 218 248 291
#     4   9  19  34  52  76 104 133 167 205 252 301
#     4  10  21  34  49  72 104 136 166 207 256 298
#     4   8  14  28  52  78 101 128 165 204 243 298
#
# _framework density 21.503634000000002
#
# number of rings (size 3 to 8) (size 9 to 14) (size 15 to 20)
#    0.000    2.500    1.667    1.500    4.667    1.667 
#    0.000    2.500    0.000    5.000    0.000   18.667 
#    0.000    0.000    0.000    0.000    0.000    0.000 
#
# Total GULP energy -133897.242327 kJ/mol
# GULP energy per Si atom -5579.051764 kJ/mol
# Density = 2.145469 g / cm^3
# Si number density = 21.503634 Si / 1000 Ang^3
#
#
#
# Elastic Constant Matrix: (Units=GPa)
#
#
# Indices 1 2 3 4 5 6 
#
# 1 135.5255 -1.3842 58.5055 0.0000 -16.7510 0.0000
# 2 -1.3842 47.4219 -0.0464 0.0000 4.2085 0.0000
# 3 58.5055 -0.0464 171.2741 0.0000 -25.5723 0.0000
# 4 0.0000 0.0000 0.0000 36.4443 0.0000 25.0147
# 5 -16.7510 4.2085 -25.5723 0.0000 17.9054 0.0000
# 6 0.0000 0.0000 0.0000 25.0147 0.0000 44.2039
#
#
#
# Elastic Compliance Matrix: (Units=1/GPa)
#
#
# Indices 1 2 3 4 5 6 
#
# 1 0.009013 -0.000200 -0.002304 0.000000 0.005188 0.000000
# 2 -0.000200 0.021664 -0.000908 0.000000 -0.006575 0.000000
# 3 -0.002304 -0.000908 0.008053 0.000000 0.009558 0.000000
# 4 0.000000 0.000000 0.000000 0.044866 0.000000 -0.025389
# 5 0.005188 -0.006575 0.009558 0.000000 0.075899 0.000000
# 6 0.000000 0.000000 0.000000 -0.025389 0.000000 0.036990
#
#
# Mechanical properties :
#
#
# Convention : Reuss Voigt Hill
#
# Bulk Modulus (GPa) = 31.34155 52.04124 41.69140
# Shear Modulus (GPa) = 23.37083 39.52049 31.44566
#
# Velocity S-wave (km/s) = 3.30029 4.29167 3.82821
# Velocity P-wave (km/s) = 5.39715 6.98653 6.24263
#
# Compressibility (1/GPa) = 0.03190653
#
# Stress axis : x y z
#
# Youngs Moduli (GPa) = 110.95700 46.15933 124.18479
#
# Poissons Ratio (x) = 0.00921 0.28613
# Poissons Ratio (y) = 0.02214 0.11271
# Poissons Ratio (z) = 0.25565 0.04190
#
# Static dielectric constant tensor:
#      x y z
#    x 1.728550 0.000000 -0.024550 
#    y 0.000000 1.925510 0.000000 
#    z -0.024550 0.000000 1.809790 
# 
# From -- ./inp_files/247129.got.cif
#   From: 2010.05.17/outbox.cif.g08.bks.cpg/sg12_124_cif.got.tgz:247129.got - 2010.06.03 13:09:07.
