data_PCOD9204120
_publ_section_title
;
Structure prediction by ZEFSAII (Michael W. Deem and Ramdas Pophale) SiO2 
 PCOD9204120
Probable space group: C 2/M
;
_chemical_formula_sum "Si O2"
_cell_formula_units_Z 40
_cell_length_a 24.119537
_cell_length_b 7.669281
_cell_length_c 17.422771
_cell_angle_alpha 90.000000
_cell_angle_beta 148.024700
_cell_angle_gamma 90.000000
_cell_volume 1706.674858
_symmetry_space_group_name_H-M "C 2/M"
_symmetry_group_IT_number 12
_symmetry_cell_setting 'monoclinic'
loop_
_space_group_symop_operation_xyz
x,y,z
-x,y,-z
-x,-y,-z
x,-y,z
1/2+x,1/2+y,z
1/2-x,1/2+y,-z
1/2-x,1/2-y,-z
1/2+x,1/2-y,z
loop_
_atom_site_type_symbol
_atom_site_label
_atom_site_fract_x
_atom_site_fract_y
_atom_site_fract_z
Si Si1 0.529599 0.201056 0.117034
Si Si2 0.526135 0.211080 0.278316
Si Si3 0.386755 0.199041 0.383972
Si Si4 0.231491 0.287853 0.604391
Si Si5 0.336601 0.299067 0.163664
O O1 0.491485 0.276978 0.153640
O O2 0.654926 0.207233 0.271629
O O3 0.492257 0.000000 0.070841
O O4 0.500000 0.281943 0.000000
O O5 0.644099 0.262851 0.439284
O O6 0.447640 0.267270 0.252871
O O7 0.524314 0.000000 0.274063
O O8 0.500000 0.283326 0.500000
O O9 0.317227 0.270395 0.371026
O O10 0.329274 0.199051 0.235079
O O11 0.409288 0.000000 0.435717
O O12 0.243244 0.500000 0.617177
O O13 0.324984 0.500000 0.169959
O O14 0.250000 0.250000 0.000000
#
# Coordination Sequence:
#
# PCOD9204120 Si02
#       5
#     8   8   8   8   8
#     4  10  23  40  60  89 123 158 202 257 308 356
#     4  10  21  42  64  86 122 165 205 248 306 364
#     4  10  20  40  65  91 126 162 200 246 305 368
#     4  10  21  38  64  90 119 162 204 248 300 363
#     4  12  26  41  62  92 126 163 205 253 306 364
#
# _framework density 23.437387000000001
#
# number of rings (size 3 to 8) (size 9 to 14) (size 15 to 20)
#    0.000    1.600    2.000    2.400    2.800    3.200 
#    0.000    0.000    0.000    0.000    0.000    0.000 
#    0.000    0.000    0.000    0.000    0.000    0.000 
#
# Total GULP energy -111807.905924 kJ/mol
# GULP energy per Si atom -5590.395296 kJ/mol
# Density = 2.338404 g / cm^3
# Si number density = 23.437387 Si / 1000 Ang^3
#
#
#
# Elastic Constant Matrix: (Units=GPa)
#
#
# Indices 1 2 3 4 5 6 
#
# 1 103.3210 -9.1031 -1.1264 0.0000 -36.1996 0.0000
# 2 -9.1031 57.0430 -10.0994 0.0000 -3.4964 0.0000
# 3 -1.1264 -10.0994 77.3421 0.0000 -25.0196 0.0000
# 4 0.0000 0.0000 0.0000 13.4107 0.0000 15.0810
# 5 -36.1996 -3.4964 -25.0196 0.0000 47.2388 0.0000
# 6 0.0000 0.0000 0.0000 15.0810 0.0000 2.3226
#
#
#
# Elastic Compliance Matrix: (Units=1/GPa)
#
#
# Indices 1 2 3 4 5 6 
#
# 1 0.015454 0.004410 0.005717 0.000000 0.015197 0.000000
# 2 0.004410 0.019588 0.005049 0.000000 0.007504 0.000000
# 3 0.005717 0.005049 0.018355 0.000000 0.014476 0.000000
# 4 0.000000 0.000000 0.000000 -0.011833 0.000000 0.076831
# 5 0.015197 0.007504 0.014476 0.000000 0.041037 0.000000
# 6 0.000000 0.000000 0.000000 0.076831 0.000000 -0.068321
#
#
# Mechanical properties :
#
#
# Convention : Reuss Voigt Hill
#
# Bulk Modulus (GPa) = 11.94036 21.89425 16.91730
# Shear Modulus (GPa) = 422.12183 29.79675 225.95929
#
# Velocity S-wave (km/s) = 13.43492 3.56945 9.82950
# Velocity P-wave (km/s) = 15.67701 5.13320 11.66444
#
# Compressibility (1/GPa) = 0.08374959
#
# Stress axis : x y z
#
# Youngs Moduli (GPa) = 64.70916 51.05091 54.48050
#
# Poissons Ratio (x) = -0.22512 -0.31146
# Poissons Ratio (y) = -0.28536 -0.27510
# Poissons Ratio (z) = -0.36994 -0.25778
#
# Static dielectric constant tensor:
#      x y z
#    x 1.699950 0.000000 0.043240 
#    y 0.000000 1.867290 0.000000 
#    z 0.043240 0.000000 1.850890 
# 
# From -- ./inp_files/220567.got.cif
#   From: 2010.05.17/outbox.cif.g08.bks.cpg/sg12_111_cif.got.tgz:220567.got - 2010.06.03 13:09:07.
