data_PCOD9204616
_publ_section_title
;
Structure prediction by ZEFSAII (Michael W. Deem and Ramdas Pophale) SiO2 
 PCOD9204616
Probable space group: C 2/M
;
_chemical_formula_sum "Si O2"
_cell_formula_units_Z 48
_cell_length_a 9.762888
_cell_length_b 21.199767
_cell_length_c 13.406292
_cell_angle_alpha 90.000000
_cell_angle_beta 133.006871
_cell_angle_gamma 90.000000
_cell_volume 2029.069677
_symmetry_space_group_name_H-M "C 2/M"
_symmetry_group_IT_number 12
_symmetry_cell_setting 'monoclinic'
loop_
_space_group_symop_operation_xyz
x,y,z
-x,y,-z
-x,-y,-z
x,-y,z
1/2+x,1/2+y,z
1/2-x,1/2+y,-z
1/2-x,1/2-y,-z
1/2+x,1/2-y,z
loop_
_atom_site_type_symbol
_atom_site_label
_atom_site_fract_x
_atom_site_fract_y
_atom_site_fract_z
Si Si1 0.789896 0.825106 0.605669
Si Si2 0.500000 0.500000 0.500000
Si Si3 0.000000 0.000000 0.000000
Si Si4 0.429761 0.072210 0.069569
Si Si5 0.500000 0.278490 0.000000
Si Si6 0.155111 0.766265 0.706315
Si Si7 0.290406 0.881521 0.640662
Si Si8 0.992712 0.895496 0.134537
O O1 0.679605 0.791011 0.640368
O O2 0.690098 0.853720 0.460121
O O3 0.949708 0.775387 0.649841
O O4 0.902877 0.882965 0.711650
O O5 0.663761 0.443998 0.578261
O O6 0.899466 0.943474 0.883788
O O7 0.512844 0.106817 0.206067
O O8 0.497470 0.000000 0.107555
O O9 0.500000 0.100372 0.000000
O O10 0.206980 0.071524 0.953778
O O11 0.683465 0.241753 0.129285
O O12 0.455450 0.327150 0.067536
O O13 0.191098 0.829192 0.660610
#
# Coordination Sequence:
#
# PCOD9204616 Si02
#       8
#     8   2   2   8   4   8   8   8
#     4  11  25  45  70 103 137 190 231 293 355 422
#     4  12  24  44  62  96 140 184 224 282 348 422
#     4  10  20  44  74  98 132 188 232 278 342 430
#     4  11  24  39  63 101 134 174 225 288 342 409
#     4   9  24  41  66 101 134 177 226 290 354 407
#     4  11  24  43  69 101 138 183 235 290 356 418
#     4  12  25  42  66  99 142 182 234 291 353 421
#     4  10  22  43  69  98 137 180 230 285 350 419
#
# _framework density 23.656161000000001
#
# number of rings (size 3 to 8) (size 9 to 14) (size 15 to 20)
#    0.000    1.167    3.333    1.500    5.833    2.000 
#    0.000    0.000    0.000    1.000    0.000    0.000 
#    0.000    0.000    0.000    0.000    0.000    0.000 
#
# Total GULP energy -133789.797156 kJ/mol
# GULP energy per Si atom -5574.574881 kJ/mol
# Density = 2.360232 g / cm^3
# Si number density = 23.656161 Si / 1000 Ang^3
#
#
#
# Elastic Constant Matrix: (Units=GPa)
#
#
# Indices 1 2 3 4 5 6 
#
# 1 69.4387 14.3106 32.0546 0.0000 -4.9621 0.0000
# 2 14.3106 118.7810 65.3938 0.0000 -4.8657 0.0000
# 3 32.0546 65.3938 171.2609 0.0000 -25.3379 0.0000
# 4 0.0000 0.0000 0.0000 39.4252 0.0000 10.2037
# 5 -4.9621 -4.8657 -25.3379 0.0000 34.8471 0.0000
# 6 0.0000 0.0000 0.0000 10.2037 0.0000 20.0527
#
#
#
# Elastic Compliance Matrix: (Units=1/GPa)
#
#
# Indices 1 2 3 4 5 6 
#
# 1 0.015775 -0.000357 -0.002792 0.000000 0.000167 0.000000
# 2 -0.000357 0.010753 -0.004286 0.000000 -0.001665 0.000000
# 3 -0.002792 -0.004286 0.008797 0.000000 0.005400 0.000000
# 4 0.000000 0.000000 0.000000 0.029211 0.000000 -0.014864
# 5 0.000167 -0.001665 0.005400 0.000000 0.032415 0.000000
# 6 0.000000 0.000000 0.000000 -0.014864 0.000000 0.057432
#
#
# Mechanical properties :
#
#
# Convention : Reuss Voigt Hill
#
# Bulk Modulus (GPa) = 48.88268 64.77764 56.83016
# Shear Modulus (GPa) = 28.39767 35.37977 31.88872
#
# Velocity S-wave (km/s) = 3.46849 3.87147 3.67551
# Velocity P-wave (km/s) = 6.06211 6.88671 6.48753
#
# Compressibility (1/GPa) = 0.02045714
#
# Stress axis : x y z
#
# Youngs Moduli (GPa) = 63.38994 92.99758 113.67597
#
# Poissons Ratio (x) = 0.03318 0.31736
# Poissons Ratio (y) = 0.02262 0.48716
# Poissons Ratio (z) = 0.17697 0.39854
#
# Static dielectric constant tensor:
#      x y z
#    x 2.052680 0.000000 -0.008430 
#    y 0.000000 1.871150 0.000000 
#    z -0.008430 0.000000 1.957860 
# 
# From -- ./inp_files/208058.got.cif
#   From: 2010.05.17/outbox.cif.g08.bks.cpg/sg12_105_cif.got.tgz:208058.got - 2010.06.03 13:09:07.
