data_PCOD9204977
_publ_section_title
;
Structure prediction by ZEFSAII (Michael W. Deem and Ramdas Pophale) SiO2 
 PCOD9204977
Probable space group: C 2/M
;
_chemical_formula_sum "Si O2"
_cell_formula_units_Z 56
_cell_length_a 28.283990
_cell_length_b 25.652341
_cell_length_c 12.098321
_cell_angle_alpha 90.000000
_cell_angle_beta 159.203899
_cell_angle_gamma 90.000000
_cell_volume 3116.550446
_symmetry_space_group_name_H-M "C 2/M"
_symmetry_group_IT_number 12
_symmetry_cell_setting 'monoclinic'
loop_
_space_group_symop_operation_xyz
x,y,z
-x,y,-z
-x,-y,-z
x,-y,z
1/2+x,1/2+y,z
1/2-x,1/2+y,-z
1/2-x,1/2-y,-z
1/2+x,1/2-y,z
loop_
_atom_site_type_symbol
_atom_site_label
_atom_site_fract_x
_atom_site_fract_y
_atom_site_fract_z
Si Si1 0.848184 0.137200 0.893156
Si Si2 0.144746 0.190972 0.868888
Si Si3 0.656539 0.561290 0.313540
Si Si4 0.646011 0.188945 0.870993
Si Si5 0.678419 0.137939 0.168377
Si Si6 0.932159 0.315106 0.733550
Si Si7 0.072851 0.798172 0.276712
O O1 0.828079 0.085384 0.776088
O O2 0.720071 0.170997 0.578330
O O3 0.840352 0.145712 0.007335
O O4 0.990494 0.160985 0.169420
O O5 0.157020 0.250995 0.940121
O O6 0.000000 0.187548 0.500000
O O7 0.251294 0.184990 0.004936
O O8 0.684806 0.500000 0.376961
O O9 0.749315 0.591028 0.606888
O O10 0.500000 0.569334 0.000000
O O11 0.500000 0.182751 0.500000
O O12 0.676347 0.146042 0.031444
O O13 0.775505 0.185953 0.413769
O O14 0.525691 0.145350 0.871330
O O15 0.938275 0.258251 0.692754
O O16 0.000000 0.311836 0.000000
O O17 0.000000 0.798149 0.000000
#
# Coordination Sequence:
#
# PCOD9204977 Si02
#       7
#     8   8   8   8   8   8   8
#     4  12  20  38  56  84 117 156 191 240 295 338
#     4  10  21  34  54  81 118 159 197 228 266 330
#     4  11  24  43  64  87 111 144 198 256 307 351
#     4  10  21  36  52  81 121 162 192 222 268 340
#     4  12  20  38  58  82 116 160 193 230 292 350
#     4  11  21  29  50  86 123 145 179 227 282 356
#     4  11  19  31  50  82 119 154 184 222 276 355
#
# _framework density 17.968585000000001
#
# number of rings (size 3 to 8) (size 9 to 14) (size 15 to 20)
#    0.000    1.000    4.286    4.286    0.000    4.571 
#    0.000    1.429    0.000    1.714    0.000    0.000 
#    0.000    0.000    0.000    0.000    0.000    0.000 
#
# Total GULP energy -156040.336562 kJ/mol
# GULP energy per Si atom -5572.869163 kJ/mol
# Density = 1.792769 g / cm^3
# Si number density = 17.968585 Si / 1000 Ang^3
#
#
#
# Elastic Constant Matrix: (Units=GPa)
#
#
# Indices 1 2 3 4 5 6 
#
# 1 91.6655 39.6463 23.3424 0.0000 -6.6224 0.0000
# 2 39.6463 100.0371 21.2361 0.0000 -12.7435 0.0000
# 3 23.3424 21.2361 80.8497 0.0000 -7.8186 0.0000
# 4 0.0000 0.0000 0.0000 12.2713 0.0000 2.5864
# 5 -6.6224 -12.7435 -7.8186 0.0000 32.5235 0.0000
# 6 0.0000 0.0000 0.0000 2.5864 0.0000 12.4551
#
#
#
# Elastic Compliance Matrix: (Units=1/GPa)
#
#
# Indices 1 2 3 4 5 6 
#
# 1 0.013694 -0.004830 -0.002660 0.000000 0.000256 0.000000
# 2 -0.004830 0.012709 -0.001594 0.000000 0.003613 0.000000
# 3 -0.002660 -0.001594 0.013763 0.000000 0.002142 0.000000
# 4 0.000000 0.000000 0.000000 0.085221 0.000000 -0.017697
# 5 0.000256 0.003613 0.002142 0.000000 0.032730 0.000000
# 6 0.000000 0.000000 0.000000 -0.017697 0.000000 0.083963
#
#
# Mechanical properties :
#
#
# Convention : Reuss Voigt Hill
#
# Bulk Modulus (GPa) = 45.46082 49.00023 47.23052
# Shear Modulus (GPa) = 18.68592 24.00515 21.34553
#
# Velocity S-wave (km/s) = 3.22828 3.65903 3.45038
# Velocity P-wave (km/s) = 6.26505 6.72164 6.49736
#
# Compressibility (1/GPa) = 0.02199696
#
# Stress axis : x y z
#
# Youngs Moduli (GPa) = 73.02398 78.68360 72.66052
#
# Poissons Ratio (x) = 0.38003 0.19330
# Poissons Ratio (y) = 0.35269 0.11585
# Poissons Ratio (z) = 0.19426 0.12545
#
# Static dielectric constant tensor:
#      x y z
#    x 1.651200 0.000000 -0.020950 
#    y 0.000000 1.617170 0.000000 
#    z -0.020950 0.000000 1.548620 
# 
# From -- ./inp_files/190408.got.cif
#   From: 2010.05.17/outbox.cif.g08.bks.cpg/sg12_96_cif.got.tgz:190408.got - 2010.06.03 13:09:07.
