data_PCOD9204943
_publ_section_title
;
Structure prediction by ZEFSAII (Michael W. Deem and Ramdas Pophale) SiO2 
 PCOD9204943
Probable space group: C 2/M
;
_chemical_formula_sum "Si O2"
_cell_formula_units_Z 60
_cell_length_a 21.561012
_cell_length_b 23.179573
_cell_length_c 12.429875
_cell_angle_alpha 90.000000
_cell_angle_beta 30.693669
_cell_angle_gamma 90.000000
_cell_volume 3170.974566
_symmetry_space_group_name_H-M "C 2/M"
_symmetry_group_IT_number 12
_symmetry_cell_setting 'monoclinic'
loop_
_space_group_symop_operation_xyz
x,y,z
-x,y,-z
-x,-y,-z
x,-y,z
1/2+x,1/2+y,z
1/2-x,1/2+y,-z
1/2-x,1/2-y,-z
1/2+x,1/2-y,z
loop_
_atom_site_type_symbol
_atom_site_label
_atom_site_fract_x
_atom_site_fract_y
_atom_site_fract_z
Si Si1 0.000000 0.800190 0.500000
Si Si2 0.373950 0.567123 0.117070
Si Si3 0.994412 0.176380 0.879167
Si Si4 0.253053 0.191853 0.427110
Si Si5 0.460578 0.220716 0.762648
Si Si6 0.374234 0.120077 0.415977
Si Si7 0.746658 0.165721 0.804484
Si Si8 0.923352 0.563406 0.004123
O O1 0.961321 0.758639 0.655267
O O2 0.885131 0.837063 0.633178
O O3 0.357563 0.500000 0.105533
O O4 0.249429 0.589452 0.360187
O O5 0.500000 0.565960 0.000000
O O6 0.405175 0.622078 0.993801
O O7 0.971433 0.234218 0.845865
O O8 0.127394 0.159137 0.638595
O O9 0.000000 0.188544 0.000000
O O10 0.250000 0.250000 0.500000
O O11 0.353325 0.152172 0.332506
O O12 0.261444 0.206272 0.289495
O O13 0.568310 0.172750 0.600330
O O14 0.335906 0.187924 0.975011
O O15 0.479712 0.074486 0.235562
O O16 0.683166 0.109021 0.852464
O O17 0.870664 0.500000 0.077980
O O18 0.000000 0.567509 0.000000
#
# Coordination Sequence:
#
# PCOD9204943 Si02
#       8
#     4   8   8   8   8   8   8   8
#     4  12  24  46  59  88 127 170 212 254 312 380
#     4  10  21  34  52  83 127 170 203 242 301 378
#     4  11  20  32  55  88 126 158 198 257 314 378
#     4  12  19  33  54  90 129 159 197 244 319 385
#     4  11  25  37  64  92 121 163 207 265 318 376
#     4  11  20  36  57  91 123 164 203 255 318 373
#     4  11  24  40  60  90 126 164 209 252 314 377
#     4  10  21  37  61  91 123 159 204 259 316 369
#
# _framework density 18.921627999999998
#
# number of rings (size 3 to 8) (size 9 to 14) (size 15 to 20)
#    0.000    1.067    6.667    1.600    1.867    0.000 
#    0.000    1.000    0.000    0.800    0.000    2.333 
#    0.000    0.000    0.000    0.000    0.000    0.000 
#
# Total GULP energy -167082.118586 kJ/mol
# GULP energy per Si atom -5569.403953 kJ/mol
# Density = 1.887856 g / cm^3
# Si number density = 18.921628 Si / 1000 Ang^3
#
#
#
# Elastic Constant Matrix: (Units=GPa)
#
#
# Indices 1 2 3 4 5 6 
#
# 1 66.2544 28.2291 34.8361 -0.0002 -9.3259 0.0001
# 2 28.2291 113.7394 37.7255 0.0001 -8.8226 0.0001
# 3 34.8361 37.7255 83.2571 0.0003 -3.6987 0.0004
# 4 -0.0002 0.0001 0.0003 21.5534 0.0002 -2.7279
# 5 -9.3259 -8.8226 -3.6987 0.0002 29.8039 -0.0002
# 6 0.0001 0.0001 0.0004 -2.7279 -0.0002 13.2122
#
#
#
# Elastic Compliance Matrix: (Units=1/GPa)
#
#
# Indices 1 2 3 4 5 6 
#
# 1 0.020635 -0.002298 -0.007377 0.000000 0.004861 0.000000
# 2 -0.002298 0.010791 -0.003839 0.000000 0.001999 0.000000
# 3 -0.007377 -0.003839 0.016777 0.000000 -0.001363 0.000000
# 4 0.000000 0.000000 0.000000 0.047641 0.000000 0.009836
# 5 0.004861 0.001999 -0.001363 0.000000 0.035496 0.000001
# 6 0.000000 0.000000 0.000000 0.009836 0.000001 0.077718
#
#
# Mechanical properties :
#
#
# Convention : Reuss Voigt Hill
#
# Bulk Modulus (GPa) = 47.22580 51.64803 49.43692
# Shear Modulus (GPa) = 20.56382 23.74459 22.15420
#
# Velocity S-wave (km/s) = 3.30022 3.54629 3.42547
# Velocity P-wave (km/s) = 6.28767 6.64253 6.46754
#
# Compressibility (1/GPa) = 0.02117487
#
# Stress axis : x y z
#
# Youngs Moduli (GPa) = 48.46036 92.67180 59.60587
#
# Poissons Ratio (x) = 0.21292 0.43972
# Poissons Ratio (y) = 0.11134 0.22885
# Poissons Ratio (z) = 0.35750 0.35580
#
# Static dielectric constant tensor:
#      x y z
#    x 1.675810 0.000000 -0.006650 
#    y 0.000000 1.696560 0.000000 
#    z -0.006650 0.000000 1.709010 
# 
# From -- ./inp_files/170378.got.cif
#   From: 2010.05.17/outbox.cif.g08.bks.cpg/sg12_86_cif.got.tgz:170378.got - 2010.06.03 13:09:07.
