data_PCOD9204905
_publ_section_title
;
Structure prediction by ZEFSAII (Michael W. Deem and Ramdas Pophale) SiO2 
 PCOD9204905
Probable space group: C 2/M
;
_chemical_formula_sum "Si O2"
_cell_formula_units_Z 56
_cell_length_a 19.392209
_cell_length_b 18.215677
_cell_length_c 17.397943
_cell_angle_alpha 90.000000
_cell_angle_beta 29.884567
_cell_angle_gamma 90.000000
_cell_volume 3062.114929
_symmetry_space_group_name_H-M "C 2/M"
_symmetry_group_IT_number 12
_symmetry_cell_setting 'monoclinic'
loop_
_space_group_symop_operation_xyz
x,y,z
-x,y,-z
-x,-y,-z
x,-y,z
1/2+x,1/2+y,z
1/2-x,1/2+y,-z
1/2-x,1/2-y,-z
1/2+x,1/2-y,z
loop_
_atom_site_type_symbol
_atom_site_label
_atom_site_fract_x
_atom_site_fract_y
_atom_site_fract_z
Si Si1 0.893930 0.265474 0.319082
Si Si2 0.461770 0.657926 0.715497
Si Si3 0.694308 0.583427 0.002660
Si Si4 0.693927 0.847235 0.869122
Si Si5 0.531228 0.916601 0.160539
Si Si6 0.863416 0.915597 0.576194
Si Si7 0.046051 0.194054 0.035101
O O1 0.750000 0.250000 0.500000
O O2 0.008196 0.231745 0.266933
O O3 0.923559 0.351019 0.276981
O O4 0.923735 0.219856 0.211717
O O5 0.414370 0.597169 0.822947
O O6 0.334332 0.666257 0.781148
O O7 0.592090 0.630920 0.540498
O O8 0.684683 0.500000 0.983851
O O9 0.651167 0.642569 0.980701
O O10 0.844669 0.593312 0.896793
O O11 0.738839 0.880328 0.744576
O O12 0.602658 0.902327 0.008697
O O13 0.618856 0.769669 0.939518
O O14 0.479811 0.000000 0.215680
O O15 0.000000 0.915900 0.500000
O O16 0.834430 0.000000 0.585011
O O17 0.000000 0.157358 0.000000
#
# Coordination Sequence:
#
# PCOD9204905 Si02
#       7
#     8   8   8   8   8   8   8
#     4  10  21  35  52  73 104 138 174 210 256 310
#     4   9  17  30  50  76 101 133 172 214 253 303
#     4   9  17  32  55  79  99 129 176 225 263 297
#     4   9  17  30  51  75 103 134 171 209 254 305
#     4   9  17  33  57  79 101 130 171 218 260 305
#     4   9  16  26  45  76 107 130 156 200 258 309
#     4  10  21  34  51  73 105 139 176 215 255 308
#
# _framework density 18.288015000000001
#
# number of rings (size 3 to 8) (size 9 to 14) (size 15 to 20)
#    0.000    2.714    0.000    1.714    2.000    7.143 
#    0.000    3.571    0.000    2.143    0.000    2.000 
#    0.000    0.000    0.000    0.000    0.000    0.000 
#
# Total GULP energy -156174.197544 kJ/mol
# GULP energy per Si atom -5577.649912 kJ/mol
# Density = 1.824639 g / cm^3
# Si number density = 18.288015 Si / 1000 Ang^3
#
#
#
# Elastic Constant Matrix: (Units=GPa)
#
#
# Indices 1 2 3 4 5 6 
#
# 1 60.7077 22.2686 22.6281 0.0003 12.3171 -0.0004
# 2 22.2686 92.1380 38.5835 0.0000 1.3813 -0.0001
# 3 22.6281 38.5835 103.3688 0.0000 8.9651 -0.0002
# 4 0.0003 0.0000 0.0000 17.1098 -0.0001 4.8171
# 5 12.3171 1.3813 8.9651 -0.0001 20.2353 0.0003
# 6 -0.0004 -0.0001 -0.0002 4.8171 0.0003 -1.0217
#
#
#
# Elastic Compliance Matrix: (Units=1/GPa)
#
#
# Indices 1 2 3 4 5 6 
#
# 1 0.021100 -0.004046 -0.002099 0.000001 -0.011637 -0.000006
# 2 -0.004046 0.013673 -0.004524 0.000000 0.003534 0.000001
# 3 -0.002099 -0.004524 0.012152 0.000000 -0.003797 -0.000001
# 4 0.000001 0.000000 0.000000 0.025112 -0.000003 0.118399
# 5 -0.011637 0.003534 -0.003797 -0.000003 0.057943 0.000011
# 6 -0.000006 0.000001 -0.000001 0.118399 0.000011 -0.420543
#
#
# Mechanical properties :
#
#
# Convention : Reuss Voigt Hill
#
# Bulk Modulus (GPa) = 39.08524 47.01941 43.05233
# Shear Modulus (GPa) = -19.17951 18.78031 -0.19960
#
# Velocity S-wave (km/s) = -3.24195 3.20803 -0.33072
# Velocity P-wave (km/s) = 2.72118 6.28397 4.84216
#
# Compressibility (1/GPa) = 0.02558510
#
# Stress axis : x y z
#
# Youngs Moduli (GPa) = 47.39309 73.13812 82.29277
#
# Poissons Ratio (x) = 0.29592 0.17277
# Poissons Ratio (y) = 0.19175 0.37232
# Poissons Ratio (z) = 0.09950 0.33090
#
# Static dielectric constant tensor:
#      x y z
#    x 1.668130 0.000000 -0.018410 
#    y 0.000000 1.604860 0.000000 
#    z -0.018410 0.000000 1.630830 
# 
# From -- ./inp_files/284971.got.cif
#   From: 2010.05.17/outbox.cif.g08.bks.cpg/sg12_143_cif.got.tgz:284971.got - 2010.06.03 13:09:07.
