data_PCOD9204024
_publ_section_title
;
Structure prediction by ZEFSAII (Michael W. Deem and Ramdas Pophale) SiO2 
 PCOD9204024
Probable space group: C 2/M
;
_chemical_formula_sum "Si O2"
_cell_formula_units_Z 42
_cell_length_a 15.435524
_cell_length_b 17.057678
_cell_length_c 18.963674
_cell_angle_alpha 90.000000
_cell_angle_beta 23.539967
_cell_angle_gamma 90.000000
_cell_volume 1994.157762
_symmetry_space_group_name_H-M "C 2/M"
_symmetry_group_IT_number 12
_symmetry_cell_setting 'monoclinic'
loop_
_space_group_symop_operation_xyz
x,y,z
-x,y,-z
-x,-y,-z
x,-y,z
1/2+x,1/2+y,z
1/2-x,1/2+y,-z
1/2-x,1/2-y,-z
1/2+x,1/2-y,z
loop_
_atom_site_type_symbol
_atom_site_label
_atom_site_fract_x
_atom_site_fract_y
_atom_site_fract_z
Si Si1 0.416788 0.635544 0.339252
Si Si2 0.000000 0.000000 0.000000
Si Si3 0.469149 0.813405 0.724121
Si Si4 0.198205 0.255724 0.302081
Si Si5 0.749702 0.912871 0.788836
Si Si6 0.458262 0.627010 0.906618
O O1 0.456053 0.729578 0.301588
O O2 0.589587 0.600905 0.264939
O O3 0.451766 0.600418 0.236042
O O4 0.175086 0.632735 0.551474
O O5 0.994959 0.067359 0.065771
O O6 0.352901 0.789786 0.737268
O O7 0.297839 0.855567 0.902135
O O8 0.211191 0.161943 0.289562
O O9 0.418172 0.292919 0.165715
O O10 0.000000 0.280004 0.500000
O O11 0.787119 0.000000 0.731273
O O12 0.500000 0.908543 0.000000
#
# Coordination Sequence:
#
# PCOD9204024 Si02
#       6
#     8   2   8   8   8   8
#     4  10  22  39  69  96 125 172 222 274 322 394
#     4  12  28  40  66 100 140 172 224 268 334 416
#     4  10  20  40  63  98 126 165 228 266 319 395
#     4  11  20  39  69  94 130 176 217 270 329 396
#     4  10  23  44  65  95 134 171 221 275 331 395
#     4  12  23  43  65  96 133 176 216 271 333 393
#
# _framework density 21.061522
#
# number of rings (size 3 to 8) (size 9 to 14) (size 15 to 20)
#    0.000    1.333    3.810    2.857    1.333    0.381 
#    1.714    3.333    0.000    0.000    0.000    0.000 
#    0.000    0.000    0.000    0.000    0.000    0.000 
#
# Total GULP energy -117101.728565 kJ/mol
# GULP energy per Si atom -5576.272789 kJ/mol
# Density = 2.101358 g / cm^3
# Si number density = 21.061522 Si / 1000 Ang^3
#
#
#
# Elastic Constant Matrix: (Units=GPa)
#
#
# Indices 1 2 3 4 5 6 
#
# 1 48.3082 19.7134 31.1709 -0.0285 -7.4052 -0.0298
# 2 19.7134 87.9673 26.3474 -0.0174 -1.8804 -0.0284
# 3 31.1709 26.3474 134.4062 -0.0439 -12.4799 -0.0417
# 4 -0.0285 -0.0174 -0.0439 14.3503 0.0049 15.5125
# 5 -7.4052 -1.8804 -12.4799 0.0049 25.8369 0.0174
# 6 -0.0298 -0.0284 -0.0417 15.5125 0.0174 -2.0970
#
#
#
# Elastic Compliance Matrix: (Units=1/GPa)
#
#
# Indices 1 2 3 4 5 6 
#
# 1 0.026326 -0.004358 -0.004795 0.000025 0.004912 0.000005
# 2 -0.004358 0.012800 -0.001600 0.000011 -0.001090 -0.000008
# 3 -0.004795 -0.001600 0.009137 0.000010 0.002923 0.000005
# 4 0.000025 0.000011 0.000010 0.007746 -0.000027 0.057299
# 5 0.004912 -0.001090 0.002923 -0.000027 0.041445 0.000028
# 6 0.000005 -0.000008 0.000005 0.057299 0.000028 -0.053006
#
#
# Mechanical properties :
#
#
# Convention : Reuss Voigt Hill
#
# Bulk Modulus (GPa) = 37.37293 47.23834 42.30564
# Shear Modulus (GPa) = 66.77936 20.51470 43.64703
#
# Velocity S-wave (km/s) = 5.63699 3.12434 4.55726
# Velocity P-wave (km/s) = 7.75569 5.95758 6.91533
#
# Compressibility (1/GPa) = 0.02675733
#
# Stress axis : x y z
#
# Youngs Moduli (GPa) = 37.98543 78.12251 109.44380
#
# Poissons Ratio (x) = 0.34049 0.52477
# Poissons Ratio (y) = 0.16556 0.17507
# Poissons Ratio (z) = 0.18214 0.12497
#
# Static dielectric constant tensor:
#      x y z
#    x 1.742930 0.000000 -0.013940 
#    y 0.000000 1.744700 0.000020 
#    z -0.013940 0.000020 1.759900 
# 
# From -- ./inp_files/317283.got.cif
#   From: 2010.05.17/outbox.cif.g08.bks.cpg/sg12_159_cif.got.tgz:317283.got - 2010.06.03 13:09:07.
