data_PCOD9204013
_publ_section_title
;
Structure prediction by ZEFSAII (Michael W. Deem and Ramdas Pophale) SiO2 
 PCOD9204013
Probable space group: C 2/M
;
_chemical_formula_sum "Si O2"
_cell_formula_units_Z 64
_cell_length_a 8.228126
_cell_length_b 23.878463
_cell_length_c 18.739761
_cell_angle_alpha 90.000000
_cell_angle_beta 54.447701
_cell_angle_gamma 90.000000
_cell_volume 2995.534646
_symmetry_space_group_name_H-M "C 2/M"
_symmetry_group_IT_number 12
_symmetry_cell_setting 'monoclinic'
loop_
_space_group_symop_operation_xyz
x,y,z
-x,y,-z
-x,-y,-z
x,-y,z
1/2+x,1/2+y,z
1/2-x,1/2+y,-z
1/2-x,1/2-y,-z
1/2+x,1/2-y,z
loop_
_atom_site_type_symbol
_atom_site_label
_atom_site_fract_x
_atom_site_fract_y
_atom_site_fract_z
Si Si1 0.710282 0.826307 0.463305
Si Si2 0.107119 0.332670 0.759504
Si Si3 0.270103 0.392764 0.579809
Si Si4 0.504675 0.720295 0.279964
Si Si5 0.076189 0.880960 0.796043
Si Si6 0.362793 0.936723 0.615770
Si Si7 0.235122 0.436827 0.950791
Si Si8 0.704134 0.629428 0.923924
O O1 0.500000 0.798140 0.500000
O O2 0.748364 0.837653 0.535932
O O3 0.884480 0.792895 0.382221
O O4 0.689252 0.887488 0.428233
O O5 0.213659 0.377043 0.676712
O O6 0.277119 0.302687 0.761399
O O7 0.009106 0.284645 0.735618
O O8 0.930544 0.349164 0.858875
O O9 0.500000 0.412386 0.500000
O O10 0.081684 0.428801 0.597008
O O11 0.409903 0.680118 0.243095
O O12 0.196855 0.924249 0.717335
O O13 0.164865 0.885413 0.852124
O O14 0.847239 0.897817 0.865669
O O15 0.343148 0.000000 0.593370
O O16 0.305346 0.500000 0.921552
O O17 0.286986 0.417859 0.017781
O O18 0.000000 0.434197 0.000000
O O19 0.500000 0.663034 0.000000
#
# Coordination Sequence:
#
# PCOD9204013 Si02
#       8
#     8   8   8   8   8   8   8   8
#     4   9  21  38  59  87 122 158 208 258 307 362
#     4  12  24  41  62  92 124 167 209 258 317 372
#     4  11  22  40  60  88 127 160 206 262 308 365
#     4  11  24  39  64  89 126 164 210 258 317 373
#     4  10  20  40  63  91 124 160 209 260 309 367
#     4  10  21  38  64  88 123 167 210 252 311 375
#     4  10  21  38  64  95 128 161 204 257 314 368
#     4  10  22  41  64  91 126 160 204 257 306 364
#
# _framework density 21.365134999999999
#
# number of rings (size 3 to 8) (size 9 to 14) (size 15 to 20)
#    0.000    1.625    2.500    1.875    3.500    6.250 
#    0.000    6.250    0.000    0.000    0.000    0.000 
#    0.000    0.000    0.000    0.000    0.000    0.000 
#
# Total GULP energy -178308.121206 kJ/mol
# GULP energy per Si atom -5572.128788 kJ/mol
# Density = 2.131651 g / cm^3
# Si number density = 21.365135 Si / 1000 Ang^3
#
#
#
# Elastic Constant Matrix: (Units=GPa)
#
#
# Indices 1 2 3 4 5 6 
#
# 1 67.6027 -9.6260 1.6206 0.0000 -11.4910 0.0000
# 2 -9.6260 45.7347 8.8317 0.0000 -3.2400 0.0000
# 3 1.6206 8.8317 111.0027 0.0000 -10.2487 0.0000
# 4 0.0000 0.0000 0.0000 4.8140 0.0000 -9.5217
# 5 -11.4910 -3.2400 -10.2487 0.0000 40.0676 0.0000
# 6 0.0000 0.0000 0.0000 -9.5217 0.0000 3.8732
#
#
#
# Elastic Compliance Matrix: (Units=1/GPa)
#
#
# Indices 1 2 3 4 5 6 
#
# 1 0.016167 0.003767 -0.000081 0.000000 0.004920 0.000000
# 2 0.003767 0.023159 -0.001664 0.000000 0.002527 0.000000
# 3 -0.000081 -0.001664 0.009349 0.000000 0.002233 0.000000
# 4 0.000000 0.000000 0.000000 -0.053781 0.000000 -0.132214
# 5 0.004920 0.002527 0.002233 0.000000 0.027145 0.000000
# 6 0.000000 0.000000 0.000000 -0.132214 0.000000 -0.066845
#
#
# Mechanical properties :
#
#
# Convention : Reuss Voigt Hill
#
# Bulk Modulus (GPa) = 18.96927 25.11031 22.03979
# Shear Modulus (GPa) = -159.85931 24.65188 -67.60372
#
# Velocity S-wave (km/s) = -8.65938 3.40050 -5.63123
# Velocity P-wave (km/s) = 9.54369 5.21501 5.65180
#
# Compressibility (1/GPa) = 0.05271683
#
# Stress axis : x y z
#
# Youngs Moduli (GPa) = 61.85438 43.18066 106.96813
#
# Poissons Ratio (x) = -0.16266 0.00871
# Poissons Ratio (y) = -0.23301 0.17802
# Poissons Ratio (z) = 0.00504 0.07186
#
# Static dielectric constant tensor:
#      x y z
#    x 1.836690 0.000000 -0.047490 
#    y 0.000000 1.771620 0.000000 
#    z -0.047490 0.000000 1.817410 
# 
# From -- ./inp_files/302637.got.cif
#   From: 2010.05.17/outbox.cif.g08.bks.cpg/sg12_152_cif.got.tgz:302637.got - 2010.06.03 13:09:07.
