data_PCOD9204302
_publ_section_title
;
Structure prediction by ZEFSAII (Michael W. Deem and Ramdas Pophale) SiO2 
 PCOD9204302
Probable space group: C 2/M
;
_chemical_formula_sum "Si O2"
_cell_formula_units_Z 34
_cell_length_a 22.571437
_cell_length_b 14.617020
_cell_length_c 8.828716
_cell_angle_alpha 90.000000
_cell_angle_beta 142.089777
_cell_angle_gamma 90.000000
_cell_volume 1789.720323
_symmetry_space_group_name_H-M "C 2/M"
_symmetry_group_IT_number 12
_symmetry_cell_setting 'monoclinic'
loop_
_space_group_symop_operation_xyz
x,y,z
-x,y,-z
-x,-y,-z
x,-y,z
1/2+x,1/2+y,z
1/2-x,1/2+y,-z
1/2-x,1/2-y,-z
1/2+x,1/2-y,z
loop_
_atom_site_type_symbol
_atom_site_label
_atom_site_fract_x
_atom_site_fract_y
_atom_site_fract_z
Si Si1 0.716887 0.144554 0.096051
Si Si2 0.290064 0.000000 0.481195
Si Si3 0.152408 0.000000 0.473845
Si Si4 0.500000 0.000000 0.000000
Si Si5 0.455031 0.500000 0.240272
Si Si6 0.949512 0.500000 0.234536
Si Si7 0.286852 0.645476 0.890150
O O1 0.705351 0.247680 0.131256
O O2 0.798577 0.088673 0.349968
O O3 0.747140 0.142296 0.981078
O O4 0.618134 0.089189 0.908513
O O5 0.381147 0.000000 0.776319
O O6 0.283152 0.089856 0.362630
O O7 0.191455 0.000000 0.382167
O O8 0.040307 0.000000 0.289306
O O9 0.485963 0.000000 0.785583
O O10 0.500000 0.500000 0.500000
O O11 0.386593 0.588922 0.088225
O O12 0.000000 0.500000 0.500000
#
# Coordination Sequence:
#
# PCOD9204302 Si02
#       7
#     8   4   4   2   4   4   8
#     4  10  20  41  60  91 123 161 202 267 314 372
#     4  11  23  42  62  89 129 162 209 267 321 385
#     4  11  21  40  62  84 129 162 203 255 319 367
#     4  12  22  42  64  92 116 178 214 256 334 384
#     4  11  19  38  63  90 120 167 205 254 309 388
#     4  11  22  40  63  91 129 163 217 262 319 378
#     4  10  22  38  65  92 123 162 212 256 325 377
#
# _framework density 18.997381000000001
#
# number of rings (size 3 to 8) (size 9 to 14) (size 15 to 20)
#    0.000    1.412    4.706    3.529    0.000    3.765 
#    4.235    0.000    0.000    0.000    0.000    0.000 
#    0.000    0.000    0.000    0.000    0.000    0.000 
#
# Total GULP energy -94662.605597 kJ/mol
# GULP energy per Si atom -5568.388565 kJ/mol
# Density = 1.895414 g / cm^3
# Si number density = 18.997381 Si / 1000 Ang^3
#
#
#
# Elastic Constant Matrix: (Units=GPa)
#
#
# Indices 1 2 3 4 5 6 
#
# 1 102.4391 36.0110 20.2305 0.0000 3.2868 0.0000
# 2 36.0110 177.0319 50.9184 0.0000 2.7920 0.0000
# 3 20.2305 50.9184 103.3636 0.0000 2.2311 0.0000
# 4 0.0000 0.0000 0.0000 -4.6986 0.0000 -0.1110
# 5 3.2868 2.7920 2.2311 0.0000 37.4443 0.0000
# 6 0.0000 0.0000 0.0000 -0.1110 0.0000 14.0616
#
#
#
# Elastic Compliance Matrix: (Units=1/GPa)
#
#
# Indices 1 2 3 4 5 6 
#
# 1 0.010656 -0.001818 -0.001174 0.000000 -0.000730 0.000000
# 2 -0.001818 0.006895 -0.003037 0.000000 -0.000174 0.000000
# 3 -0.001174 -0.003037 0.011408 0.000000 -0.000350 0.000000
# 4 0.000000 0.000000 0.000000 -0.212791 0.000000 -0.001679
# 5 -0.000730 -0.000174 -0.000350 0.000000 0.026804 0.000000
# 6 0.000000 0.000000 0.000000 -0.001679 0.000000 0.071103
#
#
# Mechanical properties :
#
#
# Convention : Reuss Voigt Hill
#
# Bulk Modulus (GPa) = 59.17045 66.35048 62.76046
# Shear Modulus (GPa) = -73.27826 27.73978 -22.76924
#
# Velocity S-wave (km/s) = -6.21744 3.82539 -3.46576
# Velocity P-wave (km/s) = 4.50864 7.38332 4.13434
#
# Compressibility (1/GPa) = 0.01690033
#
# Stress axis : x y z
#
# Youngs Moduli (GPa) = 93.83994 145.03690 87.65833
#
# Poissons Ratio (x) = 0.26374 0.10292
# Poissons Ratio (y) = 0.17064 0.26620
# Poissons Ratio (z) = 0.11018 0.44045
#
# Static dielectric constant tensor:
#      x y z
#    x 1.683360 0.000000 -0.001030 
#    y 0.000000 1.641420 0.000000 
#    z -0.001030 0.000000 1.669450 
# 
# From -- ./inp_files/86180.got.cif
#   From: 2010.05.17/outbox.cif.g08.bks.cpg/sg12_44_cif.got.tgz:86180.got - 2010.06.03 13:09:07.
