data_PCOD9204583
_publ_section_title
;
Structure prediction by ZEFSAII (Michael W. Deem and Ramdas Pophale) SiO2 
 PCOD9204583
Probable space group: C 2/M
;
_chemical_formula_sum "Si O2"
_cell_formula_units_Z 56
_cell_length_a 11.095035
_cell_length_b 31.955588
_cell_length_c 9.281367
_cell_angle_alpha 90.000000
_cell_angle_beta 59.414450
_cell_angle_gamma 90.000000
_cell_volume 2832.860577
_symmetry_space_group_name_H-M "C 2/M"
_symmetry_group_IT_number 12
_symmetry_cell_setting 'monoclinic'
loop_
_space_group_symop_operation_xyz
x,y,z
-x,y,-z
-x,-y,-z
x,-y,z
1/2+x,1/2+y,z
1/2-x,1/2+y,-z
1/2-x,1/2-y,-z
1/2+x,1/2-y,z
loop_
_atom_site_type_symbol
_atom_site_label
_atom_site_fract_x
_atom_site_fract_y
_atom_site_fract_z
Si Si1 0.902583 0.611384 0.921962
Si Si2 0.786903 0.689092 0.573741
Si Si3 0.188232 0.104748 0.524596
Si Si4 0.375207 0.375622 0.766515
Si Si5 0.479994 0.292811 0.844193
Si Si6 0.451447 0.202957 0.767415
Si Si7 0.057360 0.453071 0.626582
O O1 0.919363 0.659969 0.867939
O O2 0.962370 0.580671 0.765973
O O3 0.742573 0.603523 0.063340
O O4 0.000000 0.604408 0.000000
O O5 0.769298 0.639060 0.571038
O O6 0.630294 0.706229 0.673182
O O7 0.860807 0.702044 0.676611
O O8 0.886921 0.702015 0.382370
O O9 0.175285 0.122367 0.368757
O O10 0.282961 0.063686 0.466178
O O11 0.028523 0.103076 0.677326
O O12 0.392665 0.328176 0.813787
O O13 0.422990 0.245771 0.868687
O O14 0.500000 0.304548 0.000000
O O15 0.048323 0.500000 0.693653
O O16 0.000000 0.454384 0.500000
#
# Coordination Sequence:
#
# PCOD9204583 Si02
#       7
#     8   8   8   8   8   8   8
#     4  12  22  39  65  96 127 165 214 264 318 371
#     4  10  21  37  57  82 116 166 213 263 314 376
#     4  10  20  43  66  90 130 166 209 259 323 390
#     4  10  23  40  64  93 126 174 207 260 319 378
#     4  11  24  38  53  84 127 168 218 269 312 364
#     4  11  22  35  59  85 122 167 219 264 312 369
#     4  11  24  44  71  99 129 165 209 262 323 388
#
# _framework density 19.768003
#
# number of rings (size 3 to 8) (size 9 to 14) (size 15 to 20)
#    0.000    1.286    2.857    2.571    0.000   10.571 
#    0.000    2.143    0.000    1.714    0.000    0.000 
#    0.000    0.000    0.000    0.000    0.000    0.000 
#
# Total GULP energy -156428.011438 kJ/mol
# GULP energy per Si atom -5586.714694 kJ/mol
# Density = 1.972301 g / cm^3
# Si number density = 19.768003 Si / 1000 Ang^3
#
#
#
# Elastic Constant Matrix: (Units=GPa)
#
#
# Indices 1 2 3 4 5 6 
#
# 1 65.9291 43.8985 33.1511 0.0000 -12.1001 0.0000
# 2 43.8985 96.0061 32.4543 0.0000 -12.0804 0.0000
# 3 33.1511 32.4543 86.0020 0.0000 -23.1128 0.0000
# 4 0.0000 0.0000 0.0000 9.9730 0.0000 22.8056
# 5 -12.1001 -12.0804 -23.1128 0.0000 40.9947 0.0000
# 6 0.0000 0.0000 0.0000 22.8056 0.0000 35.6954
#
#
#
# Elastic Compliance Matrix: (Units=1/GPa)
#
#
# Indices 1 2 3 4 5 6 
#
# 1 0.024225 -0.009024 -0.005570 0.000000 0.001351 0.000000
# 2 -0.009024 0.015347 -0.002137 0.000000 0.000654 0.000000
# 3 -0.005570 -0.002137 0.016465 0.000000 0.007009 0.000000
# 4 0.000000 0.000000 0.000000 -0.217513 0.000000 0.138968
# 5 0.001351 0.000654 0.007009 0.000000 0.028937 0.000000
# 6 0.000000 0.000000 0.000000 0.138968 0.000000 -0.060772
#
#
# Mechanical properties :
#
#
# Convention : Reuss Voigt Hill
#
# Bulk Modulus (GPa) = 44.29665 51.88278 48.08972
# Shear Modulus (GPa) = -32.82450 26.56151 -3.13150
#
# Velocity S-wave (km/s) = -4.07933 3.66958 -1.25999
# Velocity P-wave (km/s) = 0.51867 6.65261 4.71838
#
# Compressibility (1/GPa) = 0.02257507
#
# Stress axis : x y z
#
# Youngs Moduli (GPa) = 41.27997 65.15958 60.73601
#
# Poissons Ratio (x) = 0.58800 0.33827
# Poissons Ratio (y) = 0.37251 0.12981
# Poissons Ratio (z) = 0.22991 0.13926
#
# Static dielectric constant tensor:
#      x y z
#    x 1.655740 0.000000 -0.039950 
#    y 0.000000 1.682740 0.000000 
#    z -0.039950 0.000000 1.695430 
# 
# From -- ./inp_files/54600.got.cif
#   From: 2010.05.17/outbox.cif.g08.bks.cpg/sg12_28_cif.got.tgz:54600.got - 2010.06.03 13:09:07.
