data_PCOD9204895
_publ_section_title
;
Structure prediction by ZEFSAII (Michael W. Deem and Ramdas Pophale) SiO2 
 PCOD9204895
Probable space group: C 2/M
;
_chemical_formula_sum "Si O2"
_cell_formula_units_Z 48
_cell_length_a 8.455204
_cell_length_b 23.172195
_cell_length_c 12.423220
_cell_angle_alpha 90.000000
_cell_angle_beta 70.865650
_cell_angle_gamma 90.000000
_cell_volume 2299.553522
_symmetry_space_group_name_H-M "C 2/M"
_symmetry_group_IT_number 12
_symmetry_cell_setting 'monoclinic'
loop_
_space_group_symop_operation_xyz
x,y,z
-x,y,-z
-x,-y,-z
x,-y,z
1/2+x,1/2+y,z
1/2-x,1/2+y,-z
1/2-x,1/2-y,-z
1/2+x,1/2-y,z
loop_
_atom_site_type_symbol
_atom_site_label
_atom_site_fract_x
_atom_site_fract_y
_atom_site_fract_z
Si Si1 0.227489 0.431111 0.540857
Si Si2 0.551531 0.068847 0.248727
Si Si3 0.010441 0.930698 0.323030
Si Si4 0.569596 0.164037 0.862031
Si Si5 0.581976 0.378617 0.867772
Si Si6 0.233341 0.735801 0.130380
O O1 0.216680 0.500000 0.526276
O O2 0.334097 0.409757 0.415550
O O3 0.349415 0.421790 0.616894
O O4 0.043020 0.412491 0.619725
O O5 0.443579 0.100094 0.179987
O O6 0.741350 0.088910 0.189955
O O7 0.542619 0.000000 0.244262
O O8 0.031741 0.898591 0.205791
O O9 0.002088 0.000000 0.306475
O O10 0.734806 0.203025 0.821361
O O11 0.437972 0.201241 0.820258
O O12 0.500000 0.163367 0.000000
O O13 0.625541 0.310548 0.865577
O O14 0.500000 0.394432 0.000000
O O15 0.250000 0.750000 0.000000
#
# Coordination Sequence:
#
# PCOD9204895 Si02
#       6
#     8   8   8   8   8   8
#     4   8  17  35  55  75 102 144 191 221 255 314
#     4  10  21  34  50  78 112 142 174 217 270 324
#     4   9  18  34  55  77 106 144 183 224 266 316
#     4   9  18  32  51  73 101 138 179 223 264 312
#     4  11  22  34  52  80 112 144 178 219 271 326
#     4   9  18  34  52  72 100 139 185 221 258 315
#
# _framework density 20.873618
#
# number of rings (size 3 to 8) (size 9 to 14) (size 15 to 20)
#    0.000    2.667    0.000    3.000    0.000    7.667 
#    0.000    4.167    0.000    1.000    0.000    4.667 
#    0.000    0.667    0.000    0.000    0.000    0.000 
#
# Total GULP energy -133788.154615 kJ/mol
# GULP energy per Si atom -5574.506442 kJ/mol
# Density = 2.082611 g / cm^3
# Si number density = 20.873618 Si / 1000 Ang^3
#
#
#
# Elastic Constant Matrix: (Units=GPa)
#
#
# Indices 1 2 3 4 5 6 
#
# 1 48.7409 21.1892 18.8747 0.0000 -11.6379 0.0000
# 2 21.1892 85.9530 22.2392 0.0000 4.6536 0.0000
# 3 18.8747 22.2392 101.1671 0.0000 -5.6686 0.0000
# 4 0.0000 0.0000 0.0000 -14.9010 0.0000 6.2533
# 5 -11.6379 4.6536 -5.6686 0.0000 37.5787 0.0000
# 6 0.0000 0.0000 0.0000 6.2533 0.0000 30.2714
#
#
#
# Elastic Compliance Matrix: (Units=1/GPa)
#
#
# Indices 1 2 3 4 5 6 
#
# 1 0.026424 -0.006172 -0.003098 0.000000 0.008480 0.000000
# 2 -0.006172 0.013921 -0.002130 0.000000 -0.003957 0.000000
# 3 -0.003098 -0.002130 0.010985 0.000000 0.000961 0.000000
# 4 0.000000 0.000000 0.000000 -0.061756 0.000000 0.012757
# 5 0.008480 -0.003957 0.000961 0.000000 0.029872 0.000000
# 6 0.000000 0.000000 0.000000 0.012757 0.000000 0.030399
#
#
# Mechanical properties :
#
#
# Convention : Reuss Voigt Hill
#
# Bulk Modulus (GPa) = 35.05115 40.05192 37.55153
# Shear Modulus (GPa) = 60.85981 22.16035 41.51008
#
# Velocity S-wave (km/s) = 5.40552 3.26182 4.46425
# Velocity P-wave (km/s) = 7.46914 5.78061 6.67845
#
# Compressibility (1/GPa) = 0.02852974
#
# Stress axis : x y z
#
# Youngs Moduli (GPa) = 37.84406 71.83310 91.03443
#
# Poissons Ratio (x) = 0.44333 0.28203
# Poissons Ratio (y) = 0.23356 0.19395
# Poissons Ratio (z) = 0.11724 0.15304
#
# Static dielectric constant tensor:
#      x y z
#    x 1.880930 0.000000 -0.014270 
#    y 0.000000 1.737130 0.000000 
#    z -0.014270 0.000000 1.763610 
# 
# From -- ./inp_files/122432.got.cif
#   From: 2010.05.17/outbox.cif.g08.bks.cpg/sg12_62_cif.got.tgz:122432.got - 2010.06.03 13:09:07.
