data_PCOD9204656
_publ_section_title
;
Structure prediction by ZEFSAII (Michael W. Deem and Ramdas Pophale) SiO2 
 PCOD9204656
Probable space group: C 2/M
;
_chemical_formula_sum "Si O2"
_cell_formula_units_Z 50
_cell_length_a 19.156396
_cell_length_b 18.697237
_cell_length_c 6.935454
_cell_angle_alpha 90.000000
_cell_angle_beta 62.362754
_cell_angle_gamma 90.000000
_cell_volume 2200.654805
_symmetry_space_group_name_H-M "C 2/M"
_symmetry_group_IT_number 12
_symmetry_cell_setting 'monoclinic'
loop_
_space_group_symop_operation_xyz
x,y,z
-x,y,-z
-x,-y,-z
x,-y,z
1/2+x,1/2+y,z
1/2-x,1/2+y,-z
1/2-x,1/2-y,-z
1/2+x,1/2-y,z
loop_
_atom_site_type_symbol
_atom_site_label
_atom_site_fract_x
_atom_site_fract_y
_atom_site_fract_z
Si Si1 0.781028 0.418794 0.041641
Si Si2 0.394616 0.367104 0.680441
Si Si3 0.328443 0.201326 0.427709
Si Si4 0.767143 0.920623 0.346508
Si Si5 0.500000 0.500000 0.500000
Si Si6 0.579596 0.326636 0.790758
Si Si7 0.159455 0.723635 0.138037
O O1 0.802687 0.500000 0.073711
O O2 0.763993 0.423124 0.832167
O O3 0.841543 0.351353 0.976184
O O4 0.695811 0.393734 0.230850
O O5 0.443914 0.436949 0.668454
O O6 0.424967 0.341727 0.432411
O O7 0.391307 0.296422 0.820276
O O8 0.250000 0.250000 0.500000
O O9 0.297703 0.120989 0.442660
O O10 0.394184 0.243586 0.225482
O O11 0.351923 0.205694 0.622029
O O12 0.847627 0.876274 0.239041
O O13 0.782785 0.000000 0.397276
O O14 0.500000 0.344300 0.000000
O O15 0.250000 0.750000 0.000000
#
# Coordination Sequence:
#
# PCOD9204656 Si02
#       7
#     8   8   8   8   2   8   8
#     4   9  16  30  50  71  92 116 151 195 237 276
#     4  10  21  32  44  64  96 130 155 185 227 279
#     4   8  15  31  46  63  89 120 153 189 227 270
#     4   9  18  29  49  72  93 117 150 192 236 278
#     4  12  24  32  46  64 102 136 154 182 232 280
#     4  10  21  32  46  66  94 128 159 187 225 278
#     4   8  15  29  47  65  86 116 156 192 226 271
#
# _framework density 22.720510999999998
#
# number of rings (size 3 to 8) (size 9 to 14) (size 15 to 20)
#    0.000    2.880    0.800    0.000    3.360    0.320 
#    0.000    0.000    0.000    0.480    0.000    0.560 
#    0.000    0.000    0.000    0.000    0.000    6.080 
#
# Total GULP energy -139259.921937 kJ/mol
# GULP energy per Si atom -5570.396877 kJ/mol
# Density = 2.266880 g / cm^3
# Si number density = 22.720511 Si / 1000 Ang^3
#
#
#
# Elastic Constant Matrix: (Units=GPa)
#
#
# Indices 1 2 3 4 5 6 
#
# 1 33.3998 40.9273 11.7320 0.0000 2.6955 0.0000
# 2 40.9273 246.5983 79.2472 0.0000 -23.7305 0.0000
# 3 11.7320 79.2472 97.2747 0.0000 8.8212 0.0000
# 4 0.0000 0.0000 0.0000 38.4440 0.0000 -5.4746
# 5 2.6955 -23.7305 8.8212 0.0000 16.0575 0.0000
# 6 0.0000 0.0000 0.0000 -5.4746 0.0000 26.9399
#
#
#
# Elastic Compliance Matrix: (Units=1/GPa)
#
#
# Indices 1 2 3 4 5 6 
#
# 1 0.046000 -0.013360 0.008238 0.000000 -0.031992 0.000000
# 2 -0.013360 0.012256 -0.010755 0.000000 0.026264 0.000000
# 3 0.008238 -0.010755 0.020644 0.000000 -0.028618 0.000000
# 4 0.000000 0.000000 0.000000 0.026787 0.000000 0.005444
# 5 -0.031992 0.026264 -0.028618 0.000000 0.122183 0.000000
# 6 0.000000 0.000000 0.000000 0.005444 0.000000 0.038226
#
#
# Mechanical properties :
#
#
# Convention : Reuss Voigt Hill
#
# Bulk Modulus (GPa) = 21.21148 71.23173 46.22160
# Shear Modulus (GPa) = 15.94554 32.64603 24.29578
#
# Velocity S-wave (km/s) = 2.65205 3.79470 3.27361
# Velocity P-wave (km/s) = 4.32827 7.11470 5.88867
#
# Compressibility (1/GPa) = 0.04714428
#
# Stress axis : x y z
#
# Youngs Moduli (GPa) = 21.73901 81.59021 48.44028
#
# Poissons Ratio (x) = 1.09008 -0.39903
# Poissons Ratio (y) = 0.29044 0.52099
# Poissons Ratio (z) = -0.17908 0.87753
#
# Static dielectric constant tensor:
#      x y z
#    x 1.901380 0.000000 0.072430 
#    y 0.000000 2.232770 0.000000 
#    z 0.072430 0.000000 1.873770 
# 
# From -- ./inp_files/105732.got.cif
#   From: 2010.05.17/outbox.cif.g08.bks.cpg/sg12_53_cif.got.tgz:105732.got - 2010.06.03 13:09:07.
