data_PCOD9205879
_publ_section_title
;
Structure prediction by ZEFSAII (Michael W. Deem and Ramdas Pophale) SiO2 
 PCOD9205879
Probable space group: C 2/M
;
_chemical_formula_sum "Si O2"
_cell_formula_units_Z 40
_cell_length_a 10.137580
_cell_length_b 7.544098
_cell_length_c 22.020591
_cell_angle_alpha 90.000000
_cell_angle_beta 86.234688
_cell_angle_gamma 90.000000
_cell_volume 1680.475205
_symmetry_space_group_name_H-M "C 2/M"
_symmetry_group_IT_number 12
_symmetry_cell_setting 'monoclinic'
loop_
_space_group_symop_operation_xyz
x,y,z
-x,y,-z
-x,-y,-z
x,-y,z
1/2+x,1/2+y,z
1/2-x,1/2+y,-z
1/2-x,1/2-y,-z
1/2+x,1/2-y,z
loop_
_atom_site_type_symbol
_atom_site_label
_atom_site_fract_x
_atom_site_fract_y
_atom_site_fract_z
Si Si1 0.034667 0.205686 0.636107
Si Si2 0.391611 0.215476 0.175881
Si Si3 0.133477 0.792576 0.247965
Si Si4 0.705213 0.211502 0.433134
Si Si5 0.872841 0.287748 0.038954
O O1 0.949046 0.287337 0.693451
O O2 0.936490 0.213948 0.581562
O O3 0.177501 0.281348 0.614496
O O4 0.058317 0.000000 0.650833
O O5 0.276269 0.280081 0.224930
O O6 0.534594 0.276187 0.194068
O O7 0.362191 0.276811 0.108381
O O8 0.389898 0.000000 0.177069
O O9 0.154160 0.000000 0.261406
O O10 0.750000 0.250000 0.500000
O O11 0.696567 0.000000 0.426903
O O12 0.886944 0.500000 0.043526
O O13 0.750000 0.250000 0.000000
O O14 0.000000 0.216344 0.000000
#
# Coordination Sequence:
#
# PCOD9205879 Si02
#       5
#     8   8   8   8   8
#     4  10  22  39  57  81 112 142 178 224 268 317
#     4  10  21  36  55  81 110 141 181 225 268 319
#     4  10  21  37  57  81 109 142 180 222 269 320
#     4  11  23  38  58  83 110 143 181 220 267 320
#     4  10  21  36  54  79 110 143 181 224 269 319
#
# _framework density 23.802792
#
# number of rings (size 3 to 8) (size 9 to 14) (size 15 to 20)
#    0.000    1.800    0.000    3.600    0.000    6.800 
#    0.000    0.000    0.000    0.000    0.000    0.000 
#    0.000    0.000    0.000    0.000    0.000    0.000 
#
# Total GULP energy -111874.849836 kJ/mol
# GULP energy per Si atom -5593.742492 kJ/mol
# Density = 2.374862 g / cm^3
# Si number density = 23.802792 Si / 1000 Ang^3
#
#
#
# Elastic Constant Matrix: (Units=GPa)
#
#
# Indices 1 2 3 4 5 6 
#
# 1 103.0832 -7.3790 -14.3861 0.0000 -7.5500 0.0000
# 2 -7.3790 70.0959 -0.3699 0.0000 -14.4743 0.0000
# 3 -14.3861 -0.3699 73.4340 0.0000 -2.3817 0.0000
# 4 0.0000 0.0000 0.0000 8.5639 0.0000 13.4658
# 5 -7.5500 -14.4743 -2.3817 0.0000 46.4059 0.0000
# 6 0.0000 0.0000 0.0000 13.4658 0.0000 13.8839
#
#
#
# Elastic Compliance Matrix: (Units=1/GPa)
#
#
# Indices 1 2 3 4 5 6 
#
# 1 0.010271 0.001560 0.002093 0.000000 0.002265 0.000000
# 2 0.001560 0.015489 0.000549 0.000000 0.005113 0.000000
# 3 0.002093 0.000549 0.014071 0.000000 0.001234 0.000000
# 4 0.000000 0.000000 0.000000 -0.222403 0.000000 0.215705
# 5 0.002265 0.005113 0.001234 0.000000 0.023576 0.000000
# 6 0.000000 0.000000 0.000000 0.215705 0.000000 -0.137182
#
#
# Mechanical properties :
#
#
# Convention : Reuss Voigt Hill
#
# Bulk Modulus (GPa) = 20.73146 22.48256 21.60701
# Shear Modulus (GPa) = -17.33062 31.68729 7.17833
#
# Velocity S-wave (km/s) = -2.70125 3.65258 1.73848
# Velocity P-wave (km/s) = 1.00019 5.22056 3.62311
#
# Compressibility (1/GPa) = 0.04823586
#
# Stress axis : x y z
#
# Youngs Moduli (GPa) = 97.36528 64.56148 71.07029
#
# Poissons Ratio (x) = -0.10071 -0.14878
# Poissons Ratio (y) = -0.15188 -0.03905
# Poissons Ratio (z) = -0.20382 -0.03547
#
# Static dielectric constant tensor:
#      x y z
#    x 1.845130 0.000000 -0.034610 
#    y 0.000000 1.942330 0.000000 
#    z -0.034610 0.000000 1.923770 
# 
# From -- ./inp_files/261036.got.cif
#   From: 2010.05.17/outbox.cif.g08.bks.cpg/sg12_131_cif.got.tgz:261036.got - 2010.06.03 13:09:07.
