data_PCOD9205070
_publ_section_title
;
Structure prediction by ZEFSAII (Michael W. Deem and Ramdas Pophale) SiO2 
 PCOD9205070
Probable space group: C 2/M
;
_chemical_formula_sum "Si O2"
_cell_formula_units_Z 48
_cell_length_a 15.577240
_cell_length_b 29.220691
_cell_length_c 8.656978
_cell_angle_alpha 90.000000
_cell_angle_beta 148.886696
_cell_angle_gamma 90.000000
_cell_volume 2036.164122
_symmetry_space_group_name_H-M "C 2/M"
_symmetry_group_IT_number 12
_symmetry_cell_setting 'monoclinic'
loop_
_space_group_symop_operation_xyz
x,y,z
-x,y,-z
-x,-y,-z
x,-y,z
1/2+x,1/2+y,z
1/2-x,1/2+y,-z
1/2-x,1/2-y,-z
1/2+x,1/2-y,z
loop_
_atom_site_type_symbol
_atom_site_label
_atom_site_fract_x
_atom_site_fract_y
_atom_site_fract_z
Si Si1 0.985129 0.099644 0.658999
Si Si2 0.396741 0.767925 0.042901
Si Si3 0.164532 0.810110 0.431653
Si Si4 0.663865 0.813616 0.635743
Si Si5 0.327188 0.054790 0.661828
Si Si6 0.827262 0.582382 0.305074
O O1 0.954597 0.148970 0.694799
O O2 0.823049 0.072500 0.465200
O O3 0.000000 0.107788 0.500000
O O4 0.148080 0.070716 0.958294
O O5 0.556264 0.736040 0.247188
O O6 0.477883 0.798800 0.300682
O O7 0.307682 0.800269 0.779359
O O8 0.260099 0.728752 0.861164
O O9 0.244128 0.820552 0.389605
O O10 0.671428 0.863099 0.721371
O O11 0.318662 0.071816 0.472925
O O12 0.326398 0.000000 0.658708
O O13 0.500000 0.071547 0.000000
O O14 0.000000 0.563547 0.500000
#
# Coordination Sequence:
#
# PCOD9205070 Si02
#       6
#     8   8   8   8   8   8
#     4  12  27  46  73 110 152 193 241 296 358 429
#     4  10  21  34  61  98 135 191 250 303 355 408
#     4  11  20  37  63  96 139 189 248 302 355 417
#     4  11  20  37  63  96 139 189 248 302 355 417
#     4  11  27  53  85 114 141 180 230 290 368 449
#     4  12  27  46  73 110 152 193 241 296 358 429
#
# _framework density 23.573739
#
# number of rings (size 3 to 8) (size 9 to 14) (size 15 to 20)
#    0.000    0.833    3.333    5.500    4.667    2.000 
#    0.000    5.000    0.000    0.000    0.000    0.000 
#    0.000    0.000    0.000    0.000    0.000    0.000 
#
# Total GULP energy -134291.472606 kJ/mol
# GULP energy per Si atom -5595.478025 kJ/mol
# Density = 2.352008 g / cm^3
# Si number density = 23.573739 Si / 1000 Ang^3
#
#
#
# Elastic Constant Matrix: (Units=GPa)
#
#
# Indices 1 2 3 4 5 6 
#
# 1 153.1538 13.9136 36.6751 0.0000 29.3726 0.0000
# 2 13.9136 51.9012 6.4503 0.0000 3.3705 0.0000
# 3 36.6751 6.4503 153.7075 0.0000 22.7079 0.0000
# 4 0.0000 0.0000 0.0000 23.8348 0.0000 -1.7743
# 5 29.3726 3.3705 22.7079 0.0000 41.0959 0.0000
# 6 0.0000 0.0000 0.0000 -1.7743 0.0000 14.6671
#
#
#
# Elastic Compliance Matrix: (Units=1/GPa)
#
#
# Indices 1 2 3 4 5 6 
#
# 1 0.007879 -0.001659 -0.001087 0.000000 -0.004895 0.000000
# 2 -0.001659 0.019776 -0.000402 0.000000 -0.000214 0.000000
# 3 -0.001087 -0.000402 0.007255 0.000000 -0.003199 0.000000
# 4 0.000000 0.000000 0.000000 0.042337 0.000000 0.005121
# 5 -0.004895 -0.000214 -0.003199 0.000000 0.029617 0.000000
# 6 0.000000 0.000000 0.000000 0.005121 0.000000 0.068799
#
#
# Mechanical properties :
#
#
# Convention : Reuss Voigt Hill
#
# Bulk Modulus (GPa) = 34.95025 52.53785 43.74405
# Shear Modulus (GPa) = 26.10995 36.03446 31.07221
#
# Velocity S-wave (km/s) = 3.33165 3.91395 3.63448
# Velocity P-wave (km/s) = 5.44591 6.53914 6.01741
#
# Compressibility (1/GPa) = 0.02861210
#
# Stress axis : x y z
#
# Youngs Moduli (GPa) = 126.91623 50.56618 137.84145
#
# Poissons Ratio (x) = 0.08390 0.14987
# Poissons Ratio (y) = 0.21059 0.05547
# Poissons Ratio (z) = 0.13799 0.02035
#
# Static dielectric constant tensor:
#      x y z
#    x 1.972490 0.000000 0.038830 
#    y 0.000000 1.863260 0.000000 
#    z 0.038830 0.000000 1.938630 
# 
# From -- ./inp_files/80808.got.cif
#   From: 2010.05.17/outbox.cif.g08.bks.cpg/sg12_41_cif.got.tgz:80808.got - 2010.06.03 13:09:07.
