data_PCOD9205407
_publ_section_title
;
Structure prediction by ZEFSAII (Michael W. Deem and Ramdas Pophale) SiO2 
 PCOD9205407
Probable space group: C 2/M
;
_chemical_formula_sum "Si O2"
_cell_formula_units_Z 40
_cell_length_a 14.080240
_cell_length_b 14.204571
_cell_length_c 12.493343
_cell_angle_alpha 90.000000
_cell_angle_beta 47.880196
_cell_angle_gamma 90.000000
_cell_volume 1853.407534
_symmetry_space_group_name_H-M "C 2/M"
_symmetry_group_IT_number 12
_symmetry_cell_setting 'monoclinic'
loop_
_space_group_symop_operation_xyz
x,y,z
-x,y,-z
-x,-y,-z
x,-y,z
1/2+x,1/2+y,z
1/2-x,1/2+y,-z
1/2-x,1/2-y,-z
1/2+x,1/2-y,z
loop_
_atom_site_type_symbol
_atom_site_label
_atom_site_fract_x
_atom_site_fract_y
_atom_site_fract_z
Si Si1 0.310359 0.609839 0.153480
Si Si2 0.027141 0.886238 0.601205
Si Si3 0.397602 0.279846 0.893714
Si Si4 0.975731 0.391317 0.729642
Si Si5 0.760011 0.613886 0.565060
O O1 0.344935 0.500000 0.131035
O O2 0.161554 0.614038 0.225404
O O3 0.304333 0.650816 0.277769
O O4 0.399345 0.659450 0.999307
O O5 0.171125 0.862606 0.531381
O O6 0.000000 0.857021 0.500000
O O7 0.937015 0.839045 0.758831
O O8 0.012200 0.000000 0.618212
O O9 0.473746 0.182060 0.828295
O O10 0.250000 0.250000 0.000000
O O11 0.995505 0.500000 0.746498
O O12 0.092564 0.361776 0.564694
O O13 0.758497 0.500000 0.577222
#
# Coordination Sequence:
#
# PCOD9205407 Si02
#       5
#     8   8   8   8   8
#     4   9  17  32  57  87 116 141 173 225 279 326
#     4  10  22  40  59  79 109 148 187 228 271 322
#     4  10  21  35  55  83 114 148 182 219 272 334
#     4   9  18  34  56  83 113 144 181 226 273 322
#     4   9  18  34  58  85 109 140 184 229 275 323
#
# _framework density 21.581871
#
# number of rings (size 3 to 8) (size 9 to 14) (size 15 to 20)
#    0.000    2.600    0.000    1.200    0.000    8.000 
#    0.000    5.000    0.000    3.600    0.000   26.600 
#    0.000    0.000    0.000    0.000    0.000    0.000 
#
# Total GULP energy -111669.532040 kJ/mol
# GULP energy per Si atom -5583.476602 kJ/mol
# Density = 2.153275 g / cm^3
# Si number density = 21.581871 Si / 1000 Ang^3
#
#
#
# Elastic Constant Matrix: (Units=GPa)
#
#
# Indices 1 2 3 4 5 6 
#
# 1 81.7461 29.0997 64.8997 0.0000 13.8865 0.0000
# 2 29.0997 89.7320 58.4116 0.0000 16.2841 0.0000
# 3 64.8997 58.4116 182.0282 0.0000 12.7105 0.0000
# 4 0.0000 0.0000 0.0000 42.0251 0.0000 -5.6904
# 5 13.8865 16.2841 12.7105 0.0000 32.8045 0.0000
# 6 0.0000 0.0000 0.0000 -5.6904 0.0000 6.0353
#
#
#
# Elastic Compliance Matrix: (Units=1/GPa)
#
#
# Indices 1 2 3 4 5 6 
#
# 1 0.018007 -0.001275 -0.005677 0.000000 -0.004790 0.000000
# 2 -0.001275 0.015169 -0.004034 0.000000 -0.005427 0.000000
# 3 -0.005677 -0.004034 0.008741 0.000000 0.001019 0.000000
# 4 0.000000 0.000000 0.000000 0.027278 0.000000 0.025719
# 5 -0.004790 -0.005427 0.001019 0.000000 0.034811 0.000000
# 6 0.000000 0.000000 0.000000 0.025719 0.000000 0.189940
#
#
# Mechanical properties :
#
#
# Convention : Reuss Voigt Hill
#
# Bulk Modulus (GPa) = 50.13660 73.14759 61.64210
# Shear Modulus (GPa) = 15.50075 29.57935 22.54005
#
# Velocity S-wave (km/s) = 2.68289 3.70613 3.23522
# Velocity P-wave (km/s) = 5.73398 7.23053 6.52530
#
# Compressibility (1/GPa) = 0.01994551
#
# Stress axis : x y z
#
# Youngs Moduli (GPa) = 55.53256 65.92583 114.40468
#
# Poissons Ratio (x) = 0.08407 0.64943
# Poissons Ratio (y) = 0.07081 0.46150
# Poissons Ratio (z) = 0.31524 0.26594
#
# Static dielectric constant tensor:
#      x y z
#    x 1.795630 0.000000 -0.009110 
#    y 0.000000 1.825720 0.000000 
#    z -0.009110 0.000000 1.774660 
# 
# From -- ./inp_files/142507.got.cif
#   From: 2010.05.17/outbox.cif.g08.bks.cpg/sg12_72_cif.got.tgz:142507.got - 2010.06.03 13:09:07.
