data_PCOD9205501
_publ_section_title
;
Structure prediction by ZEFSAII (Michael W. Deem and Ramdas Pophale) SiO2 
 PCOD9205501
Probable space group: C 2/M
;
_chemical_formula_sum "Si O2"
_cell_formula_units_Z 64
_cell_length_a 18.668245
_cell_length_b 29.705161
_cell_length_c 9.821946
_cell_angle_alpha 90.000000
_cell_angle_beta 34.340094
_cell_angle_gamma 90.000000
_cell_volume 3072.501598
_symmetry_space_group_name_H-M "C 2/M"
_symmetry_group_IT_number 12
_symmetry_cell_setting 'monoclinic'
loop_
_space_group_symop_operation_xyz
x,y,z
-x,y,-z
-x,-y,-z
x,-y,z
1/2+x,1/2+y,z
1/2-x,1/2+y,-z
1/2-x,1/2-y,-z
1/2+x,1/2-y,z
loop_
_atom_site_type_symbol
_atom_site_label
_atom_site_fract_x
_atom_site_fract_y
_atom_site_fract_z
Si Si1 0.872049 0.137953 0.465124
Si Si2 0.942389 0.791688 0.743405
Si Si3 0.849694 0.451217 0.412737
Si Si4 0.651525 0.948568 0.267404
Si Si5 0.520390 0.809430 0.305457
Si Si6 0.394144 0.853459 0.272501
Si Si7 0.241233 0.133844 0.062448
Si Si8 0.566625 0.451799 0.749254
O O1 0.744450 0.145048 0.578437
O O2 0.837612 0.127967 0.676138
O O3 0.955724 0.095266 0.288350
O O4 0.953236 0.183192 0.330917
O O5 0.925288 0.740156 0.812417
O O6 0.824002 0.825708 0.920866
O O7 0.000000 0.789140 0.500000
O O8 0.915296 0.500000 0.291658
O O9 0.813379 0.447693 0.628648
O O10 0.923395 0.405996 0.260863
O O11 0.718708 0.452223 0.534633
O O12 0.500000 0.938172 0.500000
O O13 0.667611 0.000000 0.191753
O O14 0.731743 0.911783 0.060727
O O15 0.500000 0.812529 0.500000
O O16 0.401898 0.823368 0.397020
O O17 0.623770 0.846467 0.105540
O O18 0.500000 0.836817 0.000000
O O19 0.530291 0.500000 0.740976
O O20 0.500000 0.450622 0.000000
#
# Coordination Sequence:
#
# PCOD9205501 Si02
#       8
#     8   8   8   8   8   8   8   8
#     4  10  22  39  58  88 123 150 195 252 304 349
#     4   9  22  40  59  85 117 155 201 247 295 357
#     4   9  19  35  54  83 117 152 196 236 282 351
#     4  10  21  35  56  89 123 155 198 243 286 344
#     4  11  22  40  64  87 113 160 205 243 297 361
#     4  11  21  37  62  88 120 156 191 250 306 349
#     4  11  20  37  63  86 120 161 197 243 297 357
#     4   9  19  36  59  81 112 156 195 235 287 356
#
# _framework density 20.829931999999999
#
# number of rings (size 3 to 8) (size 9 to 14) (size 15 to 20)
#    0.000    2.000    1.250    2.250    1.750    1.250 
#    0.000    0.625    0.000    2.250    0.000    0.000 
#    0.000    0.000    0.000    0.000    0.000    0.000 
#
# Total GULP energy -178539.258763 kJ/mol
# GULP energy per Si atom -5579.351836 kJ/mol
# Density = 2.078252 g / cm^3
# Si number density = 20.829932 Si / 1000 Ang^3
#
#
#
# Elastic Constant Matrix: (Units=GPa)
#
#
# Indices 1 2 3 4 5 6 
#
# 1 68.1528 34.1483 0.9790 0.0000 -2.1376 0.0000
# 2 34.1483 111.9360 13.6371 0.0000 7.2621 0.0000
# 3 0.9790 13.6371 28.4271 0.0001 3.5332 -0.0001
# 4 0.0000 0.0000 0.0001 20.7290 0.0000 7.6676
# 5 -2.1376 7.2621 3.5332 0.0000 25.5933 0.0000
# 6 0.0000 0.0000 -0.0001 7.6676 0.0000 21.1865
#
#
#
# Elastic Compliance Matrix: (Units=1/GPa)
#
#
# Indices 1 2 3 4 5 6 
#
# 1 0.017636 -0.005787 0.001813 0.000000 0.002865 0.000000
# 2 -0.005787 0.011499 -0.004936 0.000000 -0.003065 0.000000
# 3 0.001813 -0.004936 0.037941 0.000000 -0.003686 0.000000
# 4 0.000000 0.000000 0.000000 0.055698 0.000000 -0.020158
# 5 0.002865 -0.003065 -0.003686 0.000000 0.040691 0.000000
# 6 0.000000 0.000000 0.000000 -0.020158 0.000000 0.054495
#
#
# Mechanical properties :
#
#
# Convention : Reuss Voigt Hill
#
# Bulk Modulus (GPa) = 20.30213 34.00499 27.15356
# Shear Modulus (GPa) = 19.82549 24.15185 21.98867
#
# Velocity S-wave (km/s) = 3.08844 3.40880 3.25257
# Velocity P-wave (km/s) = 4.74191 5.64391 5.21246
#
# Compressibility (1/GPa) = 0.04925592
#
# Stress axis : x y z
#
# Youngs Moduli (GPa) = 56.70105 86.96149 26.35642
#
# Poissons Ratio (x) = 0.50325 -0.04778
# Poissons Ratio (y) = 0.32813 0.13010
# Poissons Ratio (z) = -0.10278 0.42926
#
# Static dielectric constant tensor:
#      x y z
#    x 1.806180 0.000000 -0.019520 
#    y 0.000000 1.766040 0.000000 
#    z -0.019520 0.000000 1.739980 
# 
# From -- ./inp_files/170594.got.cif
#   From: 2010.05.17/outbox.cif.g08.bks.cpg/sg12_86_cif.got.tgz:170594.got - 2010.06.03 13:09:07.
