data_PCOD9205832
_publ_section_title
;
Structure prediction by ZEFSAII (Michael W. Deem and Ramdas Pophale) SiO2 
 PCOD9205832
Probable space group: C 2/M
;
_chemical_formula_sum "Si O2"
_cell_formula_units_Z 48
_cell_length_a 19.178154
_cell_length_b 22.318223
_cell_length_c 6.943935
_cell_angle_alpha 90.000000
_cell_angle_beta 38.354994
_cell_angle_gamma 90.000000
_cell_volume 1844.319849
_symmetry_space_group_name_H-M "C 2/M"
_symmetry_group_IT_number 12
_symmetry_cell_setting 'monoclinic'
loop_
_space_group_symop_operation_xyz
x,y,z
-x,y,-z
-x,-y,-z
x,-y,z
1/2+x,1/2+y,z
1/2-x,1/2+y,-z
1/2-x,1/2-y,-z
1/2+x,1/2-y,z
loop_
_atom_site_type_symbol
_atom_site_label
_atom_site_fract_x
_atom_site_fract_y
_atom_site_fract_z
Si Si1 0.132684 0.434532 0.226700
Si Si2 0.392601 0.877111 0.334956
Si Si3 0.660837 0.337229 0.856423
Si Si4 0.706535 0.659614 0.218317
Si Si5 0.017244 0.066962 0.693626
Si Si6 0.530201 0.753679 0.661301
O O1 0.179384 0.500000 0.065368
O O2 0.155701 0.423171 0.402622
O O3 0.000000 0.436767 0.500000
O O4 0.175648 0.374830 0.026130
O O5 0.279112 0.847132 0.491618
O O6 0.452889 0.820293 0.304268
O O7 0.500000 0.906977 0.000000
O O8 0.689287 0.332564 0.024078
O O9 0.586835 0.397103 0.993905
O O10 0.573299 0.282351 0.015185
O O11 0.623694 0.609263 0.479251
O O12 0.651159 0.719868 0.420863
O O13 0.000000 0.064639 0.500000
O O14 0.031654 0.000000 0.730876
O O15 0.500000 0.752967 0.500000
#
# Coordination Sequence:
#
# PCOD9205832 Si02
#       6
#     8   8   8   8   8   8
#     4  10  21  36  54  77 104 136 173 208 247 301
#     4  11  23  35  50  74 105 142 174 203 247 299
#     4   8  17  30  45  71 100 128 169 209 247 300
#     4   8  15  29  51  77 100 123 161 213 261 300
#     4   8  12  22  44  71  96 121 154 207 264 299
#     4   9  18  34  55  77 100 128 167 216 262 301
#
# _framework density 26.025855
#
# number of rings (size 3 to 8) (size 9 to 14) (size 15 to 20)
#    0.000    3.000    0.000    3.000    0.000   12.333 
#    0.000    0.000    0.000    0.000    0.000    0.000 
#    0.000   10.000    0.000    0.833    0.000    2.167 
#
# Total GULP energy -134060.234573 kJ/mol
# GULP energy per Si atom -5585.843107 kJ/mol
# Density = 2.596662 g / cm^3
# Si number density = 26.025855 Si / 1000 Ang^3
#
#
#
# Elastic Constant Matrix: (Units=GPa)
#
#
# Indices 1 2 3 4 5 6 
#
# 1 51.7725 15.2214 31.3704 0.0000 -3.1926 0.0000
# 2 15.2214 97.8759 7.3597 0.0000 -10.3009 0.0000
# 3 31.3704 7.3597 138.9396 0.0000 -10.4948 0.0000
# 4 0.0000 0.0000 0.0000 9.4808 0.0000 -12.7766
# 5 -3.1926 -10.3009 -10.4948 0.0000 51.0594 0.0000
# 6 0.0000 0.0000 0.0000 -12.7766 0.0000 6.1483
#
#
#
# Elastic Compliance Matrix: (Units=1/GPa)
#
#
# Indices 1 2 3 4 5 6 
#
# 1 0.023366 -0.003275 -0.005121 0.000000 -0.000252 0.000000
# 2 -0.003275 0.010920 0.000317 0.000000 0.002063 0.000000
# 3 -0.005121 0.000317 0.008449 0.000000 0.001480 0.000000
# 4 0.000000 0.000000 0.000000 -0.058584 0.000000 -0.121741
# 5 -0.000252 0.002063 0.001480 0.000000 0.020290 0.000000
# 6 0.000000 0.000000 0.000000 -0.121741 0.000000 -0.090337
#
#
# Mechanical properties :
#
#
# Convention : Reuss Voigt Hill
#
# Bulk Modulus (GPa) = 37.62925 44.05457 40.84191
# Shear Modulus (GPa) = -82.12851 28.98014 -26.57418
#
# Velocity S-wave (km/s) = -5.62361 3.34056 -3.19888
# Velocity P-wave (km/s) = 5.26088 5.64297 1.44329
#
# Compressibility (1/GPa) = 0.02657507
#
# Stress axis : x y z
#
# Youngs Moduli (GPa) = 42.79779 91.57765 118.36170
#
# Poissons Ratio (x) = 0.29994 0.60615
# Poissons Ratio (y) = 0.14017 -0.03751
# Poissons Ratio (z) = 0.21918 -0.02902
#
# Static dielectric constant tensor:
#      x y z
#    x 2.205630 0.000000 0.008040 
#    y 0.000000 1.989290 0.000000 
#    z 0.008040 0.000000 2.165570 
# 
# From -- ./inp_files/99746.got.cif
#   From: 2010.05.17/outbox.cif.g08.bks.cpg/sg12_50_cif.got.tgz:99746.got - 2010.06.03 13:09:07.
