data_PCOD9205695
_publ_section_title
;
Structure prediction by ZEFSAII (Michael W. Deem and Ramdas Pophale) SiO2 
 PCOD9205695
Probable space group: C 2/M
;
_chemical_formula_sum "Si O2"
_cell_formula_units_Z 32
_cell_length_a 8.069415
_cell_length_b 16.505450
_cell_length_c 11.166160
_cell_angle_alpha 90.000000
_cell_angle_beta 109.811257
_cell_angle_gamma 90.000000
_cell_volume 1399.191410
_symmetry_space_group_name_H-M "C 2/M"
_symmetry_group_IT_number 12
_symmetry_cell_setting 'monoclinic'
loop_
_space_group_symop_operation_xyz
x,y,z
-x,y,-z
-x,-y,-z
x,-y,z
1/2+x,1/2+y,z
1/2-x,1/2+y,-z
1/2-x,1/2-y,-z
1/2+x,1/2-y,z
loop_
_atom_site_type_symbol
_atom_site_label
_atom_site_fract_x
_atom_site_fract_y
_atom_site_fract_z
Si Si1 0.523577 0.855877 0.252993
Si Si2 0.191995 0.155227 0.488853
Si Si3 0.780233 0.752039 0.866710
Si Si4 0.832415 0.912560 0.784665
O O1 0.656730 0.880618 0.388412
O O2 0.401785 0.774851 0.247906
O O3 0.635273 0.828703 0.165576
O O4 0.362074 0.916317 0.202862
O O5 0.250000 0.250000 0.500000
O O6 0.190873 0.111295 0.360371
O O7 0.000000 0.147595 0.500000
O O8 0.900893 0.830359 0.862417
O O9 0.750000 0.750000 0.000000
O O10 0.921134 0.000000 0.819401
#
# Coordination Sequence:
#
# PCOD9205695 Si02
#       4
#     8   8   8   8
#     4  10  21  35  65  92 120 170 212 251 313 379
#     4  12  21  36  62  97 129 165 211 255 312 389
#     4  10  21  39  63  90 119 166 222 254 300 374
#     4  10  24  40  63  95 133 162 206 269 327 365
#
# _framework density 22.870353000000001
#
# number of rings (size 3 to 8) (size 9 to 14) (size 15 to 20)
#    1.500    0.000    2.500    4.500    0.000    2.500 
#    0.000    2.500    0.000    3.000    0.000    0.000 
#    0.000    0.000    0.000    0.000    0.000    0.000 
#
# Total GULP energy -89077.295705 kJ/mol
# GULP energy per Si atom -5567.330982 kJ/mol
# Density = 2.281830 g / cm^3
# Si number density = 22.870353 Si / 1000 Ang^3
#
#
#
# Elastic Constant Matrix: (Units=GPa)
#
#
# Indices 1 2 3 4 5 6 
#
# 1 87.8566 -7.6585 17.3335 0.0000 2.3648 0.0000
# 2 -7.6585 94.1731 21.9663 0.0000 -17.8921 0.0000
# 3 17.3335 21.9663 122.5803 0.0000 -17.0634 0.0000
# 4 0.0000 0.0000 0.0000 -1.5445 0.0000 -0.4357
# 5 2.3648 -17.8921 -17.0634 0.0000 45.0771 0.0000
# 6 0.0000 0.0000 0.0000 -0.4357 0.0000 12.4943
#
#
#
# Elastic Compliance Matrix: (Units=1/GPa)
#
#
# Indices 1 2 3 4 5 6 
#
# 1 0.011919 0.001276 -0.002038 0.000000 -0.000890 0.000000
# 2 0.001276 0.011890 -0.001756 0.000000 0.003988 0.000000
# 3 -0.002038 -0.001756 0.009161 0.000000 0.002878 0.000000
# 4 0.000000 0.000000 0.000000 -0.641154 0.000000 -0.022358
# 5 -0.000890 0.003988 0.002878 0.000000 0.024903 0.000000
# 6 0.000000 0.000000 0.000000 -0.022358 0.000000 0.079257
#
#
# Mechanical properties :
#
#
# Convention : Reuss Voigt Hill
#
# Bulk Modulus (GPa) = 35.79906 40.87698 38.33802
# Shear Modulus (GPa) = -10.21083 29.40329 9.59623
#
# Velocity S-wave (km/s) = -2.11527 3.58949 2.05062
# Velocity P-wave (km/s) = 3.11789 5.92380 4.73353
#
# Compressibility (1/GPa) = 0.02793369
#
# Stress axis : x y z
#
# Youngs Moduli (GPa) = 83.89664 84.10664 109.15403
#
# Poissons Ratio (x) = -0.10728 0.22246
# Poissons Ratio (y) = -0.10701 0.19166
# Poissons Ratio (z) = 0.17098 0.14768
#
# Static dielectric constant tensor:
#      x y z
#    x 1.919190 0.000000 0.012310 
#    y 0.000000 1.965050 0.000000 
#    z 0.012310 0.000000 1.868120 
# 
# From -- ./inp_files/117751.got.cif
#   From: 2010.05.17/outbox.cif.g08.bks.cpg/sg12_59_cif.got.tgz:117751.got - 2010.06.03 13:09:07.
