data_PCOD9205169
_publ_section_title
;
Structure prediction by ZEFSAII (Michael W. Deem and Ramdas Pophale) SiO2 
 PCOD9205169
Probable space group: C 2/M
;
_chemical_formula_sum "Si O2"
_cell_formula_units_Z 56
_cell_length_a 18.836507
_cell_length_b 8.881508
_cell_length_c 29.989053
_cell_angle_alpha 90.000000
_cell_angle_beta 38.062698
_cell_angle_gamma 90.000000
_cell_volume 3093.138813
_symmetry_space_group_name_H-M "C 2/M"
_symmetry_group_IT_number 12
_symmetry_cell_setting 'monoclinic'
loop_
_space_group_symop_operation_xyz
x,y,z
-x,y,-z
-x,-y,-z
x,-y,z
1/2+x,1/2+y,z
1/2-x,1/2+y,-z
1/2-x,1/2-y,-z
1/2+x,1/2-y,z
loop_
_atom_site_type_symbol
_atom_site_label
_atom_site_fract_x
_atom_site_fract_y
_atom_site_fract_z
Si Si1 0.743478 0.820434 0.271582
Si Si2 0.660927 0.818131 0.137242
Si Si3 0.993289 0.318608 0.140032
Si Si4 0.565532 0.818892 0.281107
Si Si5 0.470432 0.820099 0.565599
Si Si6 0.124460 0.178689 0.565717
Si Si7 0.586138 0.818009 0.997144
O O1 0.865491 0.740598 0.212134
O O2 0.668247 0.779142 0.264939
O O3 0.660180 0.785920 0.354640
O O4 0.761658 0.000000 0.261264
O O5 0.582425 0.769760 0.134302
O O6 0.601005 0.776780 0.213658
O O7 0.670417 0.000000 0.131564
O O8 0.787504 0.748841 0.072033
O O9 0.990648 0.500000 0.141779
O O10 0.036192 0.270468 0.069871
O O11 0.449777 0.742352 0.356212
O O12 0.551321 0.000000 0.290512
O O13 0.500000 0.788164 0.500000
O O14 0.553148 0.730037 0.557564
O O15 0.487071 0.000000 0.565203
O O16 0.250000 0.250000 0.500000
O O17 0.132299 0.000000 0.564660
O O18 0.593464 0.000000 0.993102
O O19 0.500000 0.772224 0.000000
#
# Coordination Sequence:
#
# PCOD9205169 Si02
#       7
#     8   8   8   8   8   8   8
#     4   9  18  33  54  77 101 135 176 215 259 315
#     4  10  21  36  55  79 106 137 174 220 268 312
#     4  10  21  35  51  76 109 139 171 217 267 313
#     4   9  19  37  56  76 104 137 178 224 269 320
#     4   9  19  37  58  81 112 145 180 226 275 325
#     4  11  22  36  56  81 110 145 185 227 273 326
#     4  10  21  36  54  77 106 140 176 214 260 317
#
# _framework density 18.104586000000001
#
# number of rings (size 3 to 8) (size 9 to 14) (size 15 to 20)
#    0.000    2.286    0.000    3.429    0.000    5.714 
#    0.000    2.857    0.000    0.000    0.000    0.000 
#    0.000    0.000    0.000    0.000    0.000    0.000 
#
# Total GULP energy -156317.829948 kJ/mol
# GULP energy per Si atom -5582.779641 kJ/mol
# Density = 1.806338 g / cm^3
# Si number density = 18.104586 Si / 1000 Ang^3
#
#
#
# Elastic Constant Matrix: (Units=GPa)
#
#
# Indices 1 2 3 4 5 6 
#
# 1 134.6979 43.3463 118.7325 0.0000 -0.1532 0.0002
# 2 43.3463 32.8101 59.8605 0.0000 -3.6736 0.0000
# 3 118.7325 59.8605 197.6865 0.0000 -3.4341 0.0001
# 4 0.0000 0.0000 0.0000 34.1791 0.0000 -10.5589
# 5 -0.1532 -3.6736 -3.4341 0.0000 39.2511 0.0000
# 6 0.0002 0.0000 0.0001 -10.5589 0.0000 21.3948
#
#
#
# Elastic Compliance Matrix: (Units=1/GPa)
#
#
# Indices 1 2 3 4 5 6 
#
# 1 0.016837 -0.008730 -0.007493 0.000000 -0.001407 0.000000
# 2 -0.008730 0.073458 -0.016907 0.000000 0.005362 0.000000
# 3 -0.007493 -0.016907 0.014673 0.000000 -0.000328 0.000000
# 4 0.000000 0.000000 0.000000 0.034521 0.000000 0.017037
# 5 -0.001407 0.005362 -0.000328 0.000000 0.025945 0.000000
# 6 0.000000 0.000000 0.000000 0.017037 0.000000 0.055148
#
#
# Mechanical properties :
#
#
# Convention : Reuss Voigt Hill
#
# Bulk Modulus (GPa) = 25.83485 89.89701 57.86593
# Shear Modulus (GPa) = 16.68079 28.51535 22.59807
#
# Velocity S-wave (km/s) = 3.03868 3.97298 3.53681
# Velocity P-wave (km/s) = 5.15870 8.41476 6.97927
#
# Compressibility (1/GPa) = 0.03870740
#
# Stress axis : x y z
#
# Youngs Moduli (GPa) = 59.39286 13.61314 68.15221
#
# Poissons Ratio (x) = 0.11884 0.51070
# Poissons Ratio (y) = 0.51850 1.15226
# Poissons Ratio (z) = 0.44506 0.23016
#
# Static dielectric constant tensor:
#      x y z
#    x 1.605390 0.000000 0.020550 
#    y 0.000000 1.607430 0.000000 
#    z 0.020550 0.000000 1.599430 
# 
# From -- ./inp_files/313756.got.cif
#   From: 2010.05.17/outbox.cif.g08.bks.cpg/sg12_157_cif.got.tgz:313756.got - 2010.06.03 13:09:07.
