data_PCOD9205386
_publ_section_title
;
Structure prediction by ZEFSAII (Michael W. Deem and Ramdas Pophale) SiO2 
 PCOD9205386
Probable space group: C 2/M
;
_chemical_formula_sum "Si O2"
_cell_formula_units_Z 52
_cell_length_a 16.817255
_cell_length_b 26.931199
_cell_length_c 11.195719
_cell_angle_alpha 90.000000
_cell_angle_beta 23.490233
_cell_angle_gamma 90.000000
_cell_volume 2021.120314
_symmetry_space_group_name_H-M "C 2/M"
_symmetry_group_IT_number 12
_symmetry_cell_setting 'monoclinic'
loop_
_space_group_symop_operation_xyz
x,y,z
-x,y,-z
-x,-y,-z
x,-y,z
1/2+x,1/2+y,z
1/2-x,1/2+y,-z
1/2-x,1/2-y,-z
1/2+x,1/2-y,z
loop_
_atom_site_type_symbol
_atom_site_label
_atom_site_fract_x
_atom_site_fract_y
_atom_site_fract_z
Si Si1 0.224471 0.500000 0.845489
Si Si2 0.771794 0.360429 0.800018
Si Si3 0.715121 0.106007 0.958222
Si Si4 0.625538 0.185051 0.724945
Si Si5 0.726016 0.602382 0.615307
Si Si6 0.885340 0.264482 0.494875
Si Si7 0.000000 0.183242 0.500000
Si Si8 0.256907 0.500000 0.526866
O O1 0.277594 0.550063 0.842305
O O2 0.306775 0.500000 0.597711
O O3 0.983693 0.500000 0.158519
O O4 0.669400 0.388800 0.831225
O O5 0.802639 0.304413 0.705309
O O6 0.000000 0.379082 0.500000
O O7 0.702666 0.373903 0.027565
O O8 0.818625 0.145703 0.728419
O O9 0.474019 0.104597 0.279036
O O10 0.803114 0.150388 0.429290
O O11 0.708575 0.232530 0.681254
O O12 0.525370 0.206369 0.741371
O O13 0.500000 0.157478 0.000000
O O14 0.671062 0.550128 0.635224
O O15 0.025550 0.222834 0.358063
#
# Coordination Sequence:
#
# PCOD9205386 Si02
#       8
#     4   8   8   8   8   8   4   4
#     4   9  20  36  53  86 108 143 179 229 279 329
#     4   9  18  37  55  80 110 139 178 230 276 321
#     4  10  22  36  58  79 113 143 183 227 277 326
#     4  10  21  35  55  76 111 145 179 229 271 317
#     4   9  19  35  57  84 105 139 180 234 280 320
#     4  10  22  36  51  81 111 145 190 215 267 334
#     4  12  24  35  54  84 112 155 186 214 270 340
#     4   9  18  31  57  84 110 130 180 234 284 328
#
# _framework density 25.728306
#
# number of rings (size 3 to 8) (size 9 to 14) (size 15 to 20)
#    0.000    2.308    0.769    0.923    8.615    1.538 
#    0.000    3.077    0.000    0.000    0.000    1.077 
#    0.000    0.000    0.000    0.000    0.000    0.000 
#
# Total GULP energy -145275.164756 kJ/mol
# GULP energy per Si atom -5587.506337 kJ/mol
# Density = 2.566975 g / cm^3
# Si number density = 25.728306 Si / 1000 Ang^3
#
#
#
# Elastic Constant Matrix: (Units=GPa)
#
#
# Indices 1 2 3 4 5 6 
#
# 1 133.2108 71.2671 20.2874 -0.0228 26.9561 0.0118
# 2 71.2671 180.6212 26.2256 -0.0049 33.0207 0.0045
# 3 20.2874 26.2256 64.8824 -0.0674 24.2417 0.0333
# 4 -0.0228 -0.0049 -0.0674 35.1729 0.0311 4.6515
# 5 26.9561 33.0207 24.2417 0.0311 46.5623 -0.0147
# 6 0.0118 0.0045 0.0333 4.6515 -0.0147 42.3784
#
#
#
# Elastic Compliance Matrix: (Units=1/GPa)
#
#
# Indices 1 2 3 4 5 6 
#
# 1 0.009990 -0.003278 -0.000629 0.000008 -0.003132 -0.000004
# 2 -0.003278 0.007501 -0.000904 0.000000 -0.002951 0.000000
# 3 -0.000629 -0.000904 0.019366 0.000048 -0.009077 -0.000023
# 4 0.000008 0.000000 0.000048 0.028850 -0.000050 -0.003167
# 5 -0.003132 -0.002951 -0.009077 -0.000050 0.030108 0.000024
# 6 -0.000004 0.000000 -0.000023 -0.003167 0.000024 0.023945
#
#
# Mechanical properties :
#
#
# Convention : Reuss Voigt Hill
#
# Bulk Modulus (GPa) = 36.71772 68.25273 52.48522
# Shear Modulus (GPa) = 36.11164 42.21833 39.16499
#
# Velocity S-wave (km/s) = 3.75050 4.05523 3.90584
# Velocity P-wave (km/s) = 5.74955 6.96509 6.38630
#
# Compressibility (1/GPa) = 0.02723481
#
# Stress axis : x y z
#
# Youngs Moduli (GPa) = 100.09995 133.32341 51.63633
#
# Poissons Ratio (x) = 0.43703 0.03246
# Poissons Ratio (y) = 0.32812 0.04670
# Poissons Ratio (z) = 0.06293 0.12057
#
# Static dielectric constant tensor:
#      x y z
#    x 2.119880 -0.000010 -0.043310 
#    y -0.000010 1.974740 0.000010 
#    z -0.043310 0.000010 2.144910 
# 
# From -- ./inp_files/160815.got.cif
#   From: 2010.05.17/outbox.cif.g08.bks.cpg/sg12_81_cif.got.tgz:160815.got - 2010.06.03 13:09:07.
