data_PCOD9205060
_publ_section_title
;
Structure prediction by ZEFSAII (Michael W. Deem and Ramdas Pophale) SiO2 
 PCOD9205060
Probable space group: C 2/M
;
_chemical_formula_sum "Si O2"
_cell_formula_units_Z 56
_cell_length_a 10.182728
_cell_length_b 24.717324
_cell_length_c 19.207740
_cell_angle_alpha 90.000000
_cell_angle_beta 34.719547
_cell_angle_gamma 90.000000
_cell_volume 2753.476171
_symmetry_space_group_name_H-M "C 2/M"
_symmetry_group_IT_number 12
_symmetry_cell_setting 'monoclinic'
loop_
_space_group_symop_operation_xyz
x,y,z
-x,y,-z
-x,-y,-z
x,-y,z
1/2+x,1/2+y,z
1/2-x,1/2+y,-z
1/2-x,1/2-y,-z
1/2+x,1/2-y,z
loop_
_atom_site_type_symbol
_atom_site_label
_atom_site_fract_x
_atom_site_fract_y
_atom_site_fract_z
Si Si1 0.776878 0.584781 0.049135
Si Si2 0.899861 0.209867 0.335665
Si Si3 0.827733 0.912203 0.331837
Si Si4 0.788186 0.500000 0.365499
Si Si5 0.732493 0.213502 0.940376
Si Si6 0.751900 0.500000 0.935266
Si Si7 0.619025 0.084580 0.560774
Si Si8 0.363738 0.686283 0.497196
O O1 0.560085 0.572318 0.192991
O O2 0.764934 0.649615 0.041959
O O3 0.758273 0.551271 0.985853
O O4 0.000000 0.573342 0.000000
O O5 0.801306 0.152966 0.351644
O O6 0.727957 0.257719 0.431128
O O7 0.011652 0.196425 0.362785
O O8 0.068258 0.227169 0.201554
O O9 0.617509 0.928723 0.374745
O O10 0.807274 0.931671 0.420160
O O11 0.500000 0.500000 0.500000
O O12 0.854888 0.552386 0.380732
O O13 0.994507 0.500000 0.215257
O O14 0.500000 0.223751 0.000000
O O15 0.750000 0.250000 0.000000
O O16 0.500000 0.500000 0.000000
O O17 0.657395 0.147719 0.561741
O O18 0.500000 0.658060 0.500000
#
# Coordination Sequence:
#
# PCOD9205060 Si02
#       8
#     8   8   8   4   8   4   8   8
#     4  10  23  44  69  94 125 170 226 268 316 392
#     4   9  21  35  57  90 124 158 212 258 308 383
#     4   9  20  39  66  90 126 158 217 260 314 383
#     4  12  28  43  62  97 136 160 212 271 333 388
#     4  10  23  40  61  92 128 171 211 267 323 384
#     4  12  27  46  72  99 131 173 224 279 334 399
#     4  10  22  40  60  92 127 169 204 264 326 383
#     4  10  21  34  60  88 124 171 209 255 321 379
#
# _framework density 20.337928999999999
#
# number of rings (size 3 to 8) (size 9 to 14) (size 15 to 20)
#    0.000    2.000    0.000    1.500   10.000    4.571 
#    2.571    0.000    0.000    0.000    0.000    0.000 
#    0.000    0.000    0.000    0.000    0.000    0.000 
#
# Total GULP energy -155934.416130 kJ/mol
# GULP energy per Si atom -5569.086290 kJ/mol
# Density = 2.029164 g / cm^3
# Si number density = 20.337929 Si / 1000 Ang^3
#
#
#
# Elastic Constant Matrix: (Units=GPa)
#
#
# Indices 1 2 3 4 5 6 
#
# 1 113.7103 36.0412 71.0426 -0.0025 19.4990 -0.0002
# 2 36.0412 72.0311 48.9529 -0.0080 17.8482 0.0026
# 3 71.0426 48.9529 162.1858 -0.0356 22.7437 -0.0008
# 4 -0.0025 -0.0080 -0.0356 33.1722 0.0045 10.9730
# 5 19.4990 17.8482 22.7437 0.0045 26.8138 0.0033
# 6 -0.0002 0.0026 -0.0008 10.9730 0.0033 34.2313
#
#
#
# Elastic Compliance Matrix: (Units=1/GPa)
#
#
# Indices 1 2 3 4 5 6 
#
# 1 0.013028 -0.002539 -0.004368 -0.000004 -0.004078 0.000002
# 2 -0.002539 0.019671 -0.003686 0.000002 -0.008120 -0.000001
# 3 -0.004368 -0.003686 0.009537 0.000010 -0.002459 -0.000003
# 4 -0.000004 0.000002 0.000010 0.033721 -0.000011 -0.010810
# 5 -0.004078 -0.008120 -0.002459 -0.000011 0.047751 -0.000001
# 6 0.000002 -0.000001 -0.000003 -0.010810 -0.000001 0.032678
#
#
# Mechanical properties :
#
#
# Convention : Reuss Voigt Hill
#
# Bulk Modulus (GPa) = 47.51150 73.33340 60.42245
# Shear Modulus (GPa) = 27.08732 31.63615 29.36173
#
# Velocity S-wave (km/s) = 3.65343 3.94829 3.80372
# Velocity P-wave (km/s) = 6.41938 7.54461 7.00463
#
# Compressibility (1/GPa) = 0.02104754
#
# Stress axis : x y z
#
# Youngs Moduli (GPa) = 76.76051 50.83700 104.85925
#
# Poissons Ratio (x) = 0.12909 0.45804
# Poissons Ratio (y) = 0.19491 0.38654
# Poissons Ratio (z) = 0.33530 0.18740
#
# Static dielectric constant tensor:
#      x y z
#    x 1.716880 0.000000 -0.007450 
#    y 0.000000 1.770950 0.000000 
#    z -0.007450 0.000000 1.728200 
# 
# From -- ./inp_files/259847.got.cif
#   From: 2010.05.17/outbox.cif.g08.bks.cpg/sg12_130_cif.got.tgz:259847.got - 2010.06.03 13:09:07.
