data_PCOD9205925
_publ_section_title
;
Structure prediction by ZEFSAII (Michael W. Deem and Ramdas Pophale) SiO2 
 PCOD9205925
Probable space group: C 2/M
;
_chemical_formula_sum "Si O2"
_cell_formula_units_Z 50
_cell_length_a 9.363592
_cell_length_b 10.648217
_cell_length_c 31.046293
_cell_angle_alpha 90.000000
_cell_angle_beta 56.256018
_cell_angle_gamma 90.000000
_cell_volume 2573.984838
_symmetry_space_group_name_H-M "C 2/M"
_symmetry_group_IT_number 12
_symmetry_cell_setting 'monoclinic'
loop_
_space_group_symop_operation_xyz
x,y,z
-x,y,-z
-x,-y,-z
x,-y,z
1/2+x,1/2+y,z
1/2-x,1/2+y,-z
1/2-x,1/2-y,-z
1/2+x,1/2-y,z
loop_
_atom_site_type_symbol
_atom_site_label
_atom_site_fract_x
_atom_site_fract_y
_atom_site_fract_z
Si Si1 0.135732 0.853842 0.223170
Si Si2 0.349714 0.642953 0.560238
Si Si3 0.000000 0.000000 0.000000
Si Si4 0.457192 0.857337 0.606308
Si Si5 0.938030 0.230824 0.948471
Si Si6 0.261480 0.857750 0.727365
Si Si7 0.214496 0.854694 0.111355
O O1 0.213229 0.752303 0.242515
O O2 0.181441 0.819451 0.166244
O O3 0.929220 0.849839 0.260424
O O4 0.189543 0.000000 0.221696
O O5 0.500000 0.656791 0.500000
O O6 0.360388 0.500000 0.576238
O O7 0.372652 0.749938 0.591877
O O8 0.162688 0.655169 0.570258
O O9 0.992239 0.891308 0.039029
O O10 0.395857 0.844515 0.665913
O O11 0.410849 0.000000 0.600217
O O12 0.900656 0.217609 0.903998
O O13 0.083479 0.334313 0.931777
O O14 0.750000 0.250000 0.000000
O O15 0.278971 0.000000 0.742859
O O16 0.170501 0.000000 0.113820
#
# Coordination Sequence:
#
# PCOD9205925 Si02
#       7
#     8   8   2   8   8   8   8
#     4  10  22  40  59  86 113 149 188 234 284 341
#     4  10  21  36  54  82 118 153 195 242 289 341
#     4  12  24  40  60  88 116 144 190 226 272 328
#     4  10  21  36  57  84 113 152 194 238 288 344
#     4  12  24  40  60  87 113 149 185 227 273 331
#     4  10  21  39  60  85 117 148 191 240 288 339
#     4  11  24  40  61  83 116 147 184 228 279 330
#
# _framework density 19.425132000000001
#
# number of rings (size 3 to 8) (size 9 to 14) (size 15 to 20)
#    0.000    1.440    2.400    2.400    1.120    2.880 
#    1.440    0.000    0.000    0.000    0.000    0.000 
#    0.000    0.000    0.000    0.000    0.000    0.000 
#
# Total GULP energy -139282.562340 kJ/mol
# GULP energy per Si atom -5571.302494 kJ/mol
# Density = 1.938092 g / cm^3
# Si number density = 19.425132 Si / 1000 Ang^3
#
#
#
# Elastic Constant Matrix: (Units=GPa)
#
#
# Indices 1 2 3 4 5 6 
#
# 1 44.8072 24.8533 -7.7431 0.0000 9.4847 0.0000
# 2 24.8533 104.8068 6.8137 0.0000 37.3674 0.0000
# 3 -7.7431 6.8137 29.2907 0.0000 -3.0549 0.0000
# 4 0.0000 0.0000 0.0000 25.2553 0.0000 13.0430
# 5 9.4847 37.3674 -3.0549 0.0000 34.9973 0.0000
# 6 0.0000 0.0000 0.0000 13.0430 0.0000 27.0175
#
#
#
# Elastic Compliance Matrix: (Units=1/GPa)
#
#
# Indices 1 2 3 4 5 6 
#
# 1 0.027923 -0.007787 0.009356 0.000000 0.001564 0.000000
# 2 -0.007787 0.018455 -0.008262 0.000000 -0.018316 0.000000
# 3 0.009356 -0.008262 0.039552 0.000000 0.009738 0.000000
# 4 0.000000 0.000000 0.000000 0.052746 0.000000 -0.025464
# 5 0.001564 -0.018316 0.009738 0.000000 0.048556 0.000000
# 6 0.000000 0.000000 0.000000 -0.025464 0.000000 0.049306
#
#
# Mechanical properties :
#
#
# Convention : Reuss Voigt Hill
#
# Bulk Modulus (GPa) = 13.78481 25.19471 19.48976
# Shear Modulus (GPa) = 18.24109 27.78608 23.01359
#
# Velocity S-wave (km/s) = 3.06771 3.78619 3.44573
# Velocity P-wave (km/s) = 4.43391 5.66674 5.08781
#
# Compressibility (1/GPa) = 0.07254364
#
# Stress axis : x y z
#
# Youngs Moduli (GPa) = 35.81267 54.18440 25.28339
#
# Poissons Ratio (x) = 0.42196 -0.23656
# Poissons Ratio (y) = 0.27889 0.20890
# Poissons Ratio (z) = -0.33507 0.44768
#
# Static dielectric constant tensor:
#      x y z
#    x 1.652670 0.000000 -0.009200 
#    y 0.000000 1.670240 0.000000 
#    z -0.009200 0.000000 1.694270 
# 
# From -- ./inp_files/355473.got.cif
#   From: 2010.05.17/outbox.cif.g08.bks.cpg/sg12_178_cif.got.tgz:355473.got - 2010.06.03 13:09:07.
