data_PCOD9205295
_publ_section_title
;
Structure prediction by ZEFSAII (Michael W. Deem and Ramdas Pophale) SiO2 
 PCOD9205295
Probable space group: C 2/M
;
_chemical_formula_sum "Si O2"
_cell_formula_units_Z 48
_cell_length_a 31.640096
_cell_length_b 8.781304
_cell_length_c 9.443410
_cell_angle_alpha 90.000000
_cell_angle_beta 90.259364
_cell_angle_gamma 90.000000
_cell_volume 2623.742443
_symmetry_space_group_name_H-M "C 2/M"
_symmetry_group_IT_number 12
_symmetry_cell_setting 'monoclinic'
loop_
_space_group_symop_operation_xyz
x,y,z
-x,y,-z
-x,-y,-z
x,-y,z
1/2+x,1/2+y,z
1/2-x,1/2+y,-z
1/2-x,1/2-y,-z
1/2+x,1/2-y,z
loop_
_atom_site_type_symbol
_atom_site_label
_atom_site_fract_x
_atom_site_fract_y
_atom_site_fract_z
Si Si1 0.959736 0.818143 0.410146
Si Si2 0.711662 0.318261 0.091229
Si Si3 0.365443 0.817331 0.081750
Si Si4 0.370192 0.817338 0.413346
Si Si5 0.461234 0.817184 0.099233
Si Si6 0.211914 0.683502 0.406570
O O1 0.914704 0.753580 0.459282
O O2 0.965118 0.763128 0.249710
O O3 0.000000 0.763873 0.500000
O O4 0.958229 0.000000 0.416009
O O5 0.715380 0.500000 0.097028
O O6 0.713052 0.250339 0.249059
O O7 0.750000 0.250000 0.000000
O O8 0.668425 0.268658 0.013444
O O9 0.361231 0.775737 0.248575
O O10 0.414106 0.784070 0.041059
O O11 0.358584 0.000000 0.069454
O O12 0.331668 0.775006 0.514199
O O13 0.374614 0.000000 0.414906
O O14 0.462791 0.000000 0.120997
O O15 0.500000 0.773338 0.000000
O O16 0.214779 0.500000 0.401315
O O17 0.250000 0.750000 0.500000
#
# Coordination Sequence:
#
# PCOD9205295 Si02
#       6
#     8   8   8   8   8   8
#     4  10  21  35  53  81 115 148 184 229 278 327
#     4  12  25  40  59  84 114 150 190 231 280 335
#     4   9  18  36  59  84 113 143 184 235 281 330
#     4   9  20  38  60  83 109 145 187 229 275 332
#     4   9  19  36  58  82 109 146 189 230 275 330
#     4  11  23  40  62  88 116 147 185 230 280 334
#
# _framework density 18.294478999999999
#
# number of rings (size 3 to 8) (size 9 to 14) (size 15 to 20)
#    0.000    2.000    0.000    4.500    0.000    8.333 
#    0.000    5.000    0.000    0.000    0.000    0.000 
#    0.000    0.000    0.000    0.000    0.000    0.000 
#
# Total GULP energy -134046.883300 kJ/mol
# GULP energy per Si atom -5585.286804 kJ/mol
# Density = 1.825284 g / cm^3
# Si number density = 18.294479 Si / 1000 Ang^3
#
#
#
# Elastic Constant Matrix: (Units=GPa)
#
#
# Indices 1 2 3 4 5 6 
#
# 1 191.2742 71.8339 113.2332 0.0000 -3.2417 0.0000
# 2 71.8339 60.5708 54.0225 0.0000 -0.3019 0.0000
# 3 113.2332 54.0225 120.3416 0.0000 -2.6716 0.0000
# 4 0.0000 0.0000 0.0000 30.6043 0.0000 5.4322
# 5 -3.2417 -0.3019 -2.6716 0.0000 40.3210 0.0000
# 6 0.0000 0.0000 0.0000 5.4322 0.0000 31.6826
#
#
#
# Elastic Compliance Matrix: (Units=1/GPa)
#
#
# Indices 1 2 3 4 5 6 
#
# 1 0.013784 -0.007982 -0.009378 0.000000 0.000427 0.000000
# 2 -0.007982 0.032170 -0.006950 0.000000 -0.000861 0.000000
# 3 -0.009378 -0.006950 0.020265 0.000000 0.000537 0.000000
# 4 0.000000 0.000000 0.000000 0.033701 0.000000 -0.005778
# 5 0.000427 -0.000861 0.000537 0.000000 0.024864 0.000000
# 6 0.000000 0.000000 0.000000 -0.005778 0.000000 0.032554
#
#
# Mechanical properties :
#
#
# Convention : Reuss Voigt Hill
#
# Bulk Modulus (GPa) = 56.81643 94.48508 75.65076
# Shear Modulus (GPa) = 23.60436 29.39472 26.49954
#
# Velocity S-wave (km/s) = 3.59589 4.01278 3.81004
# Velocity P-wave (km/s) = 6.95447 8.55738 7.79722
#
# Compressibility (1/GPa) = 0.01760054
#
# Stress axis : x y z
#
# Youngs Moduli (GPa) = 72.54586 31.08468 49.34511
#
# Poissons Ratio (x) = 0.24811 0.46274
# Poissons Ratio (y) = 0.57903 0.34297
# Poissons Ratio (z) = 0.68031 0.21605
#
# Static dielectric constant tensor:
#      x y z
#    x 1.627720 0.000000 -0.007940 
#    y 0.000000 1.614480 0.000000 
#    z -0.007940 0.000000 1.597780 
# 
# From -- ./inp_files/108684.got.cif
#   From: 2010.05.17/outbox.cif.g08.bks.cpg/sg12_55_cif.got.tgz:108684.got - 2010.06.03 13:09:07.
