data_PCOD9205133
_publ_section_title
;
Structure prediction by ZEFSAII (Michael W. Deem and Ramdas Pophale) SiO2 
 PCOD9205133
Probable space group: C 2/M
;
_chemical_formula_sum "Si O2"
_cell_formula_units_Z 48
_cell_length_a 12.399587
_cell_length_b 23.495276
_cell_length_c 7.102176
_cell_angle_alpha 90.000000
_cell_angle_beta 69.637808
_cell_angle_gamma 90.000000
_cell_volume 1939.795484
_symmetry_space_group_name_H-M "C 2/M"
_symmetry_group_IT_number 12
_symmetry_cell_setting 'monoclinic'
loop_
_space_group_symop_operation_xyz
x,y,z
-x,y,-z
-x,-y,-z
x,-y,z
1/2+x,1/2+y,z
1/2-x,1/2+y,-z
1/2-x,1/2-y,-z
1/2+x,1/2-y,z
loop_
_atom_site_type_symbol
_atom_site_label
_atom_site_fract_x
_atom_site_fract_y
_atom_site_fract_z
Si Si1 0.635112 0.845143 0.389281
Si Si2 0.194208 0.066335 0.627723
Si Si3 0.493180 0.656336 0.778439
Si Si4 0.816744 0.941164 0.913970
Si Si5 0.203294 0.769611 0.232716
Si Si6 0.134725 0.632723 0.944613
O O1 0.500000 0.839334 0.500000
O O2 0.684962 0.900208 0.467258
O O3 0.700117 0.784721 0.371135
O O4 0.654024 0.855867 0.155016
O O5 0.102932 0.118663 0.643785
O O6 0.184567 0.000000 0.562449
O O7 0.182957 0.058670 0.860634
O O8 0.394162 0.610401 0.811231
O O9 0.429409 0.709565 0.718497
O O10 0.500000 0.668852 0.000000
O O11 0.694637 0.928859 0.892856
O O12 0.869968 0.000000 0.819266
O O13 0.294916 0.820038 0.216695
O O14 0.250000 0.750000 0.000000
O O15 0.000000 0.635043 0.000000
#
# Coordination Sequence:
#
# PCOD9205133 Si02
#       6
#     8   8   8   8   8   8
#     4  10  21  35  50  74 103 132 167 209 255 302
#     4   9  17  30  49  72  99 132 169 210 257 301
#     4   9  15  26  47  74  99 129 169 211 252 295
#     4   8  14  25  44  72 101 126 161 211 254 292
#     4   9  18  31  47  69 100 133 166 202 247 300
#     4   9  18  32  50  71  98 135 171 203 247 303
#
# _framework density 24.744879000000001
#
# number of rings (size 3 to 8) (size 9 to 14) (size 15 to 20)
#    0.000    3.000    0.000    3.500    0.000    8.000 
#    0.000    3.333    0.000    0.000    0.000    0.000 
#    0.000    7.333    0.000    0.500    0.000    1.000 
#
# Total GULP energy -133691.220357 kJ/mol
# GULP energy per Si atom -5570.467515 kJ/mol
# Density = 2.468856 g / cm^3
# Si number density = 24.744879 Si / 1000 Ang^3
#
#
#
# Elastic Constant Matrix: (Units=GPa)
#
#
# Indices 1 2 3 4 5 6 
#
# 1 102.9182 24.7602 0.4515 0.0000 -13.8981 0.0000
# 2 24.7602 98.2661 16.8757 0.0000 -4.0787 0.0000
# 3 0.4515 16.8757 84.8017 0.0000 8.5906 0.0000
# 4 0.0000 0.0000 0.0000 4.3648 0.0000 -11.2876
# 5 -13.8981 -4.0787 8.5906 0.0000 33.5609 0.0000
# 6 0.0000 0.0000 0.0000 -11.2876 0.0000 -3.3544
#
#
#
# Elastic Compliance Matrix: (Units=1/GPa)
#
#
# Indices 1 2 3 4 5 6 
#
# 1 0.010903 -0.002578 0.000030 0.000000 0.004194 0.000000
# 2 -0.002578 0.011261 -0.002318 0.000000 0.000894 0.000000
# 3 0.000030 -0.002318 0.012607 0.000000 -0.003496 0.000000
# 4 0.000000 0.000000 0.000000 0.023614 0.000000 -0.079462
# 5 0.004194 0.000894 -0.003496 0.000000 0.032537 0.000000
# 6 0.000000 0.000000 0.000000 -0.079462 0.000000 -0.030727
#
#
# Mechanical properties :
#
#
# Convention : Reuss Voigt Hill
#
# Bulk Modulus (GPa) = 39.93654 41.12896 40.53275
# Shear Modulus (GPa) = 63.87773 23.17417 43.52595
#
# Velocity S-wave (km/s) = 5.08631 3.06359 4.19858
# Velocity P-wave (km/s) = 7.11818 5.40105 6.31822
#
# Compressibility (1/GPa) = 0.02503973
#
# Stress axis : x y z
#
# Youngs Moduli (GPa) = 91.71797 88.79980 79.31788
#
# Poissons Ratio (x) = 0.22896 -0.00239
# Poissons Ratio (y) = 0.23648 0.18385
# Poissons Ratio (z) = -0.00277 0.20583
#
# Static dielectric constant tensor:
#      x y z
#    x 2.018870 0.000000 0.008030 
#    y 0.000000 2.013370 0.000000 
#    z 0.008030 0.000000 2.013020 
# 
# From -- ./inp_files/51950.got.cif
#   From: 2010.05.17/outbox.cif.g08.bks.cpg/sg12_26_cif.got.tgz:51950.got - 2010.06.03 13:09:07.
