data_PCOD9205174
_publ_section_title
;
Structure prediction by ZEFSAII (Michael W. Deem and Ramdas Pophale) SiO2 
 PCOD9205174
Probable space group: C 2/M
;
_chemical_formula_sum "Si O2"
_cell_formula_units_Z 56
_cell_length_a 27.674060
_cell_length_b 8.847865
_cell_length_c 16.206159
_cell_angle_alpha 90.000000
_cell_angle_beta 129.212374
_cell_angle_gamma 90.000000
_cell_volume 3074.578192
_symmetry_space_group_name_H-M "C 2/M"
_symmetry_group_IT_number 12
_symmetry_cell_setting 'monoclinic'
loop_
_space_group_symop_operation_xyz
x,y,z
-x,y,-z
-x,-y,-z
x,-y,z
1/2+x,1/2+y,z
1/2-x,1/2+y,-z
1/2-x,1/2-y,-z
1/2+x,1/2-y,z
loop_
_atom_site_type_symbol
_atom_site_label
_atom_site_fract_x
_atom_site_fract_y
_atom_site_fract_z
Si Si1 0.528797 0.818570 0.347536
Si Si2 0.361382 0.319946 0.439997
Si Si3 0.789795 0.319906 0.116663
Si Si4 0.501501 0.183254 0.869864
Si Si5 0.586188 0.319668 0.685884
Si Si6 0.237822 0.179537 0.243836
Si Si7 0.102243 0.682752 0.107877
O O1 0.596430 0.756749 0.445097
O O2 0.508101 0.766333 0.233879
O O3 0.478235 0.755073 0.357028
O O4 0.528935 0.000000 0.349980
O O5 0.360311 0.500000 0.449112
O O6 0.394591 0.285751 0.387681
O O7 0.291731 0.256212 0.356556
O O8 0.795949 0.500000 0.112968
O O9 0.857967 0.245819 0.197882
O O10 0.755917 0.289953 0.167657
O O11 0.750000 0.250000 0.000000
O O12 0.443310 0.224609 0.865539
O O13 0.503009 0.000000 0.870643
O O14 0.564804 0.230734 0.984662
O O15 0.582112 0.500000 0.690178
O O16 0.169698 0.244746 0.186938
O O17 0.239241 0.000000 0.257623
O O18 0.107920 0.500000 0.113033
#
# Coordination Sequence:
#
# PCOD9205174 Si02
#       7
#     8   8   8   8   8   8   8
#     4  11  21  34  55  83 112 142 180 228 275 317
#     4  10  21  38  56  77 106 147 189 222 263 323
#     4  10  21  35  51  76 111 144 179 221 266 319
#     4   8  18  35  56  83 109 139 179 221 266 323
#     4  10  21  36  53  76 108 146 186 222 264 319
#     4  10  21  36  55  81 109 139 177 225 276 318
#     4   9  17  36  61  80 106 143 181 217 264 329
#
# _framework density 18.21388
#
# number of rings (size 3 to 8) (size 9 to 14) (size 15 to 20)
#    0.000    2.286    0.000    3.429    2.000    5.143 
#    0.000    4.286    0.000    0.000    0.000    0.000 
#    0.000    0.000    0.000    0.000    0.000    0.000 
#
# Total GULP energy -156326.545482 kJ/mol
# GULP energy per Si atom -5583.090910 kJ/mol
# Density = 1.817242 g / cm^3
# Si number density = 18.213880 Si / 1000 Ang^3
#
#
#
# Elastic Constant Matrix: (Units=GPa)
#
#
# Indices 1 2 3 4 5 6 
#
# 1 55.9317 22.1332 40.4552 0.0000 25.5652 0.0000
# 2 22.1332 25.5737 21.9127 0.0000 5.5755 0.0000
# 3 40.4552 21.9127 100.3611 0.0000 22.6251 0.0000
# 4 0.0000 0.0000 0.0000 34.1895 0.0000 9.3879
# 5 25.5652 5.5755 22.6251 0.0000 29.6077 0.0000
# 6 0.0000 0.0000 0.0000 9.3879 0.0000 22.9991
#
#
#
# Elastic Compliance Matrix: (Units=1/GPa)
#
#
# Indices 1 2 3 4 5 6 
#
# 1 0.048519 -0.030069 -0.005829 0.000000 -0.031778 0.000000
# 2 -0.030069 0.066775 -0.006617 0.000000 0.018445 0.000000
# 3 -0.005829 -0.006617 0.014912 0.000000 -0.005116 0.000000
# 4 0.000000 0.000000 0.000000 0.032941 0.000000 -0.013446
# 5 -0.031778 0.018445 -0.005116 0.000000 0.061650 0.000000
# 6 0.000000 0.000000 0.000000 -0.013446 0.000000 0.048968
#
#
# Mechanical properties :
#
#
# Convention : Reuss Voigt Hill
#
# Bulk Modulus (GPa) = 22.13581 38.98542 30.56062
# Shear Modulus (GPa) = 13.37428 23.85028 18.61228
#
# Velocity S-wave (km/s) = 2.71272 3.62257 3.20014
# Velocity P-wave (km/s) = 4.68950 6.24083 5.51994
#
# Compressibility (1/GPa) = 0.04517566
#
# Stress axis : x y z
#
# Youngs Moduli (GPa) = 20.61067 14.97574 67.06185
#
# Poissons Ratio (x) = 0.45030 0.39087
# Poissons Ratio (y) = 0.61974 0.44376
# Poissons Ratio (z) = 0.12013 0.09910
#
# Static dielectric constant tensor:
#      x y z
#    x 1.612100 0.000000 -0.010020 
#    y 0.000000 1.606630 0.000000 
#    z -0.010020 0.000000 1.622790 
# 
# From -- ./inp_files/288488.got.cif
#   From: 2010.05.17/outbox.cif.g08.bks.cpg/sg12_145_cif.got.tgz:288488.got - 2010.06.03 13:09:07.
