data_PCOD9205789
_publ_section_title
;
Structure prediction by ZEFSAII (Michael W. Deem and Ramdas Pophale) SiO2 
 PCOD9205789
Probable space group: C 2/M
;
_chemical_formula_sum "Si O2"
_cell_formula_units_Z 32
_cell_length_a 29.061831
_cell_length_b 8.648205
_cell_length_c 7.289499
_cell_angle_alpha 90.000000
_cell_angle_beta 91.615744
_cell_angle_gamma 90.000000
_cell_volume 1831.360833
_symmetry_space_group_name_H-M "C 2/M"
_symmetry_group_IT_number 12
_symmetry_cell_setting 'monoclinic'
loop_
_space_group_symop_operation_xyz
x,y,z
-x,y,-z
-x,-y,-z
x,-y,z
1/2+x,1/2+y,z
1/2-x,1/2+y,-z
1/2-x,1/2-y,-z
1/2+x,1/2-y,z
loop_
_atom_site_type_symbol
_atom_site_label
_atom_site_fract_x
_atom_site_fract_y
_atom_site_fract_z
Si Si1 0.746571 0.685141 0.704010
Si Si2 0.822085 0.315010 0.012448
Si Si3 0.499101 0.688257 0.708014
Si Si4 0.575808 0.313040 0.007291
O O1 0.745050 0.500000 0.696808
O O2 0.750000 0.750000 0.500000
O O3 0.790333 0.731986 0.835014
O O4 0.702255 0.745989 0.809873
O O5 0.821059 0.500000 0.024559
O O6 0.873826 0.257116 0.995312
O O7 0.500000 0.744175 0.500000
O O8 0.498959 0.500000 0.705197
O O9 0.453782 0.733860 0.817116
O O10 0.543949 0.732867 0.830569
O O11 0.579284 0.500000 0.007686
#
# Coordination Sequence:
#
# PCOD9205789 Si02
#       4
#     8   8   8   8
#     4  10  21  37  56  77 103 136 173 213 257 305
#     4  10  21  36  53  76 107 138 170 211 258 308
#     4   8  15  29  48  71  99 130 167 210 251 295
#     4   9  17  30  50  74  98 129 171 212 250 297
#
# _framework density 17.473344000000001
#
# number of rings (size 3 to 8) (size 9 to 14) (size 15 to 20)
#    0.000    2.750    0.000    3.000    0.000    5.000 
#    0.000    5.000    0.000    1.500    0.000    0.000 
#    0.000    0.000    0.000    0.000    0.000    0.000 
#
# Total GULP energy -89231.999361 kJ/mol
# GULP energy per Si atom -5576.999960 kJ/mol
# Density = 1.743357 g / cm^3
# Si number density = 17.473344 Si / 1000 Ang^3
#
#
#
# Elastic Constant Matrix: (Units=GPa)
#
#
# Indices 1 2 3 4 5 6 
#
# 1 174.9702 34.0038 93.2440 0.0000 -16.2983 0.0000
# 2 34.0038 28.3720 36.2092 0.0000 -4.0476 0.0000
# 3 93.2440 36.2092 186.9313 0.0000 -16.7000 0.0000
# 4 0.0000 0.0000 0.0000 20.6472 0.0000 -2.3499
# 5 -16.2983 -4.0476 -16.7000 0.0000 8.7229 0.0000
# 6 0.0000 0.0000 0.0000 -2.3499 0.0000 33.7703
#
#
#
# Elastic Compliance Matrix: (Units=1/GPa)
#
#
# Indices 1 2 3 4 5 6 
#
# 1 0.009172 -0.006489 -0.002480 0.000000 0.009377 0.000000
# 2 -0.006489 0.051613 -0.006881 0.000000 -0.001349 0.000000
# 3 -0.002480 -0.006881 0.008710 0.000000 0.008848 0.000000
# 4 0.000000 0.000000 0.000000 0.048819 0.000000 0.003397
# 5 0.009377 -0.001349 0.008848 0.000000 0.148476 0.000000
# 6 0.000000 0.000000 0.000000 0.003397 0.000000 0.029848
#
#
# Mechanical properties :
#
#
# Convention : Reuss Voigt Hill
#
# Bulk Modulus (GPa) = 26.45967 79.68748 53.07358
# Shear Modulus (GPa) = 14.66549 27.74919 21.20734
#
# Velocity S-wave (km/s) = 2.90022 3.98940 3.48759
# Velocity P-wave (km/s) = 5.13720 8.18075 6.83065
#
# Compressibility (1/GPa) = 0.03779337
#
# Stress axis : x y z
#
# Youngs Moduli (GPa) = 109.03288 19.37512 114.80867
#
# Poissons Ratio (x) = 0.12572 0.28475
# Poissons Ratio (y) = 0.70751 0.79003
# Poissons Ratio (z) = 0.27043 0.13333
#
# Static dielectric constant tensor:
#      x y z
#    x 1.565470 0.000000 0.009370 
#    y 0.000000 1.591300 0.000000 
#    z 0.009370 0.000000 1.587550 
# 
# From -- ./inp_files/30234.got.cif
#   From: 2010.05.17/outbox.cif.g08.bks.cpg/sg12_16_cif.got.tgz:30234.got - 2010.06.03 13:09:07.
