data_PCOD9205302
_publ_section_title
;
Structure prediction by ZEFSAII (Michael W. Deem and Ramdas Pophale) SiO2 
 PCOD9205302
Probable space group: C 2/M
;
_chemical_formula_sum "Si O2"
_cell_formula_units_Z 58
_cell_length_a 14.921246
_cell_length_b 19.237936
_cell_length_c 30.409430
_cell_angle_alpha 90.000000
_cell_angle_beta 158.903387
_cell_angle_gamma 90.000000
_cell_volume 3141.983911
_symmetry_space_group_name_H-M "C 2/M"
_symmetry_group_IT_number 12
_symmetry_cell_setting 'monoclinic'
loop_
_space_group_symop_operation_xyz
x,y,z
-x,y,-z
-x,-y,-z
x,-y,z
1/2+x,1/2+y,z
1/2-x,1/2+y,-z
1/2-x,1/2-y,-z
1/2+x,1/2-y,z
loop_
_atom_site_type_symbol
_atom_site_label
_atom_site_fract_x
_atom_site_fract_y
_atom_site_fract_z
Si Si1 0.401454 0.423670 0.570114
Si Si2 0.051045 0.644983 0.975425
Si Si3 0.356333 0.705031 0.277288
Si Si4 0.302713 0.228235 0.639731
Si Si5 0.948590 0.421439 0.428114
Si Si6 0.217095 0.424309 0.388317
Si Si7 0.000000 0.500000 0.000000
Si Si8 0.396825 0.309303 0.772247
O O1 0.529307 0.500000 0.627368
O O2 0.563768 0.355706 0.652370
O O3 0.246926 0.417877 0.454457
O O4 0.208026 0.424452 0.521598
O O5 0.846714 0.671415 0.847983
O O6 0.028135 0.562757 0.975476
O O7 0.327186 0.667456 0.088391
O O8 0.000000 0.678594 0.000000
O O9 0.582621 0.732410 0.350213
O O10 0.241341 0.767611 0.252686
O O11 0.390830 0.147730 0.678563
O O12 0.394257 0.263321 0.726550
O O13 0.000000 0.228811 0.500000
O O14 0.850261 0.500000 0.389034
O O15 0.758370 0.376728 0.313293
O O16 0.000000 0.391727 0.500000
O O17 0.500000 0.426944 0.500000
O O18 0.101425 0.500000 0.324973
#
# Coordination Sequence:
#
# PCOD9205302 Si02
#       8
#     8   8   8   8   8   8   2   8
#     4  10  21  35  53  83 118 151 190 236 289 351
#     4  10  23  41  62  88 114 155 200 249 306 355
#     4  12  23  38  59  88 122 157 197 253 302 359
#     4  11  21  35  58  87 118 159 197 237 298 367
#     4  10  22  36  55  85 123 158 190 239 300 358
#     4   9  18  33  51  75 109 148 188 229 273 334
#     4   8  20  40  68  84 110 150 198 256 304 366
#     4  12  23  38  60  88 120 158 203 249 303 362
#
# _framework density 18.459674
#
# number of rings (size 3 to 8) (size 9 to 14) (size 15 to 20)
#    0.414    1.103    1.379    4.966    1.931    1.655 
#    2.483    0.000    0.000    0.000    0.000    0.966 
#    0.000    0.000    0.000    0.000    0.000    0.000 
#
# Total GULP energy -161508.099736 kJ/mol
# GULP energy per Si atom -5569.244818 kJ/mol
# Density = 1.841766 g / cm^3
# Si number density = 18.459674 Si / 1000 Ang^3
#
#
#
# Elastic Constant Matrix: (Units=GPa)
#
#
# Indices 1 2 3 4 5 6 
#
# 1 79.2457 17.9520 0.3319 0.0054 7.6165 -0.0014
# 2 17.9520 137.5140 38.0451 0.0047 1.6289 0.0059
# 3 0.3319 38.0451 53.1535 0.0037 10.5982 -0.0050
# 4 0.0054 0.0047 0.0037 9.6962 -0.0026 -5.7932
# 5 7.6165 1.6289 10.5982 -0.0026 18.5714 -0.0005
# 6 -0.0014 0.0059 -0.0050 -5.7932 -0.0005 21.6849
#
#
#
# Elastic Compliance Matrix: (Units=1/GPa)
#
#
# Indices 1 2 3 4 5 6 
#
# 1 0.013906 -0.002630 0.003257 -0.000010 -0.007331 0.000000
# 2 -0.002630 0.009746 -0.007903 -0.000002 0.004734 -0.000005
# 3 0.003257 -0.007903 0.027734 -0.000010 -0.016469 0.000006
# 4 -0.000010 -0.000002 -0.000010 0.122722 0.000028 0.032786
# 5 -0.007331 0.004734 -0.016469 0.000028 0.065836 0.000003
# 6 0.000000 -0.000005 0.000006 0.032786 0.000003 0.054874
#
#
# Mechanical properties :
#
#
# Convention : Reuss Voigt Hill
#
# Bulk Modulus (GPa) = 27.14895 42.50791 34.82843
# Shear Modulus (GPa) = 15.54505 24.22943 19.88724
#
# Velocity S-wave (km/s) = 2.90506 3.62686 3.28584
# Velocity P-wave (km/s) = 5.09819 6.37309 5.77095
#
# Compressibility (1/GPa) = 0.03683384
#
# Stress axis : x y z
#
# Youngs Moduli (GPa) = 71.91321 102.60978 36.05744
#
# Poissons Ratio (x) = 0.26982 -0.11744
# Poissons Ratio (y) = 0.18910 0.28496
# Poissons Ratio (z) = -0.23423 0.81092
#
# Static dielectric constant tensor:
#      x y z
#    x 1.608750 -0.000010 0.001740 
#    y -0.000010 1.688260 -0.000010 
#    z 0.001740 -0.000010 1.619560 
# 
# From -- ./inp_files/377044.got.cif
#   From: 2010.05.17/outbox.cif.g08.bks.cpg/sg12_189_cif.got.tgz:377044.got - 2010.06.03 13:09:07.
