data_PCOD9205168
_publ_section_title
;
Structure prediction by ZEFSAII (Michael W. Deem and Ramdas Pophale) SiO2 
 PCOD9205168
Probable space group: C 2/M
;
_chemical_formula_sum "Si O2"
_cell_formula_units_Z 56
_cell_length_a 31.940458
_cell_length_b 9.122377
_cell_length_c 12.943037
_cell_angle_alpha 90.000000
_cell_angle_beta 124.195646
_cell_angle_gamma 90.000000
_cell_volume 3119.288871
_symmetry_space_group_name_H-M "C 2/M"
_symmetry_group_IT_number 12
_symmetry_cell_setting 'monoclinic'
loop_
_space_group_symop_operation_xyz
x,y,z
-x,y,-z
-x,-y,-z
x,-y,z
1/2+x,1/2+y,z
1/2-x,1/2+y,-z
1/2-x,1/2-y,-z
1/2+x,1/2-y,z
loop_
_atom_site_type_symbol
_atom_site_label
_atom_site_fract_x
_atom_site_fract_y
_atom_site_fract_z
Si Si1 0.101872 0.675166 0.552374
Si Si2 0.185694 0.324238 0.502178
Si Si3 0.708641 0.823500 0.303559
Si Si4 0.111561 0.172821 0.775852
Si Si5 0.518654 0.826281 0.911866
Si Si6 0.364366 0.825610 0.982638
Si Si7 0.006367 0.827504 0.329902
O O1 0.099044 0.500000 0.557197
O O2 0.137641 0.714352 0.505056
O O3 0.123924 0.743766 0.687623
O O4 0.046764 0.741637 0.454211
O O5 0.192102 0.500000 0.516990
O O6 0.236195 0.248004 0.614831
O O7 0.181569 0.285686 0.375084
O O8 0.675895 0.778147 0.159344
O O9 0.713377 0.000000 0.306950
O O10 0.051189 0.193584 0.711434
O O11 0.121296 0.000000 0.780406
O O12 0.138471 0.240017 0.913643
O O13 0.492431 0.735254 0.784677
O O14 0.508275 0.000000 0.881675
O O15 0.500000 0.786470 0.000000
O O16 0.578954 0.804480 0.983770
O O17 0.358500 0.000000 0.993125
O O18 0.017561 0.000000 0.348436
#
# Coordination Sequence:
#
# PCOD9205168 Si02
#       7
#     8   8   8   8   8   8   8
#     4  11  22  35  56  80 106 139 181 224 263 313
#     4   9  20  36  55  81 109 135 171 220 267 315
#     4   9  18  35  58  80 107 138 171 215 266 318
#     4  10  21  37  54  76 109 143 178 220 264 313
#     4   9  18  31  51  77 107 142 178 216 258 311
#     4   9  18  33  55  79 104 139 179 215 260 316
#     4  10  21  35  51  75 109 145 178 217 265 312
#
# _framework density 17.952808999999998
#
# number of rings (size 3 to 8) (size 9 to 14) (size 15 to 20)
#    0.000    2.429    0.000    1.714    2.000    5.429 
#    0.000    0.714    0.000    0.000    0.000    0.000 
#    0.000    0.000    0.000    0.000    0.000    0.000 
#
# Total GULP energy -156266.256478 kJ/mol
# GULP energy per Si atom -5580.937731 kJ/mol
# Density = 1.791195 g / cm^3
# Si number density = 17.952809 Si / 1000 Ang^3
#
#
#
# Elastic Constant Matrix: (Units=GPa)
#
#
# Indices 1 2 3 4 5 6 
#
# 1 24.6934 25.2707 21.6811 0.0000 -6.2041 0.0000
# 2 25.2707 38.6419 43.6072 0.0000 -2.3042 0.0000
# 3 21.6811 43.6072 131.6926 0.0000 1.4693 0.0000
# 4 0.0000 0.0000 0.0000 30.4803 0.0000 2.9975
# 5 -6.2041 -2.3042 1.4693 0.0000 15.8541 0.0000
# 6 0.0000 0.0000 0.0000 2.9975 0.0000 18.6224
#
#
#
# Elastic Compliance Matrix: (Units=1/GPa)
#
#
# Indices 1 2 3 4 5 6 
#
# 1 0.156856 -0.112169 0.010827 0.000000 0.044076 0.000000
# 2 -0.112169 0.122388 -0.021791 0.000000 -0.024087 0.000000
# 3 0.010827 -0.021791 0.013028 0.000000 -0.000138 0.000000
# 4 0.000000 0.000000 0.000000 0.033336 0.000000 -0.005366
# 5 0.044076 -0.024087 -0.000138 0.000000 0.076835 0.000000
# 6 0.000000 0.000000 0.000000 -0.005366 0.000000 0.054562
#
#
# Mechanical properties :
#
#
# Convention : Reuss Voigt Hill
#
# Bulk Modulus (GPa) = 21.73611 41.79399 31.76505
# Shear Modulus (GPa) = 6.95791 19.95597 13.45694
#
# Velocity S-wave (km/s) = 1.97081 3.33765 2.74080
# Velocity P-wave (km/s) = 4.16082 6.17930 5.26764
#
# Compressibility (1/GPa) = 0.04600640
#
# Stress axis : x y z
#
# Youngs Moduli (GPa) = 6.37527 8.17071 76.75761
#
# Poissons Ratio (x) = 0.91650 -0.83104
# Poissons Ratio (y) = 0.71511 1.67260
# Poissons Ratio (z) = -0.06902 0.17805
#
# Static dielectric constant tensor:
#      x y z
#    x 1.604240 0.000000 -0.012140 
#    y 0.000000 1.595160 0.000000 
#    z -0.012140 0.000000 1.602820 
# 
# From -- ./inp_files/181149.got.cif
#   From: 2010.05.17/outbox.cif.g08.bks.cpg/sg12_91_cif.got.tgz:181149.got - 2010.06.03 13:09:07.
