data_PCOD9205290
_publ_section_title
;
Structure prediction by ZEFSAII (Michael W. Deem and Ramdas Pophale) SiO2 
 PCOD9205290
Probable space group: C 2/M
;
_chemical_formula_sum "Si O2"
_cell_formula_units_Z 44
_cell_length_a 28.582336
_cell_length_b 13.922119
_cell_length_c 12.944280
_cell_angle_alpha 90.000000
_cell_angle_beta 152.260019
_cell_angle_gamma 90.000000
_cell_volume 2397.524766
_symmetry_space_group_name_H-M "C 2/M"
_symmetry_group_IT_number 12
_symmetry_cell_setting 'monoclinic'
loop_
_space_group_symop_operation_xyz
x,y,z
-x,y,-z
-x,-y,-z
x,-y,z
1/2+x,1/2+y,z
1/2-x,1/2+y,-z
1/2-x,1/2-y,-z
1/2+x,1/2-y,z
loop_
_atom_site_type_symbol
_atom_site_label
_atom_site_fract_x
_atom_site_fract_y
_atom_site_fract_z
Si Si1 0.500801 0.500000 0.378149
Si Si2 0.131396 0.665013 0.976806
Si Si3 0.308311 0.198510 0.365130
Si Si4 0.966221 0.611519 0.818872
Si Si5 0.384021 0.000000 0.226486
Si Si6 0.972914 0.205994 0.566522
Si Si7 0.234313 0.000000 0.131825
O O1 0.500000 0.500000 0.500000
O O2 0.552211 0.598680 0.445526
O O3 0.383766 0.500000 0.121645
O O4 0.232772 0.711548 0.219891
O O5 0.135462 0.591266 0.887864
O O6 0.069995 0.756538 0.815242
O O7 0.061649 0.619102 0.928772
O O8 0.379710 0.179741 0.603175
O O9 0.383504 0.222358 0.417525
O O10 0.258403 0.096818 0.241441
O O11 0.932267 0.500000 0.752289
O O12 0.000000 0.637393 0.000000
O O13 0.500000 0.000000 0.500000
O O14 0.304725 0.000000 0.166270
O O15 0.000000 0.205393 0.500000
#
# Coordination Sequence:
#
# PCOD9205290 Si02
#       7
#     4   8   8   8   4   8   4
#     4  10  22  36  50  78 118 162 197 226 274 330
#     4  11  22  37  58  90 112 152 197 241 287 341
#     4  11  23  37  60  88 114 152 200 238 288 344
#     4  10  21  42  65  84 111 146 189 247 308 355
#     4  12  24  36  56  87 129 158 198 240 277 328
#     4  10  21  35  53  80 121 158 192 233 276 332
#     4  12  22  38  58  83 119 166 196 229 274 337
#
# _framework density 18.352260999999999
#
# number of rings (size 3 to 8) (size 9 to 14) (size 15 to 20)
#    0.000    1.273    3.636    3.818    5.091    2.182 
#    0.000    0.000    0.000    0.000    0.000    3.818 
#    0.000    0.000    0.000    0.000    0.000    0.000 
#
# Total GULP energy -122687.109962 kJ/mol
# GULP energy per Si atom -5576.686816 kJ/mol
# Density = 1.831049 g / cm^3
# Si number density = 18.352261 Si / 1000 Ang^3
#
#
#
# Elastic Constant Matrix: (Units=GPa)
#
#
# Indices 1 2 3 4 5 6 
#
# 1 37.3729 -1.0003 23.0288 0.0000 -17.3815 0.0000
# 2 -1.0003 99.8552 38.8831 0.0000 -11.9588 0.0000
# 3 23.0288 38.8831 107.4839 0.0000 -5.7746 0.0000
# 4 0.0000 0.0000 0.0000 25.4137 0.0000 -15.3776
# 5 -17.3815 -11.9588 -5.7746 0.0000 23.4744 0.0000
# 6 0.0000 0.0000 0.0000 -15.3776 0.0000 -5.8992
#
#
#
# Elastic Compliance Matrix: (Units=1/GPa)
#
#
# Indices 1 2 3 4 5 6 
#
# 1 0.055659 0.011059 -0.013589 0.000000 0.043504 0.000000
# 2 0.011059 0.014455 -0.006854 0.000000 0.013866 0.000000
# 3 -0.013589 -0.006854 0.014153 0.000000 -0.010071 0.000000
# 4 0.000000 0.000000 0.000000 0.015267 0.000000 -0.039798
# 5 0.043504 0.013866 -0.010071 0.000000 0.079398 0.000000
# 6 0.000000 0.000000 0.000000 -0.039798 0.000000 -0.065772
#
#
# Mechanical properties :
#
#
# Convention : Reuss Voigt Hill
#
# Bulk Modulus (GPa) = 15.26694 40.72615 27.99655
# Shear Modulus (GPa) = 32.51792 20.85114 26.68453
#
# Velocity S-wave (km/s) = 4.21393 3.37436 3.81730
# Velocity P-wave (km/s) = 5.65802 6.11729 5.89213
#
# Compressibility (1/GPa) = 0.06550100
#
# Stress axis : x y z
#
# Youngs Moduli (GPa) = 17.96642 69.18179 70.65456
#
# Poissons Ratio (x) = -0.76508 0.96010
# Poissons Ratio (y) = -0.19869 0.48423
# Poissons Ratio (z) = 0.24414 0.47414
#
# Static dielectric constant tensor:
#      x y z
#    x 1.606480 0.000000 0.014830 
#    y 0.000000 1.670840 0.000000 
#    z 0.014830 0.000000 1.660390 
# 
# From -- ./inp_files/183404.got.cif
#   From: 2010.05.17/outbox.cif.g08.bks.cpg/sg12_92_cif.got.tgz:183404.got - 2010.06.03 13:09:07.
