data_PCOD9205404
_publ_section_title
;
Structure prediction by ZEFSAII (Michael W. Deem and Ramdas Pophale) SiO2 
 PCOD9205404
Probable space group: C 2/M
;
_chemical_formula_sum "Si O2"
_cell_formula_units_Z 56
_cell_length_a 20.830708
_cell_length_b 19.744858
_cell_length_c 11.338161
_cell_angle_alpha 90.000000
_cell_angle_beta 145.794923
_cell_angle_gamma 90.000000
_cell_volume 2621.549295
_symmetry_space_group_name_H-M "C 2/M"
_symmetry_group_IT_number 12
_symmetry_cell_setting 'monoclinic'
loop_
_space_group_symop_operation_xyz
x,y,z
-x,y,-z
-x,-y,-z
x,-y,z
1/2+x,1/2+y,z
1/2-x,1/2+y,-z
1/2-x,1/2-y,-z
1/2+x,1/2-y,z
loop_
_atom_site_type_symbol
_atom_site_label
_atom_site_fract_x
_atom_site_fract_y
_atom_site_fract_z
Si Si1 0.673858 0.638970 0.684236
Si Si2 0.086022 0.828099 0.787115
Si Si3 0.744220 0.287533 0.234416
Si Si4 0.602460 0.295611 0.243488
Si Si5 0.983609 0.304917 0.680194
Si Si6 0.722150 0.575134 0.527295
Si Si7 0.476387 0.921602 0.832691
O O1 0.544722 0.647172 0.433517
O O2 0.654813 0.629140 0.794216
O O3 0.736030 0.711261 0.778044
O O4 0.738471 0.589463 0.692366
O O5 0.068783 0.746095 0.741754
O O6 0.154967 0.827562 0.015626
O O7 0.700540 0.274750 0.301350
O O8 0.869857 0.319928 0.432548
O O9 0.559456 0.241489 0.273848
O O10 0.644227 0.364504 0.364632
O O11 0.500000 0.309701 0.000000
O O12 0.024058 0.373680 0.803002
O O13 0.673650 0.500000 0.440376
O O14 0.838115 0.578556 0.627293
O O15 0.513882 0.000000 0.883142
O O16 0.500000 0.893977 0.000000
#
# Coordination Sequence:
#
# PCOD9205404 Si02
#       7
#     8   8   8   8   8   8   8
#     4  10  21  38  54  80 115 142 193 231 274 332
#     4  10  21  35  55  83 113 141 186 239 276 323
#     4  11  19  33  55  83 110 143 176 238 286 324
#     4  12  20  34  56  84 112 141 188 235 286 336
#     4  11  20  32  58  83 113 145 183 231 283 326
#     4  11  22  38  57  81 115 150 183 230 281 337
#     4  10  22  36  54  84 116 149 185 222 277 335
#
# _framework density 21.361415000000001
#
# number of rings (size 3 to 8) (size 9 to 14) (size 15 to 20)
#    0.000    1.286    5.714    2.143    2.000    0.286 
#    0.000    1.429    0.000    1.714    0.000    9.000 
#    0.000    0.000    0.000    0.000    0.000    0.000 
#
# Total GULP energy -156060.194934 kJ/mol
# GULP energy per Si atom -5573.578390 kJ/mol
# Density = 2.131280 g / cm^3
# Si number density = 21.361415 Si / 1000 Ang^3
#
#
#
# Elastic Constant Matrix: (Units=GPa)
#
#
# Indices 1 2 3 4 5 6 
#
# 1 62.7874 -0.2668 -4.5964 0.0000 -12.1569 0.0000
# 2 -0.2668 49.8843 6.1260 0.0000 0.7005 0.0000
# 3 -4.5964 6.1260 86.1887 0.0000 -14.9717 0.0000
# 4 0.0000 0.0000 0.0000 18.5757 0.0000 -1.9980
# 5 -12.1569 0.7005 -14.9717 0.0000 19.4349 0.0000
# 6 0.0000 0.0000 0.0000 -1.9980 0.0000 12.7393
#
#
#
# Elastic Compliance Matrix: (Units=1/GPa)
#
#
# Indices 1 2 3 4 5 6 
#
# 1 0.019036 -0.000548 0.003609 0.000000 0.014707 0.000000
# 2 -0.000548 0.020315 -0.001916 0.000000 -0.002551 0.000000
# 3 0.003609 -0.001916 0.014241 0.000000 0.013297 0.000000
# 4 0.000000 0.000000 0.000000 0.054758 0.000000 0.008588
# 5 0.014707 -0.002551 0.013297 0.000000 0.070989 0.000000
# 6 0.000000 0.000000 0.000000 0.008588 0.000000 0.079844
#
#
# Mechanical properties :
#
#
# Convention : Reuss Voigt Hill
#
# Bulk Modulus (GPa) = 17.89507 22.37622 20.13564
# Shear Modulus (GPa) = 18.14751 23.32316 20.73534
#
# Velocity S-wave (km/s) = 2.91786 3.30788 3.11897
# Velocity P-wave (km/s) = 4.44380 5.00871 4.73469
#
# Compressibility (1/GPa) = 0.05588131
#
# Stress axis : x y z
#
# Youngs Moduli (GPa) = 52.53128 49.22568 70.22014
#
# Poissons Ratio (x) = 0.02697 -0.25342
# Poissons Ratio (y) = 0.02878 0.13456
# Poissons Ratio (z) = -0.18958 0.09433
#
# Static dielectric constant tensor:
#      x y z
#    x 1.887120 0.000000 0.027200 
#    y 0.000000 1.740570 0.000000 
#    z 0.027200 0.000000 1.849740 
# 
# From -- ./inp_files/177929.got.cif
#   From: 2010.05.17/outbox.cif.g08.bks.cpg/sg12_89_cif.got.tgz:177929.got - 2010.06.03 13:09:07.
