data_PCOD9205929
_publ_section_title
;
Structure prediction by ZEFSAII (Michael W. Deem and Ramdas Pophale) SiO2 
 PCOD9205929
Probable space group: C 2/M
;
_chemical_formula_sum "Si O2"
_cell_formula_units_Z 64
_cell_length_a 16.256159
_cell_length_b 14.530606
_cell_length_c 18.639825
_cell_angle_alpha 90.000000
_cell_angle_beta 52.757526
_cell_angle_gamma 90.000000
_cell_volume 3505.104975
_symmetry_space_group_name_H-M "C 2/M"
_symmetry_group_IT_number 12
_symmetry_cell_setting 'monoclinic'
loop_
_space_group_symop_operation_xyz
x,y,z
-x,y,-z
-x,-y,-z
x,-y,z
1/2+x,1/2+y,z
1/2-x,1/2+y,-z
1/2-x,1/2-y,-z
1/2+x,1/2-y,z
loop_
_atom_site_type_symbol
_atom_site_label
_atom_site_fract_x
_atom_site_fract_y
_atom_site_fract_z
Si Si1 0.253156 0.701419 0.157271
Si Si2 0.947915 0.894850 0.334560
Si Si3 0.879392 0.401874 0.578249
Si Si4 0.628487 0.393091 0.032824
Si Si5 0.606235 0.610302 0.797651
Si Si6 0.632496 0.229188 0.542532
Si Si7 0.948111 0.392338 0.701108
Si Si8 0.811012 0.897813 0.835896
O O1 0.312648 0.661302 0.195030
O O2 0.135321 0.662970 0.207323
O O3 0.246611 0.811131 0.166151
O O4 0.319506 0.669490 0.053985
O O5 0.893498 0.866235 0.287604
O O6 0.924071 0.825479 0.411454
O O7 0.069781 0.894399 0.252902
O O8 0.917667 0.000000 0.366471
O O9 0.827616 0.500000 0.585685
O O10 0.854881 0.314874 0.542854
O O11 0.883775 0.390661 0.660462
O O12 0.000000 0.412872 0.500000
O O13 0.633558 0.500000 0.005864
O O14 0.508655 0.371061 0.111468
O O15 0.684358 0.387294 0.080333
O O16 0.621815 0.500000 0.794200
O O17 0.750000 0.250000 0.500000
O O18 0.558310 0.157388 0.626629
O O19 0.962068 0.500000 0.713576
O O20 0.770716 0.000000 0.840006
#
# Coordination Sequence:
#
# PCOD9205929 Si02
#       8
#     8   8   8   8   8   8   8   8
#     4  12  19  30  57  87 108 139 177 217 266 316
#     4   9  19  37  54  74 103 141 184 219 256 312
#     4   8  17  35  55  75 104 133 160 210 277 325
#     4   9  18  33  53  83 115 140 172 215 263 311
#     4   9  19  33  53  82 114 139 171 220 267 310
#     4  11  21  33  53  76 102 138 176 213 263 327
#     4  10  21  36  54  83 112 133 168 224 279 320
#     4   9  19  36  54  74 108 147 180 215 252 307
#
# _framework density 18.259083
#
# number of rings (size 3 to 8) (size 9 to 14) (size 15 to 20)
#    0.000    2.375    1.250    4.500    1.750    2.000 
#    0.000    0.000    0.000    7.125    0.000    0.000 
#    0.000    0.000    0.000    0.000    0.000    0.000 
#
# Total GULP energy -178143.417866 kJ/mol
# GULP energy per Si atom -5566.981808 kJ/mol
# Density = 1.821752 g / cm^3
# Si number density = 18.259083 Si / 1000 Ang^3
#
#
#
# Elastic Constant Matrix: (Units=GPa)
#
#
# Indices 1 2 3 4 5 6 
#
# 1 50.1451 31.6359 9.4454 0.0000 -7.3446 0.0000
# 2 31.6359 99.9422 30.2301 0.0000 -7.5081 0.0000
# 3 9.4454 30.2301 49.9607 0.0000 -13.8593 0.0000
# 4 0.0000 0.0000 0.0000 -45.5600 0.0000 12.5272
# 5 -7.3446 -7.5081 -13.8593 0.0000 17.5618 0.0000
# 6 0.0000 0.0000 0.0000 12.5272 0.0000 29.2333
#
#
#
# Elastic Compliance Matrix: (Units=1/GPa)
#
#
# Indices 1 2 3 4 5 6 
#
# 1 0.026107 -0.008390 0.002784 0.000000 0.009529 0.000000
# 2 -0.008390 0.014952 -0.008528 0.000000 -0.003847 0.000000
# 3 0.002784 -0.008528 0.030677 0.000000 0.021728 0.000000
# 4 0.000000 0.000000 0.000000 -0.019635 0.000000 0.008414
# 5 0.009529 -0.003847 0.021728 0.000000 0.076429 0.000000
# 6 0.000000 0.000000 0.000000 0.008414 0.000000 0.030602
#
#
# Mechanical properties :
#
#
# Convention : Reuss Voigt Hill
#
# Bulk Modulus (GPa) = 23.00555 38.07453 30.54004
# Shear Modulus (GPa) = 24.76617 8.82946 16.79782
#
# Velocity S-wave (km/s) = 3.68690 2.20140 3.03639
# Velocity P-wave (km/s) = 5.54537 5.23060 5.39028
#
# Compressibility (1/GPa) = 0.04346777
#
# Stress axis : x y z
#
# Youngs Moduli (GPa) = 38.30453 66.87976 32.59783
#
# Poissons Ratio (x) = 0.56113 -0.09076
# Poissons Ratio (y) = 0.32138 0.27800
# Poissons Ratio (z) = -0.10665 0.57036
#
# Static dielectric constant tensor:
#      x y z
#    x 1.643490 0.000000 0.014410 
#    y 0.000000 1.712950 0.000000 
#    z 0.014410 0.000000 1.784720 
# 
# From -- ./inp_files/270276.got.cif
#   From: 2010.05.17/outbox.cif.g08.bks.cpg/sg12_136_cif.got.tgz:270276.got - 2010.06.03 13:09:07.
