data_PCOD9205989
_publ_section_title
;
Structure prediction by ZEFSAII (Michael W. Deem and Ramdas Pophale) SiO2 
 PCOD9205989
Probable space group: C 2/M
;
_chemical_formula_sum "Si O2"
_cell_formula_units_Z 64
_cell_length_a 15.737443
_cell_length_b 8.770609
_cell_length_c 32.037573
_cell_angle_alpha 90.000000
_cell_angle_beta 41.971401
_cell_angle_gamma 90.000000
_cell_volume 2957.287507
_symmetry_space_group_name_H-M "C 2/M"
_symmetry_group_IT_number 12
_symmetry_cell_setting 'monoclinic'
loop_
_space_group_symop_operation_xyz
x,y,z
-x,y,-z
-x,-y,-z
x,-y,z
1/2+x,1/2+y,z
1/2-x,1/2+y,-z
1/2-x,1/2-y,-z
1/2+x,1/2-y,z
loop_
_atom_site_type_symbol
_atom_site_label
_atom_site_fract_x
_atom_site_fract_y
_atom_site_fract_z
Si Si1 0.445286 0.826835 0.254613
Si Si2 0.712047 0.184339 0.969673
Si Si3 0.429423 0.814557 0.645442
Si Si4 0.669175 0.677990 0.782344
Si Si5 0.314372 0.678655 0.602356
Si Si6 0.947003 0.326683 0.094357
Si Si7 0.326296 0.674808 0.846167
Si Si8 0.794915 0.183469 0.439367
O O1 0.411366 0.715742 0.229279
O O2 0.332349 0.814242 0.328521
O O3 0.585726 0.775808 0.215696
O O4 0.446307 0.000000 0.239204
O O5 0.563428 0.228119 0.023356
O O6 0.721822 0.000000 0.963496
O O7 0.750000 0.250000 0.000000
O O8 0.808529 0.241339 0.899080
O O9 0.310342 0.763427 0.718109
O O10 0.395957 0.755118 0.610292
O O11 0.560209 0.746895 0.615808
O O12 0.435843 0.000000 0.642082
O O13 0.683184 0.500000 0.783354
O O14 0.592542 0.741171 0.849408
O O15 0.350514 0.500000 0.585261
O O16 0.300937 0.758558 0.562188
O O17 0.980029 0.500000 0.094377
O O18 0.818307 0.328724 0.115519
O O19 0.371765 0.500000 0.829154
O O20 0.750000 0.250000 0.500000
O O21 0.795990 0.000000 0.438837
#
# Coordination Sequence:
#
# PCOD9205989 Si02
#       8
#     8   8   8   8   8   8   8   8
#     4  10  21  37  59  86 118 153 194 244 297 355
#     4  10  21  37  55  75 105 146 193 242 296 352
#     4  10  22  42  66  95 131 170 213 263 316 372
#     4  10  21  37  59  86 118 153 194 244 297 355
#     4  10  22  42  66  95 131 170 213 263 316 372
#     4  10  21  36  55  80 111 149 192 241 296 357
#     4  10  21  36  55  80 111 149 192 241 296 357
#     4  12  26  44  68  98 132 171 214 259 310 372
#
# _framework density 21.641454
#
# number of rings (size 3 to 8) (size 9 to 14) (size 15 to 20)
#    0.000    1.750    0.000    3.750    1.750    8.500 
#    0.000    2.500    0.000    2.250    0.000    0.000 
#    0.000    0.000    0.000    0.000    0.000    0.000 
#
# Total GULP energy -178545.178763 kJ/mol
# GULP energy per Si atom -5579.536836 kJ/mol
# Density = 2.159220 g / cm^3
# Si number density = 21.641454 Si / 1000 Ang^3
#
#
#
# Elastic Constant Matrix: (Units=GPa)
#
#
# Indices 1 2 3 4 5 6 
#
# 1 50.4919 8.8183 -8.8145 0.0008 9.3791 0.0020
# 2 8.8183 50.1946 4.6545 0.0023 6.9430 0.0039
# 3 -8.8145 4.6545 40.3403 0.0002 2.1507 0.0009
# 4 0.0008 0.0023 0.0002 26.7285 0.0001 -1.4632
# 5 9.3791 6.9430 2.1507 0.0001 38.7281 0.0008
# 6 0.0020 0.0039 0.0009 -1.4632 0.0008 26.4725
#
#
#
# Elastic Compliance Matrix: (Units=1/GPa)
#
#
# Indices 1 2 3 4 5 6 
#
# 1 0.022376 -0.003750 0.005591 0.000000 -0.005057 -0.000001
# 2 -0.003750 0.021248 -0.003126 -0.000002 -0.002728 -0.000003
# 3 0.005591 -0.003126 0.026492 0.000000 -0.002265 -0.000001
# 4 0.000000 -0.000002 0.000000 0.037527 0.000000 0.002074
# 5 -0.005057 -0.002728 -0.002265 0.000000 0.027661 0.000000
# 6 -0.000001 -0.000003 -0.000001 0.002074 0.000000 0.037890
#
#
# Mechanical properties :
#
#
# Convention : Reuss Voigt Hill
#
# Bulk Modulus (GPa) = 14.80430 16.70481 15.75456
# Shear Modulus (GPa) = 25.21717 27.47704 26.34710
#
# Velocity S-wave (km/s) = 3.41724 3.56708 3.49296
# Velocity P-wave (km/s) = 4.73557 4.97001 4.85421
#
# Compressibility (1/GPa) = 0.06754792
#
# Stress axis : x y z
#
# Youngs Moduli (GPa) = 44.69160 47.06238 37.74687
#
# Poissons Ratio (x) = 0.17648 -0.21106
# Poissons Ratio (y) = 0.16759 0.11798
# Poissons Ratio (z) = -0.24989 0.14710
#
# Static dielectric constant tensor:
#      x y z
#    x 1.892080 0.000010 -0.082060 
#    y 0.000010 1.365530 -0.000020 
#    z -0.082060 -0.000020 1.972630 
# 
# From -- ./inp_files/375370.got.cif
#   From: 2010.05.17/outbox.cif.g08.bks.cpg/sg12_188_cif.got.tgz:375370.got - 2010.06.03 13:09:07.
