data_PCOD9205004
_publ_section_title
;
Structure prediction by ZEFSAII (Michael W. Deem and Ramdas Pophale) SiO2 
 PCOD9205004
Probable space group: C 2/M
;
_chemical_formula_sum "Si O2"
_cell_formula_units_Z 48
_cell_length_a 29.652792
_cell_length_b 23.280825
_cell_length_c 12.864380
_cell_angle_alpha 90.000000
_cell_angle_beta 162.701840
_cell_angle_gamma 90.000000
_cell_volume 2640.658911
_symmetry_space_group_name_H-M "C 2/M"
_symmetry_group_IT_number 12
_symmetry_cell_setting 'monoclinic'
loop_
_space_group_symop_operation_xyz
x,y,z
-x,y,-z
-x,-y,-z
x,-y,z
1/2+x,1/2+y,z
1/2-x,1/2+y,-z
1/2-x,1/2-y,-z
1/2+x,1/2-y,z
loop_
_atom_site_type_symbol
_atom_site_label
_atom_site_fract_x
_atom_site_fract_y
_atom_site_fract_z
Si Si1 0.993850 0.706810 0.863141
Si Si2 0.889392 0.606205 0.165121
Si Si3 0.154070 0.000000 0.977822
Si Si4 0.195641 0.000000 0.820166
Si Si5 0.668241 0.708317 0.904121
Si Si6 0.845877 0.609232 0.404087
Si Si7 0.255577 0.790526 0.750035
O O1 0.900308 0.651749 0.615093
O O2 0.907829 0.763639 0.631541
O O3 0.000000 0.707807 0.000000
O O4 0.155474 0.703175 0.162133
O O5 0.000000 0.630151 0.500000
O O6 0.005470 0.586910 0.329779
O O7 0.792062 0.554928 0.997564
O O8 0.777121 0.652368 0.865720
O O9 0.178138 0.000000 0.905863
O O10 0.974013 0.000000 0.600005
O O11 0.238126 0.057517 0.200930
O O12 0.500000 0.693321 0.500000
O O13 0.750000 0.750000 0.000000
O O14 0.760151 0.651053 0.133674
O O15 0.659050 0.743945 0.990503
#
# Coordination Sequence:
#
# PCOD9205004 Si02
#       7
#     8   8   4   4   8   8   8
#     4  10  21  39  58  83 108 143 190 241 286 325
#     4  11  19  34  53  80 112 152 184 215 267 333
#     4  11  23  38  50  83 112 147 189 222 281 323
#     4  11  24  33  56  78 116 154 181 225 264 336
#     4  11  21  33  52  82 119 153 181 223 273 341
#     4  10  22  35  55  78 111 147 186 229 272 335
#     4  10  21  34  56  82 111 146 185 228 280 335
#
# _framework density 18.177282000000002
#
# number of rings (size 3 to 8) (size 9 to 14) (size 15 to 20)
#    0.000    1.500    1.667    5.750    2.333    2.667 
#    0.000    0.417    0.000    0.000    0.000    5.250 
#    0.000    0.000    0.000    0.000    0.000    0.000 
#
# Total GULP energy -133993.691636 kJ/mol
# GULP energy per Si atom -5583.070485 kJ/mol
# Density = 1.813591 g / cm^3
# Si number density = 18.177282 Si / 1000 Ang^3
#
#
#
# Elastic Constant Matrix: (Units=GPa)
#
#
# Indices 1 2 3 4 5 6 
#
# 1 84.0634 20.9079 19.3888 0.0000 -4.8466 0.0000
# 2 20.9079 82.6298 27.6435 0.0000 10.6567 0.0000
# 3 19.3888 27.6435 66.4467 0.0000 5.4844 0.0000
# 4 0.0000 0.0000 0.0000 20.3000 0.0000 3.2559
# 5 -4.8466 10.6567 5.4844 0.0000 19.1033 0.0000
# 6 0.0000 0.0000 0.0000 3.2559 0.0000 10.7051
#
#
#
# Elastic Compliance Matrix: (Units=1/GPa)
#
#
# Indices 1 2 3 4 5 6 
#
# 1 0.013793 -0.003222 -0.003197 0.000000 0.006215 0.000000
# 2 -0.003222 0.015596 -0.004878 0.000000 -0.008117 0.000000
# 3 -0.003197 -0.004878 0.018288 0.000000 -0.003340 0.000000
# 4 0.000000 0.000000 0.000000 0.051787 0.000000 -0.015751
# 5 0.006215 -0.008117 -0.003340 0.000000 0.059411 0.000000
# 6 0.000000 0.000000 0.000000 -0.015751 0.000000 0.098204
#
#
# Mechanical properties :
#
#
# Convention : Reuss Voigt Hill
#
# Bulk Modulus (GPa) = 39.86920 41.00226 40.43573
# Shear Modulus (GPa) = 17.35903 21.03500 19.19701
#
# Velocity S-wave (km/s) = 3.09364 3.40548 3.25329
# Velocity P-wave (km/s) = 5.89423 6.17000 6.03369
#
# Compressibility (1/GPa) = 0.02508202
#
# Stress axis : x y z
#
# Youngs Moduli (GPa) = 72.50137 64.11770 54.68128
#
# Poissons Ratio (x) = 0.20658 0.17483
# Poissons Ratio (y) = 0.23359 0.26675
# Poissons Ratio (z) = 0.23180 0.31279
#
# Static dielectric constant tensor:
#      x y z
#    x 1.617890 0.000000 0.016210 
#    y 0.000000 1.631670 0.000000 
#    z 0.016210 0.000000 1.635060 
# 
# From -- ./inp_files/122475.got.cif
#   From: 2010.05.17/outbox.cif.g08.bks.cpg/sg12_62_cif.got.tgz:122475.got - 2010.06.03 13:09:07.
