data_PCOD9205602
_publ_section_title
;
Structure prediction by ZEFSAII (Michael W. Deem and Ramdas Pophale) SiO2 
 PCOD9205602
Probable space group: C 2/M
;
_chemical_formula_sum "Si O2"
_cell_formula_units_Z 36
_cell_length_a 11.837843
_cell_length_b 19.077822
_cell_length_c 12.382191
_cell_angle_alpha 90.000000
_cell_angle_beta 143.750242
_cell_angle_gamma 90.000000
_cell_volume 1653.527152
_symmetry_space_group_name_H-M "C 2/M"
_symmetry_group_IT_number 12
_symmetry_cell_setting 'monoclinic'
loop_
_space_group_symop_operation_xyz
x,y,z
-x,y,-z
-x,-y,-z
x,-y,z
1/2+x,1/2+y,z
1/2-x,1/2+y,-z
1/2-x,1/2-y,-z
1/2+x,1/2-y,z
loop_
_atom_site_type_symbol
_atom_site_label
_atom_site_fract_x
_atom_site_fract_y
_atom_site_fract_z
Si Si1 0.272078 0.834082 0.522752
Si Si2 0.231775 0.421699 0.688495
Si Si3 0.500000 0.664333 0.500000
Si Si4 0.728901 0.848733 0.906458
Si Si5 0.803621 0.304211 0.898674
O O1 0.250000 0.750000 0.500000
O O2 0.212742 0.867547 0.362526
O O3 0.497234 0.844730 0.719083
O O4 0.143351 0.867365 0.520070
O O5 0.302859 0.500000 0.720957
O O6 0.283869 0.398685 0.850254
O O7 0.000000 0.423213 0.500000
O O8 0.354491 0.706740 0.314068
O O9 0.829258 0.773734 0.964107
O O10 0.762940 0.858187 0.060232
O O11 0.000000 0.329544 0.000000
#
# Coordination Sequence:
#
# PCOD9205602 Si02
#       5
#     8   8   4   8   8
#     4  11  20  34  61  93 125 162 207 256 314 365
#     4   9  20  38  62  91 126 167 210 254 311 377
#     4  12  22  36  57  88 125 162 198 260 318 364
#     4  10  21  35  58  90 125 162 206 256 314 366
#     4  11  22  35  57  94 129 157 201 263 319 363
#
# _framework density 21.771642
#
# number of rings (size 3 to 8) (size 9 to 14) (size 15 to 20)
#    0.000    1.556    4.444    1.333    3.111    0.000 
#    0.000    0.556    0.000    8.000    0.000    0.000 
#    0.000    0.000    0.000    0.000    0.000    0.000 
#
# Total GULP energy -100361.499034 kJ/mol
# GULP energy per Si atom -5575.638835 kJ/mol
# Density = 2.172209 g / cm^3
# Si number density = 21.771642 Si / 1000 Ang^3
#
#
#
# Elastic Constant Matrix: (Units=GPa)
#
#
# Indices 1 2 3 4 5 6 
#
# 1 149.0280 36.9382 45.6171 0.0000 -16.8009 0.0000
# 2 36.9382 83.6471 22.2924 0.0000 -26.3581 0.0000
# 3 45.6171 22.2924 86.6231 0.0000 -21.0582 0.0000
# 4 0.0000 0.0000 0.0000 16.3782 0.0000 -5.8581
# 5 -16.8009 -26.3581 -21.0582 0.0000 51.5864 0.0000
# 6 0.0000 0.0000 0.0000 -5.8581 0.0000 20.2409
#
#
#
# Elastic Compliance Matrix: (Units=1/GPa)
#
#
# Indices 1 2 3 4 5 6 
#
# 1 0.008560 -0.002828 -0.003834 0.000000 -0.000222 0.000000
# 2 -0.002828 0.015538 -0.000892 0.000000 0.006654 0.000000
# 3 -0.003834 -0.000892 0.014852 0.000000 0.004359 0.000000
# 4 0.000000 0.000000 0.000000 0.068107 0.000000 0.019712
# 5 -0.000222 0.006654 0.004359 0.000000 0.024492 0.000000
# 6 0.000000 0.000000 0.000000 0.019712 0.000000 0.055110
#
#
# Mechanical properties :
#
#
# Convention : Reuss Voigt Hill
#
# Bulk Modulus (GPa) = 41.94165 58.77706 50.35935
# Shear Modulus (GPa) = 23.84197 31.93781 27.88989
#
# Velocity S-wave (km/s) = 3.31281 3.83423 3.58302
# Velocity P-wave (km/s) = 5.82573 6.83062 6.34809
#
# Compressibility (1/GPa) = 0.02384265
#
# Stress axis : x y z
#
# Youngs Moduli (GPa) = 116.82780 64.35673 67.32965
#
# Poissons Ratio (x) = 0.18201 0.25813
# Poissons Ratio (y) = 0.33041 0.06004
# Poissons Ratio (z) = 0.44790 0.05739
#
# Static dielectric constant tensor:
#      x y z
#    x 1.893120 0.000000 -0.005610 
#    y 0.000000 1.743630 0.000000 
#    z -0.005610 0.000000 1.851930 
# 
# From -- ./inp_files/46794.got.cif
#   From: 2010.05.17/outbox.cif.g08.bks.cpg/sg12_24_cif.got.tgz:46794.got - 2010.06.03 13:09:07.
