data_PCOD9205527
_publ_section_title
;
Structure prediction by ZEFSAII (Michael W. Deem and Ramdas Pophale) SiO2 
 PCOD9205527
Probable space group: C 2/M
;
_chemical_formula_sum "Si O2"
_cell_formula_units_Z 48
_cell_length_a 22.003714
_cell_length_b 11.866242
_cell_length_c 13.086171
_cell_angle_alpha 90.000000
_cell_angle_beta 131.548907
_cell_angle_gamma 90.000000
_cell_volume 2557.111518
_symmetry_space_group_name_H-M "C 2/M"
_symmetry_group_IT_number 12
_symmetry_cell_setting 'monoclinic'
loop_
_space_group_symop_operation_xyz
x,y,z
-x,y,-z
-x,-y,-z
x,-y,z
1/2+x,1/2+y,z
1/2-x,1/2+y,-z
1/2-x,1/2-y,-z
1/2+x,1/2-y,z
loop_
_atom_site_type_symbol
_atom_site_label
_atom_site_fract_x
_atom_site_fract_y
_atom_site_fract_z
Si Si1 0.374396 0.500000 0.810491
Si Si2 0.871465 0.791353 0.093857
Si Si3 0.471346 0.869435 0.084043
Si Si4 0.301499 0.134313 0.178453
Si Si5 0.748120 0.292700 0.338830
Si Si6 0.538460 0.500000 0.870208
Si Si7 0.352810 0.134324 0.645947
O O1 0.318714 0.391723 0.732048
O O2 0.447910 0.500000 0.812609
O O3 0.408140 0.500000 0.964549
O O4 0.864319 0.707280 0.181616
O O5 0.897981 0.711787 0.029515
O O6 0.937214 0.890441 0.166955
O O7 0.784875 0.849433 0.975746
O O8 0.551972 0.838218 0.237664
O O9 0.450290 0.000000 0.079638
O O10 0.500000 0.858190 0.000000
O O11 0.289618 0.192022 0.275433
O O12 0.318889 0.000000 0.206466
O O13 0.698433 0.181487 0.315007
O O14 0.813559 0.313789 0.500867
O O15 0.346063 0.000000 0.635180
#
# Coordination Sequence:
#
# PCOD9205527 Si02
#       7
#     4   8   8   8   8   4   8
#     4  11  20  34  62  83 114 150 185 249 281 336
#     4  11  21  35  54  81 116 147 188 230 287 339
#     4  10  21  36  54  81 114 145 184 240 286 331
#     4  11  21  37  57  80 115 152 191 234 280 343
#     4  11  19  37  58  84 112 150 189 234 283 338
#     4  11  22  34  56  91 116 145 192 234 297 326
#     4  10  21  35  57  84 113 145 190 234 285 341
#
# _framework density 18.771179
#
# number of rings (size 3 to 8) (size 9 to 14) (size 15 to 20)
#    0.000    1.333    4.167    2.500    2.333    0.000 
#    1.500    0.833    0.000    3.000    0.000    3.500 
#    0.000    0.000    0.000    0.000    0.000    0.000 
#
# Total GULP energy -133991.144048 kJ/mol
# GULP energy per Si atom -5582.964335 kJ/mol
# Density = 1.872845 g / cm^3
# Si number density = 18.771179 Si / 1000 Ang^3
#
#
#
# Elastic Constant Matrix: (Units=GPa)
#
#
# Indices 1 2 3 4 5 6 
#
# 1 66.4739 42.6390 1.0188 0.0000 -10.9833 0.0000
# 2 42.6390 57.7983 -12.9873 0.0000 -15.3013 0.0000
# 3 1.0188 -12.9873 32.7048 0.0000 -4.6709 0.0000
# 4 0.0000 0.0000 0.0000 8.5989 0.0000 -18.1304
# 5 -10.9833 -15.3013 -4.6709 0.0000 26.0309 0.0000
# 6 0.0000 0.0000 0.0000 -18.1304 0.0000 13.3107
#
#
#
# Elastic Compliance Matrix: (Units=1/GPa)
#
#
# Indices 1 2 3 4 5 6 
#
# 1 0.032540 -0.028319 -0.013009 0.000000 -0.005251 0.000000
# 2 -0.028319 0.049014 0.023353 0.000000 0.021053 0.000000
# 3 -0.013009 0.023353 0.042522 0.000000 0.015868 0.000000
# 4 0.000000 0.000000 0.000000 -0.062126 0.000000 -0.084621
# 5 -0.005251 0.021053 0.015868 0.000000 0.051423 0.000000
# 6 0.000000 0.000000 0.000000 -0.084621 0.000000 -0.040134
#
#
# Mechanical properties :
#
#
# Convention : Reuss Voigt Hill
#
# Bulk Modulus (GPa) = 11.34758 24.25756 17.80257
# Shear Modulus (GPa) = 36.08447 18.00853 27.04650
#
# Velocity S-wave (km/s) = 4.38920 3.10073 3.79997
# Velocity P-wave (km/s) = 5.63428 5.07644 5.36262
#
# Compressibility (1/GPa) = 0.08812455
#
# Stress axis : x y z
#
# Youngs Moduli (GPa) = 30.73134 20.40252 23.51748
#
# Poissons Ratio (x) = 0.57777 0.30594
# Poissons Ratio (y) = 0.87027 -0.54919
# Poissons Ratio (z) = 0.39979 -0.47645
#
# Static dielectric constant tensor:
#      x y z
#    x 1.651930 0.000000 0.000700 
#    y 0.000000 1.667860 0.000000 
#    z 0.000700 0.000000 1.664280 
# 
# From -- ./inp_files/165221.got.cif
#   From: 2010.05.17/outbox.cif.g08.bks.cpg/sg12_83_cif.got.tgz:165221.got - 2010.06.03 13:09:07.
