data_PCOD9205037
_publ_section_title
;
Structure prediction by ZEFSAII (Michael W. Deem and Ramdas Pophale) SiO2 
 PCOD9205037
Probable space group: C 2/M
;
_chemical_formula_sum "Si O2"
_cell_formula_units_Z 40
_cell_length_a 9.364999
_cell_length_b 18.607527
_cell_length_c 22.129624
_cell_angle_alpha 90.000000
_cell_angle_beta 38.461140
_cell_angle_gamma 90.000000
_cell_volume 2398.553625
_symmetry_space_group_name_H-M "C 2/M"
_symmetry_group_IT_number 12
_symmetry_cell_setting 'monoclinic'
loop_
_space_group_symop_operation_xyz
x,y,z
-x,y,-z
-x,-y,-z
x,-y,z
1/2+x,1/2+y,z
1/2-x,1/2+y,-z
1/2-x,1/2-y,-z
1/2+x,1/2-y,z
loop_
_atom_site_type_symbol
_atom_site_label
_atom_site_fract_x
_atom_site_fract_y
_atom_site_fract_z
Si Si1 0.214848 0.083761 0.384719
Si Si2 0.471235 0.914914 0.938728
Si Si3 0.423362 0.315188 0.956982
Si Si4 0.747808 0.333046 0.256491
Si Si5 0.071882 0.299605 0.255202
O O1 0.155641 0.109979 0.336166
O O2 0.427572 0.135282 0.332067
O O3 0.000000 0.094417 0.500000
O O4 0.277901 0.000000 0.363644
O O5 0.643403 0.872026 0.837653
O O6 0.500390 0.000000 0.921092
O O7 0.500000 0.897047 0.000000
O O8 0.218908 0.887927 0.004509
O O9 0.658608 0.314917 0.841564
O O10 0.500000 0.306888 0.000000
O O11 0.250000 0.250000 0.000000
O O12 0.566679 0.274200 0.294108
O O13 0.950940 0.295082 0.229080
#
# Coordination Sequence:
#
# PCOD9205037 Si02
#       5
#     8   8   8   8   8
#     4   9  20  39  62  84 111 148 190 242 297 340
#     4  11  24  36  52  79 116 158 194 231 286 347
#     4  12  20  34  54  78 113 153 187 234 279 340
#     4  10  21  37  57  82 115 145 187 239 283 340
#     4  10  21  34  58  85 110 149 191 234 284 342
#
# _framework density 16.676715999999999
#
# number of rings (size 3 to 8) (size 9 to 14) (size 15 to 20)
#    1.200    0.400    4.000    1.200    2.800    2.000 
#    0.000    0.000    0.000    0.000    0.000    2.800 
#    0.000    0.000    0.000    0.000    0.000    0.000 
#
# Total GULP energy -111342.006483 kJ/mol
# GULP energy per Si atom -5567.100324 kJ/mol
# Density = 1.663876 g / cm^3
# Si number density = 16.676716 Si / 1000 Ang^3
#
#
#
# Elastic Constant Matrix: (Units=GPa)
#
#
# Indices 1 2 3 4 5 6 
#
# 1 96.6273 54.8843 35.8345 -0.0001 5.4634 0.0006
# 2 54.8843 108.1067 56.9616 0.0013 -1.7117 -0.0227
# 3 35.8345 56.9616 91.9180 0.0506 4.3335 -0.0428
# 4 -0.0001 0.0013 0.0506 32.2920 -0.0514 -1.8323
# 5 5.4634 -1.7117 4.3335 -0.0514 21.1647 -0.0040
# 6 0.0006 -0.0227 -0.0428 -1.8323 -0.0040 32.2259
#
#
#
# Elastic Compliance Matrix: (Units=1/GPa)
#
#
# Indices 1 2 3 4 5 6 
#
# 1 0.015062 -0.007013 -0.001329 -0.000005 -0.004183 -0.000008
# 2 -0.007013 0.017176 -0.008140 0.000020 0.004866 0.000003
# 3 -0.001329 -0.008140 0.016617 -0.000031 -0.003718 0.000014
# 4 -0.000005 0.000020 -0.000031 0.031068 0.000085 0.001766
# 5 -0.004183 0.004866 -0.003718 0.000085 0.049483 0.000010
# 6 -0.000008 0.000003 0.000014 0.001766 0.000010 0.031131
#
#
# Mechanical properties :
#
#
# Convention : Reuss Voigt Hill
#
# Bulk Modulus (GPa) = 62.92361 65.77919 64.35140
# Shear Modulus (GPa) = 25.15138 27.06797 26.10968
#
# Velocity S-wave (km/s) = 3.88773 4.03314 3.96111
# Velocity P-wave (km/s) = 7.61354 7.82417 7.71957
#
# Compressibility (1/GPa) = 0.01589229
#
# Stress axis : x y z
#
# Youngs Moduli (GPa) = 66.39444 58.22036 60.18029
#
# Poissons Ratio (x) = 0.40827 0.07997
# Poissons Ratio (y) = 0.46560 0.48984
# Poissons Ratio (z) = 0.08823 0.47389
#
# Static dielectric constant tensor:
#      x y z
#    x 1.558770 0.000010 0.016030 
#    y 0.000010 1.581100 -0.000030 
#    z 0.016030 -0.000030 1.575940 
# 
# From -- ./inp_files/333125.got.cif
#   From: 2010.05.17/outbox.cif.g08.bks.cpg/sg12_167_cif.got.tgz:333125.got - 2010.06.03 13:09:07.
