data_PCOD9205564
_publ_section_title
;
Structure prediction by ZEFSAII (Michael W. Deem and Ramdas Pophale) SiO2 
 PCOD9205564
Probable space group: C 2/M
;
_chemical_formula_sum "Si O2"
_cell_formula_units_Z 64
_cell_length_a 12.041543
_cell_length_b 14.857507
_cell_length_c 21.221068
_cell_angle_alpha 90.000000
_cell_angle_beta 120.846790
_cell_angle_gamma 90.000000
_cell_volume 3259.542080
_symmetry_space_group_name_H-M "C 2/M"
_symmetry_group_IT_number 12
_symmetry_cell_setting 'monoclinic'
loop_
_space_group_symop_operation_xyz
x,y,z
-x,y,-z
-x,-y,-z
x,-y,z
1/2+x,1/2+y,z
1/2-x,1/2+y,-z
1/2-x,1/2-y,-z
1/2+x,1/2-y,z
loop_
_atom_site_type_symbol
_atom_site_label
_atom_site_fract_x
_atom_site_fract_y
_atom_site_fract_z
Si Si1 0.927830 0.282788 0.664938
Si Si2 0.634851 0.819626 0.910409
Si Si3 0.709028 0.259697 0.801974
Si Si4 0.515183 0.104189 0.575513
Si Si5 0.105216 0.903198 0.184035
Si Si6 0.094465 0.853753 0.969997
Si Si7 0.375033 0.106100 0.775275
Si Si8 0.182272 0.099436 0.344677
O O1 0.073891 0.258390 0.728085
O O2 0.938384 0.342779 0.605987
O O3 0.869826 0.337619 0.707952
O O4 0.853474 0.189789 0.629617
O O5 0.684513 0.753246 0.868935
O O6 0.591540 0.753249 0.953696
O O7 0.516393 0.874620 0.846842
O O8 0.758654 0.875587 0.969351
O O9 0.808835 0.179683 0.813618
O O10 0.772509 0.350272 0.793840
O O11 0.500000 0.139575 0.500000
O O12 0.668739 0.105614 0.633976
O O13 0.472986 0.000000 0.563011
O O14 0.095888 0.897056 0.256354
O O15 0.969186 0.898395 0.109420
O O16 0.168162 0.000000 0.187637
O O17 0.000000 0.875316 0.000000
O O18 0.357144 0.000000 0.759888
O O19 0.166155 0.000000 0.369721
#
# Coordination Sequence:
#
# PCOD9205564 Si02
#       8
#     8   8   8   8   8   8   8   8
#     4  11  20  36  62  86 114 151 193 229 275 329
#     4  10  21  35  58  74 108 150 185 228 294 346
#     4  11  20  38  55  82 113 143 185 233 290 331
#     4  10  21  37  59  89 123 154 185 227 277 329
#     4  11  20  34  55  77 106 140 181 232 282 331
#     4  11  20  36  54  79 104 143 190 236 285 336
#     4  11  22  36  57  84 112 144 187 237 283 335
#     4  10  21  39  60  85 114 147 189 232 278 334
#
# _framework density 19.634661000000001
#
# number of rings (size 3 to 8) (size 9 to 14) (size 15 to 20)
#    0.000    1.375    5.000    1.125    0.000    3.750 
#    0.000    0.625    0.000    7.500    0.000    0.000 
#    0.000    0.000    0.000    0.000    0.000    0.000 
#
# Total GULP energy -178616.794278 kJ/mol
# GULP energy per Si atom -5581.774821 kJ/mol
# Density = 1.958997 g / cm^3
# Si number density = 19.634661 Si / 1000 Ang^3
#
#
#
# Elastic Constant Matrix: (Units=GPa)
#
#
# Indices 1 2 3 4 5 6 
#
# 1 41.4271 26.7566 5.5219 0.0000 -8.4536 0.0000
# 2 26.7566 115.3914 5.6071 0.0000 -8.9417 0.0000
# 3 5.5219 5.6071 61.7019 0.0000 -12.8527 0.0000
# 4 0.0000 0.0000 0.0000 9.3316 0.0000 8.7432
# 5 -8.4536 -8.9417 -12.8527 0.0000 13.7172 0.0000
# 6 0.0000 0.0000 0.0000 8.7432 0.0000 0.6780
#
#
#
# Elastic Compliance Matrix: (Units=1/GPa)
#
#
# Indices 1 2 3 4 5 6 
#
# 1 0.031223 -0.006025 0.001172 0.000000 0.016413 0.000000
# 2 -0.006025 0.010303 0.000284 0.000000 0.003269 0.000000
# 3 0.001172 0.000284 0.020210 0.000000 0.019843 0.000000
# 4 0.000000 0.000000 0.000000 -0.009669 0.000000 0.124694
# 5 0.016413 0.003269 0.019843 0.000000 0.103740 0.000000
# 6 0.000000 0.000000 0.000000 0.124694 0.000000 -0.133086
#
#
# Mechanical properties :
#
#
# Convention : Reuss Voigt Hill
#
# Bulk Modulus (GPa) = 19.01235 32.69908 25.85571
# Shear Modulus (GPa) = 101.23224 16.78767 59.00996
#
# Velocity S-wave (km/s) = 7.18817 2.92721 5.48810
# Velocity P-wave (km/s) = 8.86551 5.30233 7.30452
#
# Compressibility (1/GPa) = 0.05259740
#
# Stress axis : x y z
#
# Youngs Moduli (GPa) = 32.02756 97.06160 49.48105
#
# Poissons Ratio (x) = 0.58480 -0.05800
# Poissons Ratio (y) = 0.19297 -0.01405
# Poissons Ratio (z) = -0.03754 -0.02755
#
# Static dielectric constant tensor:
#      x y z
#    x 1.702850 0.000000 0.005380 
#    y 0.000000 1.721440 0.000000 
#    z 0.005380 0.000000 1.708490 
# 
# From -- ./inp_files/305465.got.cif
#   From: 2010.05.17/outbox.cif.g08.bks.cpg/sg12_153_cif.got.tgz:305465.got - 2010.06.03 13:09:07.
