data_PCOD9205081
_publ_section_title
;
Structure prediction by ZEFSAII (Michael W. Deem and Ramdas Pophale) SiO2 
 PCOD9205081
Probable space group: C 2/M
;
_chemical_formula_sum "Si O2"
_cell_formula_units_Z 64
_cell_length_a 34.950553
_cell_length_b 13.473983
_cell_length_c 7.239922
_cell_angle_alpha 90.000000
_cell_angle_beta 105.109156
_cell_angle_gamma 90.000000
_cell_volume 3291.585717
_symmetry_space_group_name_H-M "C 2/M"
_symmetry_group_IT_number 12
_symmetry_cell_setting 'monoclinic'
loop_
_space_group_symop_operation_xyz
x,y,z
-x,y,-z
-x,-y,-z
x,-y,z
1/2+x,1/2+y,z
1/2-x,1/2+y,-z
1/2-x,1/2-y,-z
1/2+x,1/2-y,z
loop_
_atom_site_type_symbol
_atom_site_label
_atom_site_fract_x
_atom_site_fract_y
_atom_site_fract_z
Si Si1 0.573315 0.113888 0.780946
Si Si2 0.733065 0.882862 0.001577
Si Si3 0.676741 0.887142 0.417944
Si Si4 0.191013 0.115014 0.642658
Si Si5 0.843422 0.305797 0.226718
Si Si6 0.989923 0.379101 0.773816
Si Si7 0.592793 0.885662 0.238496
Si Si8 0.759701 0.120350 0.628391
O O1 0.611182 0.174070 0.761268
O O2 0.528099 0.151346 0.701574
O O3 0.575536 0.000000 0.715060
O O4 0.579358 0.109763 0.010127
O O5 0.690672 0.828098 0.968684
O O6 0.753409 0.848920 0.832559
O O7 0.724201 0.000000 0.980190
O O8 0.767251 0.874108 0.196347
O O9 0.668699 0.883281 0.627697
O O10 0.636297 0.838023 0.295716
O O11 0.720870 0.844034 0.465600
O O12 0.679028 0.000000 0.346628
O O13 0.162961 0.196652 0.697722
O O14 0.200999 0.137386 0.441059
O O15 0.178479 0.000000 0.645996
O O16 0.989194 0.500000 0.762180
O O17 0.944363 0.344911 0.690376
O O18 0.000000 0.353484 0.000000
O O19 0.598599 0.000000 0.308058
O O20 0.756378 0.000000 0.627658
#
# Coordination Sequence:
#
# PCOD9205081 Si02
#       8
#     8   8   8   8   8   8   8   8
#     4   9  16  26  43  65  91 120 148 179 212 257
#     4   9  18  32  48  66  89 113 145 190 227 267
#     4   9  17  28  42  64  93 117 141 178 219 262
#     4  10  21  35  48  62  85 119 159 193 227 269
#     4  11  20  30  42  65  89 114 149 187 228 261
#     4   7  11  22  39  60  88 121 149 169 200 253
#     4   8  14  25  42  64  91 123 149 169 205 262
#     4   8  16  31  47  62  84 117 149 182 225 260
#
# _framework density 19.443515000000001
#
# number of rings (size 3 to 8) (size 9 to 14) (size 15 to 20)
#    0.000    3.125    0.000    3.750    1.750    2.000 
#    2.250    0.625    0.000    3.000    0.000    0.000 
#    0.000    6.500    0.000    0.000    0.000    0.000 
#
# Total GULP energy -178216.767922 kJ/mol
# GULP energy per Si atom -5569.273998 kJ/mol
# Density = 1.939926 g / cm^3
# Si number density = 19.443515 Si / 1000 Ang^3
#
#
#
# Elastic Constant Matrix: (Units=GPa)
#
#
# Indices 1 2 3 4 5 6 
#
# 1 143.0855 24.4580 25.3286 0.0000 -23.7398 0.0000
# 2 24.4580 73.6241 -3.7197 0.0000 -14.5086 0.0000
# 3 25.3286 -3.7197 42.5935 0.0000 -4.7651 0.0000
# 4 0.0000 0.0000 0.0000 5.0502 0.0000 0.5520
# 5 -23.7398 -14.5086 -4.7651 0.0000 32.8551 0.0000
# 6 0.0000 0.0000 0.0000 0.5520 0.0000 16.9353
#
#
#
# Elastic Compliance Matrix: (Units=1/GPa)
#
#
# Indices 1 2 3 4 5 6 
#
# 1 0.009079 -0.002326 -0.005065 0.000000 0.004798 0.000000
# 2 -0.002326 0.015655 0.003391 0.000000 0.005724 0.000000
# 3 -0.005065 0.003391 0.026982 0.000000 0.001751 0.000000
# 4 0.000000 0.000000 0.000000 0.198720 0.000000 -0.006477
# 5 0.004798 0.005724 0.001751 0.000000 0.036685 0.000000
# 6 0.000000 0.000000 0.000000 -0.006477 0.000000 0.059259
#
#
# Mechanical properties :
#
#
# Convention : Reuss Voigt Hill
#
# Bulk Modulus (GPa) = 22.87602 39.04853 30.96228
# Shear Modulus (GPa) = 13.55185 25.18386 19.36785
#
# Velocity S-wave (km/s) = 2.64291 3.60284 3.15954
# Velocity P-wave (km/s) = 4.59393 6.11833 5.41009
#
# Compressibility (1/GPa) = 0.04371389
#
# Stress axis : x y z
#
# Youngs Moduli (GPa) = 110.14091 63.87880 37.06183
#
# Poissons Ratio (x) = 0.14861 0.18773
# Poissons Ratio (y) = 0.25624 -0.12567
# Poissons Ratio (z) = 0.55791 -0.21661
#
# Static dielectric constant tensor:
#      x y z
#    x 1.758730 0.000000 0.014140 
#    y 0.000000 1.690950 0.000000 
#    z 0.014140 0.000000 1.804130 
# 
# From -- ./inp_files/111227.got.cif
#   From: 2010.05.17/outbox.cif.g08.bks.cpg/sg12_56_cif.got.tgz:111227.got - 2010.06.03 13:09:07.
