data_PCOD9205947
_publ_section_title
;
Structure prediction by ZEFSAII (Michael W. Deem and Ramdas Pophale) SiO2 
 PCOD9205947
Probable space group: C 2/M
;
_chemical_formula_sum "Si O2"
_cell_formula_units_Z 64
_cell_length_a 23.067811
_cell_length_b 8.939359
_cell_length_c 20.663127
_cell_angle_alpha 90.000000
_cell_angle_beta 60.895610
_cell_angle_gamma 90.000000
_cell_volume 3722.961285
_symmetry_space_group_name_H-M "C 2/M"
_symmetry_group_IT_number 12
_symmetry_cell_setting 'monoclinic'
loop_
_space_group_symop_operation_xyz
x,y,z
-x,y,-z
-x,-y,-z
x,-y,z
1/2+x,1/2+y,z
1/2-x,1/2+y,-z
1/2-x,1/2-y,-z
1/2+x,1/2-y,z
loop_
_atom_site_type_symbol
_atom_site_label
_atom_site_fract_x
_atom_site_fract_y
_atom_site_fract_z
Si Si1 0.552280 0.176704 0.028574
Si Si2 0.058016 0.322119 0.709589
Si Si3 0.792605 0.322762 0.919008
Si Si4 0.729127 0.171782 0.412106
Si Si5 0.666726 0.319491 0.745160
Si Si6 0.562781 0.678242 0.158379
Si Si7 0.355670 0.670974 0.441252
Si Si8 0.173405 0.823623 0.892744
O O1 0.537793 0.268368 0.101205
O O2 0.551007 0.000000 0.043786
O O3 0.500000 0.207692 0.000000
O O4 0.623458 0.226614 0.962682
O O5 0.053701 0.500000 0.715566
O O6 0.108563 0.261498 0.737387
O O7 0.089728 0.270468 0.624365
O O8 0.987535 0.247269 0.762395
O O9 0.801413 0.500000 0.926410
O O10 0.863400 0.244075 0.875076
O O11 0.747478 0.304784 0.879622
O O12 0.750000 0.250000 0.000000
O O13 0.763243 0.221617 0.326774
O O14 0.671712 0.268342 0.475922
O O15 0.791605 0.173793 0.428049
O O16 0.707073 0.000000 0.418284
O O17 0.658980 0.500000 0.740958
O O18 0.666376 0.285759 0.821157
O O19 0.563424 0.500000 0.161367
O O20 0.378042 0.500000 0.433586
O O21 0.156242 0.000000 0.910432
#
# Coordination Sequence:
#
# PCOD9205947 Si02
#       8
#     8   8   8   8   8   8   8   8
#     4  11  23  36  52  76 104 133 167 208 254 307
#     4  11  21  33  50  75 106 137 170 212 258 306
#     4  11  22  38  58  79 100 129 172 219 262 304
#     4   8  14  25  43  68 100 136 171 205 242 291
#     4   9  18  33  51  75 107 140 172 207 251 308
#     4  12  24  38  55  74  99 135 173 213 260 307
#     4   9  16  27  44  68 100 137 173 206 245 299
#     4  10  21  36  55  76 100 134 171 209 256 306
#
# _framework density 17.190615999999999
#
# number of rings (size 3 to 8) (size 9 to 14) (size 15 to 20)
#    0.000    1.875    1.250    4.875    0.000    7.000 
#    0.000    0.000    0.000    0.000    0.000    0.875 
#    0.000    7.000    0.000    0.000    0.000    0.000 
#
# Total GULP energy -178613.423302 kJ/mol
# GULP energy per Si atom -5581.669478 kJ/mol
# Density = 1.715149 g / cm^3
# Si number density = 17.190616 Si / 1000 Ang^3
#
#
#
# Elastic Constant Matrix: (Units=GPa)
#
#
# Indices 1 2 3 4 5 6 
#
# 1 48.5975 30.6323 13.5045 0.0000 -20.7794 -0.0001
# 2 30.6323 99.4843 40.3977 -0.0002 -22.0124 -0.0003
# 3 13.5045 40.3977 84.8338 0.0000 -28.3014 0.0000
# 4 0.0000 -0.0002 0.0000 29.1921 0.0000 -5.6328
# 5 -20.7794 -22.0124 -28.3014 0.0000 20.2307 0.0000
# 6 -0.0001 -0.0003 0.0000 -5.6328 0.0000 20.7347
#
#
#
# Elastic Compliance Matrix: (Units=1/GPa)
#
#
# Indices 1 2 3 4 5 6 
#
# 1 0.049618 -0.007647 0.018693 0.000000 0.068794 0.000000
# 2 -0.007647 0.014785 -0.005769 0.000000 0.000162 0.000000
# 3 0.018693 -0.005769 0.029759 0.000000 0.054554 0.000000
# 4 0.000000 0.000000 0.000000 0.036151 0.000000 0.009821
# 5 0.068794 0.000162 0.054554 0.000000 0.196584 0.000001
# 6 0.000000 0.000000 0.000000 0.009821 0.000001 0.050896
#
#
# Mechanical properties :
#
#
# Convention : Reuss Voigt Hill
#
# Bulk Modulus (GPa) = 9.54962 44.66495 27.10728
# Shear Modulus (GPa) = 12.43335 23.92357 18.17846
#
# Velocity S-wave (km/s) = 2.69227 3.73455 3.25540
# Velocity P-wave (km/s) = 3.90277 6.68090 5.47111
#
# Compressibility (1/GPa) = 0.10471625
#
# Stress axis : x y z
#
# Youngs Moduli (GPa) = 20.15403 67.63631 33.60316
#
# Poissons Ratio (x) = 0.51721 -0.62815
# Poissons Ratio (y) = 0.15412 0.19386
# Poissons Ratio (z) = -0.37675 0.39021
#
# Static dielectric constant tensor:
#      x y z
#    x 1.571760 0.000000 -0.002140 
#    y 0.000000 1.579290 0.000000 
#    z -0.002140 0.000000 1.589930 
# 
# From -- ./inp_files/319959.got.cif
#   From: 2010.05.17/outbox.cif.g08.bks.cpg/sg12_160_cif.got.tgz:319959.got - 2010.06.03 13:09:07.
