data_PCOD9205277
_publ_section_title
;
Structure prediction by ZEFSAII (Michael W. Deem and Ramdas Pophale) SiO2 
 PCOD9205277
Probable space group: C 2/M
;
_chemical_formula_sum "Si O2"
_cell_formula_units_Z 56
_cell_length_a 9.236691
_cell_length_b 25.872733
_cell_length_c 18.191060
_cell_angle_alpha 90.000000
_cell_angle_beta 47.702441
_cell_angle_gamma 90.000000
_cell_volume 3215.501560
_symmetry_space_group_name_H-M "C 2/M"
_symmetry_group_IT_number 12
_symmetry_cell_setting 'monoclinic'
loop_
_space_group_symop_operation_xyz
x,y,z
-x,y,-z
-x,-y,-z
x,-y,z
1/2+x,1/2+y,z
1/2-x,1/2+y,-z
1/2-x,1/2-y,-z
1/2+x,1/2-y,z
loop_
_atom_site_type_symbol
_atom_site_label
_atom_site_fract_x
_atom_site_fract_y
_atom_site_fract_z
Si Si1 0.291229 0.158996 0.209885
Si Si2 0.897705 0.310576 0.611955
Si Si3 0.484610 0.057089 0.090987
Si Si4 0.438395 0.441256 0.944399
Si Si5 0.546764 0.355852 0.791427
Si Si6 0.621855 0.267671 0.884016
Si Si7 0.585817 0.217464 0.697501
O O1 0.387881 0.103671 0.166211
O O2 0.399061 0.208144 0.134935
O O3 0.304174 0.174378 0.290986
O O4 0.090431 0.154190 0.232265
O O5 0.769920 0.357679 0.687502
O O6 0.731420 0.266121 0.657215
O O7 0.000000 0.320315 0.500000
O O8 0.048403 0.293817 0.624348
O O9 0.391102 0.000000 0.129837
O O10 0.500000 0.070726 0.000000
O O11 0.708871 0.053485 0.035043
O O12 0.519567 0.500000 0.909783
O O13 0.484839 0.406262 0.858375
O O14 0.500000 0.415601 0.000000
O O15 0.539480 0.308237 0.852151
O O16 0.859364 0.276642 0.804290
O O17 0.500000 0.274725 0.000000
#
# Coordination Sequence:
#
# PCOD9205277 Si02
#       7
#     8   8   8   8   8   8   8
#     4  12  21  34  53  77 117 149 180 230 271 331
#     4  11  22  40  60  79 110 144 188 242 285 333
#     4  10  21  35  53  79 111 155 199 225 259 318
#     4  10  22  39  57  81 115 155 194 230 273 328
#     4  11  22  37  54  82 113 146 192 229 278 337
#     4  11  23  34  50  80 119 154 183 216 271 343
#     4  11  22  38  53  82 111 148 191 221 280 342
#
# _framework density 17.415634000000001
#
# number of rings (size 3 to 8) (size 9 to 14) (size 15 to 20)
#    0.000    1.143    5.714    1.286    6.000    1.143 
#    0.000    0.000    0.000    0.429    0.000    0.000 
#    0.000    2.857    0.000    0.000    0.000    0.000 
#
# Total GULP energy -155968.093439 kJ/mol
# GULP energy per Si atom -5570.289051 kJ/mol
# Density = 1.737599 g / cm^3
# Si number density = 17.415634 Si / 1000 Ang^3
#
#
#
# Elastic Constant Matrix: (Units=GPa)
#
#
# Indices 1 2 3 4 5 6 
#
# 1 99.8715 1.7362 21.4181 0.0000 24.1469 0.0000
# 2 1.7362 70.2633 27.2123 0.0000 4.2580 0.0000
# 3 21.4181 27.2123 68.0301 0.0000 17.1911 0.0000
# 4 0.0000 0.0000 0.0000 13.4877 0.0000 -2.3168
# 5 24.1469 4.2580 17.1911 0.0000 21.0707 0.0000
# 6 0.0000 0.0000 0.0000 -2.3168 0.0000 21.5097
#
#
#
# Elastic Compliance Matrix: (Units=1/GPa)
#
#
# Indices 1 2 3 4 5 6 
#
# 1 0.013911 0.000920 -0.000847 0.000000 -0.015437 0.000000
# 2 0.000920 0.017019 -0.007510 0.000000 0.001634 0.000000
# 3 -0.000847 -0.007510 0.021845 0.000000 -0.015335 0.000000
# 4 0.000000 0.000000 0.000000 0.075539 0.000000 0.008136
# 5 -0.015437 0.001634 -0.015335 0.000000 0.077331 0.000000
# 6 0.000000 0.000000 0.000000 0.008136 0.000000 0.047367
#
#
# Mechanical properties :
#
#
# Convention : Reuss Voigt Hill
#
# Bulk Modulus (GPa) = 26.38473 37.65534 32.02003
# Shear Modulus (GPa) = 17.82406 23.73352 20.77879
#
# Velocity S-wave (km/s) = 3.20261 3.69558 3.45789
# Velocity P-wave (km/s) = 5.37202 6.31492 5.86246
#
# Compressibility (1/GPa) = 0.03790072
#
# Stress axis : x y z
#
# Youngs Moduli (GPa) = 71.88703 58.75776 45.77671
#
# Poissons Ratio (x) = -0.05403 0.03875
# Poissons Ratio (y) = -0.06611 0.34379
# Poissons Ratio (z) = 0.06086 0.44128
#
# Static dielectric constant tensor:
#      x y z
#    x 1.798090 0.000000 0.004600 
#    y 0.000000 1.634310 0.000000 
#    z 0.004600 0.000000 1.585790 
# 
# From -- ./inp_files/199424.got.cif
#   From: 2010.05.17/outbox.cif.g08.bks.cpg/sg12_100_cif.got.tgz:199424.got - 2010.06.03 13:09:07.
