data_PCOD9205868
_publ_section_title
;
Structure prediction by ZEFSAII (Michael W. Deem and Ramdas Pophale) SiO2 
 PCOD9205868
Probable space group: C 2/M
;
_chemical_formula_sum "Si O2"
_cell_formula_units_Z 48
_cell_length_a 24.564658
_cell_length_b 10.563079
_cell_length_c 12.445830
_cell_angle_alpha 90.000000
_cell_angle_beta 43.695568
_cell_angle_gamma 90.000000
_cell_volume 2230.971868
_symmetry_space_group_name_H-M "C 2/M"
_symmetry_group_IT_number 12
_symmetry_cell_setting 'monoclinic'
loop_
_space_group_symop_operation_xyz
x,y,z
-x,y,-z
-x,-y,-z
x,-y,z
1/2+x,1/2+y,z
1/2-x,1/2+y,-z
1/2-x,1/2-y,-z
1/2+x,1/2-y,z
loop_
_atom_site_type_symbol
_atom_site_label
_atom_site_fract_x
_atom_site_fract_y
_atom_site_fract_z
Si Si1 0.776311 0.859777 0.383883
Si Si2 0.210978 0.358612 0.921851
Si Si3 0.346597 0.235550 0.607950
Si Si4 0.608650 0.355484 0.953828
Si Si5 0.594949 0.140599 0.264763
Si Si6 0.009011 0.852839 0.705411
O O1 0.750000 0.750000 0.500000
O O2 0.715511 0.846457 0.370696
O O3 0.770524 0.000000 0.439921
O O4 0.863456 0.842939 0.208775
O O5 0.190591 0.500000 0.912904
O O6 0.298288 0.329498 0.755919
O O7 0.157536 0.252496 0.943548
O O8 0.183125 0.354769 0.085589
O O9 0.397657 0.154871 0.618602
O O10 0.402654 0.310040 0.446088
O O11 0.632840 0.500000 0.948706
O O12 0.521540 0.342610 0.127794
O O13 0.545364 0.256058 0.285715
O O14 0.563882 0.000000 0.280832
O O15 0.998661 0.000000 0.687943
#
# Coordination Sequence:
#
# PCOD9205868 Si02
#       6
#     8   8   8   8   8   8
#     4  10  22  40  62  83 105 138 184 235 280 324
#     4   9  18  32  52  80 109 142 184 225 265 313
#     4  11  21  34  56  83 112 144 184 227 273 323
#     4   8  17  36  57  78 108 144 177 216 271 329
#     4  10  21  36  54  78 114 155 187 218 262 321
#     4  10  21  36  56  84 117 149 180 217 265 324
#
# _framework density 21.515287000000001
#
# number of rings (size 3 to 8) (size 9 to 14) (size 15 to 20)
#    0.000    2.333    0.000    2.000    0.000    8.000 
#    0.000    7.500    0.000    4.000    0.000    0.000 
#    0.000    0.000    0.000    0.000    0.000    0.000 
#
# Total GULP energy -133722.565902 kJ/mol
# GULP energy per Si atom -5571.773579 kJ/mol
# Density = 2.146632 g / cm^3
# Si number density = 21.515287 Si / 1000 Ang^3
#
#
#
# Elastic Constant Matrix: (Units=GPa)
#
#
# Indices 1 2 3 4 5 6 
#
# 1 43.0748 25.4227 11.1445 0.0000 -5.0811 0.0000
# 2 25.4227 146.3620 69.0388 0.0000 5.2895 0.0000
# 3 11.1445 69.0388 179.8165 0.0000 -8.0402 0.0000
# 4 0.0000 0.0000 0.0000 -18.4700 0.0000 -0.0411
# 5 -5.0811 5.2895 -8.0402 0.0000 22.3797 0.0000
# 6 0.0000 0.0000 0.0000 -0.0411 0.0000 19.3356
#
#
#
# Elastic Compliance Matrix: (Units=1/GPa)
#
#
# Indices 1 2 3 4 5 6 
#
# 1 0.027071 -0.005310 0.000703 0.000000 0.007654 0.000000
# 2 -0.005310 0.009613 -0.003575 0.000000 -0.004762 0.000000
# 3 0.000703 -0.003575 0.007048 0.000000 0.003537 0.000000
# 4 0.000000 0.000000 0.000000 -0.054141 0.000000 -0.000115
# 5 0.007654 -0.004762 0.003537 0.000000 0.048817 0.000000
# 6 0.000000 0.000000 0.000000 -0.000115 0.000000 0.051718
#
#
# Mechanical properties :
#
#
# Convention : Reuss Voigt Hill
#
# Bulk Modulus (GPa) = 36.53858 64.49617 50.51737
# Shear Modulus (GPa) = 43.24828 22.22555 32.73692
#
# Velocity S-wave (km/s) = 4.48830 3.21754 3.90496
# Velocity P-wave (km/s) = 6.62414 6.62158 6.62286
#
# Compressibility (1/GPa) = 0.02736833
#
# Stress axis : x y z
#
# Youngs Moduli (GPa) = 36.94052 104.02540 141.87995
#
# Poissons Ratio (x) = 0.55243 -0.09980
# Poissons Ratio (y) = 0.19617 0.50717
# Poissons Ratio (z) = -0.02598 0.37185
#
# Static dielectric constant tensor:
#      x y z
#    x 1.786350 0.000000 -0.013860 
#    y 0.000000 1.758310 0.000000 
#    z -0.013860 0.000000 1.868290 
# 
# From -- ./inp_files/248773.got.cif
#   From: 2010.05.17/outbox.cif.g08.bks.cpg/sg12_125_cif.got.tgz:248773.got - 2010.06.03 13:09:07.
