data_PCOD9205543
_publ_section_title
;
Structure prediction by ZEFSAII (Michael W. Deem and Ramdas Pophale) SiO2 
 PCOD9205543
Probable space group: C 2/M
;
_chemical_formula_sum "Si O2"
_cell_formula_units_Z 64
_cell_length_a 19.309886
_cell_length_b 14.435293
_cell_length_c 25.749613
_cell_angle_alpha 90.000000
_cell_angle_beta 27.143292
_cell_angle_gamma 90.000000
_cell_volume 3274.521718
_symmetry_space_group_name_H-M "C 2/M"
_symmetry_group_IT_number 12
_symmetry_cell_setting 'monoclinic'
loop_
_space_group_symop_operation_xyz
x,y,z
-x,y,-z
-x,-y,-z
x,-y,z
1/2+x,1/2+y,z
1/2-x,1/2+y,-z
1/2-x,1/2-y,-z
1/2+x,1/2-y,z
loop_
_atom_site_type_symbol
_atom_site_label
_atom_site_fract_x
_atom_site_fract_y
_atom_site_fract_z
Si Si1 0.815176 0.340341 0.484529
Si Si2 0.911421 0.603846 0.768664
Si Si3 0.032965 0.281411 0.892172
Si Si4 0.490218 0.397153 0.736072
Si Si5 0.906549 0.610945 0.252116
Si Si6 0.743619 0.224118 0.846407
Si Si7 0.089136 0.111203 0.785404
Si Si8 0.649433 0.762884 0.430920
O O1 0.750000 0.250000 0.500000
O O2 0.665227 0.395727 0.601179
O O3 0.892861 0.305236 0.485354
O O4 0.935092 0.390155 0.367989
O O5 0.854895 0.500000 0.808695
O O6 0.788932 0.669932 0.825004
O O7 0.965069 0.632397 0.790540
O O8 0.043206 0.352577 0.837693
O O9 0.180113 0.290775 0.831147
O O10 0.024881 0.177562 0.873351
O O11 0.889249 0.299941 0.024415
O O12 0.426887 0.500000 0.773623
O O13 0.392658 0.330831 0.764896
O O14 0.496722 0.372660 0.793000
O O15 0.878542 0.500000 0.272050
O O16 0.760828 0.674641 0.363074
O O17 0.253386 0.157548 0.663611
O O18 0.094318 0.000000 0.791172
O O19 0.500000 0.736590 0.500000
#
# Coordination Sequence:
#
# PCOD9205543 Si02
#       8
#     8   8   8   8   8   8   8   8
#     4  11  19  36  59  86 123 155 189 238 283 340
#     4  11  23  39  62  90 119 155 197 242 292 346
#     4  10  24  41  60  83 120 155 189 248 297 349
#     4  10  21  38  62  87 114 152 199 241 283 341
#     4  10  22  41  60  85 118 154 196 243 292 346
#     4  11  23  41  60  87 116 152 198 241 299 350
#     4   9  20  39  60  84 115 152 195 242 289 342
#     4  10  21  35  57  88 121 158 194 233 288 347
#
# _framework density 19.544837999999999
#
# number of rings (size 3 to 8) (size 9 to 14) (size 15 to 20)
#    0.000    1.750    2.500    1.875    3.500    5.000 
#    0.000    5.000    0.000    0.000    0.000    0.000 
#    0.000    0.000    0.000    0.000    0.000    0.000 
#
# Total GULP energy -178601.616120 kJ/mol
# GULP energy per Si atom -5581.300504 kJ/mol
# Density = 1.950035 g / cm^3
# Si number density = 19.544838 Si / 1000 Ang^3
#
#
#
# Elastic Constant Matrix: (Units=GPa)
#
#
# Indices 1 2 3 4 5 6 
#
# 1 66.2656 -1.0690 24.9552 -0.0057 14.1365 0.0016
# 2 -1.0690 68.0538 -6.3453 0.0001 5.4338 0.0001
# 3 24.9552 -6.3453 24.6036 0.0001 8.3957 0.0002
# 4 -0.0057 0.0001 0.0001 -26.7484 0.0013 14.5964
# 5 14.1365 5.4338 8.3957 0.0013 30.9166 -0.0003
# 6 0.0016 0.0001 0.0002 14.5964 -0.0003 7.0071
#
#
#
# Elastic Compliance Matrix: (Units=1/GPa)
#
#
# Indices 1 2 3 4 5 6 
#
# 1 0.025254 -0.001508 -0.024417 -0.000004 -0.004652 0.000003
# 2 -0.001508 0.015628 0.006902 0.000000 -0.003931 0.000000
# 3 -0.024417 0.006902 0.070310 0.000003 -0.009142 -0.000004
# 4 -0.000004 0.000000 0.000003 -0.017497 0.000002 0.036447
# 5 -0.004652 -0.003931 -0.009142 0.000002 0.037646 -0.000001
# 6 0.000003 0.000000 -0.000004 0.036447 -0.000001 0.066791
#
#
# Mechanical properties :
#
#
# Convention : Reuss Voigt Hill
#
# Bulk Modulus (GPa) = 13.67136 21.55609 17.61372
# Shear Modulus (GPa) = 19.18952 11.66054 15.42503
#
# Velocity S-wave (km/s) = 3.13680 2.44520 2.81234
# Velocity P-wave (km/s) = 4.48658 4.36176 4.42461
#
# Compressibility (1/GPa) = 0.07314559
#
# Stress axis : x y z
#
# Youngs Moduli (GPa) = 39.59785 63.98773 14.22279
#
# Poissons Ratio (x) = 0.09652 0.34727
# Poissons Ratio (y) = 0.05973 -0.09817
# Poissons Ratio (z) = 0.96684 -0.44165
#
# Static dielectric constant tensor:
#      x y z
#    x 1.674670 0.000000 0.023500 
#    y 0.000000 1.681540 0.000000 
#    z 0.023500 0.000000 1.701410 
# 
# From -- ./inp_files/344043.got.cif
#   From: 2010.05.17/outbox.cif.g08.bks.cpg/sg12_173_cif.got.tgz:344043.got - 2010.06.03 13:09:07.
