data_PCOD9205058
_publ_section_title
;
Structure prediction by ZEFSAII (Michael W. Deem and Ramdas Pophale) SiO2 
 PCOD9205058
Probable space group: C 2/M
;
_chemical_formula_sum "Si O2"
_cell_formula_units_Z 48
_cell_length_a 12.462059
_cell_length_b 19.288316
_cell_length_c 11.117572
_cell_angle_alpha 90.000000
_cell_angle_beta 69.727313
_cell_angle_gamma 90.000000
_cell_volume 2506.813382
_symmetry_space_group_name_H-M "C 2/M"
_symmetry_group_IT_number 12
_symmetry_cell_setting 'monoclinic'
loop_
_space_group_symop_operation_xyz
x,y,z
-x,y,-z
-x,-y,-z
x,-y,z
1/2+x,1/2+y,z
1/2-x,1/2+y,-z
1/2-x,1/2-y,-z
1/2+x,1/2-y,z
loop_
_atom_site_type_symbol
_atom_site_label
_atom_site_fract_x
_atom_site_fract_y
_atom_site_fract_z
Si Si1 0.477916 0.500000 0.197753
Si Si2 0.322265 0.669629 0.537649
Si Si3 0.363494 0.175207 0.575306
Si Si4 0.311397 0.853365 0.867649
Si Si5 0.462432 0.638562 0.697110
Si Si6 0.100795 0.770208 0.050650
Si Si7 0.701278 0.500000 0.941468
O O1 0.485165 0.568577 0.272699
O O2 0.364655 0.500000 0.160749
O O3 0.594071 0.500000 0.073690
O O4 0.313070 0.746361 0.597588
O O5 0.211592 0.645195 0.506671
O O6 0.368460 0.624252 0.630511
O O7 0.429773 0.676816 0.405193
O O8 0.500000 0.174565 0.500000
O O9 0.339394 0.143407 0.715522
O O10 0.405383 0.810542 0.907212
O O11 0.273782 0.929421 0.925212
O O12 0.209050 0.798828 0.934152
O O13 0.411014 0.684428 0.823824
O O14 0.000000 0.787264 0.000000
#
# Coordination Sequence:
#
# PCOD9205058 Si02
#       7
#     4   8   8   8   8   8   4
#     4  11  22  35  64  88 129 159 186 253 324 368
#     4  10  21  34  60  86 126 156 197 254 300 362
#     4  11  20  38  58  86 117 165 207 247 297 352
#     4  11  23  38  61  90 119 159 206 250 304 361
#     4  11  20  40  58  97 122 157 199 252 320 365
#     4  11  21  37  62  91 120 153 206 260 303 357
#     4  11  22  40  58  90 124 162 197 248 308 372
#
# _framework density 19.147814
#
# number of rings (size 3 to 8) (size 9 to 14) (size 15 to 20)
#    0.000    1.167    5.000    3.000    0.000    2.667 
#    0.000    1.667    0.000    0.000    0.000    0.000 
#    0.000    0.000    0.000    0.000    0.000    0.000 
#
# Total GULP energy -133782.252344 kJ/mol
# GULP energy per Si atom -5574.260514 kJ/mol
# Density = 1.910423 g / cm^3
# Si number density = 19.147814 Si / 1000 Ang^3
#
#
#
# Elastic Constant Matrix: (Units=GPa)
#
#
# Indices 1 2 3 4 5 6 
#
# 1 82.2291 -14.0280 31.8797 0.0000 12.1674 0.0000
# 2 -14.0280 70.3133 4.9965 0.0000 -4.6398 0.0000
# 3 31.8797 4.9965 78.3895 0.0000 5.4490 0.0000
# 4 0.0000 0.0000 0.0000 15.1924 0.0000 -0.1388
# 5 12.1674 -4.6398 5.4490 0.0000 20.6306 0.0000
# 6 0.0000 0.0000 0.0000 -0.1388 0.0000 8.7911
#
#
#
# Elastic Compliance Matrix: (Units=1/GPa)
#
#
# Indices 1 2 3 4 5 6 
#
# 1 0.016213 0.003209 -0.006299 0.000000 -0.007176 0.000000
# 2 0.003209 0.015177 -0.002422 0.000000 0.002161 0.000000
# 3 -0.006299 -0.002422 0.015538 0.000000 -0.000934 0.000000
# 4 0.000000 0.000000 0.000000 0.065832 0.000000 0.001039
# 5 -0.007176 0.002161 -0.000934 0.000000 0.053437 0.000000
# 6 0.000000 0.000000 0.000000 0.001039 0.000000 0.113768
#
#
# Mechanical properties :
#
#
# Convention : Reuss Voigt Hill
#
# Bulk Modulus (GPa) = 27.85404 30.73649 29.29526
# Shear Modulus (GPa) = 16.50402 22.79506 19.64954
#
# Velocity S-wave (km/s) = 2.93904 3.45407 3.20691
# Velocity P-wave (km/s) = 5.10840 5.65637 5.38936
#
# Compressibility (1/GPa) = 0.03590144
#
# Stress axis : x y z
#
# Youngs Moduli (GPa) = 61.68078 65.88953 64.35901
#
# Poissons Ratio (x) = -0.21141 0.40540
# Poissons Ratio (y) = -0.19791 0.15591
# Poissons Ratio (z) = 0.38853 0.15961
#
# Static dielectric constant tensor:
#      x y z
#    x 1.792970 0.000000 -0.006710 
#    y 0.000000 1.667280 0.000000 
#    z -0.006710 0.000000 1.667800 
# 
# From -- ./inp_files/131708.got.cif
#   From: 2010.05.17/outbox.cif.g08.bks.cpg/sg12_66_cif.got.tgz:131708.got - 2010.06.03 13:09:07.
