data_PCOD9205850
_publ_section_title
;
Structure prediction by ZEFSAII (Michael W. Deem and Ramdas Pophale) SiO2 
 PCOD9205850
Probable space group: C 2/M
;
_chemical_formula_sum "Si O2"
_cell_formula_units_Z 56
_cell_length_a 10.047386
_cell_length_b 7.492298
_cell_length_c 34.393431
_cell_angle_alpha 90.000000
_cell_angle_beta 117.644027
_cell_angle_gamma 90.000000
_cell_volume 2293.519857
_symmetry_space_group_name_H-M "C 2/M"
_symmetry_group_IT_number 12
_symmetry_cell_setting 'monoclinic'
loop_
_space_group_symop_operation_xyz
x,y,z
-x,y,-z
-x,-y,-z
x,-y,z
1/2+x,1/2+y,z
1/2-x,1/2+y,-z
1/2-x,1/2-y,-z
1/2+x,1/2-y,z
loop_
_atom_site_type_symbol
_atom_site_label
_atom_site_fract_x
_atom_site_fract_y
_atom_site_fract_z
Si Si1 0.763862 0.716139 0.826042
Si Si2 0.107951 0.792381 0.320116
Si Si3 0.833613 0.786629 0.971378
Si Si4 0.899700 0.293617 0.401452
Si Si5 0.594079 0.791110 0.878363
Si Si6 0.223031 0.216619 0.731604
Si Si7 0.730263 0.787248 0.451956
O O1 0.763830 0.500000 0.825931
O O2 0.638181 0.775549 0.839256
O O3 0.741790 0.773977 0.778661
O O4 0.927493 0.782281 0.862428
O O5 0.253656 0.710616 0.360934
O O6 0.148042 0.780889 0.279906
O O7 0.941731 0.719642 0.305005
O O8 0.101525 0.000000 0.330656
O O9 0.729117 0.714140 0.922520
O O10 0.848648 0.000000 0.966936
O O11 0.750000 0.750000 0.000000
O O12 0.000000 0.712583 0.000000
O O13 0.907865 0.500000 0.390207
O O14 0.858787 0.287747 0.441540
O O15 0.065059 0.216788 0.417104
O O16 0.584320 0.000000 0.887053
O O17 0.224423 0.000000 0.731140
O O18 0.750000 0.750000 0.500000
O O19 0.732706 0.000000 0.447324
#
# Coordination Sequence:
#
# PCOD9205850 Si02
#       7
#     8   8   8   8   8   8   8
#     4  10  21  36  54  79 109 140 177 219 264 316
#     4  10  21  37  57  81 109 142 179 219 265 315
#     4  10  21  36  54  78 106 137 177 221 265 317
#     4  10  22  39  57  81 112 142 178 223 265 313
#     4  10  21  36  54  78 107 139 177 220 265 316
#     4  10  21  36  55  81 110 140 178 221 263 314
#     4  11  23  38  58  83 110 143 181 220 266 317
#
# _framework density 24.416618
#
# number of rings (size 3 to 8) (size 9 to 14) (size 15 to 20)
#    0.000    1.857    0.000    3.429    0.000    6.000 
#    0.000    0.000    0.000    0.000    0.000    0.000 
#    0.000    0.000    0.000    0.000    0.000    0.000 
#
# Total GULP energy -156649.718168 kJ/mol
# GULP energy per Si atom -5594.632792 kJ/mol
# Density = 2.436104 g / cm^3
# Si number density = 24.416618 Si / 1000 Ang^3
#
#
#
# Elastic Constant Matrix: (Units=GPa)
#
#
# Indices 1 2 3 4 5 6 
#
# 1 104.4715 -7.9195 -17.0587 0.0000 5.9301 0.0000
# 2 -7.9195 78.4268 -1.7389 0.0000 15.2964 0.0000
# 3 -17.0587 -1.7389 68.6108 0.0000 2.7086 0.0000
# 4 0.0000 0.0000 0.0000 6.5438 0.0000 -15.7690
# 5 5.9301 15.2964 2.7086 0.0000 45.9368 0.0000
# 6 0.0000 0.0000 0.0000 -15.7690 0.0000 11.2447
#
#
#
# Elastic Compliance Matrix: (Units=1/GPa)
#
#
# Indices 1 2 3 4 5 6 
#
# 1 0.010230 0.001476 0.002659 0.000000 -0.001969 0.000000
# 2 0.001476 0.013868 0.000910 0.000000 -0.004862 0.000000
# 3 0.002659 0.000910 0.015320 0.000000 -0.001550 0.000000
# 4 0.000000 0.000000 0.000000 -0.064226 0.000000 -0.090068
# 5 -0.001969 -0.004862 -0.001550 0.000000 0.023734 0.000000
# 6 0.000000 0.000000 0.000000 -0.090068 0.000000 -0.037376
#
#
# Mechanical properties :
#
#
# Convention : Reuss Voigt Hill
#
# Bulk Modulus (GPa) = 20.19874 22.00830 21.10352
# Shear Modulus (GPa) = -156.06768 31.29347 -62.38710
#
# Velocity S-wave (km/s) = -8.00359 3.58389 -5.06029
# Velocity P-wave (km/s) = 8.78176 5.11458 5.04779
#
# Compressibility (1/GPa) = 0.04950804
#
# Stress axis : x y z
#
# Youngs Moduli (GPa) = 97.75422 72.10694 65.27325
#
# Poissons Ratio (x) = -0.10643 -0.17353
# Poissons Ratio (y) = -0.14428 -0.05942
# Poissons Ratio (z) = -0.25988 -0.06565
#
# Static dielectric constant tensor:
#      x y z
#    x 1.877790 0.000000 0.046660 
#    y 0.000000 1.971070 0.000000 
#    z 0.046660 0.000000 1.969530 
# 
# From -- ./inp_files/373625.got.cif
#   From: 2010.05.17/outbox.cif.g08.bks.cpg/sg12_187_cif.got.tgz:373625.got - 2010.06.03 13:09:07.
