data_PCOD9205871
_publ_section_title
;
Structure prediction by ZEFSAII (Michael W. Deem and Ramdas Pophale) SiO2 
 PCOD9205871
Probable space group: C 2/M
;
_chemical_formula_sum "Si O2"
_cell_formula_units_Z 40
_cell_length_a 14.912032
_cell_length_b 7.814728
_cell_length_c 16.652194
_cell_angle_alpha 90.000000
_cell_angle_beta 85.986214
_cell_angle_gamma 90.000000
_cell_volume 1935.778337
_symmetry_space_group_name_H-M "C 2/M"
_symmetry_group_IT_number 12
_symmetry_cell_setting 'monoclinic'
loop_
_space_group_symop_operation_xyz
x,y,z
-x,y,-z
-x,-y,-z
x,-y,z
1/2+x,1/2+y,z
1/2-x,1/2+y,-z
1/2-x,1/2-y,-z
1/2+x,1/2-y,z
loop_
_atom_site_type_symbol
_atom_site_label
_atom_site_fract_x
_atom_site_fract_y
_atom_site_fract_z
Si Si1 0.624865 0.207446 0.423687
Si Si2 0.724353 0.800955 0.710395
Si Si3 0.399868 0.700015 0.003134
Si Si4 0.077344 0.708626 0.603771
Si Si5 0.766741 0.699504 0.883766
O O1 0.702566 0.283219 0.364583
O O2 0.624274 0.261487 0.517060
O O3 0.526857 0.256601 0.395218
O O4 0.631323 0.000000 0.420988
O O5 0.632440 0.730423 0.677257
O O6 0.758097 0.715232 0.789331
O O7 0.711240 0.000000 0.730512
O O8 0.408971 0.500000 0.024311
O O9 0.324160 0.771310 0.068763
O O10 0.500000 0.775666 0.000000
O O11 0.353264 0.714651 0.918986
O O12 0.079903 0.500000 0.604075
O O13 0.773687 0.500000 0.905033
#
# Coordination Sequence:
#
# PCOD9205871 Si02
#       5
#     8   8   8   8   8
#     4   9  17  34  55  74  99 136 180 218 257 308
#     4  11  21  33  50  76 108 138 170 214 262 301
#     4   9  19  38  61  81 104 133 165 208 259 305
#     4   8  17  33  53  74 101 138 176 215 260 310
#     4  10  21  36  54  79 107 136 171 207 250 309
#
# _framework density 20.663522
#
# number of rings (size 3 to 8) (size 9 to 14) (size 15 to 20)
#    0.000    2.600    0.000    3.000    0.000    2.800 
#    0.000    9.000    0.000    0.000    0.000    0.000 
#    0.000    0.000    0.000    0.000    0.000    0.000 
#
# Total GULP energy -111597.156448 kJ/mol
# GULP energy per Si atom -5579.857822 kJ/mol
# Density = 2.061649 g / cm^3
# Si number density = 20.663522 Si / 1000 Ang^3
#
#
#
# Elastic Constant Matrix: (Units=GPa)
#
#
# Indices 1 2 3 4 5 6 
#
# 1 105.9449 -2.1104 29.4234 0.0000 21.2279 0.0000
# 2 -2.1104 27.6466 -6.5230 0.0000 -4.1881 0.0000
# 3 29.4234 -6.5230 51.5642 0.0000 23.9262 0.0000
# 4 0.0000 0.0000 0.0000 8.0945 0.0000 -7.4117
# 5 21.2279 -4.1881 23.9262 0.0000 18.4127 0.0000
# 6 0.0000 0.0000 0.0000 -7.4117 0.0000 8.8808
#
#
#
# Elastic Compliance Matrix: (Units=1/GPa)
#
#
# Indices 1 2 3 4 5 6 
#
# 1 0.012344 -0.001305 -0.001178 0.000000 -0.012998 0.000000
# 2 -0.001305 0.037680 0.002106 0.000000 0.007338 0.000000
# 3 -0.001178 0.002106 0.049060 0.000000 -0.061914 0.000000
# 4 0.000000 0.000000 0.000000 0.523872 0.000000 0.437210
# 5 -0.012998 0.007338 -0.061914 0.000000 0.151418 0.000000
# 6 0.000000 0.000000 0.000000 0.437210 0.000000 0.477486
#
#
# Mechanical properties :
#
#
# Convention : Reuss Voigt Hill
#
# Bulk Modulus (GPa) = 10.16959 25.19285 17.68122
# Shear Modulus (GPa) = 3.88987 18.03533 10.96260
#
# Velocity S-wave (km/s) = 1.37352 2.95754 2.30582
# Velocity P-wave (km/s) = 2.72903 4.88683 3.95783
#
# Compressibility (1/GPa) = 0.09833241
#
# Stress axis : x y z
#
# Youngs Moduli (GPa) = 81.00866 26.53947 20.38304
#
# Poissons Ratio (x) = 0.03462 0.02401
# Poissons Ratio (y) = 0.10569 -0.04293
# Poissons Ratio (z) = 0.09540 -0.05590
#
# Static dielectric constant tensor:
#      x y z
#    x 1.750990 0.000000 0.008400 
#    y 0.000000 1.761170 0.000000 
#    z 0.008400 0.000000 1.714850 
# 
# From -- ./inp_files/211228.got.cif
#   From: 2010.05.17/outbox.cif.g08.bks.cpg/sg12_106_cif.got.tgz:211228.got - 2010.06.03 13:09:07.
