data_PCOD9205716
_publ_section_title
;
Structure prediction by ZEFSAII (Michael W. Deem and Ramdas Pophale) SiO2 
 PCOD9205716
Probable space group: C 2/M
;
_chemical_formula_sum "Si O2"
_cell_formula_units_Z 60
_cell_length_a 16.785060
_cell_length_b 28.867457
_cell_length_c 17.634230
_cell_angle_alpha 90.000000
_cell_angle_beta 24.788460
_cell_angle_gamma 90.000000
_cell_volume 3582.456496
_symmetry_space_group_name_H-M "C 2/M"
_symmetry_group_IT_number 12
_symmetry_cell_setting 'monoclinic'
loop_
_space_group_symop_operation_xyz
x,y,z
-x,y,-z
-x,-y,-z
x,-y,z
1/2+x,1/2+y,z
1/2-x,1/2+y,-z
1/2-x,1/2-y,-z
1/2+x,1/2-y,z
loop_
_atom_site_type_symbol
_atom_site_label
_atom_site_fract_x
_atom_site_fract_y
_atom_site_fract_z
Si Si1 0.663845 0.709740 0.806000
Si Si2 0.832517 0.848944 0.333593
Si Si3 0.796381 0.449638 0.782119
Si Si4 0.000000 0.216029 0.500000
Si Si5 0.112629 0.051480 0.781735
Si Si6 0.350967 0.699053 0.476790
Si Si7 0.932414 0.275295 0.805185
Si Si8 0.399118 0.150097 0.715501
O O1 0.578030 0.687151 0.803705
O O2 0.822347 0.748796 0.659835
O O3 0.752788 0.667418 0.778564
O O4 0.500000 0.730188 0.000000
O O5 0.877036 0.902223 0.276899
O O6 0.862767 0.835456 0.394868
O O7 0.611812 0.838622 0.506701
O O8 0.884222 0.500000 0.720512
O O9 0.763023 0.444697 0.720772
O O10 0.898817 0.404808 0.724355
O O11 0.590735 0.448929 0.000139
O O12 0.048017 0.185978 0.532506
O O13 0.135448 0.000000 0.726730
O O14 0.473343 0.743034 0.341468
O O15 0.127245 0.711981 0.682652
O O16 0.865085 0.322177 0.822239
O O17 0.750000 0.250000 0.000000
#
# Coordination Sequence:
#
# PCOD9205716 Si02
#       8
#     8   8   8   4   8   8   8   8
#     4  12  22  32  51  74 101 140 173 206 246 305
#     4  11  21  35  49  73 105 130 176 210 254 294
#     4   9  18  31  46  72 101 134 171 201 242 295
#     4  12  22  40  50  72 100 132 184 214 266 302
#     4   9  18  31  48  70 101 133 167 206 247 301
#     4  10  23  36  51  71 101 134 166 228 250 304
#     4  10  21  36  51  75 102 132 178 211 257 297
#     4  11  20  32  48  76 100 141 173 209 243 300
#
# _framework density 16.748284000000002
#
# number of rings (size 3 to 8) (size 9 to 14) (size 15 to 20)
#    0.000    1.600    4.000    3.200    5.600    0.533 
#    0.000    1.333    0.000    0.000    0.000    0.467 
#    0.000    0.000    0.000    8.000    0.000    0.000 
#
# Total GULP energy -167285.254387 kJ/mol
# GULP energy per Si atom -5576.175146 kJ/mol
# Density = 1.671016 g / cm^3
# Si number density = 16.748284 Si / 1000 Ang^3
#
#
#
# Elastic Constant Matrix: (Units=GPa)
#
#
# Indices 1 2 3 4 5 6 
#
# 1 104.0806 37.0891 26.6652 -0.0060 9.6940 -0.0046
# 2 37.0891 105.5208 23.0106 -0.0084 13.3779 0.0497
# 3 26.6652 23.0106 70.4044 0.0554 1.8007 0.0755
# 4 -0.0060 -0.0084 0.0554 21.1957 0.0079 5.1490
# 5 9.6940 13.3779 1.8007 0.0079 14.9357 -0.0460
# 6 -0.0046 0.0497 0.0755 5.1490 -0.0460 19.4372
#
#
#
# Elastic Compliance Matrix: (Units=1/GPa)
#
#
# Indices 1 2 3 4 5 6 
#
# 1 0.011957 -0.002835 -0.003479 0.000011 -0.004802 0.000009
# 2 -0.002835 0.012165 -0.002679 0.000026 -0.008733 -0.000049
# 3 -0.003479 -0.002679 0.016328 -0.000036 0.002689 -0.000042
# 4 0.000011 0.000026 -0.000036 0.050425 -0.000094 -0.013358
# 5 -0.004802 -0.008733 0.002689 -0.000094 0.077569 0.000219
# 6 0.000009 -0.000049 -0.000042 -0.013358 0.000219 0.054987
#
#
# Mechanical properties :
#
#
# Convention : Reuss Voigt Hill
#
# Bulk Modulus (GPa) = 44.51635 50.39282 47.45458
# Shear Modulus (GPa) = 20.08805 23.99643 22.04224
#
# Velocity S-wave (km/s) = 3.46701 3.78930 3.63173
# Velocity P-wave (km/s) = 6.53178 7.02131 6.78096
#
# Compressibility (1/GPa) = 0.02246366
#
# Stress axis : x y z
#
# Youngs Moduli (GPa) = 83.63419 82.20535 61.24407
#
# Poissons Ratio (x) = 0.23307 0.21308
# Poissons Ratio (y) = 0.23712 0.16405
# Poissons Ratio (z) = 0.29097 0.22020
#
# Static dielectric constant tensor:
#      x y z
#    x 1.593270 -0.000010 0.000480 
#    y -0.000010 1.585910 0.000100 
#    z 0.000480 0.000100 1.654350 
# 
# From -- ./inp_files/219453.got.cif
#   From: 2010.05.17/outbox.cif.g08.bks.cpg/sg12_110_cif.got.tgz:219453.got - 2010.06.03 13:09:07.
