data_PCOD9205482
_publ_section_title
;
Structure prediction by ZEFSAII (Michael W. Deem and Ramdas Pophale) SiO2 
 PCOD9205482
Probable space group: C 2/M
;
_chemical_formula_sum "Si O2"
_cell_formula_units_Z 64
_cell_length_a 14.804397
_cell_length_b 18.560702
_cell_length_c 14.255997
_cell_angle_alpha 90.000000
_cell_angle_beta 54.519481
_cell_angle_gamma 90.000000
_cell_volume 3189.877745
_symmetry_space_group_name_H-M "C 2/M"
_symmetry_group_IT_number 12
_symmetry_cell_setting 'monoclinic'
loop_
_space_group_symop_operation_xyz
x,y,z
-x,y,-z
-x,-y,-z
x,-y,z
1/2+x,1/2+y,z
1/2-x,1/2+y,-z
1/2-x,1/2-y,-z
1/2+x,1/2-y,z
loop_
_atom_site_type_symbol
_atom_site_label
_atom_site_fract_x
_atom_site_fract_y
_atom_site_fract_z
Si Si1 0.578148 0.419805 0.544280
Si Si2 0.516075 0.288609 0.282983
Si Si3 0.306850 0.875438 0.316048
Si Si4 0.972463 0.629505 0.373901
Si Si5 0.632029 0.923162 0.926707
Si Si6 0.770085 0.718747 0.088880
Si Si7 0.318479 0.915456 0.641853
Si Si8 0.153266 0.783060 0.770808
O O1 0.500000 0.416807 0.500000
O O2 0.569888 0.500000 0.590544
O O3 0.539333 0.357539 0.636496
O O4 0.702384 0.405361 0.434591
O O5 0.483568 0.216137 0.359187
O O6 0.648133 0.293589 0.205645
O O7 0.466527 0.285097 0.207213
O O8 0.417476 0.892021 0.308668
O O9 0.319001 0.909461 0.206425
O O10 0.294389 0.788829 0.309858
O O11 0.887753 0.604949 0.506297
O O12 0.091820 0.597337 0.328724
O O13 0.669663 0.856372 0.963725
O O14 0.670685 0.000000 0.939561
O O15 0.500000 0.922796 0.000000
O O16 0.839579 0.764604 0.123149
O O17 0.750000 0.750000 0.000000
O O18 0.221281 0.856291 0.710593
O O19 0.286142 0.000000 0.658373
#
# Coordination Sequence:
#
# PCOD9205482 Si02
#       8
#     8   8   8   8   8   8   8   8
#     4  11  23  36  58  93 129 168 207 253 318 381
#     4  11  23  39  64  90 122 168 208 265 309 370
#     4  10  21  38  62  88 123 163 208 255 304 372
#     4  10  21  35  56  86 121 162 214 246 301 360
#     4  10  23  41  65  95 127 160 203 266 322 365
#     4  11  25  42  68  90 121 162 211 263 316 380
#     4  11  22  36  56  88 130 168 200 248 302 368
#     4  10  22  40  60  90 123 159 212 255 310 375
#
# _framework density 20.063465000000001
#
# number of rings (size 3 to 8) (size 9 to 14) (size 15 to 20)
#    0.000    1.500    1.250    4.125    7.000    7.000 
#    0.000    1.875    0.000    0.000    0.000    2.625 
#    0.000    0.000    0.000    0.000    0.000    0.000 
#
# Total GULP energy -178759.725091 kJ/mol
# GULP energy per Si atom -5586.241409 kJ/mol
# Density = 2.001780 g / cm^3
# Si number density = 20.063465 Si / 1000 Ang^3
#
#
#
# Elastic Constant Matrix: (Units=GPa)
#
#
# Indices 1 2 3 4 5 6 
#
# 1 97.3569 28.3542 -0.2218 0.0000 13.8391 0.0000
# 2 28.3542 141.9586 15.9699 0.0000 5.3986 0.0000
# 3 -0.2218 15.9699 31.5167 0.0000 2.7859 0.0000
# 4 0.0000 0.0000 0.0000 -11.3794 0.0000 -40.2987
# 5 13.8391 5.3986 2.7859 0.0000 26.9059 0.0000
# 6 0.0000 0.0000 0.0000 -40.2987 0.0000 -7.2277
#
#
#
# Elastic Compliance Matrix: (Units=1/GPa)
#
#
# Indices 1 2 3 4 5 6 
#
# 1 0.011775 -0.002332 0.001775 0.000000 -0.005772 0.000000
# 2 -0.002332 0.007965 -0.004054 0.000000 0.000021 0.000000
# 3 0.001775 -0.004054 0.034117 0.000000 -0.003632 0.000000
# 4 0.000000 0.000000 0.000000 0.004688 0.000000 -0.026138
# 5 -0.005772 0.000021 -0.003632 0.000000 0.040507 0.000000
# 6 0.000000 0.000000 0.000000 -0.026138 0.000000 0.007381
#
#
# Mechanical properties :
#
#
# Convention : Reuss Voigt Hill
#
# Bulk Modulus (GPa) = 22.40423 39.89298 31.14861
# Shear Modulus (GPa) = 38.30367 16.77509 27.53938
#
# Velocity S-wave (km/s) = 4.37409 2.89468 3.70890
# Velocity P-wave (km/s) = 6.05815 5.57663 5.82237
#
# Compressibility (1/GPa) = 0.04463442
#
# Stress axis : x y z
#
# Youngs Moduli (GPa) = 84.92374 125.54266 29.31076
#
# Poissons Ratio (x) = 0.29278 -0.05202
# Poissons Ratio (y) = 0.19805 0.11884
# Poissons Ratio (z) = -0.15072 0.50901
#
# Static dielectric constant tensor:
#      x y z
#    x 1.731450 0.000000 0.012940 
#    y 0.000000 1.688510 0.000000 
#    z 0.012940 0.000000 1.688350 
# 
# From -- ./inp_files/216771.got.cif
#   From: 2010.05.17/outbox.cif.g08.bks.cpg/sg12_109_cif.got.tgz:216771.got - 2010.06.03 13:09:07.
