data_PCOD9205587
_publ_section_title
;
Structure prediction by ZEFSAII (Michael W. Deem and Ramdas Pophale) SiO2 
 PCOD9205587
Probable space group: C 2/M
;
_chemical_formula_sum "Si O2"
_cell_formula_units_Z 40
_cell_length_a 13.050779
_cell_length_b 13.272904
_cell_length_c 13.369367
_cell_angle_alpha 90.000000
_cell_angle_beta 42.986800
_cell_angle_gamma 90.000000
_cell_volume 1579.025867
_symmetry_space_group_name_H-M "C 2/M"
_symmetry_group_IT_number 12
_symmetry_cell_setting 'monoclinic'
loop_
_space_group_symop_operation_xyz
x,y,z
-x,y,-z
-x,-y,-z
x,-y,z
1/2+x,1/2+y,z
1/2-x,1/2+y,-z
1/2-x,1/2-y,-z
1/2+x,1/2-y,z
loop_
_atom_site_type_symbol
_atom_site_label
_atom_site_fract_x
_atom_site_fract_y
_atom_site_fract_z
Si Si1 0.501385 0.121796 0.385175
Si Si2 0.597136 0.241287 0.838980
Si Si3 0.144184 0.120915 0.238134
Si Si4 0.670123 0.379377 0.602209
Si Si5 0.337262 0.120295 0.917287
O O1 0.500000 0.158669 0.500000
O O2 0.340209 0.144692 0.449143
O O3 0.637408 0.153018 0.215490
O O4 0.510295 0.000000 0.385183
O O5 0.739132 0.176174 0.774045
O O6 0.644071 0.324663 0.725876
O O7 0.479129 0.163177 0.875146
O O8 0.500000 0.286703 0.000000
O O9 0.968011 0.146560 0.372388
O O10 0.159968 0.000000 0.240052
O O11 0.193168 0.145957 0.087645
O O12 0.662363 0.500000 0.622230
O O13 0.343127 0.000000 0.912642
#
# Coordination Sequence:
#
# PCOD9205587 Si02
#       5
#     8   8   8   8   8
#     4   9  19  36  56  80 114 153 189 229 282 341
#     4  10  21  35  58  87 116 148 189 234 284 339
#     4   9  19  38  62  86 113 146 188 238 285 332
#     4  10  22  38  56  82 117 153 190 233 279 331
#     4   9  18  35  59  84 112 149 191 234 284 340
#
# _framework density 25.332073000000001
#
# number of rings (size 3 to 8) (size 9 to 14) (size 15 to 20)
#    0.000    2.600    0.000    0.600    0.000   10.000 
#    0.000    5.000    0.000    6.000    0.000    0.000 
#    0.000    0.000    0.000    0.000    0.000    0.000 
#
# Total GULP energy -112022.659239 kJ/mol
# GULP energy per Si atom -5601.132962 kJ/mol
# Density = 2.527442 g / cm^3
# Si number density = 25.332073 Si / 1000 Ang^3
#
#
#
# Elastic Constant Matrix: (Units=GPa)
#
#
# Indices 1 2 3 4 5 6 
#
# 1 99.0890 38.1873 16.5543 0.0000 -22.5380 0.0000
# 2 38.1873 97.4295 45.2337 0.0000 -19.0892 0.0000
# 3 16.5543 45.2337 74.0300 0.0000 -9.8418 0.0000
# 4 0.0000 0.0000 0.0000 45.9936 0.0000 -2.1482
# 5 -22.5380 -19.0892 -9.8418 0.0000 36.6561 0.0000
# 6 0.0000 0.0000 0.0000 -2.1482 0.0000 30.3532
#
#
#
# Elastic Compliance Matrix: (Units=1/GPa)
#
#
# Indices 1 2 3 4 5 6 
#
# 1 0.012956 -0.004099 0.000397 0.000000 0.005938 0.000000
# 2 -0.004099 0.016692 -0.008775 0.000000 0.003816 0.000000
# 3 0.000397 -0.008775 0.018880 0.000000 0.000743 0.000000
# 4 0.000000 0.000000 0.000000 0.021814 0.000000 0.001544
# 5 0.005938 0.003816 0.000743 0.000000 0.033119 0.000000
# 6 0.000000 0.000000 0.000000 0.001544 0.000000 0.033055
#
#
# Mechanical properties :
#
#
# Convention : Reuss Voigt Hill
#
# Bulk Modulus (GPa) = 42.42093 52.27767 47.34930
# Shear Modulus (GPa) = 29.52844 33.97212 31.75028
#
# Velocity S-wave (km/s) = 3.41787 3.66604 3.54413
# Velocity P-wave (km/s) = 5.68842 6.21301 5.95649
#
# Compressibility (1/GPa) = 0.02357327
#
# Stress axis : x y z
#
# Youngs Moduli (GPa) = 77.18512 59.90809 52.96607
#
# Poissons Ratio (x) = 0.24555 -0.02101
# Poissons Ratio (y) = 0.31637 0.46479
# Poissons Ratio (z) = -0.03062 0.52571
#
# Static dielectric constant tensor:
#      x y z
#    x 1.983830 0.000000 0.013230 
#    y 0.000000 1.997260 0.000000 
#    z 0.013230 0.000000 2.024770 
# 
# From -- ./inp_files/204158.got.cif
#   From: 2010.05.17/outbox.cif.g08.bks.cpg/sg12_103_cif.got.tgz:204158.got - 2010.06.03 13:09:07.
