data_PCOD9205579
_publ_section_title
;
Structure prediction by ZEFSAII (Michael W. Deem and Ramdas Pophale) SiO2 
 PCOD9205579
Probable space group: C 2/M
;
_chemical_formula_sum "Si O2"
_cell_formula_units_Z 48
_cell_length_a 27.852697
_cell_length_b 14.199327
_cell_length_c 5.503682
_cell_angle_alpha 90.000000
_cell_angle_beta 84.475674
_cell_angle_gamma 90.000000
_cell_volume 2166.539103
_symmetry_space_group_name_H-M "C 2/M"
_symmetry_group_IT_number 12
_symmetry_cell_setting 'monoclinic'
loop_
_space_group_symop_operation_xyz
x,y,z
-x,y,-z
-x,-y,-z
x,-y,z
1/2+x,1/2+y,z
1/2-x,1/2+y,-z
1/2-x,1/2-y,-z
1/2+x,1/2-y,z
loop_
_atom_site_type_symbol
_atom_site_label
_atom_site_fract_x
_atom_site_fract_y
_atom_site_fract_z
Si Si1 0.030237 0.892171 0.737097
Si Si2 0.525556 0.887620 0.739316
Si Si3 0.856845 0.606523 0.834262
Si Si4 0.203936 0.723734 0.758332
Si Si5 0.244915 0.395241 0.354705
Si Si6 0.606406 0.766597 0.563065
O O1 0.073031 0.820323 0.654538
O O2 0.000000 0.890907 0.500000
O O3 0.047025 0.000000 0.766572
O O4 0.000000 0.868158 0.000000
O O5 0.500000 0.853284 0.500000
O O6 0.580335 0.852033 0.719182
O O7 0.524406 0.000000 0.731225
O O8 0.500000 0.857058 0.000000
O O9 0.876755 0.500000 0.862242
O O10 0.812253 0.595915 0.666750
O O11 0.892070 0.685752 0.706074
O O12 0.826772 0.653474 0.062864
O O13 0.244396 0.659745 0.609593
O O14 0.229263 0.820014 0.834622
O O15 0.160866 0.758969 0.602129
O O16 0.265426 0.500000 0.340701
#
# Coordination Sequence:
#
# PCOD9205579 Si02
#       6
#     8   8   8   8   8   8
#     4  10  23  43  67  91 122 167 213 256 308 367
#     4  10  22  38  57  84 118 158 199 240 293 358
#     4  10  21  36  57  85 119 156 196 243 306 371
#     4  10  21  35  58  86 114 157 197 249 304 372
#     4   9  19  38  57  81 115 153 199 246 302 368
#     4  11  23  36  58  88 119 152 198 252 305 362
#
# _framework density 22.155152999999999
#
# number of rings (size 3 to 8) (size 9 to 14) (size 15 to 20)
#    0.000    2.000    0.000    2.500    4.667    2.667 
#    0.000    0.833    0.000    0.000    0.000    0.000 
#    0.000    0.000    0.000    0.000    0.000    0.000 
#
# Total GULP energy -133620.030736 kJ/mol
# GULP energy per Si atom -5567.501281 kJ/mol
# Density = 2.210473 g / cm^3
# Si number density = 22.155153 Si / 1000 Ang^3
#
#
#
# Elastic Constant Matrix: (Units=GPa)
#
#
# Indices 1 2 3 4 5 6 
#
# 1 61.4963 19.3827 26.4956 0.0000 -11.8872 0.0000
# 2 19.3827 171.8621 49.7034 0.0000 -9.9613 0.0000
# 3 26.4956 49.7034 118.4836 0.0000 -14.6327 0.0000
# 4 0.0000 0.0000 0.0000 25.0210 0.0000 -11.1642
# 5 -11.8872 -9.9613 -14.6327 0.0000 25.7055 0.0000
# 6 0.0000 0.0000 0.0000 -11.1642 0.0000 13.3622
#
#
#
# Elastic Compliance Matrix: (Units=1/GPa)
#
#
# Indices 1 2 3 4 5 6 
#
# 1 0.019175 -0.000878 -0.003083 0.000000 0.006772 0.000000
# 2 -0.000878 0.006689 -0.002517 0.000000 0.000753 0.000000
# 3 -0.003083 -0.002517 0.010636 0.000000 0.003654 0.000000
# 4 0.000000 0.000000 0.000000 0.063722 0.000000 0.053240
# 5 0.006772 0.000753 0.003654 0.000000 0.044405 0.000000
# 6 0.000000 0.000000 0.000000 0.053240 0.000000 0.119320
#
#
# Mechanical properties :
#
#
# Convention : Reuss Voigt Hill
#
# Bulk Modulus (GPa) = 42.47279 60.33395 51.40337
# Shear Modulus (GPa) = 17.55909 29.90176 23.73043
#
# Velocity S-wave (km/s) = 2.81828 3.67775 3.27632
# Velocity P-wave (km/s) = 5.45917 6.73246 6.12897
#
# Compressibility (1/GPa) = 0.02354449
#
# Stress axis : x y z
#
# Youngs Moduli (GPa) = 52.15002 149.49539 94.01672
#
# Poissons Ratio (x) = 0.13132 0.28988
# Poissons Ratio (y) = 0.04581 0.23660
# Poissons Ratio (z) = 0.16079 0.37622
#
# Static dielectric constant tensor:
#      x y z
#    x 1.924260 0.000000 0.097510 
#    y 0.000000 1.837660 0.000000 
#    z 0.097510 0.000000 1.986400 
# 
# From -- ./inp_files/31407.got.cif
#   From: 2010.05.17/outbox.cif.g08.bks.cpg/sg12_16_cif.got.tgz:31407.got - 2010.06.03 13:09:07.
