data_PCOD9205056
_publ_section_title
;
Structure prediction by ZEFSAII (Michael W. Deem and Ramdas Pophale) SiO2 
 PCOD9205056
Probable space group: C 2/M
;
_chemical_formula_sum "Si O2"
_cell_formula_units_Z 28
_cell_length_a 13.804167
_cell_length_b 5.746221
_cell_length_c 32.401617
_cell_angle_alpha 90.000000
_cell_angle_beta 156.881923
_cell_angle_gamma 90.000000
_cell_volume 1009.112792
_symmetry_space_group_name_H-M "C 2/M"
_symmetry_group_IT_number 12
_symmetry_cell_setting 'monoclinic'
loop_
_space_group_symop_operation_xyz
x,y,z
-x,y,-z
-x,-y,-z
x,-y,z
1/2+x,1/2+y,z
1/2-x,1/2+y,-z
1/2-x,1/2-y,-z
1/2+x,1/2-y,z
loop_
_atom_site_type_symbol
_atom_site_label
_atom_site_fract_x
_atom_site_fract_y
_atom_site_fract_z
Si Si1 0.867884 0.248868 0.992769
Si Si2 0.209384 0.000000 0.274826
Si Si3 0.859878 0.500000 0.721877
Si Si4 0.644846 0.000000 0.513133
Si Si5 0.658524 0.500000 0.520028
Si Si6 0.254258 0.500000 0.807429
O O1 0.748398 0.500000 0.952280
O O2 0.086427 0.215632 0.112009
O O3 0.732556 0.000000 0.943169
O O4 0.000000 0.250206 0.000000
O O5 0.077220 0.752643 0.233751
O O6 0.443181 0.000000 0.397688
O O7 0.271133 0.000000 0.250964
O O8 0.563879 0.500000 0.600669
O O9 0.997872 0.500000 0.731807
O O10 0.500000 0.000000 0.500000
O O11 0.782099 0.753452 0.565266
O O12 0.500000 0.500000 0.500000
#
# Coordination Sequence:
#
# PCOD9205056 Si02
#       6
#     8   4   4   4   4   4
#     4   8  16  30  52  76 100 141 175 206 269 317
#     4  10  22  34  52  82 108 139 178 220 271 319
#     4  10  22  34  52  82 108 139 178 220 271 319
#     4   8  14  28  48  66  95 136 167 205 259 305
#     4   8  14  28  48  66  95 136 167 205 259 305
#     4  10  21  34  60  76 112 138 178 226 266 312
#
# _framework density 27.747146000000001
#
# number of rings (size 3 to 8) (size 9 to 14) (size 15 to 20)
#    0.857    2.286    0.000    0.000    4.000    0.000 
#    0.000    0.000    0.000   34.286    0.000    0.000 
#    0.000    0.000    0.000    0.000    0.000    0.000 
#
# Total GULP energy -78274.114294 kJ/mol
# GULP energy per Si atom -5591.008164 kJ/mol
# Density = 2.768399 g / cm^3
# Si number density = 27.747146 Si / 1000 Ang^3
#
#
#
# Elastic Constant Matrix: (Units=GPa)
#
#
# Indices 1 2 3 4 5 6 
#
# 1 181.9960 66.6982 55.4308 -0.0040 -60.2301 0.0010
# 2 66.6982 342.3705 62.1778 -0.0103 3.6086 0.0009
# 3 55.4308 62.1778 111.2013 -0.0137 -27.4973 -0.0007
# 4 -0.0040 -0.0103 -0.0137 36.3952 0.0021 12.7405
# 5 -60.2301 3.6086 -27.4973 0.0021 60.1146 -0.0011
# 6 0.0010 0.0009 -0.0007 12.7405 -0.0011 23.6594
#
#
#
# Elastic Compliance Matrix: (Units=1/GPa)
#
#
# Indices 1 2 3 4 5 6 
#
# 1 0.009552 -0.001660 -0.001626 -0.000001 0.008926 0.000000
# 2 -0.001660 0.003612 -0.001869 0.000000 -0.002734 -0.000001
# 3 -0.001626 -0.001869 0.011809 0.000004 0.003884 -0.000001
# 4 -0.000001 0.000000 0.000004 0.033859 0.000000 -0.018233
# 5 0.008926 -0.002734 0.003884 0.000000 0.027519 0.000001
# 6 0.000000 -0.000001 -0.000001 -0.018233 0.000001 0.052085
#
#
# Mechanical properties :
#
#
# Convention : Reuss Voigt Hill
#
# Bulk Modulus (GPa) = 68.19395 111.57570 89.88482
# Shear Modulus (GPa) = 32.54494 54.11790 43.33142
#
# Velocity S-wave (km/s) = 3.42849 4.42112 3.95606
# Velocity P-wave (km/s) = 6.34847 8.14620 7.30286
#
# Compressibility (1/GPa) = 0.01466406
#
# Stress axis : x y z
#
# Youngs Moduli (GPa) = 104.68682 276.82996 84.68331
#
# Poissons Ratio (x) = 0.45944 0.13772
# Poissons Ratio (y) = 0.17374 0.15825
# Poissons Ratio (z) = 0.17025 0.51731
#
# Static dielectric constant tensor:
#      x y z
#    x 2.076600 0.000000 0.020260 
#    y 0.000000 2.137010 0.000020 
#    z 0.020260 0.000020 2.301830 
# 
# From -- ./inp_files/297341.got.cif
#   From: 2010.05.17/outbox.cif.g08.bks.cpg/sg12_149_cif.got.tgz:297341.got - 2010.06.03 13:09:07.
