data_PCOD9205839
_publ_section_title
;
Structure prediction by ZEFSAII (Michael W. Deem and Ramdas Pophale) SiO2 
 PCOD9205839
Probable space group: C 2/M
;
_chemical_formula_sum "Si O2"
_cell_formula_units_Z 64
_cell_length_a 15.274201
_cell_length_b 8.931729
_cell_length_c 24.476539
_cell_angle_alpha 90.000000
_cell_angle_beta 93.426759
_cell_angle_gamma 90.000000
_cell_volume 3333.241980
_symmetry_space_group_name_H-M "C 2/M"
_symmetry_group_IT_number 12
_symmetry_cell_setting 'monoclinic'
loop_
_space_group_symop_operation_xyz
x,y,z
-x,y,-z
-x,-y,-z
x,-y,z
1/2+x,1/2+y,z
1/2-x,1/2+y,-z
1/2-x,1/2-y,-z
1/2+x,1/2-y,z
loop_
_atom_site_type_symbol
_atom_site_label
_atom_site_fract_x
_atom_site_fract_y
_atom_site_fract_z
Si Si1 0.392248 0.321564 0.786838
Si Si2 0.566029 0.178362 0.763902
Si Si3 0.896850 0.180797 0.498355
Si Si4 0.858151 0.173183 0.126369
Si Si5 0.233440 0.681986 0.705408
Si Si6 0.396413 0.329051 0.006180
Si Si7 0.348693 0.169674 0.894366
Si Si8 0.746781 0.319172 0.417940
O O1 0.392936 0.500000 0.788156
O O2 0.473737 0.259655 0.756020
O O3 0.304158 0.268851 0.753025
O O4 0.396806 0.262631 0.849034
O O5 0.604450 0.226856 0.824054
O O6 0.636971 0.227066 0.721527
O O7 0.555325 0.000000 0.761312
O O8 0.833230 0.250278 0.449735
O O9 0.841822 0.219577 0.551577
O O10 0.000000 0.227590 0.500000
O O11 0.896194 0.000000 0.493149
O O12 0.753331 0.170381 0.125258
O O13 0.890395 0.000000 0.132775
O O14 0.881325 0.229648 0.066607
O O15 0.234977 0.500000 0.705955
O O16 0.256640 0.729822 0.645162
O O17 0.361561 0.500000 0.003721
O O18 0.356433 0.237267 0.954956
O O19 0.500000 0.333648 0.000000
O O20 0.381880 0.000000 0.895482
O O21 0.754630 0.500000 0.420061
#
# Coordination Sequence:
#
# PCOD9205839 Si02
#       8
#     8   8   8   8   8   8   8   8
#     4  11  22  39  60  82 111 151 191 231 289 348
#     4  11  22  38  59  84 111 145 191 239 286 340
#     4   9  18  33  55  85 119 153 190 234 281 327
#     4  10  21  37  56  81 111 145 185 229 284 345
#     4   9  20  38  58  81 113 153 192 231 283 340
#     4  10  21  36  54  77 107 143 183 228 282 347
#     4  11  22  36  56  82 110 142 187 236 282 338
#     4   9  18  35  57  81 114 154 194 234 277 331
#
# _framework density 19.200526
#
# number of rings (size 3 to 8) (size 9 to 14) (size 15 to 20)
#    0.000    2.000    1.250    2.250    0.000    3.500 
#    0.000    3.750    0.000    0.000    0.000    0.000 
#    0.000    0.000    0.000    0.000    0.000    0.000 
#
# Total GULP energy -178599.117518 kJ/mol
# GULP energy per Si atom -5581.222422 kJ/mol
# Density = 1.915683 g / cm^3
# Si number density = 19.200526 Si / 1000 Ang^3
#
#
#
# Elastic Constant Matrix: (Units=GPa)
#
#
# Indices 1 2 3 4 5 6 
#
# 1 79.9484 8.1620 18.8503 0.0000 -20.8350 0.0000
# 2 8.1620 35.4002 16.6894 0.0000 -5.9129 0.0000
# 3 18.8503 16.6894 106.7772 0.0000 -23.0483 0.0000
# 4 0.0000 0.0000 0.0000 23.3468 0.0000 -0.6802
# 5 -20.8350 -5.9129 -23.0483 0.0000 22.2448 0.0000
# 6 0.0000 0.0000 0.0000 -0.6802 0.0000 30.0781
#
#
#
# Elastic Compliance Matrix: (Units=1/GPa)
#
#
# Indices 1 2 3 4 5 6 
#
# 1 0.016647 -0.001523 0.000744 0.000000 0.015958 0.000000
# 2 -0.001523 0.030925 -0.003991 0.000000 0.002658 0.000000
# 3 0.000744 -0.003991 0.012596 0.000000 0.012687 0.000000
# 4 0.000000 0.000000 0.000000 0.042861 0.000000 0.000969
# 5 0.015958 0.002658 0.012687 0.000000 0.073753 0.000000
# 6 0.000000 0.000000 0.000000 0.000969 0.000000 0.033269
#
#
# Mechanical properties :
#
#
# Convention : Reuss Voigt Hill
#
# Bulk Modulus (GPa) = 19.75213 34.39211 27.07212
# Shear Modulus (GPa) = 21.14458 27.02887 24.08672
#
# Velocity S-wave (km/s) = 3.32211 3.75602 3.54571
# Velocity P-wave (km/s) = 5.00248 6.06310 5.55815
#
# Compressibility (1/GPa) = 0.05062746
#
# Stress axis : x y z
#
# Youngs Moduli (GPa) = 60.07142 32.33610 79.38806
#
# Poissons Ratio (x) = 0.04926 -0.05905
# Poissons Ratio (y) = 0.09151 0.31683
# Poissons Ratio (z) = -0.04468 0.12905
#
# Static dielectric constant tensor:
#      x y z
#    x 1.685860 0.000000 -0.017180 
#    y 0.000000 1.668320 0.000000 
#    z -0.017180 0.000000 1.659740 
# 
# From -- ./inp_files/338728.got.cif
#   From: 2010.05.17/outbox.cif.g08.bks.cpg/sg12_170_cif.got.tgz:338728.got - 2010.06.03 13:09:07.
