data_PCOD9205042
_publ_section_title
;
Structure prediction by ZEFSAII (Michael W. Deem and Ramdas Pophale) SiO2 
 PCOD9205042
Probable space group: C 2/M
;
_chemical_formula_sum "Si O2"
_cell_formula_units_Z 58
_cell_length_a 20.471856
_cell_length_b 14.026321
_cell_length_c 26.869351
_cell_angle_alpha 90.000000
_cell_angle_beta 158.945006
_cell_angle_gamma 90.000000
_cell_volume 2771.862605
_symmetry_space_group_name_H-M "C 2/M"
_symmetry_group_IT_number 12
_symmetry_cell_setting 'monoclinic'
loop_
_space_group_symop_operation_xyz
x,y,z
-x,y,-z
-x,-y,-z
x,-y,z
1/2+x,1/2+y,z
1/2-x,1/2+y,-z
1/2-x,1/2-y,-z
1/2+x,1/2-y,z
loop_
_atom_site_type_symbol
_atom_site_label
_atom_site_fract_x
_atom_site_fract_y
_atom_site_fract_z
Si Si1 0.500000 0.500000 0.000000
Si Si2 0.069257 0.385884 0.255885
Si Si3 0.114031 0.265822 0.196943
Si Si4 0.134147 0.616005 0.417616
Si Si5 0.134337 0.644841 0.055518
Si Si6 0.269385 0.176894 0.211931
Si Si7 0.362372 0.386100 0.066257
Si Si8 0.504377 0.393104 0.273656
O O1 0.645913 0.583292 0.121434
O O2 0.104276 0.500000 0.273196
O O3 0.171486 0.318259 0.288726
O O4 0.112684 0.360994 0.343944
O O5 0.851961 0.370512 0.093698
O O6 0.256004 0.228398 0.256476
O O7 0.985612 0.175417 0.117329
O O8 0.984550 0.343404 0.078217
O O9 0.126557 0.500000 0.413494
O O10 0.325752 0.649837 0.576737
O O11 0.969738 0.653770 0.334414
O O12 0.184219 0.748744 0.112194
O O13 0.328573 0.600958 0.183429
O O14 0.000000 0.600249 0.000000
O O15 0.390637 0.500000 0.079698
O O16 0.429245 0.352924 0.168446
O O17 0.563566 0.500000 0.302263
#
# Coordination Sequence:
#
# PCOD9205042 Si02
#       8
#     2   8   8   8   8   8   8   8
#     4  12  20  36  64  88 132 168 214 264 318 372
#     4  10  21  36  62  94 124 162 214 268 318 370
#     4  11  21  36  59  92 127 161 210 266 312 373
#     4  10  22  40  64  93 126 165 216 263 313 382
#     4  10  21  37  59  93 124 155 210 259 306 373
#     4  11  23  36  60  93 125 167 211 262 319 374
#     4  10  21  34  58  90 123 161 206 257 320 375
#     4  10  22  41  61  88 127 168 203 253 319 383
#
# _framework density 20.924558000000001
#
# number of rings (size 3 to 8) (size 9 to 14) (size 15 to 20)
#    0.000    1.655    4.138    1.241    2.897    0.828 
#    0.000    2.759    3.034    2.483    0.000   11.586 
#    0.000    0.000    0.000    0.000    0.000    0.000 
#
# Total GULP energy -161602.748740 kJ/mol
# GULP energy per Si atom -5572.508577 kJ/mol
# Density = 2.087693 g / cm^3
# Si number density = 20.924558 Si / 1000 Ang^3
#
#
#
# Elastic Constant Matrix: (Units=GPa)
#
#
# Indices 1 2 3 4 5 6 
#
# 1 125.4012 27.4684 60.9065 -0.0064 -1.9058 -0.0012
# 2 27.4684 98.7529 17.6836 0.0077 -7.6633 0.0060
# 3 60.9065 17.6836 119.3547 -0.0008 -7.0030 -0.0014
# 4 -0.0064 0.0077 -0.0008 18.6892 0.0030 1.5014
# 5 -1.9058 -7.6633 -7.0030 0.0030 24.9638 -0.0032
# 6 -0.0012 0.0060 -0.0014 1.5014 -0.0032 -32.3174
#
#
#
# Elastic Compliance Matrix: (Units=1/GPa)
#
#
# Indices 1 2 3 4 5 6 
#
# 1 0.011059 -0.002215 -0.005394 0.000005 -0.001349 0.000000
# 2 -0.002215 0.011043 -0.000322 -0.000006 0.003130 0.000002
# 3 -0.005394 -0.000322 0.011336 -0.000002 0.002669 -0.000001
# 4 0.000005 -0.000006 -0.000002 0.053308 -0.000008 0.002477
# 5 -0.001349 0.003130 0.002669 -0.000008 0.041665 -0.000004
# 6 0.000000 0.000002 -0.000001 0.002477 -0.000004 -0.030828
#
#
# Mechanical properties :
#
#
# Convention : Reuss Voigt Hill
#
# Bulk Modulus (GPa) = 56.90030 61.73621 59.31826
# Shear Modulus (GPa) = 41.90998 18.09714 30.00356
#
# Velocity S-wave (km/s) = 4.48024 2.94407 3.79078
# Velocity P-wave (km/s) = 7.34953 6.41287 6.89712
#
# Compressibility (1/GPa) = 0.01757460
#
# Stress axis : x y z
#
# Youngs Moduli (GPa) = 90.42342 90.55533 88.21836
#
# Poissons Ratio (x) = 0.20056 0.47589
# Poissons Ratio (y) = 0.20027 0.02843
# Poissons Ratio (z) = 0.48778 0.02918
#
# Static dielectric constant tensor:
#      x y z
#    x 1.791130 0.000000 -0.010740 
#    y 0.000000 1.798510 -0.000020 
#    z -0.010740 -0.000020 1.731150 
# 
# From -- ./inp_files/366512.got.cif
#   From: 2010.05.17/outbox.cif.g08.bks.cpg/sg12_184_cif.got.tgz:366512.got - 2010.06.03 13:09:07.
