data_PCOD9205785
_publ_section_title
;
Structure prediction by ZEFSAII (Michael W. Deem and Ramdas Pophale) SiO2 
 PCOD9205785
Probable space group: C 2/M
;
_chemical_formula_sum "Si O2"
_cell_formula_units_Z 48
_cell_length_a 25.297713
_cell_length_b 7.419735
_cell_length_c 24.438432
_cell_angle_alpha 90.000000
_cell_angle_beta 25.309668
_cell_angle_gamma 90.000000
_cell_volume 1961.054613
_symmetry_space_group_name_H-M "C 2/M"
_symmetry_group_IT_number 12
_symmetry_cell_setting 'monoclinic'
loop_
_space_group_symop_operation_xyz
x,y,z
-x,y,-z
-x,-y,-z
x,-y,z
1/2+x,1/2+y,z
1/2-x,1/2+y,-z
1/2-x,1/2-y,-z
1/2+x,1/2-y,z
loop_
_atom_site_type_symbol
_atom_site_label
_atom_site_fract_x
_atom_site_fract_y
_atom_site_fract_z
Si Si1 0.244881 0.289091 0.131389
Si Si2 0.645355 0.717469 0.526207
Si Si3 0.514563 0.282931 0.424739
Si Si4 0.504880 0.203863 0.935539
Si Si5 0.414584 0.778011 0.252708
Si Si6 0.415177 0.205414 0.816808
O O1 0.271903 0.500000 0.098688
O O2 0.137270 0.275423 0.277672
O O3 0.367029 0.198058 0.039933
O O4 0.186688 0.215070 0.128927
O O5 0.639910 0.500000 0.537172
O O6 0.599622 0.763642 0.507839
O O7 0.786377 0.776552 0.400815
O O8 0.542088 0.796280 0.662645
O O9 0.500000 0.215557 0.500000
O O10 0.520173 0.500000 0.421722
O O11 0.553484 0.000000 0.898399
O O12 0.500000 0.289900 0.000000
O O13 0.582458 0.282846 0.812831
O O14 0.535250 0.714180 0.173009
O O15 0.418003 0.000000 0.249571
O O16 0.376893 0.000000 0.862978
#
# Coordination Sequence:
#
# PCOD9205785 Si02
#       6
#     8   8   8   8   8   8
#     4  10  21  36  53  75 108 142 173 214 264 315
#     4   9  17  30  51  80 109 134 169 217 263 308
#     4   9  18  31  53  80 105 137 178 220 259 305
#     4  10  22  38  58  78 101 137 182 224 262 306
#     4   9  18  33  54  79 105 137 176 218 262 308
#     4   9  18  34  54  77 108 140 170 210 264 317
#
# _framework density 24.476626
#
# number of rings (size 3 to 8) (size 9 to 14) (size 15 to 20)
#    0.000    2.667    0.000    1.000    2.333    2.000 
#    0.000    1.667    0.000    0.000    0.000    0.000 
#    0.000    0.000    0.000    0.000    0.000    0.000 
#
# Total GULP energy -134104.215389 kJ/mol
# GULP energy per Si atom -5587.675641 kJ/mol
# Density = 2.442092 g / cm^3
# Si number density = 24.476626 Si / 1000 Ang^3
#
#
#
# Elastic Constant Matrix: (Units=GPa)
#
#
# Indices 1 2 3 4 5 6 
#
# 1 120.8591 9.5203 25.1774 -0.0027 18.0973 0.0007
# 2 9.5203 84.2445 -1.5432 0.0270 4.2690 -0.0111
# 3 25.1774 -1.5432 93.4582 0.0056 -5.4052 -0.0064
# 4 -0.0027 0.0270 0.0056 23.9991 -0.0059 -19.9683
# 5 18.0973 4.2690 -5.4052 -0.0059 40.3479 0.0027
# 6 0.0007 -0.0111 -0.0064 -19.9683 0.0027 18.5531
#
#
#
# Elastic Compliance Matrix: (Units=1/GPa)
#
#
# Indices 1 2 3 4 5 6 
#
# 1 0.009636 -0.000908 -0.002877 0.000006 -0.004611 0.000005
# 2 -0.000908 0.012021 0.000396 -0.000073 -0.000812 -0.000072
# 3 -0.002877 0.000396 0.011644 0.000005 0.002809 0.000009
# 4 0.000006 -0.000073 0.000005 0.398770 0.000036 0.429187
# 5 -0.004611 -0.000812 0.002809 0.000036 0.027315 0.000036
# 6 0.000005 -0.000072 0.000009 0.429187 0.000036 0.515823
#
#
# Mechanical properties :
#
#
# Convention : Reuss Voigt Hill
#
# Bulk Modulus (GPa) = 37.70401 40.54120 39.12261
# Shear Modulus (GPa) = 5.04628 34.27385 19.66007
#
# Velocity S-wave (km/s) = 1.43741 3.74608 2.83718
# Velocity P-wave (km/s) = 4.26525 5.94222 5.17215
#
# Compressibility (1/GPa) = 0.02652238
#
# Stress axis : x y z
#
# Youngs Moduli (GPa) = 103.78252 83.18628 85.88019
#
# Poissons Ratio (x) = 0.07553 0.24712
# Poissons Ratio (y) = 0.09423 -0.03402
# Poissons Ratio (z) = 0.29863 -0.03295
#
# Static dielectric constant tensor:
#      x y z
#    x 1.957290 -0.000010 0.024980 
#    y -0.000010 1.953360 0.000010 
#    z 0.024980 0.000010 1.922850 
# 
# From -- ./inp_files/179197.got.cif
#   From: 2010.05.17/outbox.cif.g08.bks.cpg/sg12_90_cif.got.tgz:179197.got - 2010.06.03 13:09:07.
