data_PCOD9205809
_publ_section_title
;
Structure prediction by ZEFSAII (Michael W. Deem and Ramdas Pophale) SiO2 
 PCOD9205809
Probable space group: C 2/M
;
_chemical_formula_sum "Si O2"
_cell_formula_units_Z 56
_cell_length_a 16.558227
_cell_length_b 8.211216
_cell_length_c 23.428046
_cell_angle_alpha 90.000000
_cell_angle_beta 57.738787
_cell_angle_gamma 90.000000
_cell_volume 2693.607771
_symmetry_space_group_name_H-M "C 2/M"
_symmetry_group_IT_number 12
_symmetry_cell_setting 'monoclinic'
loop_
_space_group_symop_operation_xyz
x,y,z
-x,y,-z
-x,-y,-z
x,-y,z
1/2+x,1/2+y,z
1/2-x,1/2+y,-z
1/2-x,1/2-y,-z
1/2+x,1/2-y,z
loop_
_atom_site_type_symbol
_atom_site_label
_atom_site_fract_x
_atom_site_fract_y
_atom_site_fract_z
Si Si1 0.546733 0.195025 0.211325
Si Si2 0.198403 0.190463 0.352192
Si Si3 0.133724 0.192067 0.784029
Si Si4 0.587499 0.301267 0.927777
Si Si5 0.772339 0.696047 0.927778
Si Si6 0.308374 0.692999 0.423120
Si Si7 0.527752 0.302004 0.342551
O O1 0.447567 0.278636 0.232227
O O2 0.627844 0.252268 0.136519
O O3 0.571939 0.240599 0.266375
O O4 0.536196 0.000000 0.210762
O O5 0.271649 0.217941 0.272258
O O6 0.249572 0.264773 0.388175
O O7 0.095220 0.252475 0.369516
O O8 0.188421 0.000000 0.367986
O O9 0.090970 0.250105 0.860627
O O10 0.155251 0.000000 0.780273
O O11 0.583051 0.500000 0.929254
O O12 0.685753 0.250500 0.920193
O O13 0.500000 0.243681 0.000000
O O14 0.774158 0.500000 0.926079
O O15 0.750000 0.750000 0.000000
O O16 0.317041 0.500000 0.421829
O O17 0.250000 0.750000 0.500000
O O18 0.417736 0.757145 0.384411
O O19 0.528608 0.500000 0.341935
#
# Coordination Sequence:
#
# PCOD9205809 Si02
#       7
#     8   8   8   8   8   8   8
#     4  11  22  36  58  87 121 159 206 260 312 368
#     4  11  23  41  65  95 128 165 209 261 314 371
#     4  11  21  36  60  87 118 159 205 256 316 376
#     4   9  18  33  53  77 108 150 199 249 305 370
#     4  10  21  36  53  79 112 151 199 253 313 374
#     4  11  24  44  68  96 131 171 211 258 313 374
#     4  10  23  42  65  93 128 168 211 254 312 379
#
# _framework density 20.789961000000002
#
# number of rings (size 3 to 8) (size 9 to 14) (size 15 to 20)
#    0.000    1.571    1.429    3.429    0.000    5.714 
#    0.000    4.286    0.000    3.857    0.000    0.000 
#    0.000    0.000    0.000    0.000    0.000    0.000 
#
# Total GULP energy -156435.749053 kJ/mol
# GULP energy per Si atom -5586.991038 kJ/mol
# Density = 2.074264 g / cm^3
# Si number density = 20.789961 Si / 1000 Ang^3
#
#
#
# Elastic Constant Matrix: (Units=GPa)
#
#
# Indices 1 2 3 4 5 6 
#
# 1 129.8518 5.6393 42.6165 0.0000 2.6265 0.0000
# 2 5.6393 14.3639 2.2605 0.0000 0.0533 0.0001
# 3 42.6165 2.2605 112.6555 0.0000 3.6974 0.0000
# 4 0.0000 0.0000 0.0000 31.8884 0.0000 5.4177
# 5 2.6265 0.0533 3.6974 0.0000 26.5696 0.0000
# 6 0.0000 0.0001 0.0000 5.4177 0.0000 18.3150
#
#
#
# Elastic Compliance Matrix: (Units=1/GPa)
#
#
# Indices 1 2 3 4 5 6 
#
# 1 0.008923 -0.002982 -0.003302 0.000000 -0.000417 0.000000
# 2 -0.002982 0.070836 -0.000300 0.000000 0.000194 0.000000
# 3 -0.003302 -0.000300 0.010167 0.000000 -0.001088 0.000000
# 4 0.000000 0.000000 0.000000 0.033019 0.000000 -0.009767
# 5 -0.000417 0.000194 -0.001088 0.000000 0.037829 0.000000
# 6 0.000000 0.000000 0.000000 -0.009767 0.000000 0.057489
#
#
# Mechanical properties :
#
#
# Convention : Reuss Voigt Hill
#
# Bulk Modulus (GPa) = 13.02772 39.76708 26.39740
# Shear Modulus (GPa) = 19.45397 29.11158 24.28277
#
# Velocity S-wave (km/s) = 3.06230 3.74608 3.42132
# Velocity P-wave (km/s) = 4.33400 6.15470 5.32278
#
# Compressibility (1/GPa) = 0.07675937
#
# Stress axis : x y z
#
# Youngs Moduli (GPa) = 112.07426 14.11706 98.35360
#
# Poissons Ratio (x) = 0.04209 0.32475
# Poissons Ratio (y) = 0.33419 0.02948
# Poissons Ratio (z) = 0.37005 0.00423
#
# Static dielectric constant tensor:
#      x y z
#    x 1.765940 0.000000 -0.004780 
#    y 0.000000 1.720540 0.000000 
#    z -0.004780 0.000000 1.748410 
# 
# From -- ./inp_files/338487.got.cif
#   From: 2010.05.17/outbox.cif.g08.bks.cpg/sg12_170_cif.got.tgz:338487.got - 2010.06.03 13:09:07.
