data_PCOD9205958
_publ_section_title
;
Structure prediction by ZEFSAII (Michael W. Deem and Ramdas Pophale) SiO2 
 PCOD9205958
Probable space group: C 2/M
;
_chemical_formula_sum "Si O2"
_cell_formula_units_Z 32
_cell_length_a 11.836774
_cell_length_b 28.774244
_cell_length_c 5.062050
_cell_angle_alpha 90.000000
_cell_angle_beta 54.337422
_cell_angle_gamma 90.000000
_cell_volume 1400.774073
_symmetry_space_group_name_H-M "C 2/M"
_symmetry_group_IT_number 12
_symmetry_cell_setting 'monoclinic'
loop_
_space_group_symop_operation_xyz
x,y,z
-x,y,-z
-x,-y,-z
x,-y,z
1/2+x,1/2+y,z
1/2-x,1/2+y,-z
1/2-x,1/2-y,-z
1/2+x,1/2-y,z
loop_
_atom_site_type_symbol
_atom_site_label
_atom_site_fract_x
_atom_site_fract_y
_atom_site_fract_z
Si Si1 0.412697 0.712125 0.389102
Si Si2 0.090912 0.943898 0.633895
Si Si3 0.905099 0.582489 0.391695
Si Si4 0.375454 0.183704 0.378769
O O1 0.500000 0.690469 0.500000
O O2 0.377839 0.765947 0.514509
O O3 0.271117 0.684878 0.564306
O O4 0.500000 0.712625 0.000000
O O5 0.253082 0.933850 0.491714
O O6 0.000000 0.928718 0.500000
O O7 0.085761 0.000000 0.632686
O O8 0.000000 0.925569 0.000000
O O9 0.878750 0.635524 0.526520
O O10 0.000000 0.560282 0.500000
O O11 0.000000 0.582042 0.000000
O O12 0.500000 0.183873 0.000000
#
# Coordination Sequence:
#
# PCOD9205958 Si02
#       4
#     8   8   8   8
#     4  10  21  36  55  78 106 146 192 233 276 330
#     4  10  22  41  63  87 117 151 187 231 282 337
#     4  11  23  38  59  87 118 151 188 234 285 338
#     4   9  21  37  55  79 113 147 184 233 284 329
#
# _framework density 22.844511000000001
#
# number of rings (size 3 to 8) (size 9 to 14) (size 15 to 20)
#    0.000    2.000    0.000    2.250    0.000   16.000 
#    0.000    0.000    0.000    0.000    0.000    0.000 
#    0.000    0.000    0.000    0.000    0.000    0.000 
#
# Total GULP energy -89109.108165 kJ/mol
# GULP energy per Si atom -5569.319260 kJ/mol
# Density = 2.279252 g / cm^3
# Si number density = 22.844511 Si / 1000 Ang^3
#
#
#
# Elastic Constant Matrix: (Units=GPa)
#
#
# Indices 1 2 3 4 5 6 
#
# 1 283.2714 22.9785 78.0665 0.0000 -21.0258 0.0000
# 2 22.9785 41.2517 2.8095 0.0000 1.8100 0.0000
# 3 78.0665 2.8095 102.4406 0.0000 -17.1679 0.0000
# 4 0.0000 0.0000 0.0000 -4.0590 0.0000 104.1426
# 5 -21.0258 1.8100 -17.1679 0.0000 49.6449 0.0000
# 6 0.0000 0.0000 0.0000 104.1426 0.0000 -890.8209
#
#
#
# Elastic Compliance Matrix: (Units=1/GPa)
#
#
# Indices 1 2 3 4 5 6 
#
# 1 0.004729 -0.002444 -0.003382 0.000000 0.000922 0.000000
# 2 -0.002444 0.025616 0.000881 0.000000 -0.001664 0.000000
# 3 -0.003382 0.000881 0.012812 0.000000 0.002966 0.000000
# 4 0.000000 0.000000 0.000000 0.123214 0.000000 0.014404
# 5 0.000922 -0.001664 0.002966 0.000000 0.021620 0.000000
# 6 0.000000 0.000000 0.000000 0.014404 0.000000 0.000561
#
#
# Mechanical properties :
#
#
# Convention : Reuss Voigt Hill
#
# Bulk Modulus (GPa) = 30.06018 70.51919 50.28969
# Shear Modulus (GPa) = 23.86273 -147.50638 -61.82183
#
# Velocity S-wave (km/s) = 3.23549 -8.04425 -5.20776
# Velocity P-wave (km/s) = 5.21009 7.43933 3.75490
#
# Compressibility (1/GPa) = 0.03326660
#
# Stress axis : x y z
#
# Youngs Moduli (GPa) = 211.45989 39.03813 78.05097
#
# Poissons Ratio (x) = 0.09542 0.26399
# Poissons Ratio (y) = 0.51688 -0.06879
# Poissons Ratio (z) = 0.71520 -0.03440
#
# Static dielectric constant tensor:
#      x y z
#    x 1.866920 0.000000 0.025090 
#    y 0.000000 1.892450 0.000000 
#    z 0.025090 0.000000 1.789240 
# 
# From -- ./inp_files/8029.got.cif
#   From: 2010.05.17/outbox.cif.g08.bks.cpg/sg12_5_cif.got.tgz:8029.got - 2010.06.03 13:09:07.
