data_PCOD9205827
_publ_section_title
;
Structure prediction by ZEFSAII (Michael W. Deem and Ramdas Pophale) SiO2 
 PCOD9205827
Probable space group: C 2/M
;
_chemical_formula_sum "Si O2"
_cell_formula_units_Z 56
_cell_length_a 19.999749
_cell_length_b 7.453277
_cell_length_c 19.802366
_cell_angle_alpha 90.000000
_cell_angle_beta 66.373728
_cell_angle_gamma 90.000000
_cell_volume 2704.389567
_symmetry_space_group_name_H-M "C 2/M"
_symmetry_group_IT_number 12
_symmetry_cell_setting 'monoclinic'
loop_
_space_group_symop_operation_xyz
x,y,z
-x,y,-z
-x,-y,-z
x,-y,z
1/2+x,1/2+y,z
1/2-x,1/2+y,-z
1/2-x,1/2-y,-z
1/2+x,1/2-y,z
loop_
_atom_site_type_symbol
_atom_site_label
_atom_site_fract_x
_atom_site_fract_y
_atom_site_fract_z
Si Si1 0.180224 0.780432 0.212842
Si Si2 0.531051 0.719865 0.200963
Si Si3 0.383906 0.284279 0.333393
Si Si4 0.831600 0.785776 0.494043
Si Si5 0.454955 0.294653 0.957443
Si Si6 0.778919 0.785375 0.654559
Si Si7 0.708182 0.213198 0.947399
O O1 0.101500 0.724941 0.215942
O O2 0.198298 0.718454 0.281107
O O3 0.242644 0.723410 0.134867
O O4 0.180625 0.000000 0.212817
O O5 0.532311 0.500000 0.200092
O O6 0.454638 0.778790 0.264310
O O7 0.538588 0.782023 0.120455
O O8 0.388642 0.500000 0.334606
O O9 0.381067 0.217316 0.412355
O O10 0.306367 0.245094 0.328935
O O11 0.750000 0.750000 0.500000
O O12 0.828210 0.715888 0.572015
O O13 0.843226 0.000000 0.493306
O O14 0.482000 0.500000 0.939884
O O15 0.500000 0.208207 0.000000
O O16 0.371248 0.295848 0.013693
O O17 0.788364 0.000000 0.651923
O O18 0.698665 0.000000 0.944096
O O19 0.750000 0.250000 0.000000
#
# Coordination Sequence:
#
# PCOD9205827 Si02
#       7
#     8   8   8   8   8   8   8
#     4   9  18  32  50  70  96 129 160 195 244 293
#     4   9  17  32  49  68  98 130 157 194 245 291
#     4   9  17  29  49  73  96 125 159 198 239 282
#     4   8  14  26  44  69  96 121 155 193 234 283
#     4  10  21  36  54  75 101 133 168 205 251 302
#     4   9  17  30  49  71  96 126 158 196 239 287
#     4  11  21  36  56  75  99 133 171 208 249 299
#
# _framework density 20.707076000000001
#
# number of rings (size 3 to 8) (size 9 to 14) (size 15 to 20)
#    0.000    2.714    1.429    0.429    2.000    0.286 
#    0.000    2.143    0.000    4.286    0.000    0.000 
#    0.000   11.429    0.000    0.000    0.000    0.000 
#
# Total GULP energy -156156.978154 kJ/mol
# GULP energy per Si atom -5577.034934 kJ/mol
# Density = 2.065995 g / cm^3
# Si number density = 20.707076 Si / 1000 Ang^3
#
#
#
# Elastic Constant Matrix: (Units=GPa)
#
#
# Indices 1 2 3 4 5 6 
#
# 1 136.4666 -5.0422 126.1682 -0.0003 16.7629 -0.0005
# 2 -5.0422 65.1527 11.0169 -0.0004 2.1867 -0.0004
# 3 126.1682 11.0169 203.4016 0.0003 32.8938 0.0014
# 4 -0.0003 -0.0004 0.0003 8.5519 -0.0002 -3.4936
# 5 16.7629 2.1867 32.8938 -0.0002 36.8988 -0.0004
# 6 -0.0005 -0.0004 0.0014 -3.4936 -0.0004 1.1300
#
#
#
# Elastic Compliance Matrix: (Units=1/GPa)
#
#
# Indices 1 2 3 4 5 6 
#
# 1 0.017980 0.003295 -0.011660 -0.000043 0.002031 -0.000108
# 2 0.003295 0.016095 -0.002944 -0.000020 0.000173 -0.000051
# 3 -0.011660 -0.002944 0.013348 0.000043 -0.006428 0.000109
# 4 -0.000043 -0.000020 0.000043 -0.444553 -0.000036 -1.374450
# 5 0.002031 0.000173 -0.006428 -0.000036 0.031898 -0.000092
# 6 -0.000108 -0.000051 0.000109 -1.374450 -0.000092 -3.364487
#
#
# Mechanical properties :
#
#
# Convention : Reuss Voigt Hill
#
# Bulk Modulus (GPa) = 40.31243 74.36742 57.33993
# Shear Modulus (GPa) = -1.35178 27.50801 13.07811
#
# Velocity S-wave (km/s) = -0.80884 3.64872 2.51585
# Velocity P-wave (km/s) = 4.31716 7.33095 6.01585
#
# Compressibility (1/GPa) = 0.02480624
#
# Stress axis : x y z
#
# Youngs Moduli (GPa) = 55.61807 62.12927 74.91992
#
# Poissons Ratio (x) = -0.20471 0.87353
# Poissons Ratio (y) = -0.18325 0.22053
# Poissons Ratio (z) = 0.64848 0.18288
#
# Static dielectric constant tensor:
#      x y z
#    x 1.719400 0.000000 0.006610 
#    y 0.000000 1.818450 0.000000 
#    z 0.006610 0.000000 1.766520 
# 
# From -- ./inp_files/313686.got.cif
#   From: 2010.05.17/outbox.cif.g08.bks.cpg/sg12_157_cif.got.tgz:313686.got - 2010.06.03 13:09:07.
