data_PCOD9205661
_publ_section_title
;
Structure prediction by ZEFSAII (Michael W. Deem and Ramdas Pophale) SiO2 
 PCOD9205661
Probable space group: C 2/M
;
_chemical_formula_sum "Si O2"
_cell_formula_units_Z 48
_cell_length_a 17.960272
_cell_length_b 30.359922
_cell_length_c 9.568326
_cell_angle_alpha 90.000000
_cell_angle_beta 149.589557
_cell_angle_gamma 90.000000
_cell_volume 2640.972694
_symmetry_space_group_name_H-M "C 2/M"
_symmetry_group_IT_number 12
_symmetry_cell_setting 'monoclinic'
loop_
_space_group_symop_operation_xyz
x,y,z
-x,y,-z
-x,-y,-z
x,-y,z
1/2+x,1/2+y,z
1/2-x,1/2+y,-z
1/2-x,1/2-y,-z
1/2+x,1/2-y,z
loop_
_atom_site_type_symbol
_atom_site_label
_atom_site_fract_x
_atom_site_fract_y
_atom_site_fract_z
Si Si1 0.054838 0.500000 0.306928
Si Si2 0.343896 0.380281 0.082834
Si Si3 0.059882 0.345069 0.951718
Si Si4 0.749340 0.000000 0.356685
Si Si5 0.831880 0.906254 0.380643
Si Si6 0.592913 0.091894 0.509959
Si Si7 0.153134 0.706073 0.837254
O O1 0.194659 0.500000 0.428471
O O2 0.054093 0.543555 0.397441
O O3 0.904611 0.500000 0.976326
O O4 0.318427 0.405438 0.189486
O O5 0.517990 0.380218 0.344470
O O6 0.261653 0.405530 0.826968
O O7 0.260482 0.333376 0.957448
O O8 0.113016 0.308216 0.930002
O O9 0.947076 0.374274 0.677364
O O10 0.191335 0.378766 0.202574
O O11 0.000000 0.327403 0.000000
O O12 0.830810 0.044876 0.442758
O O13 0.500000 0.103108 0.500000
O O14 0.000000 0.709575 0.500000
O O15 0.250000 0.750000 0.000000
#
# Coordination Sequence:
#
# PCOD9205661 Si02
#       7
#     4   8   8   4   8   8   8
#     4  11  23  31  59  82 123 166 216 257 294 357
#     4  10  21  39  60  90 119 158 207 253 303 364
#     4  11  21  40  64  90 126 166 201 247 307 369
#     4  11  20  38  49  87 124 169 207 254 312 345
#     4  10  21  35  61  86 123 164 207 253 303 356
#     4  12  19  38  61  89 118 165 216 252 296 354
#     4  11  23  42  71  94 121 156 200 253 305 375
#
# _framework density 18.175121000000001
#
# number of rings (size 3 to 8) (size 9 to 14) (size 15 to 20)
#    0.000    1.167    6.667    1.250    4.667    2.667 
#    0.000    5.000    0.000    0.000    0.000    0.000 
#    0.000    0.000    0.000    0.000    0.000    0.000 
#
# Total GULP energy -133905.364030 kJ/mol
# GULP energy per Si atom -5579.390168 kJ/mol
# Density = 1.813375 g / cm^3
# Si number density = 18.175121 Si / 1000 Ang^3
#
#
#
# Elastic Constant Matrix: (Units=GPa)
#
#
# Indices 1 2 3 4 5 6 
#
# 1 53.1905 32.1145 33.9020 0.0000 -7.5263 0.0000
# 2 32.1145 97.8393 32.5717 0.0000 -3.7791 0.0000
# 3 33.9020 32.5717 114.0786 0.0000 8.1322 0.0000
# 4 0.0000 0.0000 0.0000 16.0084 0.0000 -8.3438
# 5 -7.5263 -3.7791 8.1322 0.0000 20.3000 0.0000
# 6 0.0000 0.0000 0.0000 -8.3438 0.0000 1.0996
#
#
#
# Elastic Compliance Matrix: (Units=1/GPa)
#
#
# Indices 1 2 3 4 5 6 
#
# 1 0.029606 -0.006614 -0.007828 0.000000 0.012881 0.000000
# 2 -0.006614 0.013018 -0.001801 0.000000 0.000693 0.000000
# 3 -0.007828 -0.001801 0.012185 0.000000 -0.008119 0.000000
# 4 0.000000 0.000000 0.000000 -0.021139 0.000000 -0.160407
# 5 0.012881 0.000693 -0.008119 0.000000 0.057418 0.000000
# 6 0.000000 0.000000 0.000000 -0.160407 0.000000 -0.307759
#
#
# Mechanical properties :
#
#
# Convention : Reuss Voigt Hill
#
# Bulk Modulus (GPa) = 44.79647 51.36497 48.08072
# Shear Modulus (GPa) = -28.28951 18.58295 -4.85328
#
# Velocity S-wave (km/s) = -3.94953 3.20103 -1.63587
# Velocity P-wave (km/s) = 1.97542 6.47955 4.78993
#
# Compressibility (1/GPa) = 0.02232319
#
# Stress axis : x y z
#
# Youngs Moduli (GPa) = 33.77729 76.81630 82.06731
#
# Poissons Ratio (x) = 0.50807 0.64242
# Poissons Ratio (y) = 0.22341 0.14778
# Poissons Ratio (z) = 0.26441 0.13832
#
# Static dielectric constant tensor:
#      x y z
#    x 1.647280 0.000000 0.013540 
#    y 0.000000 1.617210 0.000000 
#    z 0.013540 0.000000 1.646300 
# 
# From -- ./inp_files/80902.got.cif
#   From: 2010.05.17/outbox.cif.g08.bks.cpg/sg12_41_cif.got.tgz:80902.got - 2010.06.03 13:09:07.
