data_PCOD9205525
_publ_section_title
;
Structure prediction by ZEFSAII (Michael W. Deem and Ramdas Pophale) SiO2 
 PCOD9205525
Probable space group: C 2/M
;
_chemical_formula_sum "Si O2"
_cell_formula_units_Z 48
_cell_length_a 28.178011
_cell_length_b 15.222761
_cell_length_c 11.547183
_cell_angle_alpha 90.000000
_cell_angle_beta 147.736139
_cell_angle_gamma 90.000000
_cell_volume 2644.075912
_symmetry_space_group_name_H-M "C 2/M"
_symmetry_group_IT_number 12
_symmetry_cell_setting 'monoclinic'
loop_
_space_group_symop_operation_xyz
x,y,z
-x,y,-z
-x,-y,-z
x,-y,z
1/2+x,1/2+y,z
1/2-x,1/2+y,-z
1/2-x,1/2-y,-z
1/2+x,1/2-y,z
loop_
_atom_site_type_symbol
_atom_site_label
_atom_site_fract_x
_atom_site_fract_y
_atom_site_fract_z
Si Si1 0.086840 0.805396 0.447173
Si Si2 0.142175 0.000000 0.839298
Si Si3 0.405142 0.600218 0.861705
Si Si4 0.165042 0.195136 0.859932
Si Si5 0.238867 0.817856 0.583022
Si Si6 0.097614 0.744852 0.966990
Si Si7 0.967203 0.000000 0.626302
O O1 0.102428 0.802166 0.617279
O O2 0.175958 0.786151 0.559119
O O3 0.008962 0.739162 0.248408
O O4 0.056224 0.907232 0.362140
O O5 0.189808 0.906087 0.940263
O O6 0.093024 0.000000 0.613847
O O7 0.066703 0.000000 0.781930
O O8 0.415534 0.500000 0.920419
O O9 0.322525 0.607372 0.601669
O O10 0.500000 0.627761 0.000000
O O11 0.383507 0.666677 0.920414
O O12 0.121440 0.236949 0.883324
O O13 0.250000 0.250000 0.000000
O O14 0.250000 0.750000 0.500000
O O15 0.337057 0.827536 0.841370
#
# Coordination Sequence:
#
# PCOD9205525 Si02
#       7
#     8   4   8   8   8   8   4
#     4  11  20  34  56  84 118 148 181 235 292 355
#     4   9  18  32  48  83 122 147 182 236 285 358
#     4  10  21  35  57  84 112 145 182 235 298 347
#     4  11  21  35  54  87 123 154 192 230 296 355
#     4  10  22  36  49  80 116 147 190 230 275 345
#     4  11  21  34  55  80 116 152 187 229 289 346
#     4   9  18  28  52  82 116 142 171 232 308 349
#
# _framework density 18.153790999999998
#
# number of rings (size 3 to 8) (size 9 to 14) (size 15 to 20)
#    0.000    1.667    5.000    0.500    3.500    0.000 
#    0.000    0.000    0.000    0.000    2.167    5.833 
#    0.000    0.000    0.000    0.000    0.000    0.000 
#
# Total GULP energy -133660.792287 kJ/mol
# GULP energy per Si atom -5569.199679 kJ/mol
# Density = 1.811247 g / cm^3
# Si number density = 18.153791 Si / 1000 Ang^3
#
#
#
# Elastic Constant Matrix: (Units=GPa)
#
#
# Indices 1 2 3 4 5 6 
#
# 1 85.0158 10.3250 4.6453 0.0000 -5.0839 0.0000
# 2 10.3250 43.4909 11.2424 0.0000 13.3149 0.0000
# 3 4.6453 11.2424 87.7687 0.0000 -0.5770 0.0000
# 4 0.0000 0.0000 0.0000 29.3224 0.0000 -0.5444
# 5 -5.0839 13.3149 -0.5770 0.0000 36.8093 0.0000
# 6 0.0000 0.0000 0.0000 -0.5444 0.0000 24.1032
#
#
#
# Elastic Compliance Matrix: (Units=1/GPa)
#
#
# Indices 1 2 3 4 5 6 
#
# 1 0.012426 -0.003866 -0.000142 0.000000 0.003112 0.000000
# 2 -0.003866 0.028099 -0.003465 0.000000 -0.010752 0.000000
# 3 -0.000142 -0.003465 0.011854 0.000000 0.001420 0.000000
# 4 0.000000 0.000000 0.000000 0.034118 0.000000 0.000771
# 5 0.003112 -0.010752 0.001420 0.000000 0.031509 0.000000
# 6 0.000000 0.000000 0.000000 0.000771 0.000000 0.041506
#
#
# Mechanical properties :
#
#
# Convention : Reuss Voigt Hill
#
# Bulk Modulus (GPa) = 26.71496 29.85564 28.28530
# Shear Modulus (GPa) = 26.74719 30.71784 28.73252
#
# Velocity S-wave (km/s) = 3.84261 4.11796 3.98267
# Velocity P-wave (km/s) = 5.86817 6.25235 6.06330
#
# Compressibility (1/GPa) = 0.03743222
#
# Stress axis : x y z
#
# Youngs Moduli (GPa) = 80.47681 35.58862 84.35757
#
# Poissons Ratio (x) = 0.13759 0.01198
# Poissons Ratio (y) = 0.31114 0.29232
# Poissons Ratio (z) = 0.01143 0.12332
#
# Static dielectric constant tensor:
#      x y z
#    x 1.642570 0.000000 -0.042590 
#    y 0.000000 1.608080 0.000000 
#    z -0.042590 0.000000 1.723330 
# 
# From -- ./inp_files/189379.got.cif
#   From: 2010.05.17/outbox.cif.g08.bks.cpg/sg12_95_cif.got.tgz:189379.got - 2010.06.03 13:09:07.
