data_PCOD9205153
_publ_section_title
;
Structure prediction by ZEFSAII (Michael W. Deem and Ramdas Pophale) SiO2 
 PCOD9205153
Probable space group: C 2/M
;
_chemical_formula_sum "Si O2"
_cell_formula_units_Z 64
_cell_length_a 23.059756
_cell_length_b 8.914083
_cell_length_c 20.293076
_cell_angle_alpha 90.000000
_cell_angle_beta 62.742648
_cell_angle_gamma 90.000000
_cell_volume 3708.179016
_symmetry_space_group_name_H-M "C 2/M"
_symmetry_group_IT_number 12
_symmetry_cell_setting 'monoclinic'
loop_
_space_group_symop_operation_xyz
x,y,z
-x,y,-z
-x,-y,-z
x,-y,z
1/2+x,1/2+y,z
1/2-x,1/2+y,-z
1/2-x,1/2-y,-z
1/2+x,1/2-y,z
loop_
_atom_site_type_symbol
_atom_site_label
_atom_site_fract_x
_atom_site_fract_y
_atom_site_fract_z
Si Si1 0.252009 0.320705 0.095000
Si Si2 0.572387 0.179213 0.656686
Si Si3 0.159595 0.678613 0.256326
Si Si4 0.950651 0.176891 0.467611
Si Si5 0.144267 0.177531 0.055761
Si Si6 0.214794 0.821720 0.582016
Si Si7 0.447523 0.179818 0.799039
Si Si8 0.818411 0.824354 0.616608
O O1 0.241902 0.500000 0.087870
O O2 0.227734 0.294671 0.181752
O O3 0.201636 0.229499 0.075767
O O4 0.324725 0.284056 0.031878
O O5 0.542877 0.227067 0.601427
O O6 0.641883 0.258917 0.626335
O O7 0.519903 0.224319 0.739464
O O8 0.580824 0.000000 0.654162
O O9 0.153671 0.500000 0.272265
O O10 0.102263 0.721294 0.234740
O O11 0.158137 0.768962 0.324400
O O12 0.877999 0.193460 0.534396
O O13 0.000000 0.220601 0.500000
O O14 0.961455 0.000000 0.447248
O O15 0.080304 0.254407 0.118635
O O16 0.135604 0.000000 0.063416
O O17 0.250000 0.750000 0.500000
O O18 0.258173 0.772095 0.621608
O O19 0.213486 0.000000 0.575093
O O20 0.444864 0.000000 0.804726
O O21 0.801232 0.000000 0.627438
#
# Coordination Sequence:
#
# PCOD9205153 Si02
#       8
#     8   8   8   8   8   8   8   8
#     4   8  15  27  42  65 100 137 171 206 246 295
#     4  11  22  36  55  76  99 132 171 210 254 303
#     4   9  17  31  49  71 104 140 170 204 247 298
#     4  10  21  35  51  73 103 135 165 204 250 296
#     4   9  15  24  43  69  97 134 174 208 244 292
#     4  12  24  40  59  76  96 126 167 215 259 302
#     4   9  19  33  48  72 107 140 168 205 252 302
#     4  11  22  35  52  75 102 131 167 210 253 298
#
# _framework density 17.259143999999999
#
# number of rings (size 3 to 8) (size 9 to 14) (size 15 to 20)
#    0.000    2.125    1.250    3.750    0.000    4.250 
#    0.000    0.000    0.000    0.000    0.000    0.875 
#    0.000    7.000    0.000    0.000    0.000    0.000 
#
# Total GULP energy -178436.881414 kJ/mol
# GULP energy per Si atom -5576.152544 kJ/mol
# Density = 1.721986 g / cm^3
# Si number density = 17.259144 Si / 1000 Ang^3
#
#
#
# Elastic Constant Matrix: (Units=GPa)
#
#
# Indices 1 2 3 4 5 6 
#
# 1 53.8108 19.6325 6.8300 0.0000 -22.6968 -0.0001
# 2 19.6325 53.5137 30.2873 -0.0002 -17.6928 -0.0005
# 3 6.8300 30.2873 77.1171 0.0001 -34.3843 0.0001
# 4 0.0000 -0.0002 0.0001 26.2956 0.0000 -1.0139
# 5 -22.6968 -17.6928 -34.3843 0.0000 25.8495 0.0000
# 6 -0.0001 -0.0005 0.0001 -1.0139 0.0000 22.1139
#
#
#
# Elastic Compliance Matrix: (Units=1/GPa)
#
#
# Indices 1 2 3 4 5 6 
#
# 1 0.069408 -0.015853 0.055081 0.000000 0.123359 0.000000
# 2 -0.015853 0.028652 -0.017967 0.000000 -0.018208 0.000001
# 3 0.055081 -0.017967 0.076738 0.000000 0.138140 0.000000
# 4 0.000000 0.000000 0.000000 0.038097 0.000000 0.001747
# 5 0.123359 -0.018208 0.138140 0.000000 0.318286 0.000000
# 6 0.000000 0.000001 0.000000 0.001747 0.000000 0.045300
#
#
# Mechanical properties :
#
#
# Convention : Reuss Voigt Hill
#
# Bulk Modulus (GPa) = 4.60152 33.10459 18.85305
# Shear Modulus (GPa) = 8.24540 23.36459 15.80499
#
# Velocity S-wave (km/s) = 2.18810 3.68333 3.02941
# Velocity P-wave (km/s) = 3.00926 6.10833 4.81494
#
# Compressibility (1/GPa) = 0.21731962
#
# Stress axis : x y z
#
# Youngs Moduli (GPa) = 14.40765 34.90186 13.03129
#
# Poissons Ratio (x) = 0.55330 -0.71778
# Poissons Ratio (y) = 0.22840 0.23414
# Poissons Ratio (z) = -0.79359 0.62709
#
# Static dielectric constant tensor:
#      x y z
#    x 1.580150 0.000000 -0.026900 
#    y 0.000000 1.576490 0.000000 
#    z -0.026900 0.000000 1.616010 
# 
# From -- ./inp_files/323634.got.cif
#   From: 2010.05.17/outbox.cif.g08.bks.cpg/sg12_162_cif.got.tgz:323634.got - 2010.06.03 13:09:07.
