data_PCOD9205306
_publ_section_title
;
Structure prediction by ZEFSAII (Michael W. Deem and Ramdas Pophale) SiO2 
 PCOD9205306
Probable space group: C 2/M
;
_chemical_formula_sum "Si O2"
_cell_formula_units_Z 56
_cell_length_a 9.957333
_cell_length_b 18.089812
_cell_length_c 34.207941
_cell_angle_alpha 90.000000
_cell_angle_beta 153.504378
_cell_angle_gamma 90.000000
_cell_volume 2748.937667
_symmetry_space_group_name_H-M "C 2/M"
_symmetry_group_IT_number 12
_symmetry_cell_setting 'monoclinic'
loop_
_space_group_symop_operation_xyz
x,y,z
-x,y,-z
-x,-y,-z
x,-y,z
1/2+x,1/2+y,z
1/2-x,1/2+y,-z
1/2-x,1/2-y,-z
1/2+x,1/2-y,z
loop_
_atom_site_type_symbol
_atom_site_label
_atom_site_fract_x
_atom_site_fract_y
_atom_site_fract_z
Si Si1 0.653833 0.590246 0.081019
Si Si2 0.662381 0.835734 0.394167
Si Si3 0.153141 0.909837 0.917920
Si Si4 0.145203 0.084775 0.399485
Si Si5 0.326684 0.589626 0.238074
Si Si6 0.893666 0.086017 0.769265
Si Si7 0.543411 0.723484 0.600258
O O1 0.650493 0.500000 0.081029
O O2 0.483416 0.615402 0.076042
O O3 0.001895 0.614285 0.169151
O O4 0.500000 0.612191 0.000000
O O5 0.460080 0.906136 0.332415
O O6 0.449615 0.786297 0.365907
O O7 0.000000 0.848338 0.500000
O O8 0.705391 0.788205 0.366309
O O9 0.968611 0.883365 0.831712
O O10 0.141083 0.000000 0.916462
O O11 0.500000 0.889867 0.000000
O O12 0.500000 0.086994 0.500000
O O13 0.002362 0.144704 0.390871
O O14 0.071741 0.105163 0.335553
O O15 0.039713 0.000000 0.378659
O O16 0.314915 0.500000 0.232510
O O17 0.413497 0.615847 0.217313
O O18 0.973197 0.000000 0.792279
O O19 0.250000 0.750000 0.500000
#
# Coordination Sequence:
#
# PCOD9205306 Si02
#       7
#     8   8   8   8   8   8   8
#     4   9  16  28  48  73 106 149 191 228 279 342
#     4  10  23  38  58  80 109 155 194 238 289 335
#     4   9  17  30  50  77 114 154 188 233 287 337
#     4  10  21  35  58  84 112 151 192 236 285 336
#     4   9  19  32  49  77 112 149 186 232 284 338
#     4  10  21  35  53  84 121 151 191 239 290 343
#     4  10  22  40  58  79 110 149 197 241 279 343
#
# _framework density 20.371506
#
# number of rings (size 3 to 8) (size 9 to 14) (size 15 to 20)
#    0.000    2.429    0.000    2.143    8.000    4.286 
#    0.000    0.000    0.000    0.000    0.000    2.000 
#    0.000    0.000    0.000    0.000    0.000    0.000 
#
# Total GULP energy -155990.902955 kJ/mol
# GULP energy per Si atom -5571.103677 kJ/mol
# Density = 2.032514 g / cm^3
# Si number density = 20.371506 Si / 1000 Ang^3
#
#
#
# Elastic Constant Matrix: (Units=GPa)
#
#
# Indices 1 2 3 4 5 6 
#
# 1 176.4576 7.3776 75.6773 -0.0014 -21.1621 0.0004
# 2 7.3776 17.0598 10.5090 -0.0012 -12.6990 0.0008
# 3 75.6773 10.5090 107.7467 -0.0159 -10.6352 -0.0005
# 4 -0.0014 -0.0012 -0.0159 1.1104 -0.0045 -1.1033
# 5 -21.1621 -12.6990 -10.6352 -0.0045 29.4094 -0.0002
# 6 0.0004 0.0008 -0.0005 -1.1033 -0.0002 15.0402
#
#
#
# Elastic Compliance Matrix: (Units=1/GPa)
#
#
# Indices 1 2 3 4 5 6 
#
# 1 0.008782 0.004402 -0.006000 -0.000050 0.006050 -0.000004
# 2 0.004402 0.091179 -0.008074 0.000157 0.039619 0.000007
# 3 -0.006000 -0.008074 0.014013 0.000188 -0.002737 0.000015
# 4 -0.000050 0.000157 0.000188 0.971385 0.000249 0.071259
# 5 0.006050 0.039619 -0.002737 0.000249 0.054474 0.000017
# 6 -0.000004 0.000007 0.000015 0.071259 0.000017 0.071716
#
#
# Mechanical properties :
#
#
# Convention : Reuss Voigt Hill
#
# Bulk Modulus (GPa) = 10.56763 54.26575 32.41669
# Shear Modulus (GPa) = 3.96059 22.95868 13.45964
#
# Velocity S-wave (km/s) = 1.39585 3.36072 2.57321
# Velocity P-wave (km/s) = 2.79224 6.46182 4.97754
#
# Compressibility (1/GPa) = 0.09462862
#
# Stress axis : x y z
#
# Youngs Moduli (GPa) = 113.86980 10.96745 71.36317
#
# Poissons Ratio (x) = -0.04828 0.42820
# Poissons Ratio (y) = -0.50126 0.57620
# Poissons Ratio (z) = 0.68325 0.08855
#
# Static dielectric constant tensor:
#      x y z
#    x 1.761290 0.000000 -0.026720 
#    y 0.000000 1.743480 0.000000 
#    z -0.026720 0.000000 1.735370 
# 
# From -- ./inp_files/356745.got.cif
#   From: 2010.05.17/outbox.cif.g08.bks.cpg/sg12_179_cif.got.tgz:356745.got - 2010.06.03 13:09:07.
