data_PCOD9205440
_publ_section_title
;
Structure prediction by ZEFSAII (Michael W. Deem and Ramdas Pophale) SiO2 
 PCOD9205440
Probable space group: C 2/M
;
_chemical_formula_sum "Si O2"
_cell_formula_units_Z 60
_cell_length_a 16.567836
_cell_length_b 20.156974
_cell_length_c 16.549793
_cell_angle_alpha 90.000000
_cell_angle_beta 36.853219
_cell_angle_gamma 90.000000
_cell_volume 3314.868657
_symmetry_space_group_name_H-M "C 2/M"
_symmetry_group_IT_number 12
_symmetry_cell_setting 'monoclinic'
loop_
_space_group_symop_operation_xyz
x,y,z
-x,y,-z
-x,-y,-z
x,-y,z
1/2+x,1/2+y,z
1/2-x,1/2+y,-z
1/2-x,1/2-y,-z
1/2+x,1/2-y,z
loop_
_atom_site_type_symbol
_atom_site_label
_atom_site_fract_x
_atom_site_fract_y
_atom_site_fract_z
Si Si1 0.495073 0.645214 0.910987
Si Si2 0.000000 0.614814 0.000000
Si Si3 0.319821 0.690405 0.493301
Si Si4 0.934785 0.270254 0.634804
Si Si5 0.797631 0.313331 0.907399
Si Si6 0.334754 0.780738 0.231785
Si Si7 0.026741 0.076956 0.721016
Si Si8 0.711462 0.924942 0.959507
O O1 0.583775 0.711641 0.823633
O O2 0.531174 0.592258 0.813311
O O3 0.500000 0.623746 0.000000
O O4 0.341059 0.663896 0.020983
O O5 0.924401 0.665517 0.117935
O O6 0.884914 0.577357 0.041328
O O7 0.250000 0.750000 0.500000
O O8 0.454121 0.716998 0.429073
O O9 0.213686 0.682466 0.649156
O O10 0.367685 0.627149 0.404496
O O11 0.899410 0.303594 0.750385
O O12 0.795184 0.238669 0.717174
O O13 0.000000 0.303912 0.500000
O O14 0.750000 0.250000 0.000000
O O15 0.840781 0.370468 0.935176
O O16 0.871100 0.091059 0.817693
O O17 0.054832 0.000000 0.681575
O O18 0.709988 0.000000 0.993768
#
# Coordination Sequence:
#
# PCOD9205440 Si02
#       8
#     8   4   8   8   8   8   8   8
#     4  11  19  33  59  89 120 146 196 247 297 353
#     4  12  21  36  62  86 121 152 200 248 305 354
#     4  11  22  35  59  83 115 152 199 242 291 347
#     4  10  21  35  55  86 122 151 190 250 307 348
#     4  11  20  34  61  88 116 150 199 245 300 350
#     4  11  20  34  56  92 115 148 193 246 297 350
#     4  10  22  41  59  84 121 159 198 246 299 355
#     4  10  23  39  59  86 120 157 195 247 305 357
#
# _framework density 18.100265
#
# number of rings (size 3 to 8) (size 9 to 14) (size 15 to 20)
#    0.000    1.333    3.333    4.200    1.867    0.267 
#    0.000    1.333    0.000    5.600    0.000    0.000 
#    0.000    0.000    0.000    0.000    0.000    0.000 
#
# Total GULP energy -167075.542101 kJ/mol
# GULP energy per Si atom -5569.184737 kJ/mol
# Density = 1.805907 g / cm^3
# Si number density = 18.100265 Si / 1000 Ang^3
#
#
#
# Elastic Constant Matrix: (Units=GPa)
#
#
# Indices 1 2 3 4 5 6 
#
# 1 94.3884 26.1937 27.4724 0.0000 7.2909 -0.0001
# 2 26.1937 89.0466 56.6499 -0.0001 14.4542 0.0001
# 3 27.4724 56.6499 139.9952 -0.0003 27.2513 0.0001
# 4 0.0000 -0.0001 -0.0003 38.8933 0.0000 -10.8297
# 5 7.2909 14.4542 27.2513 0.0000 26.9662 0.0000
# 6 -0.0001 0.0001 0.0001 -10.8297 0.0000 23.1995
#
#
#
# Elastic Compliance Matrix: (Units=1/GPa)
#
#
# Indices 1 2 3 4 5 6 
#
# 1 0.011696 -0.002634 -0.001106 0.000000 -0.000632 0.000000
# 2 -0.002634 0.015842 -0.005452 0.000000 -0.002270 0.000000
# 3 -0.001106 -0.005452 0.011128 0.000000 -0.008025 0.000000
# 4 0.000000 0.000000 0.000000 0.029553 0.000000 0.013795
# 5 -0.000632 -0.002270 -0.008025 0.000000 0.046581 0.000000
# 6 0.000000 0.000000 0.000000 0.013795 0.000000 0.049544
#
#
# Mechanical properties :
#
#
# Convention : Reuss Voigt Hill
#
# Bulk Modulus (GPa) = 49.30417 60.45134 54.87776
# Shear Modulus (GPa) = 26.38682 32.01940 29.20311
#
# Velocity S-wave (km/s) = 3.82228 4.21051 4.02108
# Velocity P-wave (km/s) = 6.83947 7.55701 7.20718
#
# Compressibility (1/GPa) = 0.02028226
#
# Stress axis : x y z
#
# Youngs Moduli (GPa) = 85.49675 63.12485 89.86092
#
# Poissons Ratio (x) = 0.16628 0.09941
# Poissons Ratio (y) = 0.22521 0.48989
# Poissons Ratio (z) = 0.09458 0.34413
#
# Static dielectric constant tensor:
#      x y z
#    x 1.674990 0.000000 0.040270 
#    y 0.000000 1.588740 0.000000 
#    z 0.040270 0.000000 1.632960 
# 
# From -- ./inp_files/217897.got.cif
#   From: 2010.05.17/outbox.cif.g08.bks.cpg/sg12_109_cif.got.tgz:217897.got - 2010.06.03 13:09:07.
