data_PCOD9205210
_publ_section_title
;
Structure prediction by ZEFSAII (Michael W. Deem and Ramdas Pophale) SiO2 
 PCOD9205210
Probable space group: C 2/M
;
_chemical_formula_sum "Si O2"
_cell_formula_units_Z 40
_cell_length_a 27.876721
_cell_length_b 8.878631
_cell_length_c 19.598789
_cell_angle_alpha 90.000000
_cell_angle_beta 152.165515
_cell_angle_gamma 90.000000
_cell_volume 2264.949100
_symmetry_space_group_name_H-M "C 2/M"
_symmetry_group_IT_number 12
_symmetry_cell_setting 'monoclinic'
loop_
_space_group_symop_operation_xyz
x,y,z
-x,y,-z
-x,-y,-z
x,-y,z
1/2+x,1/2+y,z
1/2-x,1/2+y,-z
1/2-x,1/2-y,-z
1/2+x,1/2-y,z
loop_
_atom_site_type_symbol
_atom_site_label
_atom_site_fract_x
_atom_site_fract_y
_atom_site_fract_z
Si Si1 0.313765 0.681759 0.936947
Si Si2 0.982474 0.680100 0.057040
Si Si3 0.637583 0.319516 0.359676
Si Si4 0.534032 0.319489 0.749191
Si Si5 0.422905 0.818266 0.343116
O O1 0.320647 0.500000 0.939096
O O2 0.194968 0.726446 0.790437
O O3 0.376205 0.756670 0.953869
O O4 0.374050 0.722769 0.082725
O O5 0.985372 0.500000 0.069114
O O6 0.071301 0.755397 0.213872
O O7 0.000000 0.715814 0.000000
O O8 0.642370 0.500000 0.361417
O O9 0.750000 0.250000 0.500000
O O10 0.571591 0.280773 0.344389
O O11 0.537731 0.500000 0.745666
O O12 0.545087 0.243243 0.690264
O O13 0.500000 0.768268 0.500000
O O14 0.425440 0.000000 0.344062
#
# Coordination Sequence:
#
# PCOD9205210 Si02
#       5
#     8   8   8   8   8
#     4   9  19  36  55  76 104 139 180 220 262 318
#     4  10  21  36  55  81 110 141 182 226 267 317
#     4  10  21  37  57  82 111 142 179 221 267 321
#     4   9  19  35  54  76 102 136 177 217 258 311
#     4  10  21  35  52  78 108 136 172 218 266 318
#
# _framework density 17.660440999999999
#
# number of rings (size 3 to 8) (size 9 to 14) (size 15 to 20)
#    0.000    2.400    0.000    3.000    0.000    8.400 
#    0.000    4.000    0.000    0.000    0.000    0.000 
#    0.000    0.000    0.000    0.000    0.000    0.000 
#
# Total GULP energy -111624.159358 kJ/mol
# GULP energy per Si atom -5581.207968 kJ/mol
# Density = 1.762025 g / cm^3
# Si number density = 17.660441 Si / 1000 Ang^3
#
#
#
# Elastic Constant Matrix: (Units=GPa)
#
#
# Indices 1 2 3 4 5 6 
#
# 1 193.7528 66.5802 127.3367 0.0000 0.2874 0.0000
# 2 66.5802 34.7973 48.7445 0.0000 1.9669 0.0000
# 3 127.3367 48.7445 141.9691 0.0000 22.8680 0.0000
# 4 0.0000 0.0000 0.0000 23.8761 0.0000 -0.9222
# 5 0.2874 1.9669 22.8680 0.0000 28.7113 0.0000
# 6 0.0000 0.0000 0.0000 -0.9222 0.0000 37.5706
#
#
#
# Elastic Compliance Matrix: (Units=1/GPa)
#
#
# Indices 1 2 3 4 5 6 
#
# 1 0.022965 -0.024930 -0.014083 0.000000 0.012695 0.000000
# 2 -0.024930 0.087024 -0.007570 0.000000 0.000317 0.000000
# 3 -0.014083 -0.007570 0.025431 0.000000 -0.019596 0.000000
# 4 0.000000 0.000000 0.000000 0.041923 0.000000 0.001029
# 5 0.012695 0.000317 -0.019596 0.000000 0.050288 0.000000
# 6 0.000000 0.000000 0.000000 0.001029 0.000000 0.026642
#
#
# Mechanical properties :
#
#
# Convention : Reuss Voigt Hill
#
# Bulk Modulus (GPa) = 23.66646 95.09358 59.38002
# Shear Modulus (GPa) = 13.83033 26.55546 20.19289
#
# Velocity S-wave (km/s) = 2.80147 3.88192 3.38508
# Velocity P-wave (km/s) = 4.88818 8.60551 6.99818
#
# Compressibility (1/GPa) = 0.04225389
#
# Stress axis : x y z
#
# Youngs Moduli (GPa) = 43.54486 11.49102 39.32202
#
# Poissons Ratio (x) = 0.28647 0.55378
# Poissons Ratio (y) = 1.08557 0.29767
# Poissons Ratio (z) = 0.61325 0.08699
#
# Static dielectric constant tensor:
#      x y z
#    x 1.578590 0.000000 0.011470 
#    y 0.000000 1.590280 0.000000 
#    z 0.011470 0.000000 1.590250 
# 
# From -- ./inp_files/162402.got.cif
#   From: 2010.05.17/outbox.cif.g08.bks.cpg/sg12_82_cif.got.tgz:162402.got - 2010.06.03 13:09:07.
