data_PCOD9205856
_publ_section_title
;
Structure prediction by ZEFSAII (Michael W. Deem and Ramdas Pophale) SiO2 
 PCOD9205856
Probable space group: C 2/M
;
_chemical_formula_sum "Si O2"
_cell_formula_units_Z 48
_cell_length_a 10.234995
_cell_length_b 7.439156
_cell_length_c 26.912547
_cell_angle_alpha 90.000000
_cell_angle_beta 91.950018
_cell_angle_gamma 90.000000
_cell_volume 2047.927254
_symmetry_space_group_name_H-M "C 2/M"
_symmetry_group_IT_number 12
_symmetry_cell_setting 'monoclinic'
loop_
_space_group_symop_operation_xyz
x,y,z
-x,y,-z
-x,-y,-z
x,-y,z
1/2+x,1/2+y,z
1/2-x,1/2+y,-z
1/2-x,1/2-y,-z
1/2+x,1/2-y,z
loop_
_atom_site_type_symbol
_atom_site_label
_atom_site_fract_x
_atom_site_fract_y
_atom_site_fract_z
Si Si1 0.881417 0.214828 0.531485
Si Si2 0.923584 0.218221 0.643628
Si Si3 0.193589 0.281606 0.142399
Si Si4 0.951322 0.709491 0.200803
Si Si5 0.681898 0.209814 0.702501
Si Si6 0.623934 0.785364 0.031529
O O1 0.750000 0.250000 0.500000
O O2 0.883889 0.280910 0.588140
O O3 0.000000 0.286889 0.500000
O O4 0.897659 0.000000 0.535464
O O5 0.817460 0.283761 0.682753
O O6 0.069352 0.276226 0.659517
O O7 0.920622 0.000000 0.644405
O O8 0.193377 0.500000 0.142686
O O9 0.339698 0.222017 0.157354
O O10 0.147093 0.218505 0.087679
O O11 0.088190 0.217447 0.182057
O O12 0.976749 0.500000 0.212096
O O13 0.883900 0.790830 0.248947
O O14 0.707187 0.000000 0.713629
O O15 0.605908 0.000000 0.036148
O O16 0.500000 0.712363 0.000000
O O17 0.750000 0.750000 0.000000
#
# Coordination Sequence:
#
# PCOD9205856 Si02
#       6
#     8   8   8   8   8   8
#     4  10  21  36  54  78 107 140 179 220 264 315
#     4  10  21  36  54  79 109 139 176 221 265 313
#     4  10  21  36  55  80 107 138 177 216 259 313
#     4  10  21  37  56  79 108 140 175 217 263 312
#     4  10  21  36  55  80 107 138 177 217 262 316
#     4  10  21  37  56  79 108 140 175 217 262 309
#
# _framework density 23.438331999999999
#
# number of rings (size 3 to 8) (size 9 to 14) (size 15 to 20)
#    0.000    2.000    0.000    3.000    0.000    5.333 
#    0.000    0.000    0.000    0.000    0.000    0.000 
#    0.000    0.000    0.000    0.000    0.000    0.000 
#
# Total GULP energy -134224.496289 kJ/mol
# GULP energy per Si atom -5592.687345 kJ/mol
# Density = 2.338499 g / cm^3
# Si number density = 23.438332 Si / 1000 Ang^3
#
#
#
# Elastic Constant Matrix: (Units=GPa)
#
#
# Indices 1 2 3 4 5 6 
#
# 1 98.8844 -17.0063 -16.1954 0.0000 -6.8255 0.0000
# 2 -17.0063 76.1386 -2.2824 0.0000 -10.3163 0.0000
# 3 -16.1954 -2.2824 74.4992 0.0000 -2.5361 0.0000
# 4 0.0000 0.0000 0.0000 1.6874 0.0000 12.1375
# 5 -6.8255 -10.3163 -2.5361 0.0000 47.4246 0.0000
# 6 0.0000 0.0000 0.0000 12.1375 0.0000 14.8643
#
#
#
# Elastic Compliance Matrix: (Units=1/GPa)
#
#
# Indices 1 2 3 4 5 6 
#
# 1 0.011203 0.002903 0.002606 0.000000 0.002383 0.000000
# 2 0.002903 0.014305 0.001192 0.000000 0.003593 0.000000
# 3 0.002606 0.001192 0.014073 0.000000 0.001387 0.000000
# 4 0.000000 0.000000 0.000000 -0.121601 0.000000 0.099294
# 5 0.002383 0.003593 0.001387 0.000000 0.022285 0.000000
# 6 0.000000 0.000000 0.000000 0.099294 0.000000 -0.013804
#
#
# Mechanical properties :
#
#
# Convention : Reuss Voigt Hill
#
# Bulk Modulus (GPa) = 18.87392 19.83933 19.35662
# Shear Modulus (GPa) = -72.17138 31.79569 -20.18784
#
# Velocity S-wave (km/s) = -5.55508 3.68716 -2.93800
# Velocity P-wave (km/s) = 5.75110 5.15846 1.79797
#
# Compressibility (1/GPa) = 0.05298318
#
# Stress axis : x y z
#
# Youngs Moduli (GPa) = 89.25847 69.90535 71.05747
#
# Poissons Ratio (x) = -0.20297 -0.18515
# Poissons Ratio (y) = -0.25916 -0.08468
# Poissons Ratio (z) = -0.23257 -0.08331
#
# Static dielectric constant tensor:
#      x y z
#    x 1.804870 0.000000 -0.012940 
#    y 0.000000 1.616540 0.000000 
#    z -0.012940 0.000000 1.884980 
# 
# From -- ./inp_files/334784.got.cif
#   From: 2010.05.17/outbox.cif.g08.bks.cpg/sg12_168_cif.got.tgz:334784.got - 2010.06.03 13:09:07.
