data_PCOD9205552
_publ_section_title
;
Structure prediction by ZEFSAII (Michael W. Deem and Ramdas Pophale) SiO2 
 PCOD9205552
Probable space group: C 2/M
;
_chemical_formula_sum "Si O2"
_cell_formula_units_Z 64
_cell_length_a 13.807981
_cell_length_b 13.971539
_cell_length_c 18.172180
_cell_angle_alpha 90.000000
_cell_angle_beta 122.148344
_cell_angle_gamma 90.000000
_cell_volume 2968.228255
_symmetry_space_group_name_H-M "C 2/M"
_symmetry_group_IT_number 12
_symmetry_cell_setting 'monoclinic'
loop_
_space_group_symop_operation_xyz
x,y,z
-x,y,-z
-x,-y,-z
x,-y,z
1/2+x,1/2+y,z
1/2-x,1/2+y,-z
1/2-x,1/2-y,-z
1/2+x,1/2-y,z
loop_
_atom_site_type_symbol
_atom_site_label
_atom_site_fract_x
_atom_site_fract_y
_atom_site_fract_z
Si Si1 0.716409 0.611941 0.783250
Si Si2 0.200011 0.607104 0.781896
Si Si3 0.578190 0.798159 0.223033
Si Si4 0.548383 0.889930 0.356874
Si Si5 0.660016 0.603507 0.306343
Si Si6 0.675922 0.751420 0.897026
Si Si7 0.132810 0.309100 0.530191
Si Si8 0.123684 0.104930 0.588288
O O1 0.746602 0.500000 0.804597
O O2 0.822707 0.674792 0.794232
O O3 0.677159 0.657466 0.844774
O O4 0.626698 0.615752 0.678245
O O5 0.170863 0.500000 0.793819
O O6 0.297810 0.602398 0.761252
O O7 0.226724 0.669172 0.862671
O O8 0.084219 0.644706 0.696071
O O9 0.580473 0.881641 0.284633
O O10 0.591905 0.702039 0.278312
O O11 0.453574 0.784301 0.137943
O O12 0.624033 0.824274 0.439792
O O13 0.553354 0.000000 0.384821
O O14 0.606339 0.500000 0.302497
O O15 0.774833 0.617810 0.400159
O O16 0.750000 0.750000 0.000000
O O17 0.169018 0.204355 0.573645
O O18 0.000000 0.326855 0.500000
O O19 0.000000 0.100403 0.500000
O O20 0.178341 0.000000 0.594311
#
# Coordination Sequence:
#
# PCOD9205552 Si02
#       8
#     8   8   8   8   8   8   8   8
#     4  11  23  46  72  98 138 184 225 276 337 400
#     4   9  18  37  63  87 120 162 206 257 322 384
#     4  11  24  43  66  92 131 173 222 273 340 404
#     4  10  21  35  57  91 125 167 219 271 315 378
#     4  11  21  37  60  90 126 169 214 259 321 388
#     4  11  25  44  70 101 129 164 217 279 344 414
#     4  11  19  32  59  90 128 170 223 268 321 374
#     4   9  19  34  60  95 132 180 226 259 317 396
#
# _framework density 21.561684
#
# number of rings (size 3 to 8) (size 9 to 14) (size 15 to 20)
#    0.000    1.625    3.750    0.750    5.250    3.000 
#    0.000    1.250    0.000    1.500    0.000    0.000 
#    0.000    0.000    0.000    0.000    0.000    0.000 
#
# Total GULP energy -178550.565148 kJ/mol
# GULP energy per Si atom -5579.705161 kJ/mol
# Density = 2.151261 g / cm^3
# Si number density = 21.561684 Si / 1000 Ang^3
#
#
#
# Elastic Constant Matrix: (Units=GPa)
#
#
# Indices 1 2 3 4 5 6 
#
# 1 43.2960 -8.1411 22.4343 0.0000 0.9096 0.0000
# 2 -8.1411 128.8319 43.4353 0.0000 -7.1112 0.0000
# 3 22.4343 43.4353 162.9906 0.0000 -4.1372 0.0000
# 4 0.0000 0.0000 0.0000 8.5428 0.0000 -1.7330
# 5 0.9096 -7.1112 -4.1372 0.0000 19.9732 0.0000
# 6 0.0000 0.0000 0.0000 -1.7330 0.0000 21.8206
#
#
#
# Elastic Compliance Matrix: (Units=1/GPa)
#
#
# Indices 1 2 3 4 5 6 
#
# 1 0.025988 0.003078 -0.004423 0.000000 -0.001004 0.000000
# 2 0.003078 0.009027 -0.002766 0.000000 0.002501 0.000000
# 3 -0.004423 -0.002766 0.007501 0.000000 0.000770 0.000000
# 4 0.000000 0.000000 0.000000 0.118975 0.000000 0.009449
# 5 -0.001004 0.002501 0.000770 0.000000 0.051163 0.000000
# 6 0.000000 0.000000 0.000000 0.009449 0.000000 0.046579
#
#
# Mechanical properties :
#
#
# Convention : Reuss Voigt Hill
#
# Bulk Modulus (GPa) = 29.15882 50.06392 39.61137
# Shear Modulus (GPa) = 17.92850 28.55998 23.24424
#
# Velocity S-wave (km/s) = 2.88670 3.64341 3.28691
# Velocity P-wave (km/s) = 4.96624 6.40067 5.72853
#
# Compressibility (1/GPa) = 0.03429494
#
# Stress axis : x y z
#
# Youngs Moduli (GPa) = 38.47867 110.77779 133.32090
#
# Poissons Ratio (x) = -0.34097 0.58965
# Poissons Ratio (y) = -0.11844 0.36874
# Poissons Ratio (z) = 0.17018 0.30639
#
# Static dielectric constant tensor:
#      x y z
#    x 1.855290 0.000000 0.018800 
#    y 0.000000 1.854560 0.000000 
#    z 0.018800 0.000000 1.766400 
# 
# From -- ./inp_files/270690.got.cif
#   From: 2010.05.17/outbox.cif.g08.bks.cpg/sg12_136_cif.got.tgz:270690.got - 2010.06.03 13:09:07.
