data_PCOD9205280
_publ_section_title
;
Structure prediction by ZEFSAII (Michael W. Deem and Ramdas Pophale) SiO2 
 PCOD9205280
Probable space group: C 2/M
;
_chemical_formula_sum "Si O2"
_cell_formula_units_Z 56
_cell_length_a 29.578416
_cell_length_b 8.405845
_cell_length_c 14.740567
_cell_angle_alpha 90.000000
_cell_angle_beta 119.979021
_cell_angle_gamma 90.000000
_cell_volume 3174.628285
_symmetry_space_group_name_H-M "C 2/M"
_symmetry_group_IT_number 12
_symmetry_cell_setting 'monoclinic'
loop_
_space_group_symop_operation_xyz
x,y,z
-x,y,-z
-x,-y,-z
x,-y,z
1/2+x,1/2+y,z
1/2-x,1/2+y,-z
1/2-x,1/2-y,-z
1/2+x,1/2-y,z
loop_
_atom_site_type_symbol
_atom_site_label
_atom_site_fract_x
_atom_site_fract_y
_atom_site_fract_z
Si Si1 0.412001 0.185324 0.672319
Si Si2 0.445784 0.188840 0.994293
Si Si3 0.525251 0.310584 0.791737
Si Si4 0.366409 0.189906 0.434377
Si Si5 0.951224 0.190793 0.389264
Si Si6 0.755214 0.693159 0.400887
Si Si7 0.645892 0.315246 0.222138
O O1 0.471426 0.218723 0.755705
O O2 0.402639 0.222229 0.558101
O O3 0.376286 0.294264 0.698656
O O4 0.398496 0.000000 0.674436
O O5 0.395630 0.225959 0.882347
O O6 0.450520 0.000000 0.011102
O O7 0.500000 0.244893 0.000000
O O8 0.439954 0.270318 0.086427
O O9 0.515349 0.500000 0.779125
O O10 0.544622 0.259070 0.711613
O O11 0.396605 0.261470 0.379735
O O12 0.308961 0.245926 0.407004
O O13 0.363461 0.000000 0.418994
O O14 0.000000 0.251764 0.500000
O O15 0.954737 0.000000 0.393635
O O16 0.755439 0.500000 0.404321
O O17 0.750000 0.750000 0.500000
O O18 0.705226 0.743839 0.291120
O O19 0.646104 0.500000 0.196040
#
# Coordination Sequence:
#
# PCOD9205280 Si02
#       7
#     8   8   8   8   8   8   8
#     4  11  20  31  51  80 114 146 181 220 262 320
#     4  11  23  37  55  80 111 143 180 226 274 325
#     4  11  22  36  55  79 111 146 183 223 268 323
#     4  10  21  35  53  79 113 148 182 220 266 322
#     4  10  21  36  54  80 111 143 181 224 269 321
#     4  10  21  36  54  81 112 145 183 223 269 321
#     4  11  22  35  55  80 110 147 184 222 269 322
#
# _framework density 17.639859999999999
#
# number of rings (size 3 to 8) (size 9 to 14) (size 15 to 20)
#    0.000    1.429    4.286    1.714    0.000    3.714 
#    0.000    0.000    0.000    0.857    0.000    0.000 
#    0.000    0.000    0.000    0.000    0.000    0.000 
#
# Total GULP energy -156246.542983 kJ/mol
# GULP energy per Si atom -5580.233678 kJ/mol
# Density = 1.759971 g / cm^3
# Si number density = 17.639860 Si / 1000 Ang^3
#
#
#
# Elastic Constant Matrix: (Units=GPa)
#
#
# Indices 1 2 3 4 5 6 
#
# 1 95.0663 2.6009 37.7022 0.0000 -2.4841 0.0000
# 2 2.6009 11.8197 14.6375 0.0000 -3.7484 0.0000
# 3 37.7022 14.6375 91.3934 0.0000 -1.8703 0.0000
# 4 0.0000 0.0000 0.0000 23.0141 0.0000 -5.3204
# 5 -2.4841 -3.7484 -1.8703 0.0000 30.0017 0.0000
# 6 0.0000 0.0000 0.0000 -5.3204 0.0000 22.9193
#
#
#
# Elastic Compliance Matrix: (Units=1/GPa)
#
#
# Indices 1 2 3 4 5 6 
#
# 1 0.012827 0.005135 -0.006087 0.000000 0.001324 0.000000
# 2 0.005135 0.112208 -0.019819 0.000000 0.013209 0.000000
# 3 -0.006087 -0.019819 0.016587 0.000000 -0.001946 0.000000
# 4 0.000000 0.000000 0.000000 0.045916 0.000000 0.010659
# 5 0.001324 0.013209 -0.001946 0.000000 0.034970 0.000000
# 6 0.000000 0.000000 0.000000 0.010659 0.000000 0.046106
#
#
# Mechanical properties :
#
#
# Convention : Reuss Voigt Hill
#
# Bulk Modulus (GPa) = 9.99196 34.24007 22.11601
# Shear Modulus (GPa) = 14.55539 24.74294 19.64916
#
# Velocity S-wave (km/s) = 2.87564 3.74929 3.34115
# Velocity P-wave (km/s) = 4.08687 6.18026 5.23919
#
# Compressibility (1/GPa) = 0.10008048
#
# Stress axis : x y z
#
# Youngs Moduli (GPa) = 77.96009 8.91203 60.28765
#
# Poissons Ratio (x) = -0.04577 0.36697
# Poissons Ratio (y) = -0.40036 1.19486
# Poissons Ratio (z) = 0.47454 0.17663
#
# Static dielectric constant tensor:
#      x y z
#    x 1.598890 0.000000 0.012990 
#    y 0.000000 1.602280 0.000000 
#    z 0.012990 0.000000 1.604540 
# 
# From -- ./inp_files/243622.got.cif
#   From: 2010.05.17/outbox.cif.g08.bks.cpg/sg12_122_cif.got.tgz:243622.got - 2010.06.03 13:09:07.
