data_PCOD9205245
_publ_section_title
;
Structure prediction by ZEFSAII (Michael W. Deem and Ramdas Pophale) SiO2 
 PCOD9205245
Probable space group: C 2/M
;
_chemical_formula_sum "Si O2"
_cell_formula_units_Z 56
_cell_length_a 25.437914
_cell_length_b 19.266420
_cell_length_c 22.911451
_cell_angle_alpha 90.000000
_cell_angle_beta 163.338365
_cell_angle_gamma 90.000000
_cell_volume 3219.524542
_symmetry_space_group_name_H-M "C 2/M"
_symmetry_group_IT_number 12
_symmetry_cell_setting 'monoclinic'
loop_
_space_group_symop_operation_xyz
x,y,z
-x,y,-z
-x,-y,-z
x,-y,z
1/2+x,1/2+y,z
1/2-x,1/2+y,-z
1/2-x,1/2-y,-z
1/2+x,1/2-y,z
loop_
_atom_site_type_symbol
_atom_site_label
_atom_site_fract_x
_atom_site_fract_y
_atom_site_fract_z
Si Si1 0.214657 0.919179 0.101719
Si Si2 0.927178 0.348652 0.562932
Si Si3 0.037235 0.422245 0.279680
Si Si4 0.016354 0.224068 0.307851
Si Si5 0.550059 0.209794 0.225023
Si Si6 0.027433 0.806411 0.095555
Si Si7 0.610379 0.423689 0.858287
O O1 0.424439 0.895121 0.313141
O O2 0.211277 0.000000 0.114805
O O3 0.109771 0.913020 0.927518
O O4 0.108998 0.869288 0.033445
O O5 0.877007 0.385433 0.571803
O O6 0.034419 0.277648 0.695177
O O7 0.737778 0.331725 0.329233
O O8 0.107984 0.500000 0.346849
O O9 0.047186 0.372126 0.234599
O O10 0.823845 0.426372 0.069040
O O11 0.236127 0.228804 0.543655
O O12 0.953223 0.255677 0.178577
O O13 0.967961 0.143470 0.257232
O O14 0.485931 0.244151 0.097054
O O15 0.000000 0.784703 0.000000
O O16 0.531227 0.500000 0.760448
#
# Coordination Sequence:
#
# PCOD9205245 Si02
#       7
#     8   8   8   8   8   8   8
#     4  10  21  35  53  75 101 138 170 202 258 303
#     4   9  20  35  53  77 106 129 165 213 254 307
#     4   9  18  30  51  80 106 131 157 202 264 314
#     4   9  16  29  49  75  99 130 160 203 261 305
#     4   9  18  31  48  73 100 129 171 207 251 302
#     4  11  23  38  53  72 100 139 184 218 244 286
#     4   9  17  28  46  78 108 130 160 197 254 322
#
# _framework density 17.393872999999999
#
# number of rings (size 3 to 8) (size 9 to 14) (size 15 to 20)
#    0.000    2.571    1.429    2.143    2.000    4.286 
#    0.000    0.714    0.000    0.429    0.000    0.000 
#    0.000    5.143    0.000    0.000    0.000    0.000 
#
# Total GULP energy -156026.319970 kJ/mol
# GULP energy per Si atom -5572.368570 kJ/mol
# Density = 1.735428 g / cm^3
# Si number density = 17.393873 Si / 1000 Ang^3
#
#
#
# Elastic Constant Matrix: (Units=GPa)
#
#
# Indices 1 2 3 4 5 6 
#
# 1 62.8024 24.1114 23.6635 0.0162 -16.9062 0.0170
# 2 24.1114 115.4716 17.5212 0.0471 -18.1829 0.0342
# 3 23.6635 17.5212 53.2251 -0.0004 -3.5745 0.0028
# 4 0.0162 0.0471 -0.0004 94.0173 0.0172 45.4705
# 5 -16.9062 -18.1829 -3.5745 0.0172 17.6615 0.0141
# 6 0.0170 0.0342 0.0028 45.4705 0.0141 38.6364
#
#
#
# Elastic Compliance Matrix: (Units=1/GPa)
#
#
# Indices 1 2 3 4 5 6 
#
# 1 0.025777 -0.000379 -0.009838 0.000001 0.022293 -0.000020
# 2 -0.000379 0.010746 -0.002687 -0.000002 0.010157 -0.000010
# 3 -0.009838 -0.002687 0.023548 0.000002 -0.007418 0.000006
# 4 0.000001 -0.000002 0.000002 0.024689 -0.000002 -0.029056
# 5 0.022293 0.010157 -0.007418 -0.000002 0.086915 -0.000048
# 6 -0.000020 -0.000010 0.000006 -0.029056 -0.000048 0.060078
#
#
# Mechanical properties :
#
#
# Convention : Reuss Voigt Hill
#
# Bulk Modulus (GPa) = 29.18604 40.23234 34.70919
# Shear Modulus (GPa) = 18.58860 41.14325 29.86592
#
# Velocity S-wave (km/s) = 3.27262 4.86880 4.14821
# Velocity P-wave (km/s) = 5.57638 7.40185 6.55299
#
# Compressibility (1/GPa) = 0.03426295
#
# Stress axis : x y z
#
# Youngs Moduli (GPa) = 38.79498 93.05456 42.46568
#
# Poissons Ratio (x) = 0.03529 0.41778
# Poissons Ratio (y) = 0.01471 0.11410
# Poissons Ratio (z) = 0.38167 0.25003
#
# Static dielectric constant tensor:
#      x y z
#    x 1.594130 -0.000010 0.028760 
#    y -0.000010 1.645790 -0.000020 
#    z 0.028760 -0.000020 1.613230 
# 
# From -- ./inp_files/326024.got.cif
#   From: 2010.05.17/outbox.cif.g08.bks.cpg/sg12_164_cif.got.tgz:326024.got - 2010.06.03 13:09:07.
