data_PCOD9205764
_publ_section_title
;
Structure prediction by ZEFSAII (Michael W. Deem and Ramdas Pophale) SiO2 
 PCOD9205764
Probable space group: C 2/M
;
_chemical_formula_sum "Si O2"
_cell_formula_units_Z 64
_cell_length_a 24.149511
_cell_length_b 8.577941
_cell_length_c 24.990235
_cell_angle_alpha 90.000000
_cell_angle_beta 43.422969
_cell_angle_gamma 90.000000
_cell_volume 3558.425062
_symmetry_space_group_name_H-M "C 2/M"
_symmetry_group_IT_number 12
_symmetry_cell_setting 'monoclinic'
loop_
_space_group_symop_operation_xyz
x,y,z
-x,y,-z
-x,-y,-z
x,-y,z
1/2+x,1/2+y,z
1/2-x,1/2+y,-z
1/2-x,1/2-y,-z
1/2+x,1/2-y,z
loop_
_atom_site_type_symbol
_atom_site_label
_atom_site_fract_x
_atom_site_fract_y
_atom_site_fract_z
Si Si1 0.794054 0.184685 0.648032
Si Si2 0.900565 0.311666 0.665590
Si Si3 0.160607 0.812727 0.574196
Si Si4 0.362093 0.188626 0.812407
Si Si5 0.580028 0.186539 0.526819
Si Si6 0.793810 0.812213 0.022328
Si Si7 0.948879 0.188680 0.858172
Si Si8 0.628712 0.687820 0.719980
O O1 0.830022 0.248519 0.678015
O O2 0.854908 0.242253 0.558918
O O3 0.704895 0.244886 0.697519
O O4 0.793863 0.000000 0.648588
O O5 0.897879 0.500000 0.666654
O O6 0.892163 0.260732 0.733133
O O7 0.987915 0.264404 0.581345
O O8 0.250000 0.750000 0.500000
O O9 0.102904 0.736968 0.570734
O O10 0.136911 0.771873 0.651370
O O11 0.159367 0.000000 0.569619
O O12 0.267976 0.234643 0.887560
O O13 0.413666 0.254249 0.825818
O O14 0.367156 0.000000 0.811266
O O15 0.584821 0.000000 0.518754
O O16 0.794243 0.000000 0.021596
O O17 0.750000 0.750000 0.000000
O O18 0.886174 0.761430 0.948779
O O19 0.040661 0.240963 0.801054
O O20 0.949396 0.000000 0.856016
O O21 0.632620 0.500000 0.721000
#
# Coordination Sequence:
#
# PCOD9205764 Si02
#       8
#     8   8   8   8   8   8   8   8
#     4  12  25  38  54  73  96 131 175 220 260 302
#     4  10  22  38  55  74 100 135 172 211 256 303
#     4  11  21  33  52  76 103 136 170 209 255 302
#     4   9  17  31  52  79 108 137 165 202 250 301
#     4  11  22  37  56  76 101 133 169 212 260 309
#     4   8  14  26  47  76 108 135 163 197 243 298
#     4   9  17  30  51  80 109 137 166 203 247 298
#     4  10  21  36  53  73 103 139 172 207 253 303
#
# _framework density 17.985485000000001
#
# number of rings (size 3 to 8) (size 9 to 14) (size 15 to 20)
#    0.000    2.000    1.250    3.000    0.000    4.000 
#    0.000    0.000    0.000    0.750    0.000    5.250 
#    0.000    0.000    0.000    0.000    0.000    0.000 
#
# Total GULP energy -178528.035510 kJ/mol
# GULP energy per Si atom -5579.001110 kJ/mol
# Density = 1.794455 g / cm^3
# Si number density = 17.985485 Si / 1000 Ang^3
#
#
#
# Elastic Constant Matrix: (Units=GPa)
#
#
# Indices 1 2 3 4 5 6 
#
# 1 90.6933 9.7251 48.8003 -0.0001 -19.1162 0.0003
# 2 9.7251 7.9641 19.2673 -0.0002 -6.5429 0.0013
# 3 48.8003 19.2673 108.4086 0.0000 -39.3202 -0.0001
# 4 -0.0001 -0.0002 0.0000 13.7962 0.0000 2.6698
# 5 -19.1162 -6.5429 -39.3202 0.0000 26.1387 0.0000
# 6 0.0003 0.0013 -0.0001 2.6698 0.0000 25.4525
#
#
#
# Elastic Compliance Matrix: (Units=1/GPa)
#
#
# Indices 1 2 3 4 5 6 
#
# 1 0.014644 -0.003578 -0.005274 0.000000 0.001880 0.000000
# 2 -0.003578 0.221966 -0.041013 0.000006 -0.008751 -0.000012
# 3 -0.005274 -0.041013 0.030294 -0.000001 0.031447 0.000002
# 4 0.000000 0.000006 -0.000001 0.073986 0.000000 -0.007760
# 5 0.001880 -0.008751 0.031447 0.000000 0.084748 0.000001
# 6 0.000000 -0.000012 0.000002 -0.007760 0.000001 0.040103
#
#
# Mechanical properties :
#
#
# Convention : Reuss Voigt Hill
#
# Bulk Modulus (GPa) = 5.98180 40.29461 23.13821
# Shear Modulus (GPa) = 8.04900 21.69569 14.87235
#
# Velocity S-wave (km/s) = 2.11778 3.47693 2.87872
# Velocity P-wave (km/s) = 3.05174 6.21059 4.89308
#
# Compressibility (1/GPa) = 0.16717378
#
# Stress axis : x y z
#
# Youngs Moduli (GPa) = 68.28693 4.50519 33.01007
#
# Poissons Ratio (x) = 0.01612 0.17410
# Poissons Ratio (y) = 0.24431 1.35385
# Poissons Ratio (z) = 0.36016 0.18477
#
# Static dielectric constant tensor:
#      x y z
#    x 1.608010 0.000000 -0.039320 
#    y 0.000000 1.610730 0.000000 
#    z -0.039320 0.000000 1.667910 
# 
# From -- ./inp_files/346051.got.cif
#   From: 2010.05.17/outbox.cif.g08.bks.cpg/sg12_174_cif.got.tgz:346051.got - 2010.06.03 13:09:07.
