data_PCOD9205799
_publ_section_title
;
Structure prediction by ZEFSAII (Michael W. Deem and Ramdas Pophale) SiO2 
 PCOD9205799
Probable space group: C 2/M
;
_chemical_formula_sum "Si O2"
_cell_formula_units_Z 48
_cell_length_a 9.105137
_cell_length_b 24.008294
_cell_length_c 12.826733
_cell_angle_alpha 90.000000
_cell_angle_beta 112.698954
_cell_angle_gamma 90.000000
_cell_volume 2586.732161
_symmetry_space_group_name_H-M "C 2/M"
_symmetry_group_IT_number 12
_symmetry_cell_setting 'monoclinic'
loop_
_space_group_symop_operation_xyz
x,y,z
-x,y,-z
-x,-y,-z
x,-y,z
1/2+x,1/2+y,z
1/2-x,1/2+y,-z
1/2-x,1/2-y,-z
1/2+x,1/2-y,z
loop_
_atom_site_type_symbol
_atom_site_label
_atom_site_fract_x
_atom_site_fract_y
_atom_site_fract_z
Si Si1 0.250403 0.295487 0.410818
Si Si2 0.409552 0.762165 0.257496
Si Si3 0.069794 0.179788 0.134401
Si Si4 0.666477 0.564710 0.246655
Si Si5 0.996747 0.436001 0.384951
Si Si6 0.838539 0.084029 0.506193
O O1 0.250000 0.250000 0.500000
O O2 0.355994 0.273478 0.343994
O O3 0.320938 0.350437 0.481596
O O4 0.064759 0.300220 0.325151
O O5 0.251266 0.796756 0.185676
O O6 0.469429 0.719005 0.185725
O O7 0.066061 0.115245 0.171163
O O8 0.000000 0.184094 0.000000
O O9 0.631518 0.500000 0.206875
O O10 0.851434 0.581714 0.273565
O O11 0.659485 0.569159 0.371145
O O12 0.948268 0.500000 0.390207
O O13 0.000000 0.406556 0.500000
O O14 0.179626 0.436911 0.404393
O O15 0.000000 0.063740 0.500000
#
# Coordination Sequence:
#
# PCOD9205799 Si02
#       6
#     8   8   8   8   8   8
#     4  11  20  32  51  79 114 146 174 210 269 343
#     4  10  22  37  55  82 112 143 184 232 279 331
#     4  11  22  39  60  80 105 142 191 243 287 319
#     4  10  21  36  53  77 110 146 184 224 269 328
#     4   8  16  30  46  66  96 134 170 204 251 317
#     4  11  19  29  48  77 109 142 175 211 264 329
#
# _framework density 18.556231
#
# number of rings (size 3 to 8) (size 9 to 14) (size 15 to 20)
#    0.000    1.833    0.000    7.500    0.000    4.333 
#    0.000    0.000    0.000    0.000    0.000    0.000 
#    0.000   20.000    0.000    0.000    0.000    0.000 
#
# Total GULP energy -133717.090942 kJ/mol
# GULP energy per Si atom -5571.545456 kJ/mol
# Density = 1.851400 g / cm^3
# Si number density = 18.556231 Si / 1000 Ang^3
#
#
#
# Elastic Constant Matrix: (Units=GPa)
#
#
# Indices 1 2 3 4 5 6 
#
# 1 123.6329 32.4445 32.6034 0.0000 -3.8798 0.0000
# 2 32.4445 122.0492 40.6259 0.0000 -0.6899 0.0000
# 3 32.6034 40.6259 72.6208 0.0000 -6.3692 0.0000
# 4 0.0000 0.0000 0.0000 10.5770 0.0000 3.7323
# 5 -3.8798 -0.6899 -6.3692 0.0000 17.5636 0.0000
# 6 0.0000 0.0000 0.0000 3.7323 0.0000 17.2746
#
#
#
# Elastic Compliance Matrix: (Units=1/GPa)
#
#
# Indices 1 2 3 4 5 6 
#
# 1 0.009360 -0.001362 -0.003371 0.000000 0.000792 0.000000
# 2 -0.001362 0.010316 -0.005320 0.000000 -0.001825 0.000000
# 3 -0.003371 -0.005320 0.018773 0.000000 0.005854 0.000000
# 4 0.000000 0.000000 0.000000 0.102348 0.000000 -0.022113
# 5 0.000792 -0.001825 0.005854 0.000000 0.059162 0.000000
# 6 0.000000 0.000000 0.000000 -0.022113 0.000000 0.062666
#
#
# Mechanical properties :
#
#
# Convention : Reuss Voigt Hill
#
# Bulk Modulus (GPa) = 54.51360 58.85005 56.68182
# Shear Modulus (GPa) = 17.31039 23.25831 20.28435
#
# Velocity S-wave (km/s) = 3.05759 3.54417 3.30984
# Velocity P-wave (km/s) = 6.47352 6.96646 6.72451
#
# Compressibility (1/GPa) = 0.01834405
#
# Stress axis : x y z
#
# Youngs Moduli (GPa) = 106.84280 96.93895 53.26822
#
# Poissons Ratio (x) = 0.13199 0.17956
# Poissons Ratio (y) = 0.14547 0.28337
# Poissons Ratio (z) = 0.36016 0.51568
#
# Static dielectric constant tensor:
#      x y z
#    x 1.718870 0.000000 0.034260 
#    y 0.000000 3.604920 0.000000 
#    z 0.034260 0.000000 1.623000 
# 
# From -- ./inp_files/122438.got.cif
#   From: 2010.05.17/outbox.cif.g08.bks.cpg/sg12_62_cif.got.tgz:122438.got - 2010.06.03 13:09:07.
