data_PCOD9205926
_publ_section_title
;
Structure prediction by ZEFSAII (Michael W. Deem and Ramdas Pophale) SiO2 
 PCOD9205926
Probable space group: C 2/M
;
_chemical_formula_sum "Si O2"
_cell_formula_units_Z 56
_cell_length_a 28.869853
_cell_length_b 8.302428
_cell_length_c 17.281603
_cell_angle_alpha 90.000000
_cell_angle_beta 138.987593
_cell_angle_gamma 90.000000
_cell_volume 2718.221182
_symmetry_space_group_name_H-M "C 2/M"
_symmetry_group_IT_number 12
_symmetry_cell_setting 'monoclinic'
loop_
_space_group_symop_operation_xyz
x,y,z
-x,y,-z
-x,-y,-z
x,-y,z
1/2+x,1/2+y,z
1/2-x,1/2+y,-z
1/2-x,1/2-y,-z
1/2+x,1/2-y,z
loop_
_atom_site_type_symbol
_atom_site_label
_atom_site_fract_x
_atom_site_fract_y
_atom_site_fract_z
Si Si1 0.169621 0.690423 0.551203
Si Si2 0.904137 0.692725 0.695038
Si Si3 0.029526 0.192853 0.454340
Si Si4 0.080575 0.302781 0.113892
Si Si5 0.794382 0.190470 0.983243
Si Si6 0.952886 0.192697 0.199631
Si Si7 0.787527 0.690035 0.811206
O O1 0.183627 0.500000 0.564145
O O2 0.147154 0.754146 0.437750
O O3 0.100859 0.720752 0.517730
O O4 0.234740 0.775312 0.674363
O O5 0.896327 0.500000 0.685722
O O6 0.893154 0.751330 0.768319
O O7 0.984451 0.730831 0.771371
O O8 0.000000 0.243897 0.500000
O O9 0.973274 0.220275 0.315009
O O10 0.043670 0.000000 0.475343
O O11 0.080922 0.500000 0.113751
O O12 0.135267 0.248447 0.117500
O O13 0.000000 0.251293 0.000000
O O14 0.762508 0.232599 0.859655
O O15 0.799762 0.000000 0.997363
O O16 0.750000 0.250000 0.000000
O O17 0.874671 0.256402 0.085110
O O18 0.955063 0.000000 0.189008
O O19 0.791523 0.500000 0.829020
#
# Coordination Sequence:
#
# PCOD9205926 Si02
#       7
#     8   8   8   8   8   8   8
#     4  10  21  36  54  82 119 153 189 240 293 345
#     4   9  18  35  59  85 115 151 192 237 286 342
#     4   9  18  33  56  81 107 145 189 234 281 340
#     4   9  18  34  59  88 114 147 195 243 288 343
#     4  11  24  40  58  83 116 153 192 236 289 347
#     4   9  19  35  54  81 113 144 183 230 283 340
#     4  11  23  39  60  84 114 153 197 243 291 346
#
# _framework density 20.601707999999999
#
# number of rings (size 3 to 8) (size 9 to 14) (size 15 to 20)
#    0.000    2.286    0.000    2.143    2.000    3.714 
#    0.000    1.429    0.000    3.857    0.000    0.000 
#    0.000    0.000    0.000    0.000    0.000    0.000 
#
# Total GULP energy -156356.681035 kJ/mol
# GULP energy per Si atom -5584.167180 kJ/mol
# Density = 2.055482 g / cm^3
# Si number density = 20.601708 Si / 1000 Ang^3
#
#
#
# Elastic Constant Matrix: (Units=GPa)
#
#
# Indices 1 2 3 4 5 6 
#
# 1 104.0402 7.5161 32.4506 0.0000 -27.1147 0.0000
# 2 7.5161 15.2189 2.8329 0.0000 -3.2780 0.0000
# 3 32.4506 2.8329 77.2918 0.0000 1.3596 0.0000
# 4 0.0000 0.0000 0.0000 15.0095 0.0000 7.5307
# 5 -27.1147 -3.2780 1.3596 0.0000 25.3063 0.0000
# 6 0.0000 0.0000 0.0000 7.5307 0.0000 12.4756
#
#
#
# Elastic Compliance Matrix: (Units=1/GPa)
#
#
# Indices 1 2 3 4 5 6 
#
# 1 0.016776 -0.003066 -0.007247 0.000000 0.017967 0.000000
# 2 -0.003066 0.068694 -0.001330 0.000000 0.005684 0.000000
# 3 -0.007247 -0.001330 0.016184 0.000000 -0.008807 0.000000
# 4 0.000000 0.000000 0.000000 0.095568 0.000000 -0.057688
# 5 0.017967 0.005684 -0.008807 0.000000 0.059977 0.000000
# 6 0.000000 0.000000 0.000000 -0.057688 0.000000 0.114978
#
#
# Mechanical properties :
#
#
# Convention : Reuss Voigt Hill
#
# Bulk Modulus (GPa) = 12.76047 31.35002 22.05524
# Shear Modulus (GPa) = 11.85994 20.80836 16.33415
#
# Velocity S-wave (km/s) = 2.40193 3.18155 2.81882
# Velocity P-wave (km/s) = 3.72823 5.36158 4.61770
#
# Compressibility (1/GPa) = 0.07836703
#
# Stress axis : x y z
#
# Youngs Moduli (GPa) = 59.60844 14.55732 61.78826
#
# Poissons Ratio (x) = 0.04464 0.44778
# Poissons Ratio (y) = 0.18277 0.08220
# Poissons Ratio (z) = 0.43199 0.01937
#
# Static dielectric constant tensor:
#      x y z
#    x 1.719680 0.000000 -0.009390 
#    y 0.000000 1.710320 0.000000 
#    z -0.009390 0.000000 1.759300 
# 
# From -- ./inp_files/292566.got.cif
#   From: 2010.05.17/outbox.cif.g08.bks.cpg/sg12_147_cif.got.tgz:292566.got - 2010.06.03 13:09:07.
