data_PCOD9205549
_publ_section_title
;
Structure prediction by ZEFSAII (Michael W. Deem and Ramdas Pophale) SiO2 
 PCOD9205549
Probable space group: C 2/M
;
_chemical_formula_sum "Si O2"
_cell_formula_units_Z 64
_cell_length_a 9.619985
_cell_length_b 29.412601
_cell_length_c 15.640549
_cell_angle_alpha 90.000000
_cell_angle_beta 42.849596
_cell_angle_gamma 90.000000
_cell_volume 3009.659615
_symmetry_space_group_name_H-M "C 2/M"
_symmetry_group_IT_number 12
_symmetry_cell_setting 'monoclinic'
loop_
_space_group_symop_operation_xyz
x,y,z
-x,y,-z
-x,-y,-z
x,-y,z
1/2+x,1/2+y,z
1/2-x,1/2+y,-z
1/2-x,1/2-y,-z
1/2+x,1/2-y,z
loop_
_atom_site_type_symbol
_atom_site_label
_atom_site_fract_x
_atom_site_fract_y
_atom_site_fract_z
Si Si1 0.003134 0.448952 0.823653
Si Si2 0.412041 0.551850 0.891391
Si Si3 0.108259 0.798434 0.865186
Si Si4 0.863713 0.203537 0.475350
Si Si5 0.118057 0.550080 0.311108
Si Si6 0.662917 0.293711 0.182128
Si Si7 0.480970 0.149976 0.605683
Si Si8 0.801719 0.391694 0.138164
O O1 0.053497 0.500000 0.833603
O O2 0.002413 0.450429 0.723007
O O3 0.159283 0.411024 0.786246
O O4 0.769917 0.438536 0.959674
O O5 0.379276 0.500000 0.876537
O O6 0.641561 0.554470 0.820689
O O7 0.389648 0.586497 0.823161
O O8 0.214164 0.751505 0.848342
O O9 0.287364 0.829194 0.743626
O O10 0.947717 0.789891 0.860180
O O11 0.000000 0.817741 0.000000
O O12 0.750000 0.250000 0.500000
O O13 0.686818 0.165675 0.561092
O O14 0.000000 0.207360 0.500000
O O15 0.003918 0.195514 0.329650
O O16 0.094711 0.500000 0.362963
O O17 0.050027 0.596068 0.386587
O O18 0.799238 0.338568 0.124920
O O19 0.500000 0.168587 0.500000
O O20 0.000000 0.411701 0.000000
#
# Coordination Sequence:
#
# PCOD9205549 Si02
#       8
#     8   8   8   8   8   8   8   8
#     4   9  18  34  58  90 129 173 222 275 335 402
#     4   9  17  33  57  89 128 173 218 271 330 398
#     4  12  27  45  70 103 141 179 223 284 350 408
#     4  12  25  46  75 100 131 179 233 282 330 401
#     4  10  22  38  63  95 129 169 221 278 338 397
#     4  12  25  44  67  97 140 177 229 280 343 407
#     4  12  26  47  71  98 136 183 231 280 336 408
#     4  10  21  35  57  89 129 172 220 271 335 407
#
# _framework density 21.264863999999999
#
# number of rings (size 3 to 8) (size 9 to 14) (size 15 to 20)
#    0.000    1.250    2.500    3.375    1.750    6.250 
#    0.000    0.000    0.000    0.375    0.000    0.000 
#    0.000    0.000    0.000    0.000    0.000    0.000 
#
# Total GULP energy -178600.831389 kJ/mol
# GULP energy per Si atom -5581.275981 kJ/mol
# Density = 2.121646 g / cm^3
# Si number density = 21.264864 Si / 1000 Ang^3
#
#
#
# Elastic Constant Matrix: (Units=GPa)
#
#
# Indices 1 2 3 4 5 6 
#
# 1 129.3762 52.8123 42.5161 0.0000 15.8075 0.0000
# 2 52.8123 117.7925 33.7894 0.0000 -1.1964 0.0000
# 3 42.5161 33.7894 100.1454 0.0000 13.9068 0.0000
# 4 0.0000 0.0000 0.0000 36.6256 0.0000 -0.6789
# 5 15.8075 -1.1964 13.9068 0.0000 25.5330 0.0000
# 6 0.0000 0.0000 0.0000 -0.6789 0.0000 22.0161
#
#
#
# Elastic Compliance Matrix: (Units=1/GPa)
#
#
# Indices 1 2 3 4 5 6 
#
# 1 0.010965 -0.004278 -0.002425 0.000000 -0.005669 0.000000
# 2 -0.004278 0.011200 -0.002600 0.000000 0.004590 0.000000
# 3 -0.002425 -0.002600 0.012658 0.000000 -0.005515 0.000000
# 4 0.000000 0.000000 0.000000 0.027319 0.000000 0.000842
# 5 -0.005669 0.004590 -0.005515 0.000000 0.045893 0.000000
# 6 0.000000 0.000000 0.000000 0.000842 0.000000 0.045447
#
#
# Mechanical properties :
#
#
# Convention : Reuss Voigt Hill
#
# Bulk Modulus (GPa) = 61.66151 67.28328 64.47239
# Shear Modulus (GPa) = 28.16997 31.38138 29.77567
#
# Velocity S-wave (km/s) = 3.64362 3.84570 3.74602
# Velocity P-wave (km/s) = 6.83821 7.17137 7.00677
#
# Compressibility (1/GPa) = 0.01621757
#
# Stress axis : x y z
#
# Youngs Moduli (GPa) = 91.19765 89.28468 79.00218
#
# Poissons Ratio (x) = 0.38199 0.19154
# Poissons Ratio (y) = 0.39017 0.20540
# Poissons Ratio (z) = 0.22111 0.23214
#
# Static dielectric constant tensor:
#      x y z
#    x 1.786930 0.000000 0.028330 
#    y 0.000000 1.817940 0.000000 
#    z 0.028330 0.000000 1.755060 
# 
# From -- ./inp_files/201309.got.cif
#   From: 2010.05.17/outbox.cif.g08.bks.cpg/sg12_101_cif.got.tgz:201309.got - 2010.06.03 13:09:07.
