data_PCOD9205224
_publ_section_title
;
Structure prediction by ZEFSAII (Michael W. Deem and Ramdas Pophale) SiO2 
 PCOD9205224
Probable space group: C 2/M
;
_chemical_formula_sum "Si O2"
_cell_formula_units_Z 64
_cell_length_a 31.036264
_cell_length_b 8.759057
_cell_length_c 23.453246
_cell_angle_alpha 90.000000
_cell_angle_beta 31.414611
_cell_angle_gamma 90.000000
_cell_volume 3323.203110
_symmetry_space_group_name_H-M "C 2/M"
_symmetry_group_IT_number 12
_symmetry_cell_setting 'monoclinic'
loop_
_space_group_symop_operation_xyz
x,y,z
-x,y,-z
-x,-y,-z
x,-y,z
1/2+x,1/2+y,z
1/2-x,1/2+y,-z
1/2-x,1/2-y,-z
1/2+x,1/2-y,z
loop_
_atom_site_type_symbol
_atom_site_label
_atom_site_fract_x
_atom_site_fract_y
_atom_site_fract_z
Si Si1 0.605133 0.826845 0.035694
Si Si2 0.966436 0.182696 0.267529
Si Si3 0.714594 0.682158 0.372835
Si Si4 0.573744 0.817018 0.372674
Si Si5 0.462825 0.829359 0.102852
Si Si6 0.164032 0.823060 0.679327
Si Si7 0.249334 0.816494 0.207720
Si Si8 0.041968 0.317474 0.597230
O O1 0.685591 0.758859 0.913333
O O2 0.622676 0.000000 0.036818
O O3 0.553111 0.735618 0.141545
O O4 0.539092 0.839066 0.059404
O O5 0.887533 0.235006 0.317581
O O6 0.960764 0.247718 0.336995
O O7 0.963129 0.000000 0.271282
O O8 0.707470 0.500000 0.380788
O O9 0.758298 0.734363 0.382246
O O10 0.760930 0.728974 0.261374
O O11 0.624238 0.756045 0.473813
O O12 0.500000 0.780773 0.500000
O O13 0.657617 0.732382 0.293642
O O14 0.537442 0.777947 0.351508
O O15 0.587706 0.000000 0.359996
O O16 0.402299 0.702773 0.195319
O O17 0.422252 0.000000 0.147496
O O18 0.500000 0.796534 0.000000
O O19 0.184961 0.000000 0.647458
O O20 0.258005 0.000000 0.197055
O O21 0.046910 0.500000 0.594873
#
# Coordination Sequence:
#
# PCOD9205224 Si02
#       8
#     8   8   8   8   8   8   8   8
#     4   9  18  34  55  81 113 150 189 231 280 335
#     4  10  22  40  59  82 113 152 198 240 279 330
#     4  11  22  36  57  87 119 151 191 236 284 338
#     4  10  21  39  61  87 118 147 181 228 288 349
#     4   9  16  29  50  74 107 148 189 233 281 333
#     4  10  21  35  52  78 113 151 192 236 282 333
#     4  10  21  36  59  90 120 149 187 234 284 338
#     4  11  23  40  62  85 112 150 190 233 288 344
#
# _framework density 19.258527999999998
#
# number of rings (size 3 to 8) (size 9 to 14) (size 15 to 20)
#    0.000    2.000    1.250    2.250    0.000    6.500 
#    0.000    3.125    0.000    0.000    0.000    0.000 
#    0.000    0.000    0.000    0.000    0.000    0.000 
#
# Total GULP energy -178477.394379 kJ/mol
# GULP energy per Si atom -5577.418574 kJ/mol
# Density = 1.921469 g / cm^3
# Si number density = 19.258528 Si / 1000 Ang^3
#
#
#
# Elastic Constant Matrix: (Units=GPa)
#
#
# Indices 1 2 3 4 5 6 
#
# 1 96.2710 23.1953 17.8627 -0.0034 2.9659 -0.0014
# 2 23.1953 23.5283 6.6846 -0.0159 1.7805 -0.0059
# 3 17.8627 6.6846 51.0080 -0.0022 -6.5093 -0.0010
# 4 -0.0034 -0.0159 -0.0022 24.5441 0.0125 -7.0886
# 5 2.9659 1.7805 -6.5093 0.0125 23.9621 0.0018
# 6 -0.0014 -0.0059 -0.0010 -7.0886 0.0018 16.9941
#
#
#
# Elastic Compliance Matrix: (Units=1/GPa)
#
#
# Indices 1 2 3 4 5 6 
#
# 1 0.014191 -0.012861 -0.003508 -0.000008 -0.001754 -0.000007
# 2 -0.012861 0.056393 -0.003334 0.000047 -0.003504 0.000039
# 3 -0.003508 -0.003334 0.022124 -0.000005 0.006692 -0.000003
# 4 -0.000008 0.000047 -0.000005 0.046324 -0.000029 0.019322
# 5 -0.001754 -0.003504 0.006692 -0.000029 0.044028 -0.000018
# 6 -0.000007 0.000039 -0.000003 0.019322 -0.000018 0.066904
#
#
# Mechanical properties :
#
#
# Convention : Reuss Voigt Hill
#
# Bulk Modulus (GPa) = 18.76059 29.58804 24.17432
# Shear Modulus (GPa) = 16.27946 21.30439 18.79193
#
# Velocity S-wave (km/s) = 2.91058 3.32961 3.12712
# Velocity P-wave (km/s) = 4.58889 5.49352 5.06145
#
# Compressibility (1/GPa) = 0.05330323
#
# Stress axis : x y z
#
# Youngs Moduli (GPa) = 70.46784 17.73270 45.19964
#
# Poissons Ratio (x) = 0.22805 0.15856
# Poissons Ratio (y) = 0.90626 0.15068
# Poissons Ratio (z) = 0.24720 0.05912
#
# Static dielectric constant tensor:
#      x y z
#    x 1.699490 -0.000010 0.025170 
#    y -0.000010 1.668790 0.000000 
#    z 0.025170 0.000000 1.726970 
# 
# From -- ./inp_files/250076.got.cif
#   From: 2010.05.17/outbox.cif.g08.bks.cpg/sg12_126_cif.got.tgz:250076.got - 2010.06.03 13:09:07.
