data_PCOD9205299
_publ_section_title
;
Structure prediction by ZEFSAII (Michael W. Deem and Ramdas Pophale) SiO2 
 PCOD9205299
Probable space group: C 2/M
;
_chemical_formula_sum "Si O2"
_cell_formula_units_Z 40
_cell_length_a 13.497282
_cell_length_b 33.795622
_cell_length_c 8.077507
_cell_angle_alpha 90.000000
_cell_angle_beta 27.701188
_cell_angle_gamma 90.000000
_cell_volume 1712.800038
_symmetry_space_group_name_H-M "C 2/M"
_symmetry_group_IT_number 12
_symmetry_cell_setting 'monoclinic'
loop_
_space_group_symop_operation_xyz
x,y,z
-x,y,-z
-x,-y,-z
x,-y,z
1/2+x,1/2+y,z
1/2-x,1/2+y,-z
1/2-x,1/2-y,-z
1/2+x,1/2-y,z
loop_
_atom_site_type_symbol
_atom_site_label
_atom_site_fract_x
_atom_site_fract_y
_atom_site_fract_z
Si Si1 0.820198 0.804196 0.915709
Si Si2 0.980442 0.268406 0.201440
Si Si3 0.160452 0.043765 0.577200
Si Si4 0.578190 0.956333 0.155493
Si Si5 0.629431 0.606659 0.133839
O O1 0.831614 0.848124 0.969651
O O2 0.000000 0.799550 0.500000
O O3 0.878666 0.771091 0.965527
O O4 0.586218 0.796043 0.184242
O O5 0.750000 0.250000 0.500000
O O6 0.000000 0.291889 0.000000
O O7 0.290310 0.044050 0.211771
O O8 0.008055 0.080980 0.789447
O O9 0.058712 0.000000 0.735608
O O10 0.334042 0.047028 0.464004
O O11 0.666775 0.920086 0.127544
O O12 0.618921 0.000000 0.167734
O O13 0.500000 0.608796 0.500000
#
# Coordination Sequence:
#
# PCOD9205299 Si02
#       5
#     8   8   8   8   8
#     4  10  21  35  53  82 106 133 183 222 264 327
#     4  11  22  39  60  78 105 143 175 219 275 325
#     4   8  13  21  34  53  85 128 167 198 243 302
#     4   8  13  21  33  53  84 127 168 199 242 300
#     4   9  16  25  38  62  94 126 162 215 254 293
#
# _framework density 23.353570000000001
#
# number of rings (size 3 to 8) (size 9 to 14) (size 15 to 20)
#    0.000    2.800    2.000    1.800    0.000    4.000 
#    3.600    0.000    0.000    0.000    0.000    0.000 
#    0.000    3.200    0.000   13.600    0.000   11.600 
#
# Total GULP energy -111508.622137 kJ/mol
# GULP energy per Si atom -5575.431107 kJ/mol
# Density = 2.330042 g / cm^3
# Si number density = 23.353570 Si / 1000 Ang^3
#
#
#
# Elastic Constant Matrix: (Units=GPa)
#
#
# Indices 1 2 3 4 5 6 
#
# 1 92.9930 36.6785 44.0519 0.0000 -23.0670 0.0000
# 2 36.6785 192.9703 25.9619 0.0000 -36.9205 0.0000
# 3 44.0519 25.9619 69.8652 0.0000 -17.6737 0.0000
# 4 0.0000 0.0000 0.0000 28.3273 0.0000 -10.4963
# 5 -23.0670 -36.9205 -17.6737 0.0000 58.4404 0.0000
# 6 0.0000 0.0000 0.0000 -10.4963 0.0000 -2.4707
#
#
#
# Elastic Compliance Matrix: (Units=1/GPa)
#
#
# Indices 1 2 3 4 5 6 
#
# 1 0.016268 -0.001331 -0.009043 0.000000 0.002845 0.000000
# 2 -0.001331 0.006124 -0.000639 0.000000 0.003150 0.000000
# 3 -0.009043 -0.000639 0.020842 0.000000 0.002330 0.000000
# 4 0.000000 0.000000 0.000000 0.013714 0.000000 -0.058261
# 5 0.002845 0.003150 0.002330 0.000000 0.020929 0.000000
# 6 0.000000 0.000000 0.000000 -0.058261 0.000000 -0.157234
#
#
# Mechanical properties :
#
#
# Convention : Reuss Voigt Hill
#
# Bulk Modulus (GPa) = 47.15445 63.24592 55.20018
# Shear Modulus (GPa) = -99.48078 33.46849 -33.00615
#
# Velocity S-wave (km/s) = -6.53377 3.78977 -3.76350
# Velocity P-wave (km/s) = 6.05680 6.80371 2.19153
#
# Compressibility (1/GPa) = 0.02120691
#
# Stress axis : x y z
#
# Youngs Moduli (GPa) = 61.46992 163.29524 47.97967
#
# Poissons Ratio (x) = 0.21736 0.43388
# Poissons Ratio (y) = 0.08182 0.03068
# Poissons Ratio (z) = 0.55588 0.10442
#
# Static dielectric constant tensor:
#      x y z
#    x 1.850750 0.000000 0.096190 
#    y 0.000000 1.812770 0.000000 
#    z 0.096190 0.000000 2.009150 
# 
# From -- ./inp_files/149989.got.cif
#   From: 2010.05.17/outbox.cif.g08.bks.cpg/sg12_75_cif.got.tgz:149989.got - 2010.06.03 13:09:07.
