data_PCOD9205091
_publ_section_title
;
Structure prediction by ZEFSAII (Michael W. Deem and Ramdas Pophale) SiO2 
 PCOD9205091
Probable space group: C 2/M
;
_chemical_formula_sum "Si O2"
_cell_formula_units_Z 40
_cell_length_a 15.938687
_cell_length_b 9.538114
_cell_length_c 16.579216
_cell_angle_alpha 90.000000
_cell_angle_beta 46.149197
_cell_angle_gamma 90.000000
_cell_volume 1817.617022
_symmetry_space_group_name_H-M "C 2/M"
_symmetry_group_IT_number 12
_symmetry_cell_setting 'monoclinic'
loop_
_space_group_symop_operation_xyz
x,y,z
-x,y,-z
-x,-y,-z
x,-y,z
1/2+x,1/2+y,z
1/2-x,1/2+y,-z
1/2-x,1/2-y,-z
1/2+x,1/2-y,z
loop_
_atom_site_type_symbol
_atom_site_label
_atom_site_fract_x
_atom_site_fract_y
_atom_site_fract_z
Si Si1 0.599612 0.668717 0.537314
Si Si2 0.634501 0.664873 0.924186
Si Si3 0.151519 0.666576 0.668385
Si Si4 0.846591 0.161692 0.735264
Si Si5 0.441325 0.338950 0.855683
O O1 0.600525 0.500000 0.555130
O O2 0.711352 0.691326 0.405502
O O3 0.628435 0.761054 0.596865
O O4 0.464758 0.700768 0.608692
O O5 0.646886 0.500000 0.899203
O O6 0.731206 0.747001 0.810445
O O7 0.500000 0.704170 0.000000
O O8 0.646904 0.687392 0.012436
O O9 0.133547 0.500000 0.676637
O O10 0.052628 0.738266 0.787536
O O11 0.887472 0.170911 0.802448
O O12 0.819016 0.000000 0.735196
O O13 0.482058 0.500000 0.838433
#
# Coordination Sequence:
#
# PCOD9205091 Si02
#       5
#     8   8   8   8   8
#     4   8  15  27  42  66  99 125 146 182 230 271
#     4  10  21  35  49  66  91 123 157 194 235 276
#     4   9  15  24  43  70  96 121 151 185 223 272
#     4   9  17  30  49  71  94 120 150 187 231 275
#     4   9  18  32  48  68  96 124 151 190 234 271
#
# _framework density 22.006836
#
# number of rings (size 3 to 8) (size 9 to 14) (size 15 to 20)
#    0.000    3.000    0.000    2.400    0.000    5.200 
#    0.000    0.000    0.000    1.200    0.000    8.400 
#    0.000    0.000    0.000    0.000    0.000    0.000 
#
# Total GULP energy -111566.383417 kJ/mol
# GULP energy per Si atom -5578.319171 kJ/mol
# Density = 2.195675 g / cm^3
# Si number density = 22.006836 Si / 1000 Ang^3
#
#
#
# Elastic Constant Matrix: (Units=GPa)
#
#
# Indices 1 2 3 4 5 6 
#
# 1 78.2459 38.1677 33.8790 0.0000 -20.7695 0.0000
# 2 38.1677 71.2697 85.6522 0.0000 -35.7103 0.0000
# 3 33.8790 85.6522 170.0119 0.0000 -31.5783 0.0000
# 4 0.0000 0.0000 0.0000 38.9320 0.0000 -18.1203
# 5 -20.7695 -35.7103 -31.5783 0.0000 48.8363 0.0000
# 6 0.0000 0.0000 0.0000 -18.1203 0.0000 14.0624
#
#
#
# Elastic Compliance Matrix: (Units=1/GPa)
#
#
# Indices 1 2 3 4 5 6 
#
# 1 0.017967 -0.013649 0.003252 0.000000 -0.000236 0.000000
# 2 -0.013649 0.063018 -0.024489 0.000000 0.024440 0.000000
# 3 0.003252 -0.024489 0.016482 0.000000 -0.005866 0.000000
# 4 0.000000 0.000000 0.000000 0.064173 0.000000 0.082691
# 5 -0.000236 0.024440 -0.005866 0.000000 0.034454 0.000000
# 6 0.000000 0.000000 0.000000 0.082691 0.000000 0.177664
#
#
# Mechanical properties :
#
#
# Convention : Reuss Voigt Hill
#
# Bulk Modulus (GPa) = 36.10734 70.54725 53.32729
# Shear Modulus (GPa) = 11.04336 31.15474 21.09905
#
# Velocity S-wave (km/s) = 2.24255 3.76664 3.09973
# Velocity P-wave (km/s) = 4.81127 7.14446 6.09064
#
# Compressibility (1/GPa) = 0.02769520
#
# Stress axis : x y z
#
# Youngs Moduli (GPa) = 55.65684 15.86860 60.67320
#
# Poissons Ratio (x) = 0.21659 -0.19731
# Poissons Ratio (y) = 0.75965 1.48581
# Poissons Ratio (z) = -0.18100 0.38860
#
# Static dielectric constant tensor:
#      x y z
#    x 1.900490 0.000000 0.028540 
#    y 0.000000 1.726640 0.000000 
#    z 0.028540 0.000000 1.821900 
# 
# From -- ./inp_files/162477.got.cif
#   From: 2010.05.17/outbox.cif.g08.bks.cpg/sg12_82_cif.got.tgz:162477.got - 2010.06.03 13:09:07.
