data_PCOD9205836
_publ_section_title
;
Structure prediction by ZEFSAII (Michael W. Deem and Ramdas Pophale) SiO2 
 PCOD9205836
Probable space group: C 2/M
;
_chemical_formula_sum "Si O2"
_cell_formula_units_Z 56
_cell_length_a 9.473021
_cell_length_b 25.532385
_cell_length_c 14.573427
_cell_angle_alpha 90.000000
_cell_angle_beta 62.833926
_cell_angle_gamma 90.000000
_cell_volume 3136.019524
_symmetry_space_group_name_H-M "C 2/M"
_symmetry_group_IT_number 12
_symmetry_cell_setting 'monoclinic'
loop_
_space_group_symop_operation_xyz
x,y,z
-x,y,-z
-x,-y,-z
x,-y,z
1/2+x,1/2+y,z
1/2-x,1/2+y,-z
1/2-x,1/2-y,-z
1/2+x,1/2-y,z
loop_
_atom_site_type_symbol
_atom_site_label
_atom_site_fract_x
_atom_site_fract_y
_atom_site_fract_z
Si Si1 0.354110 0.800463 0.612266
Si Si2 0.310061 0.060557 0.136942
Si Si3 0.337713 0.063823 0.925561
Si Si4 0.488204 0.585890 0.313631
Si Si5 0.152429 0.000000 0.517647
Si Si6 0.006567 0.500000 0.386950
Si Si7 0.025382 0.799568 0.602510
Si Si8 0.774131 0.595086 0.747600
O O1 0.500000 0.812783 0.500000
O O2 0.200697 0.788689 0.593265
O O3 0.410365 0.749860 0.653605
O O4 0.322095 0.849778 0.687238
O O5 0.476175 0.080130 0.127224
O O6 0.163370 0.064234 0.248140
O O7 0.344186 0.000000 0.110013
O O8 0.274440 0.080535 0.044622
O O9 0.264925 0.091759 0.859374
O O10 0.321935 0.000000 0.917916
O O11 0.374040 0.551866 0.413155
O O12 0.510973 0.644602 0.342138
O O13 0.396677 0.582835 0.244886
O O14 0.000000 0.000000 0.500000
O O15 0.320424 0.000000 0.417012
O O16 0.000000 0.500000 0.500000
O O17 0.099956 0.550703 0.322451
O O18 0.000000 0.806200 0.500000
#
# Coordination Sequence:
#
# PCOD9205836 Si02
#       8
#     8   8   8   8   4   4   8   8
#     4  10  21  36  54  77 106 140 187 224 261 315
#     4   9  19  35  54  77 111 139 178 224 263 320
#     4   9  19  35  54  79 105 144 181 216 268 321
#     4  11  22  36  53  80 111 141 179 221 266 320
#     4  12  26  36  49  80 115 147 180 213 270 320
#     4  12  22  38  51  74 119 147 174 217 264 324
#     4  10  21  37  54  77 105 142 184 225 266 312
#     4  11  22  34  56  80 106 146 180 214 269 323
#
# _framework density 17.857032
#
# number of rings (size 3 to 8) (size 9 to 14) (size 15 to 20)
#    0.000    1.714    2.857    3.429    4.000    2.857 
#    0.000    1.429    0.000    0.857    0.000    0.000 
#    0.000    0.000    0.000    0.000    0.000    0.000 
#
# Total GULP energy -155978.037475 kJ/mol
# GULP energy per Si atom -5570.644196 kJ/mol
# Density = 1.781639 g / cm^3
# Si number density = 17.857032 Si / 1000 Ang^3
#
#
#
# Elastic Constant Matrix: (Units=GPa)
#
#
# Indices 1 2 3 4 5 6 
#
# 1 105.7916 26.5544 9.2441 0.0000 10.5406 0.0000
# 2 26.5544 72.6249 4.7598 0.0000 2.9089 0.0000
# 3 9.2441 4.7598 5.5755 0.0000 -0.7584 0.0000
# 4 0.0000 0.0000 0.0000 15.6546 0.0000 6.5514
# 5 10.5406 2.9089 -0.7584 0.0000 38.2166 0.0000
# 6 0.0000 0.0000 0.0000 6.5514 0.0000 7.6397
#
#
#
# Elastic Compliance Matrix: (Units=1/GPa)
#
#
# Indices 1 2 3 4 5 6 
#
# 1 0.012152 -0.003128 -0.017949 0.000000 -0.003470 0.000000
# 2 -0.003128 0.015461 -0.008078 0.000000 -0.000474 0.000000
# 3 -0.017949 -0.008078 0.217354 0.000000 0.009879 0.000000
# 4 0.000000 0.000000 0.000000 0.099637 0.000000 -0.085445
# 5 -0.003470 -0.000474 0.009879 0.000000 0.027356 0.000000
# 6 0.000000 0.000000 0.000000 -0.085445 0.000000 0.204170
#
#
# Mechanical properties :
#
#
# Convention : Reuss Voigt Hill
#
# Bulk Modulus (GPa) = 5.35740 29.45651 17.40696
# Shear Modulus (GPa) = 7.17710 21.86442 14.52076
#
# Velocity S-wave (km/s) = 2.00697 3.50296 2.85470
# Velocity P-wave (km/s) = 2.89435 5.73520 4.54256
#
# Compressibility (1/GPa) = 0.18665766
#
# Stress axis : x y z
#
# Youngs Moduli (GPa) = 82.29257 64.67698 4.60078
#
# Poissons Ratio (x) = 0.20230 0.08258
# Poissons Ratio (y) = 0.25739 0.03717
# Poissons Ratio (z) = 1.47709 0.52246
#
# Static dielectric constant tensor:
#      x y z
#    x 1.649490 0.000000 0.020570 
#    y 0.000000 1.650330 0.000000 
#    z 0.020570 0.000000 1.621410 
# 
# From -- ./inp_files/199720.got.cif
#   From: 2010.05.17/outbox.cif.g08.bks.cpg/sg12_100_cif.got.tgz:199720.got - 2010.06.03 13:09:07.
