data_PCOD9205258
_publ_section_title
;
Structure prediction by ZEFSAII (Michael W. Deem and Ramdas Pophale) SiO2 
 PCOD9205258
Probable space group: C 2/M
;
_chemical_formula_sum "Si O2"
_cell_formula_units_Z 52
_cell_length_a 5.273686
_cell_length_b 23.846081
_cell_length_c 20.850837
_cell_angle_alpha 90.000000
_cell_angle_beta 103.151801
_cell_angle_gamma 90.000000
_cell_volume 2553.356518
_symmetry_space_group_name_H-M "C 2/M"
_symmetry_group_IT_number 12
_symmetry_cell_setting 'monoclinic'
loop_
_space_group_symop_operation_xyz
x,y,z
-x,y,-z
-x,-y,-z
x,-y,z
1/2+x,1/2+y,z
1/2-x,1/2+y,-z
1/2-x,1/2-y,-z
1/2+x,1/2-y,z
loop_
_atom_site_type_symbol
_atom_site_label
_atom_site_fract_x
_atom_site_fract_y
_atom_site_fract_z
Si Si1 0.000000 0.125903 0.500000
Si Si2 0.004364 0.099874 0.264672
Si Si3 0.050042 0.323669 0.426959
Si Si4 0.441058 0.065676 0.190561
Si Si5 0.784224 0.431711 0.039100
Si Si6 0.728144 0.063685 0.596347
Si Si7 0.761135 0.278974 0.294484
O O1 0.140598 0.168624 0.557199
O O2 0.169750 0.084317 0.466596
O O3 0.194964 0.071101 0.223665
O O4 0.054354 0.070592 0.336196
O O5 0.115098 0.162925 0.273480
O O6 0.701645 0.096135 0.229740
O O7 0.000000 0.314920 0.500000
O O8 0.974074 0.386992 0.400043
O O9 0.877579 0.283963 0.373502
O O10 0.357459 0.085963 0.115131
O O11 0.511818 0.000000 0.190059
O O12 0.779897 0.500000 0.039666
O O13 0.500000 0.412867 0.000000
O O14 0.000000 0.414375 0.000000
O O15 0.632739 0.000000 0.589917
O O16 0.531081 0.233500 0.273199
#
# Coordination Sequence:
#
# PCOD9205258 Si02
#       7
#     4   8   8   8   8   8   8
#     4  10  21  36  54  76 110 142 190 240 287 356
#     4  11  24  39  58  85 119 150 202 247 284 353
#     4   9  22  37  55  78 107 130 183 239 295 364
#     4  11  21  36  59  90 128 166 193 226 279 335
#     4   9  17  30  51  82 124 167 200 223 253 313
#     4  10  21  35  53  77 110 152 190 235 289 344
#     4  11  25  42  63  80 106 145 191 249 314 351
#
# _framework density 20.365348000000001
#
# number of rings (size 3 to 8) (size 9 to 14) (size 15 to 20)
#    0.000    1.846    0.000    3.462   10.769    6.462 
#    0.000    0.000    0.000    0.000    0.000    0.000 
#    0.000   43.077    0.000    0.000    0.000    0.000 
#
# Total GULP energy -145001.341736 kJ/mol
# GULP energy per Si atom -5576.974682 kJ/mol
# Density = 2.031900 g / cm^3
# Si number density = 20.365348 Si / 1000 Ang^3
#
#
#
# Elastic Constant Matrix: (Units=GPa)
#
#
# Indices 1 2 3 4 5 6 
#
# 1 87.4798 2.1474 15.0288 0.0000 14.1640 0.0000
# 2 2.1474 60.4030 -4.0050 0.0000 8.3639 0.0000
# 3 15.0288 -4.0050 80.6243 0.0000 11.5276 0.0000
# 4 0.0000 0.0000 0.0000 7.3225 0.0000 6.7892
# 5 14.1640 8.3639 11.5276 0.0000 30.3011 0.0000
# 6 0.0000 0.0000 0.0000 6.7892 0.0000 23.3055
#
#
#
# Elastic Compliance Matrix: (Units=1/GPa)
#
#
# Indices 1 2 3 4 5 6 
#
# 1 0.012559 0.000187 -0.001570 0.000000 -0.005324 0.000000
# 2 0.000187 0.017419 0.001618 0.000000 -0.005511 0.000000
# 3 -0.001570 0.001618 0.013468 0.000000 -0.004836 0.000000
# 4 0.000000 0.000000 0.000000 0.187101 0.000000 -0.054505
# 5 -0.005324 -0.005511 -0.004836 0.000000 0.038852 0.000000
# 6 0.000000 0.000000 0.000000 -0.054505 0.000000 0.058786
#
#
# Mechanical properties :
#
#
# Convention : Reuss Voigt Hill
#
# Bulk Modulus (GPa) = 22.77120 28.31661 25.54391
# Shear Modulus (GPa) = 14.60475 26.54154 20.57315
#
# Velocity S-wave (km/s) = 2.68085 3.61400 3.18182
# Velocity P-wave (km/s) = 4.55941 5.59903 5.10575
#
# Compressibility (1/GPa) = 0.04391511
#
# Stress axis : x y z
#
# Youngs Moduli (GPa) = 79.62726 57.40771 74.25104
#
# Poissons Ratio (x) = -0.01072 0.11660
# Poissons Ratio (y) = -0.01486 -0.12017
# Poissons Ratio (z) = 0.12505 -0.09291
#
# Static dielectric constant tensor:
#      x y z
#    x 1.836540 0.000000 0.020230 
#    y 0.000000 1.752060 0.000000 
#    z 0.020230 0.000000 1.732650 
# 
# From -- ./inp_files/298032.got.cif
#   From: 2010.05.17/outbox.cif.g08.bks.cpg/sg12_150_cif.got.tgz:298032.got - 2010.06.03 13:09:07.
