data_PCOD9205842
_publ_section_title
;
Structure prediction by ZEFSAII (Michael W. Deem and Ramdas Pophale) SiO2 
 PCOD9205842
Probable space group: C 2/M
;
_chemical_formula_sum "Si O2"
_cell_formula_units_Z 48
_cell_length_a 10.147761
_cell_length_b 28.769175
_cell_length_c 8.862634
_cell_angle_alpha 90.000000
_cell_angle_beta 89.950417
_cell_angle_gamma 90.000000
_cell_volume 2587.380437
_symmetry_space_group_name_H-M "C 2/M"
_symmetry_group_IT_number 12
_symmetry_cell_setting 'monoclinic'
loop_
_space_group_symop_operation_xyz
x,y,z
-x,y,-z
-x,-y,-z
x,-y,z
1/2+x,1/2+y,z
1/2-x,1/2+y,-z
1/2-x,1/2-y,-z
1/2+x,1/2-y,z
loop_
_atom_site_type_symbol
_atom_site_label
_atom_site_fract_x
_atom_site_fract_y
_atom_site_fract_z
Si Si1 0.704328 0.259272 0.326700
Si Si2 0.962115 0.288483 0.175350
Si Si3 0.097628 0.375464 0.630750
Si Si4 0.402024 0.554010 0.858950
Si Si5 0.391559 0.362551 0.628360
Si Si6 0.594035 0.054485 0.870598
O O1 0.750000 0.250000 0.500000
O O2 0.836184 0.257206 0.224268
O O3 0.591370 0.224723 0.271286
O O4 0.636630 0.310380 0.310990
O O5 0.915243 0.338896 0.232548
O O6 0.000000 0.285929 0.000000
O O7 0.246175 0.376445 0.570350
O O8 0.064681 0.423794 0.708667
O O9 0.000000 0.361907 0.500000
O O10 0.411143 0.500000 0.800280
O O11 0.430449 0.596361 0.744230
O O12 0.248928 0.561512 0.904694
O O13 0.500000 0.557023 0.000000
O O14 0.500000 0.359370 0.500000
O O15 0.570687 0.000000 0.862872
O O16 0.500000 0.074444 0.000000
#
# Coordination Sequence:
#
# PCOD9205842 Si02
#       6
#     8   8   8   8   8   8
#     4  11  22  39  59  81 112 149 186 229 282 336
#     4  11  22  37  57  82 110 143 185 230 277 331
#     4  10  21  36  54  77 108 145 181 222 276 333
#     4   9  19  36  56  79 109 143 177 219 274 329
#     4  10  21  36  54  80 108 139 181 225 268 321
#     4   9  18  34  55  79 108 140 179 227 274 327
#
# _framework density 18.551582
#
# number of rings (size 3 to 8) (size 9 to 14) (size 15 to 20)
#    0.000    2.000    0.000    4.500    0.000    2.667 
#    0.000    6.667    0.000    0.000    0.000    0.000 
#    0.000    0.000    0.000    0.000    0.000    0.000 
#
# Total GULP energy -133735.749405 kJ/mol
# GULP energy per Si atom -5572.322892 kJ/mol
# Density = 1.850936 g / cm^3
# Si number density = 18.551582 Si / 1000 Ang^3
#
#
#
# Elastic Constant Matrix: (Units=GPa)
#
#
# Indices 1 2 3 4 5 6 
#
# 1 86.3134 31.0487 60.2606 0.0000 -25.1863 0.0000
# 2 31.0487 53.5600 30.9192 0.0000 0.5697 0.0000
# 3 60.2606 30.9192 89.0805 0.0000 -14.6975 0.0000
# 4 0.0000 0.0000 0.0000 19.1636 0.0000 -3.1675
# 5 -25.1863 0.5697 -14.6975 0.0000 35.8585 0.0000
# 6 0.0000 0.0000 0.0000 -3.1675 0.0000 23.3551
#
#
#
# Elastic Compliance Matrix: (Units=1/GPa)
#
#
# Indices 1 2 3 4 5 6 
#
# 1 0.028790 -0.008746 -0.014029 0.000000 0.014610 0.000000
# 2 -0.008746 0.026543 -0.004697 0.000000 -0.008490 0.000000
# 3 -0.014029 -0.004697 0.022237 0.000000 -0.000665 0.000000
# 4 0.000000 0.000000 0.000000 0.053379 0.000000 0.007239
# 5 0.014610 -0.008490 -0.000665 0.000000 0.038011 0.000000
# 6 0.000000 0.000000 0.000000 0.007239 0.000000 0.043799
#
#
# Mechanical properties :
#
#
# Convention : Reuss Voigt Hill
#
# Bulk Modulus (GPa) = 44.20000 52.60124 48.40062
# Shear Modulus (GPa) = 18.16567 22.79047 20.47807
#
# Velocity S-wave (km/s) = 3.13261 3.50879 3.32602
# Velocity P-wave (km/s) = 6.07960 6.69560 6.39502
#
# Compressibility (1/GPa) = 0.02262443
#
# Stress axis : x y z
#
# Youngs Moduli (GPa) = 34.73469 37.67540 44.97032
#
# Poissons Ratio (x) = 0.32951 0.63090
# Poissons Ratio (y) = 0.30379 0.21123
# Poissons Ratio (z) = 0.48730 0.17697
#
# Static dielectric constant tensor:
#      x y z
#    x 1.637470 0.000000 -0.008780 
#    y 0.000000 1.674440 0.000000 
#    z -0.008780 0.000000 1.610460 
# 
# From -- ./inp_files/42188.got.cif
#   From: 2010.05.17/outbox.cif.g08.bks.cpg/sg12_22_cif.got.tgz:42188.got - 2010.06.03 13:09:07.
