data_PCOD9205016
_publ_section_title
;
Structure prediction by ZEFSAII (Michael W. Deem and Ramdas Pophale) SiO2 
 PCOD9205016
Probable space group: C 2/M
;
_chemical_formula_sum "Si O2"
_cell_formula_units_Z 48
_cell_length_a 17.845263
_cell_length_b 20.924491
_cell_length_c 8.520449
_cell_angle_alpha 90.000000
_cell_angle_beta 46.433171
_cell_angle_gamma 90.000000
_cell_volume 2305.267241
_symmetry_space_group_name_H-M "C 2/M"
_symmetry_group_IT_number 12
_symmetry_cell_setting 'monoclinic'
loop_
_space_group_symop_operation_xyz
x,y,z
-x,y,-z
-x,-y,-z
x,-y,z
1/2+x,1/2+y,z
1/2-x,1/2+y,-z
1/2-x,1/2-y,-z
1/2+x,1/2-y,z
loop_
_atom_site_type_symbol
_atom_site_label
_atom_site_fract_x
_atom_site_fract_y
_atom_site_fract_z
Si Si1 0.726460 0.731013 0.210764
Si Si2 0.057327 0.427190 0.747254
Si Si3 0.237186 0.852708 0.627619
Si Si4 0.050400 0.692269 0.098335
Si Si5 0.927512 0.928440 0.948787
Si Si6 0.557442 0.680185 0.631931
O O1 0.720394 0.791447 0.338012
O O2 0.622306 0.691717 0.382219
O O3 0.750000 0.750000 0.000000
O O4 0.828167 0.691386 0.106164
O O5 0.061230 0.500000 0.680038
O O6 0.171672 0.395112 0.581139
O O7 0.989227 0.372124 0.760717
O O8 0.000000 0.431868 0.000000
O O9 0.148949 0.828401 0.632885
O O10 0.177637 0.896232 0.840385
O O11 0.011594 0.757500 0.233300
O O12 0.000000 0.695598 0.000000
O O13 0.987536 0.881985 0.745542
O O14 0.912752 0.000000 0.911576
O O15 0.000000 0.930956 0.000000
#
# Coordination Sequence:
#
# PCOD9205016 Si02
#       6
#     8   8   8   8   8   8
#     4  12  25  37  57  92 119 150 200 251 293 336
#     4  10  21  34  56  90 122 152 192 242 290 342
#     4  11  19  37  62  86 120 153 194 240 292 347
#     4  11  19  37  62  87 117 149 197 241 288 351
#     4   9  18  32  57  91 118 145 189 241 292 344
#     4  11  19  36  62  87 117 153 193 239 294 348
#
# _framework density 20.821881999999999
#
# number of rings (size 3 to 8) (size 9 to 14) (size 15 to 20)
#    0.000    1.333    5.000    3.500    0.000    1.333 
#    0.000    0.833    0.000    6.000    0.000    0.000 
#    0.000    0.000    0.000    0.000    0.000    0.000 
#
# Total GULP energy -133941.689914 kJ/mol
# GULP energy per Si atom -5580.903746 kJ/mol
# Density = 2.077449 g / cm^3
# Si number density = 20.821882 Si / 1000 Ang^3
#
#
#
# Elastic Constant Matrix: (Units=GPa)
#
#
# Indices 1 2 3 4 5 6 
#
# 1 31.5367 21.1302 21.7971 0.0000 -3.2351 0.0000
# 2 21.1302 183.5680 69.4784 0.0000 -20.1900 0.0000
# 3 21.7971 69.4784 148.9581 0.0000 -27.6338 0.0000
# 4 0.0000 0.0000 0.0000 22.1640 0.0000 -13.1389
# 5 -3.2351 -20.1900 -27.6338 0.0000 37.8274 0.0000
# 6 0.0000 0.0000 0.0000 -13.1389 0.0000 5.6781
#
#
#
# Elastic Compliance Matrix: (Units=1/GPa)
#
#
# Indices 1 2 3 4 5 6 
#
# 1 0.036368 -0.002710 -0.004337 0.000000 -0.001504 0.000000
# 2 -0.002710 0.006890 -0.002519 0.000000 0.001605 0.000000
# 3 -0.004337 -0.002519 0.009491 0.000000 0.005218 0.000000
# 4 0.000000 0.000000 0.000000 -0.121379 0.000000 -0.280864
# 5 -0.001504 0.001605 0.005218 0.000000 0.030976 0.000000
# 6 0.000000 0.000000 0.000000 -0.280864 0.000000 -0.473790
#
#
# Mechanical properties :
#
#
# Convention : Reuss Voigt Hill
#
# Bulk Modulus (GPa) = 29.74749 65.43048 47.58899
# Shear Modulus (GPa) = -10.39270 29.91103 9.75916
#
# Velocity S-wave (km/s) = -2.23653 3.79426 2.16729
# Velocity P-wave (km/s) = 2.76554 7.11950 5.40072
#
# Compressibility (1/GPa) = 0.03361628
#
# Stress axis : x y z
#
# Youngs Moduli (GPa) = 27.49661 145.14725 105.36458
#
# Poissons Ratio (x) = 0.39340 0.45693
# Poissons Ratio (y) = 0.07453 0.26542
# Poissons Ratio (z) = 0.11924 0.36564
#
# Static dielectric constant tensor:
#      x y z
#    x 1.954580 0.000000 -0.030410 
#    y 0.000000 1.791620 0.000000 
#    z -0.030410 0.000000 1.778810 
# 
# From -- ./inp_files/89433.got.cif
#   From: 2010.05.17/outbox.cif.g08.bks.cpg/sg12_45_cif.got.tgz:89433.got - 2010.06.03 13:09:07.
