data_PCOD9205441
_publ_section_title
;
Structure prediction by ZEFSAII (Michael W. Deem and Ramdas Pophale) SiO2 
 PCOD9205441
Probable space group: C 2/M
;
_chemical_formula_sum "Si O2"
_cell_formula_units_Z 44
_cell_length_a 10.779756
_cell_length_b 28.158408
_cell_length_c 8.906868
_cell_angle_alpha 90.000000
_cell_angle_beta 52.761266
_cell_angle_gamma 90.000000
_cell_volume 2152.390799
_symmetry_space_group_name_H-M "C 2/M"
_symmetry_group_IT_number 12
_symmetry_cell_setting 'monoclinic'
loop_
_space_group_symop_operation_xyz
x,y,z
-x,y,-z
-x,-y,-z
x,-y,z
1/2+x,1/2+y,z
1/2-x,1/2+y,-z
1/2-x,1/2-y,-z
1/2+x,1/2-y,z
loop_
_atom_site_type_symbol
_atom_site_label
_atom_site_fract_x
_atom_site_fract_y
_atom_site_fract_z
Si Si1 0.254108 0.673253 0.775454
Si Si2 0.245208 0.894305 0.778678
Si Si3 0.316663 0.000000 0.641265
Si Si4 0.529562 0.826747 0.224546
Si Si5 0.023885 0.894305 0.221322
Si Si6 0.500000 0.750000 0.500000
Si Si7 0.042072 0.000000 0.641265
O O1 0.384749 0.633805 0.717397
O O2 0.348358 0.717576 0.639503
O O3 0.122236 0.656754 0.755529
O O4 0.158655 0.684927 0.000000
O O5 0.269093 0.950818 0.753841
O O6 0.397854 0.866195 0.717397
O O7 0.152998 0.879714 0.694004
O O8 0.127250 0.884413 1.000000
O O9 0.500000 0.000000 0.500000
O O10 0.224926 0.000000 0.550148
O O11 0.487860 0.782424 0.360498
O O12 0.022934 0.950818 0.246159
O O13 0.000000 0.000000 0.500000
#
# Coordination Sequence:
#
# PCOD9205441 Si02
#       7
#     8   8   4   8   8   4   4
#     4  10  23  42  63  90 122 156 201 254 303 357
#     4   9  19  38  62  85 115 156 198 240 290 350
#     4  10  21  35  55  87 121 156 194 235 283 347
#     4  10  23  42  63  90 122 156 201 254 303 357
#     4   9  19  38  62  85 115 156 198 240 290 350
#     4  12  24  40  64  90 118 160 202 246 310 372
#     4  10  21  35  55  87 121 156 194 235 283 347
#
# _framework density 20.442384000000001
#
# number of rings (size 3 to 8) (size 9 to 14) (size 15 to 20)
#    0.000    2.182    0.000    1.636    2.545    6.545 
#    0.000    3.636    0.000    5.455    0.000    0.000 
#    0.000    0.000    0.000    0.000    0.000    0.000 
#
# Total GULP energy -122684.344649 kJ/mol
# GULP energy per Si atom -5576.561120 kJ/mol
# Density = 2.039586 g / cm^3
# Si number density = 20.442384 Si / 1000 Ang^3
#
#
#
# Elastic Constant Matrix: (Units=GPa)
#
#
# Indices 1 2 3 4 5 6 
#
# 1 206.1608 89.1874 50.8006 0.0000 2.0871 0.0000
# 2 89.1874 104.3923 28.2997 0.0000 0.8847 0.0000
# 3 50.8006 28.2997 92.2093 0.0000 -0.4308 0.0000
# 4 0.0000 0.0000 0.0000 27.0842 0.0000 -0.5211
# 5 2.0871 0.8847 -0.4308 0.0000 5.9247 0.0000
# 6 0.0000 0.0000 0.0000 -0.5211 0.0000 -8.7521
#
#
#
# Elastic Compliance Matrix: (Units=1/GPa)
#
#
# Indices 1 2 3 4 5 6 
#
# 1 0.008252 -0.006323 -0.002616 0.000000 -0.002153 0.000000
# 2 -0.006323 0.015312 -0.001217 0.000000 -0.000148 0.000000
# 3 -0.002616 -0.001217 0.012669 0.000000 0.002024 0.000000
# 4 0.000000 0.000000 0.000000 0.036880 0.000000 -0.002196
# 5 -0.002153 -0.000148 0.002024 0.000000 0.169711 0.000000
# 6 0.000000 0.000000 0.000000 -0.002196 0.000000 -0.114128
#
#
# Mechanical properties :
#
#
# Convention : Reuss Voigt Hill
#
# Bulk Modulus (GPa) = 62.80421 82.14862 72.47641
# Shear Modulus (GPa) = 32.40106 20.48301 26.44204
#
# Velocity S-wave (km/s) = 3.98552 3.16885 3.60042
# Velocity P-wave (km/s) = 7.20891 7.32540 7.26739
#
# Compressibility (1/GPa) = 0.01592250
#
# Stress axis : x y z
#
# Youngs Moduli (GPa) = 121.17715 65.30667 78.93323
#
# Poissons Ratio (x) = 0.41293 0.20648
# Poissons Ratio (y) = 0.76620 0.09603
# Poissons Ratio (z) = 0.31699 0.07946
#
# Static dielectric constant tensor:
#      x y z
#    x 1.762950 0.000000 0.000460 
#    y 0.000000 1.738040 0.000000 
#    z 0.000460 0.000000 1.731440 
# 
# From -- ./inp_files/53027.got.cif
#   From: 2010.05.17/outbox.cif.g08.bks.cpg/sg12_27_cif.got.tgz:53027.got - 2010.06.03 13:09:07.
