data_PCOD9205002
_publ_section_title
;
Structure prediction by ZEFSAII (Michael W. Deem and Ramdas Pophale) SiO2 
 PCOD9205002
Probable space group: C 2/M
;
_chemical_formula_sum "Si O2"
_cell_formula_units_Z 52
_cell_length_a 25.743741
_cell_length_b 22.911350
_cell_length_c 13.305842
_cell_angle_alpha 90.000000
_cell_angle_beta 20.935226
_cell_angle_gamma 90.000000
_cell_volume 2804.223687
_symmetry_space_group_name_H-M "C 2/M"
_symmetry_group_IT_number 12
_symmetry_cell_setting 'monoclinic'
loop_
_space_group_symop_operation_xyz
x,y,z
-x,y,-z
-x,-y,-z
x,-y,z
1/2+x,1/2+y,z
1/2-x,1/2+y,-z
1/2-x,1/2-y,-z
1/2+x,1/2-y,z
loop_
_atom_site_type_symbol
_atom_site_label
_atom_site_fract_x
_atom_site_fract_y
_atom_site_fract_z
Si Si1 0.994233 0.670814 0.395191
Si Si2 0.222437 0.500000 0.035577
Si Si3 0.581786 0.000000 0.509325
Si Si4 0.709334 0.617029 0.180191
Si Si5 0.670741 0.566573 0.662324
Si Si6 0.941046 0.070469 0.348653
Si Si7 0.243158 0.388179 0.293699
Si Si8 0.000000 0.216423 0.500000
O O1 0.843255 0.661564 0.610054
O O2 0.017526 0.739283 0.374843
O O3 0.000000 0.645245 0.500000
O O4 0.124606 0.637398 0.104769
O O5 0.153601 0.500000 0.269278
O O6 0.090370 0.500000 0.193913
O O7 0.303174 0.560686 0.869814
O O8 0.642437 0.056231 0.453877
O O9 0.628741 0.598275 0.427018
O O10 0.634888 0.673541 0.266819
O O11 0.727093 0.500000 0.574866
O O12 0.665789 0.580424 0.553545
O O13 0.739925 0.611734 0.616008
O O14 0.500000 0.563910 0.000000
O O15 0.959636 0.000000 0.325571
O O16 0.097903 0.098262 0.039431
#
# Coordination Sequence:
#
# PCOD9205002 Si02
#       8
#     8   4   4   8   8   8   8   4
#     4  10  24  42  58  81 113 161 204 238 281 349
#     4  11  24  34  54  89 129 155 180 252 296 358
#     4  11  20  33  54  88 123 164 195 217 297 358
#     4  12  23  40  59  85 125 151 193 249 303 344
#     4   8  15  31  52  84 121 155 192 233 285 354
#     4  10  21  34  55  92 126 151 190 241 299 350
#     4  11  18  34  62  81 118 165 200 231 281 358
#     4  10  28  41  62  79 112 164 210 244 286 342
#
# _framework density 18.543455999999999
#
# number of rings (size 3 to 8) (size 9 to 14) (size 15 to 20)
#    0.462    1.231    3.846    2.308    4.308    0.308 
#    0.000    0.769    0.000    3.692    0.000    0.000 
#    0.000    0.000    0.000    0.000    0.000    0.000 
#
# Total GULP energy -144961.127613 kJ/mol
# GULP energy per Si atom -5575.427985 kJ/mol
# Density = 1.850125 g / cm^3
# Si number density = 18.543456 Si / 1000 Ang^3
#
#
#
# Elastic Constant Matrix: (Units=GPa)
#
#
# Indices 1 2 3 4 5 6 
#
# 1 96.0643 45.3025 29.6229 -0.0006 -15.8268 0.0053
# 2 45.3025 106.5097 35.0187 -0.0085 1.5306 0.0227
# 3 29.6229 35.0187 63.5628 -0.0052 -9.9098 0.0090
# 4 -0.0006 -0.0085 -0.0052 37.4529 0.0040 -13.8110
# 5 -15.8268 1.5306 -9.9098 0.0040 14.3888 -0.0113
# 6 0.0053 0.0227 0.0090 -13.8110 -0.0113 19.1521
#
#
#
# Elastic Compliance Matrix: (Units=1/GPa)
#
#
# Indices 1 2 3 4 5 6 
#
# 1 0.017324 -0.007286 -0.001084 0.000003 0.019084 0.000018
# 2 -0.007286 0.015053 -0.007166 -0.000005 -0.014551 -0.000025
# 3 -0.001084 -0.007166 0.022539 0.000003 0.015093 0.000010
# 4 0.000003 -0.000005 0.000003 0.036372 0.000017 0.026229
# 5 0.019084 -0.014551 0.015093 0.000017 0.102432 0.000077
# 6 0.000018 -0.000025 0.000010 0.026229 0.000077 0.071128
#
#
# Mechanical properties :
#
#
# Convention : Reuss Voigt Hill
#
# Bulk Modulus (GPa) = 41.94140 54.00276 47.97208
# Shear Modulus (GPa) = 16.45440 24.61161 20.53301
#
# Velocity S-wave (km/s) = 2.98206 3.64708 3.33121
# Velocity P-wave (km/s) = 5.87571 6.84985 6.38139
#
# Compressibility (1/GPa) = 0.02384279
#
# Stress axis : x y z
#
# Youngs Moduli (GPa) = 57.72213 66.43082 44.36796
#
# Poissons Ratio (x) = 0.48405 0.04810
# Poissons Ratio (y) = 0.42059 0.31795
# Poissons Ratio (z) = 0.06258 0.47605
#
# Static dielectric constant tensor:
#      x y z
#    x 1.697900 0.000000 -0.022700 
#    y 0.000000 1.651340 0.000000 
#    z -0.022700 0.000000 1.667190 
# 
# From -- ./inp_files/251810.got.cif
#   From: 2010.05.17/outbox.cif.g08.bks.cpg/sg12_126_cif.got.tgz:251810.got - 2010.06.03 13:09:07.
