data_PCOD9205148
_publ_section_title
;
Structure prediction by ZEFSAII (Michael W. Deem and Ramdas Pophale) SiO2 
 PCOD9205148
Probable space group: C 2/M
;
_chemical_formula_sum "Si O2"
_cell_formula_units_Z 64
_cell_length_a 14.643540
_cell_length_b 7.735736
_cell_length_c 31.069246
_cell_angle_alpha 90.000000
_cell_angle_beta 61.952380
_cell_angle_gamma 90.000000
_cell_volume 3106.141555
_symmetry_space_group_name_H-M "C 2/M"
_symmetry_group_IT_number 12
_symmetry_cell_setting 'monoclinic'
loop_
_space_group_symop_operation_xyz
x,y,z
-x,y,-z
-x,-y,-z
x,-y,z
1/2+x,1/2+y,z
1/2-x,1/2+y,-z
1/2-x,1/2-y,-z
1/2+x,1/2-y,z
loop_
_atom_site_type_symbol
_atom_site_label
_atom_site_fract_x
_atom_site_fract_y
_atom_site_fract_z
Si Si1 0.286279 0.291939 0.212571
Si Si2 0.572245 0.708732 0.612245
Si Si3 0.650061 0.206916 0.321484
Si Si4 0.942774 0.708090 0.055215
Si Si5 0.510300 0.291818 0.134676
Si Si6 0.294861 0.206221 0.596454
Si Si7 0.281446 0.708267 0.866853
Si Si8 0.366009 0.705022 0.490906
O O1 0.291823 0.500000 0.214832
O O2 0.225638 0.225172 0.267694
O O3 0.403744 0.227034 0.180051
O O4 0.226180 0.251008 0.181847
O O5 0.577316 0.500000 0.609779
O O6 0.470431 0.758843 0.660439
O O7 0.680544 0.771450 0.608174
O O8 0.565303 0.773049 0.564028
O O9 0.673416 0.277190 0.364181
O O10 0.663605 0.000000 0.319799
O O11 0.937299 0.500000 0.053084
O O12 0.002916 0.749822 0.085843
O O13 0.825151 0.772757 0.087807
O O14 0.000000 0.774167 0.000000
O O15 0.509930 0.500000 0.138713
O O16 0.614469 0.225993 0.133859
O O17 0.370746 0.236366 0.539114
O O18 0.286578 0.000000 0.602233
O O19 0.281232 0.500000 0.870682
O O20 0.378348 0.500000 0.489546
O O21 0.250000 0.750000 0.500000
#
# Coordination Sequence:
#
# PCOD9205148 Si02
#       8
#     8   8   8   8   8   8   8   8
#     4   9  19  35  51  70  97 127 162 208 254 291
#     4   9  19  34  51  72  98 127 160 198 242 292
#     4  10  21  35  51  72  98 127 161 201 248 299
#     4   9  18  32  49  74 110 141 164 200 247 290
#     4   9  18  33  53  74  97 130 172 210 243 287
#     4   9  19  35  52  72  99 130 161 196 242 295
#     4   9  18  33  53  75  98 131 172 206 243 293
#     4   9  17  31  51  73  98 128 160 196 239 290
#
# _framework density 20.604340000000001
#
# number of rings (size 3 to 8) (size 9 to 14) (size 15 to 20)
#    0.000    2.875    0.000    1.125    0.000    6.250 
#    0.000    5.000    0.000    0.000    0.000    0.000 
#    0.000    0.000    0.000    0.000    0.000    0.000 
#
# Total GULP energy -178489.042315 kJ/mol
# GULP energy per Si atom -5577.782572 kJ/mol
# Density = 2.055744 g / cm^3
# Si number density = 20.604340 Si / 1000 Ang^3
#
#
#
# Elastic Constant Matrix: (Units=GPa)
#
#
# Indices 1 2 3 4 5 6 
#
# 1 119.2854 1.6113 63.7538 0.0000 -1.2966 0.0000
# 2 1.6113 28.5516 1.0697 0.0000 -2.2486 0.0000
# 3 63.7538 1.0697 156.1881 0.0000 -7.5264 0.0000
# 4 0.0000 0.0000 0.0000 20.0538 0.0000 5.5377
# 5 -1.2966 -2.2486 -7.5264 0.0000 9.3091 0.0000
# 6 0.0000 0.0000 0.0000 5.5377 0.0000 8.9157
#
#
#
# Elastic Compliance Matrix: (Units=1/GPa)
#
#
# Indices 1 2 3 4 5 6 
#
# 1 0.010774 -0.000620 -0.004504 0.000000 -0.002290 0.000000
# 2 -0.000620 0.035744 0.000437 0.000000 0.008901 0.000000
# 3 -0.004504 0.000437 0.008546 0.000000 0.006388 0.000000
# 4 0.000000 0.000000 0.000000 0.060189 0.000000 -0.037385
# 5 -0.002290 0.008901 0.006388 0.000000 0.114417 0.000000
# 6 0.000000 0.000000 0.000000 -0.037385 0.000000 0.135382
#
#
# Mechanical properties :
#
#
# Convention : Reuss Voigt Hill
#
# Bulk Modulus (GPa) = 21.88638 48.54386 35.21512
# Shear Modulus (GPa) = 12.83186 23.49508 18.16347
#
# Velocity S-wave (km/s) = 2.49825 3.38049 2.97229
# Velocity P-wave (km/s) = 4.35511 6.23283 5.37657
#
# Compressibility (1/GPa) = 0.04569052
#
# Stress axis : x y z
#
# Youngs Moduli (GPa) = 92.81698 27.97682 117.01709
#
# Poissons Ratio (x) = 0.01734 0.52703
# Poissons Ratio (y) = 0.05751 -0.05114
# Poissons Ratio (z) = 0.41804 -0.01223
#
# Static dielectric constant tensor:
#      x y z
#    x 1.741700 0.000000 -0.011370 
#    y 0.000000 1.801790 0.000000 
#    z -0.011370 0.000000 1.735580 
# 
# From -- ./inp_files/374994.got.cif
#   From: 2010.05.17/outbox.cif.g08.bks.cpg/sg12_188_cif.got.tgz:374994.got - 2010.06.03 13:09:07.
