data_PCOD9205197
_publ_section_title
;
Structure prediction by ZEFSAII (Michael W. Deem and Ramdas Pophale) SiO2 
 PCOD9205197
Probable space group: C 2/M
;
_chemical_formula_sum "Si O2"
_cell_formula_units_Z 56
_cell_length_a 21.484960
_cell_length_b 7.422932
_cell_length_c 29.729743
_cell_angle_alpha 90.000000
_cell_angle_beta 148.882416
_cell_angle_gamma 90.000000
_cell_volume 2450.306472
_symmetry_space_group_name_H-M "C 2/M"
_symmetry_group_IT_number 12
_symmetry_cell_setting 'monoclinic'
loop_
_space_group_symop_operation_xyz
x,y,z
-x,y,-z
-x,-y,-z
x,-y,z
1/2+x,1/2+y,z
1/2-x,1/2+y,-z
1/2-x,1/2-y,-z
1/2+x,1/2-y,z
loop_
_atom_site_type_symbol
_atom_site_label
_atom_site_fract_x
_atom_site_fract_y
_atom_site_fract_z
Si Si1 0.309811 0.283225 0.775942
Si Si2 0.235197 0.780278 0.921788
Si Si3 0.048934 0.791798 0.877318
Si Si4 0.864322 0.279480 0.406866
Si Si5 0.936638 0.219499 0.614567
Si Si6 0.202362 0.787512 0.800947
Si Si7 0.244620 0.792447 0.421799
O O1 0.313423 0.500000 0.776621
O O2 0.427347 0.213153 0.822701
O O3 0.192076 0.223563 0.675395
O O4 0.298663 0.235473 0.821133
O O5 0.114759 0.718459 0.873625
O O6 0.236770 0.718082 0.871380
O O7 0.237802 0.000000 0.925167
O O8 0.349187 0.716772 0.021069
O O9 0.021590 0.000000 0.849744
O O10 0.865803 0.500000 0.408908
O O11 0.777230 0.216903 0.393391
O O12 0.000000 0.219468 0.500000
O O13 0.859167 0.282192 0.610026
O O14 0.866141 0.284696 0.526921
O O15 0.073287 0.282395 0.703907
O O16 0.932012 0.000000 0.610179
O O17 0.184057 0.000000 0.796054
O O18 0.210400 0.000000 0.392977
#
# Coordination Sequence:
#
# PCOD9205197 Si02
#       7
#     8   8   8   8   8   8   8
#     4  10  21  35  54  79 107 137 174 220 262 304
#     4   9  19  36  58  79 104 138 173 212 260 315
#     4   9  19  36  57  81 105 132 172 219 263 307
#     4   9  17  29  48  74 101 132 171 211 253 298
#     4   9  18  31  48  72 102 133 170 213 258 306
#     4  10  21  35  52  76 106 141 174 209 258 316
#     4   9  17  30  50  72  97 133 174 217 257 301
#
# _framework density 22.854284
#
# number of rings (size 3 to 8) (size 9 to 14) (size 15 to 20)
#    0.000    2.714    0.000    0.857    2.000    3.429 
#    0.000    3.571    0.000    2.571    0.000    0.000 
#    0.000    0.000    0.000    0.000    0.000    0.000 
#
# Total GULP energy -156373.425303 kJ/mol
# GULP energy per Si atom -5584.765189 kJ/mol
# Density = 2.280227 g / cm^3
# Si number density = 22.854284 Si / 1000 Ang^3
#
#
#
# Elastic Constant Matrix: (Units=GPa)
#
#
# Indices 1 2 3 4 5 6 
#
# 1 139.7803 -9.2229 44.3451 -0.0001 -23.7117 0.0002
# 2 -9.2229 73.3135 -9.3707 -0.0002 0.8147 0.0006
# 3 44.3451 -9.3707 50.1875 0.0001 2.3960 0.0001
# 4 -0.0001 -0.0002 0.0001 10.6098 0.0000 1.8470
# 5 -23.7117 0.8147 2.3960 0.0000 33.6606 0.0001
# 6 0.0002 0.0006 0.0001 1.8470 0.0001 6.5555
#
#
#
# Elastic Compliance Matrix: (Units=1/GPa)
#
#
# Indices 1 2 3 4 5 6 
#
# 1 0.012390 -0.000005 -0.011404 0.000000 0.009540 -0.000001
# 2 -0.000005 0.013983 0.002640 0.000000 -0.000530 -0.000002
# 3 -0.011404 0.002640 0.030987 0.000000 -0.010303 0.000000
# 4 0.000000 0.000000 0.000000 0.099114 0.000000 -0.027925
# 5 0.009540 -0.000530 -0.010303 0.000000 0.037175 -0.000001
# 6 -0.000001 -0.000002 0.000000 -0.027925 -0.000001 0.160412
#
#
# Mechanical properties :
#
#
# Convention : Reuss Voigt Hill
#
# Bulk Modulus (GPa) = 25.11152 34.97604 30.04378
# Shear Modulus (GPa) = 12.99137 26.00050 19.49593
#
# Velocity S-wave (km/s) = 2.38679 3.37659 2.92388
# Velocity P-wave (km/s) = 4.31361 5.52620 4.95712
#
# Compressibility (1/GPa) = 0.03982237
#
# Stress axis : x y z
#
# Youngs Moduli (GPa) = 80.71058 71.51641 32.27203
#
# Poissons Ratio (x) = 0.00035 0.36803
# Poissons Ratio (y) = 0.00040 -0.08521
# Poissons Ratio (z) = 0.92042 -0.18884
#
# Static dielectric constant tensor:
#      x y z
#    x 1.851540 0.000000 0.011540 
#    y 0.000000 1.926540 0.000000 
#    z 0.011540 0.000000 1.809740 
# 
# From -- ./inp_files/380716.got.cif
#   From: 2010.05.17/outbox.cif.g08.bks.cpg/sg12_191_cif.got.tgz:380716.got - 2010.06.03 13:09:07.
