data_PCOD9205814
_publ_section_title
;
Structure prediction by ZEFSAII (Michael W. Deem and Ramdas Pophale) SiO2 
 PCOD9205814
Probable space group: C 2/M
;
_chemical_formula_sum "Si O2"
_cell_formula_units_Z 60
_cell_length_a 26.745162
_cell_length_b 18.792263
_cell_length_c 11.194643
_cell_angle_alpha 90.000000
_cell_angle_beta 35.394409
_cell_angle_gamma 90.000000
_cell_volume 3258.849746
_symmetry_space_group_name_H-M "C 2/M"
_symmetry_group_IT_number 12
_symmetry_cell_setting 'monoclinic'
loop_
_space_group_symop_operation_xyz
x,y,z
-x,y,-z
-x,-y,-z
x,-y,z
1/2+x,1/2+y,z
1/2-x,1/2+y,-z
1/2-x,1/2-y,-z
1/2+x,1/2-y,z
loop_
_atom_site_type_symbol
_atom_site_label
_atom_site_fract_x
_atom_site_fract_y
_atom_site_fract_z
Si Si1 0.843383 0.258970 0.176288
Si Si2 0.224580 0.734936 0.184873
Si Si3 0.231964 0.630261 0.508466
Si Si4 0.729589 0.080634 0.261379
Si Si5 0.413004 0.417253 0.798970
Si Si6 0.899203 0.862731 0.563001
Si Si7 0.000000 0.193031 0.000000
Si Si8 0.114578 0.075591 0.651047
O O1 0.804465 0.256386 0.117883
O O2 0.825854 0.333573 0.277256
O O3 0.784608 0.197475 0.351613
O O4 0.940017 0.237179 0.025669
O O5 0.201558 0.651766 0.246512
O O6 0.143458 0.785897 0.371198
O O7 0.250000 0.750000 0.000000
O O8 0.196007 0.591689 0.461453
O O9 0.300028 0.578856 0.437269
O O10 0.709721 0.000000 0.257984
O O11 0.835115 0.086862 0.045222
O O12 0.440518 0.500000 0.739450
O O13 0.380197 0.392578 0.732395
O O14 0.497337 0.369591 0.656603
O O15 0.861692 0.911974 0.532377
O O16 0.058092 0.141071 0.806522
O O17 0.068692 0.000000 0.753150
#
# Coordination Sequence:
#
# PCOD9205814 Si02
#       8
#     8   8   8   8   8   8   4   8
#     4   9  19  36  53  79 110 146 196 239 279 329
#     4  11  21  37  57  79 116 159 197 235 277 347
#     4   9  18  34  53  73 110 148 186 233 276 334
#     4  10  21  36  56  82 115 152 191 232 287 350
#     4  10  21  36  53  81 122 154 182 224 286 355
#     4  11  21  34  51  78 113 155 186 226 273 336
#     4  10  23  34  54  80 117 154 184 240 289 338
#     4  11  21  32  50  82 116 145 179 224 286 347
#
# _framework density 18.411404000000001
#
# number of rings (size 3 to 8) (size 9 to 14) (size 15 to 20)
#    0.000    1.867    2.667    2.200    7.467    0.000 
#    0.000    0.000    0.000    0.000    0.000    3.733 
#    0.000    0.000    0.000    0.000    0.000    0.000 
#
# Total GULP energy -167095.427460 kJ/mol
# GULP energy per Si atom -5569.847582 kJ/mol
# Density = 1.836950 g / cm^3
# Si number density = 18.411404 Si / 1000 Ang^3
#
#
#
# Elastic Constant Matrix: (Units=GPa)
#
#
# Indices 1 2 3 4 5 6 
#
# 1 110.7840 46.7006 26.4827 0.0000 19.5019 0.0000
# 2 46.7006 122.1224 41.0878 0.0000 -2.4309 0.0000
# 3 26.4827 41.0878 35.8040 0.0000 4.1746 0.0000
# 4 0.0000 0.0000 0.0000 -2.8502 0.0000 15.5519
# 5 19.5019 -2.4309 4.1746 0.0000 28.8851 0.0000
# 6 0.0000 0.0000 0.0000 15.5519 0.0000 -44.2944
#
#
#
# Elastic Compliance Matrix: (Units=1/GPa)
#
#
# Indices 1 2 3 4 5 6 
#
# 1 0.013163 -0.003687 -0.004509 0.000000 -0.008546 0.000000
# 2 -0.003687 0.014706 -0.014834 0.000000 0.005871 0.000000
# 3 -0.004509 -0.014834 0.048902 0.000000 -0.005272 0.000000
# 4 0.000000 0.000000 0.000000 0.383131 0.000000 0.134518
# 5 -0.008546 0.005871 -0.005272 0.000000 0.041645 0.000000
# 6 0.000000 0.000000 0.000000 0.134518 0.000000 0.024654
#
#
# Mechanical properties :
#
#
# Convention : Reuss Voigt Hill
#
# Bulk Modulus (GPa) = 32.56003 55.25031 43.90517
# Shear Modulus (GPa) = 8.58373 6.64404 7.61388
#
# Velocity S-wave (km/s) = 2.16155 1.90171 2.03578
# Velocity P-wave (km/s) = 4.89416 5.90727 5.42442
#
# Compressibility (1/GPa) = 0.03071251
#
# Stress axis : x y z
#
# Youngs Moduli (GPa) = 75.97143 67.99951 20.44886
#
# Poissons Ratio (x) = 0.25069 0.09220
# Poissons Ratio (y) = 0.28008 0.30333
# Poissons Ratio (z) = 0.34255 1.00869
#
# Static dielectric constant tensor:
#      x y z
#    x 1.678010 0.000000 0.015420 
#    y 0.000000 1.660000 0.000000 
#    z 0.015420 0.000000 1.673570 
# 
# From -- ./inp_files/184179.got.cif
#   From: 2010.05.17/outbox.cif.g08.bks.cpg/sg12_93_cif.got.tgz:184179.got - 2010.06.03 13:09:07.
