data_PCOD9205492
_publ_section_title
;
Structure prediction by ZEFSAII (Michael W. Deem and Ramdas Pophale) SiO2 
 PCOD9205492
Probable space group: C 2/M
;
_chemical_formula_sum "Si O2"
_cell_formula_units_Z 56
_cell_length_a 29.399926
_cell_length_b 11.759275
_cell_length_c 9.925875
_cell_angle_alpha 90.000000
_cell_angle_beta 61.703495
_cell_angle_gamma 90.000000
_cell_volume 3021.537851
_symmetry_space_group_name_H-M "C 2/M"
_symmetry_group_IT_number 12
_symmetry_cell_setting 'monoclinic'
loop_
_space_group_symop_operation_xyz
x,y,z
-x,y,-z
-x,-y,-z
x,-y,z
1/2+x,1/2+y,z
1/2-x,1/2+y,-z
1/2-x,1/2-y,-z
1/2+x,1/2-y,z
loop_
_atom_site_type_symbol
_atom_site_label
_atom_site_fract_x
_atom_site_fract_y
_atom_site_fract_z
Si Si1 0.908717 0.629939 0.333506
Si Si2 0.629598 0.288546 0.852557
Si Si3 0.474213 0.372828 0.901871
Si Si4 0.169646 0.365376 0.327676
Si Si5 0.737873 0.366627 0.602718
Si Si6 0.133035 0.368996 0.097528
Si Si7 0.013857 0.684052 0.322612
O O1 0.892934 0.500000 0.322797
O O2 0.897008 0.711246 0.225227
O O3 0.873402 0.675146 0.506040
O O4 0.967322 0.627271 0.304209
O O5 0.678150 0.354732 0.725478
O O6 0.586175 0.367653 0.979394
O O7 0.645919 0.203378 0.948553
O O8 0.494300 0.500000 0.862519
O O9 0.484438 0.307418 0.749762
O O10 0.500000 0.319552 0.000000
O O11 0.158948 0.500000 0.328375
O O12 0.224885 0.353774 0.319845
O O13 0.161105 0.319236 0.190528
O O14 0.747241 0.500000 0.539418
O O15 0.750000 0.250000 0.500000
O O16 0.147569 0.500000 0.054975
O O17 0.071121 0.364601 0.214724
O O18 0.000000 0.680747 0.500000
#
# Coordination Sequence:
#
# PCOD9205492 Si02
#       7
#     8   8   8   8   8   8   8
#     4  11  20  33  56  86 119 151 188 237 290 348
#     4  11  22  37  58  85 115 151 194 242 290 348
#     4  10  21  38  55  75 108 149 192 236 290 347
#     4   9  19  36  57  84 117 153 190 237 297 350
#     4  11  23  40  65  91 119 155 201 251 299 353
#     4  10  21  35  56  87 122 156 190 236 295 357
#     4  11  21  34  56  85 115 150 193 236 288 351
#
# _framework density 18.533609999999999
#
# number of rings (size 3 to 8) (size 9 to 14) (size 15 to 20)
#    0.000    1.571    4.286    1.286    0.000    2.000 
#    0.000    2.143    0.000    4.286    0.000    0.000 
#    0.000    0.000    0.000    0.000    0.000    0.000 
#
# Total GULP energy -155961.112262 kJ/mol
# GULP energy per Si atom -5570.039724 kJ/mol
# Density = 1.849143 g / cm^3
# Si number density = 18.533610 Si / 1000 Ang^3
#
#
#
# Elastic Constant Matrix: (Units=GPa)
#
#
# Indices 1 2 3 4 5 6 
#
# 1 75.6793 17.8813 8.1621 0.0000 11.5709 0.0000
# 2 17.8813 75.4756 30.2624 0.0000 14.1529 0.0000
# 3 8.1621 30.2624 54.1823 0.0000 17.0576 0.0000
# 4 0.0000 0.0000 0.0000 8.5959 0.0000 1.7313
# 5 11.5709 14.1529 17.0576 0.0000 40.4122 0.0000
# 6 0.0000 0.0000 0.0000 1.7313 0.0000 15.8539
#
#
#
# Elastic Compliance Matrix: (Units=1/GPa)
#
#
# Indices 1 2 3 4 5 6 
#
# 1 0.014368 -0.003008 0.000553 0.000000 -0.003294 0.000000
# 2 -0.003008 0.017882 -0.009035 0.000000 -0.001588 0.000000
# 3 0.000553 -0.009035 0.025917 0.000000 -0.007933 0.000000
# 4 0.000000 0.000000 0.000000 0.118951 0.000000 -0.012990
# 5 -0.003294 -0.001588 -0.007933 0.000000 0.029593 0.000000
# 6 0.000000 0.000000 0.000000 -0.012990 0.000000 0.064495
#
#
# Mechanical properties :
#
#
# Convention : Reuss Voigt Hill
#
# Bulk Modulus (GPa) = 28.41968 35.32765 31.87366
# Shear Modulus (GPa) = 16.34443 22.90782 19.62612
#
# Velocity S-wave (km/s) = 2.97287 3.51951 3.25768
# Velocity P-wave (km/s) = 5.21070 5.96814 5.60224
#
# Compressibility (1/GPa) = 0.03518689
#
# Stress axis : x y z
#
# Youngs Moduli (GPa) = 69.59725 55.92139 38.58515
#
# Poissons Ratio (x) = 0.16821 -0.02132
# Poissons Ratio (y) = 0.20935 0.34861
# Poissons Ratio (z) = -0.03845 0.50524
#
# Static dielectric constant tensor:
#      x y z
#    x 1.656300 0.000000 -0.000120 
#    y 0.000000 1.664590 0.000000 
#    z -0.000120 0.000000 1.643650 
# 
# From -- ./inp_files/110067.got.cif
#   From: 2010.05.17/outbox.cif.g08.bks.cpg/sg12_56_cif.got.tgz:110067.got - 2010.06.03 13:09:07.
