data_PCOD9205126
_publ_section_title
;
Structure prediction by ZEFSAII (Michael W. Deem and Ramdas Pophale) SiO2 
 PCOD9205126
Probable space group: C 2/M
;
_chemical_formula_sum "Si O2"
_cell_formula_units_Z 56
_cell_length_a 16.135476
_cell_length_b 7.510989
_cell_length_c 17.170931
_cell_angle_alpha 90.000000
_cell_angle_beta 80.585813
_cell_angle_gamma 90.000000
_cell_volume 2052.975617
_symmetry_space_group_name_H-M "C 2/M"
_symmetry_group_IT_number 12
_symmetry_cell_setting 'monoclinic'
loop_
_space_group_symop_operation_xyz
x,y,z
-x,y,-z
-x,-y,-z
x,-y,z
1/2+x,1/2+y,z
1/2-x,1/2+y,-z
1/2-x,1/2-y,-z
1/2+x,1/2-y,z
loop_
_atom_site_type_symbol
_atom_site_label
_atom_site_fract_x
_atom_site_fract_y
_atom_site_fract_z
Si Si1 0.623128 0.711464 0.024265
Si Si2 0.731011 0.705541 0.874815
Si Si3 0.298381 0.706900 0.590356
Si Si4 0.491937 0.213849 0.165315
Si Si5 0.863152 0.716031 0.737749
Si Si6 0.136294 0.292556 0.697358
Si Si7 0.071702 0.784142 0.548703
O O1 0.636527 0.500000 0.019243
O O2 0.691294 0.788445 0.074709
O O3 0.531702 0.737752 0.076075
O O4 0.652432 0.783935 0.935239
O O5 0.713974 0.500000 0.861261
O O6 0.775887 0.782200 0.791498
O O7 0.280878 0.500000 0.578589
O O8 0.366540 0.716520 0.649695
O O9 0.217428 0.793551 0.643824
O O10 0.341582 0.778755 0.506239
O O11 0.562672 0.274570 0.216711
O O12 0.405338 0.280484 0.217280
O O13 0.489091 0.000000 0.167696
O O14 0.862915 0.500000 0.737126
O O15 0.153723 0.500000 0.708474
O O16 0.068918 0.283418 0.637003
O O17 0.000000 0.725877 0.500000
O O18 0.071061 0.000000 0.550914
#
# Coordination Sequence:
#
# PCOD9205126 Si02
#       7
#     8   8   8   8   8   8   8
#     4   9  15  24  43  70  97 126 161 202 247 290
#     4   8  15  27  42  66 100 130 160 201 244 287
#     4  10  21  35  50  72 101 129 160 199 241 287
#     4   9  18  32  48  69  98 128 162 205 245 284
#     4   9  17  30  49  71  95 126 162 199 240 285
#     4  10  21  36  53  72  97 131 166 198 236 287
#     4  10  21  36  54  77 103 126 153 198 248 288
#
# _framework density 27.277481999999999
#
# number of rings (size 3 to 8) (size 9 to 14) (size 15 to 20)
#    0.000    2.714    0.000    2.571    0.000    4.857 
#    0.000    0.000    0.000    0.857    0.000    6.000 
#    0.000    0.000    0.000    0.000    0.000    0.000 
#
# Total GULP energy -156610.724311 kJ/mol
# GULP energy per Si atom -5593.240154 kJ/mol
# Density = 2.721540 g / cm^3
# Si number density = 27.277482 Si / 1000 Ang^3
#
#
#
# Elastic Constant Matrix: (Units=GPa)
#
#
# Indices 1 2 3 4 5 6 
#
# 1 97.6727 18.4934 34.0754 0.0000 -25.0823 0.0000
# 2 18.4934 109.0893 7.2673 0.0000 -0.1443 0.0000
# 3 34.0754 7.2673 217.1459 0.0000 -26.0423 0.0000
# 4 0.0000 0.0000 0.0000 19.5503 0.0000 4.3506
# 5 -25.0823 -0.1443 -26.0423 0.0000 64.3315 0.0000
# 6 0.0000 0.0000 0.0000 4.3506 0.0000 15.8232
#
#
#
# Elastic Compliance Matrix: (Units=1/GPa)
#
#
# Indices 1 2 3 4 5 6 
#
# 1 0.012154 -0.001966 -0.001339 0.000000 0.004192 0.000000
# 2 -0.001966 0.009506 -0.000104 0.000000 -0.000787 0.000000
# 3 -0.001339 -0.000104 0.004999 0.000000 0.001501 0.000000
# 4 0.000000 0.000000 0.000000 0.054484 0.000000 -0.014980
# 5 0.004192 -0.000787 0.001501 0.000000 0.017785 0.000000
# 6 0.000000 0.000000 0.000000 -0.014980 0.000000 0.067317
#
#
# Mechanical properties :
#
#
# Convention : Reuss Voigt Hill
#
# Bulk Modulus (GPa) = 50.39836 60.39780 55.39808
# Shear Modulus (GPa) = 27.82792 44.21245 36.02019
#
# Velocity S-wave (km/s) = 3.19749 4.03033 3.63782
# Velocity P-wave (km/s) = 5.66994 6.62180 6.16427
#
# Compressibility (1/GPa) = 0.01984192
#
# Stress axis : x y z
#
# Youngs Moduli (GPa) = 82.27666 105.19745 200.04730
#
# Poissons Ratio (x) = 0.20679 0.26780
# Poissons Ratio (y) = 0.16173 0.02082
# Poissons Ratio (z) = 0.11014 0.01095
#
# Static dielectric constant tensor:
#      x y z
#    x 2.282450 0.000000 -0.031980 
#    y 0.000000 1.978450 0.000000 
#    z -0.031980 0.000000 2.112890 
# 
# From -- ./inp_files/275352.got.cif
#   From: 2010.05.17/outbox.cif.g08.bks.cpg/sg12_138_cif.got.tgz:275352.got - 2010.06.03 13:09:07.
