data_PCOD9205337
_publ_section_title
;
Structure prediction by ZEFSAII (Michael W. Deem and Ramdas Pophale) SiO2 
 PCOD9205337
Probable space group: C 2/M
;
_chemical_formula_sum "Si O2"
_cell_formula_units_Z 64
_cell_length_a 21.511921
_cell_length_b 28.460464
_cell_length_c 10.714408
_cell_angle_alpha 90.000000
_cell_angle_beta 142.465409
_cell_angle_gamma 90.000000
_cell_volume 3996.482950
_symmetry_space_group_name_H-M "C 2/M"
_symmetry_group_IT_number 12
_symmetry_cell_setting 'monoclinic'
loop_
_space_group_symop_operation_xyz
x,y,z
-x,y,-z
-x,-y,-z
x,-y,z
1/2+x,1/2+y,z
1/2-x,1/2+y,-z
1/2-x,1/2-y,-z
1/2+x,1/2-y,z
loop_
_atom_site_type_symbol
_atom_site_label
_atom_site_fract_x
_atom_site_fract_y
_atom_site_fract_z
Si Si1 0.769277 0.773344 0.739345
Si Si2 0.790933 0.140534 0.115576
Si Si3 0.621155 0.643685 0.219603
Si Si4 0.926502 0.782430 0.203946
Si Si5 0.083809 0.055388 0.738373
Si Si6 0.090257 0.052592 0.039996
Si Si7 0.153717 0.180484 0.528169
Si Si8 0.112923 0.308777 0.694846
O O1 0.813087 0.811731 0.716163
O O2 0.730722 0.723795 0.625932
O O3 0.677340 0.796857 0.673252
O O4 0.864121 0.765818 0.984205
O O5 0.873898 0.170108 0.168290
O O6 0.817243 0.086733 0.131463
O O7 0.810118 0.155602 0.287951
O O8 0.683335 0.158857 0.893702
O O9 0.639442 0.642382 0.396337
O O10 0.500000 0.651719 0.000000
O O11 0.651753 0.597740 0.188255
O O12 0.904944 0.741764 0.268898
O O13 0.043774 0.794423 0.369840
O O14 0.055804 0.061607 0.841374
O O15 0.000000 0.069899 0.500000
O O16 0.101088 0.000000 0.748398
O O17 0.137362 0.000000 0.115528
O O18 0.000000 0.050854 0.000000
O O19 0.000000 0.329214 0.500000
#
# Coordination Sequence:
#
# PCOD9205337 Si02
#       8
#     8   8   8   8   8   8   8   8
#     4  11  20  34  49  71 104 140 178 215 260 314
#     4  11  21  31  53  79 103 136 179 219 268 316
#     4  11  23  34  50  72 103 147 179 209 260 320
#     4  11  18  33  50  74 101 137 174 217 264 308
#     4  10  21  35  54  81 109 137 175 226 274 317
#     4   9  19  35  51  71 102 139 176 212 258 318
#     4  12  21  33  51  73 110 142 175 220 262 311
#     4  11  19  33  54  75 101 135 180 225 263 312
#
# _framework density 16.014081000000001
#
# number of rings (size 3 to 8) (size 9 to 14) (size 15 to 20)
#    0.000    1.250    5.000    3.750    5.250    0.000 
#    0.000    0.000    0.000    0.375    0.000    0.000 
#    0.000    0.000    0.000    7.750    0.000    0.000 
#
# Total GULP energy -178338.894623 kJ/mol
# GULP energy per Si atom -5573.090457 kJ/mol
# Density = 1.597763 g / cm^3
# Si number density = 16.014081 Si / 1000 Ang^3
#
#
#
# Elastic Constant Matrix: (Units=GPa)
#
#
# Indices 1 2 3 4 5 6 
#
# 1 39.0355 27.2595 30.0222 0.0000 -4.7219 0.0000
# 2 27.2595 71.2544 33.6276 0.0000 -8.3625 0.0000
# 3 30.0222 33.6276 97.8687 0.0000 -8.3028 0.0000
# 4 0.0000 0.0000 0.0000 4.9204 0.0000 12.7812
# 5 -4.7219 -8.3625 -8.3028 0.0000 20.8649 0.0000
# 6 0.0000 0.0000 0.0000 12.7812 0.0000 -4.3328
#
#
#
# Elastic Compliance Matrix: (Units=1/GPa)
#
#
# Indices 1 2 3 4 5 6 
#
# 1 0.040003 -0.011239 -0.008304 0.000000 0.001244 0.000000
# 2 -0.011239 0.020341 -0.003173 0.000000 0.004347 0.000000
# 3 -0.008304 -0.003173 0.014063 0.000000 0.002445 0.000000
# 4 0.000000 0.000000 0.000000 0.023461 0.000000 0.069208
# 5 0.001244 0.004347 0.002445 0.000000 0.050924 0.000000
# 6 0.000000 0.000000 0.000000 0.069208 0.000000 -0.026643
#
#
# Mechanical properties :
#
#
# Convention : Reuss Voigt Hill
#
# Bulk Modulus (GPa) = 34.51180 43.33081 38.92130
# Shear Modulus (GPa) = 28.21032 12.10712 20.15872
#
# Velocity S-wave (km/s) = 4.20169 2.75258 3.55182
# Velocity P-wave (km/s) = 6.71838 6.10073 6.41699
#
# Compressibility (1/GPa) = 0.02897560
#
# Stress axis : x y z
#
# Youngs Moduli (GPa) = 24.99793 49.16104 71.10951
#
# Poissons Ratio (x) = 0.55251 0.59051
# Poissons Ratio (y) = 0.28095 0.22562
# Poissons Ratio (z) = 0.20759 0.15598
#
# Static dielectric constant tensor:
#      x y z
#    x 1.573880 0.000000 -0.038870 
#    y 0.000000 1.555340 0.000000 
#    z -0.038870 0.000000 1.575470 
# 
# From -- ./inp_files/185080.got.cif
#   From: 2010.05.17/outbox.cif.g08.bks.cpg/sg12_93_cif.got.tgz:185080.got - 2010.06.03 13:09:07.
