data_PCOD9205830
_publ_section_title
;
Structure prediction by ZEFSAII (Michael W. Deem and Ramdas Pophale) SiO2 
 PCOD9205830
Probable space group: C 2/M
;
_chemical_formula_sum "Si O2"
_cell_formula_units_Z 56
_cell_length_a 21.539437
_cell_length_b 7.518117
_cell_length_c 32.057430
_cell_angle_alpha 90.000000
_cell_angle_beta 28.471234
_cell_angle_gamma 90.000000
_cell_volume 2474.760678
_symmetry_space_group_name_H-M "C 2/M"
_symmetry_group_IT_number 12
_symmetry_cell_setting 'monoclinic'
loop_
_space_group_symop_operation_xyz
x,y,z
-x,y,-z
-x,-y,-z
x,-y,z
1/2+x,1/2+y,z
1/2-x,1/2+y,-z
1/2-x,1/2-y,-z
1/2+x,1/2-y,z
loop_
_atom_site_type_symbol
_atom_site_label
_atom_site_fract_x
_atom_site_fract_y
_atom_site_fract_z
Si Si1 0.439032 0.206270 0.922134
Si Si2 0.191916 0.782497 0.417828
Si Si3 0.351486 0.216228 0.884338
Si Si4 0.620601 0.794272 0.280289
Si Si5 0.956979 0.717997 0.302947
Si Si6 0.405375 0.707872 0.610773
Si Si7 0.403588 0.784165 0.093559
O O1 0.419050 0.279927 0.887521
O O2 0.541201 0.282314 0.894605
O O3 0.475336 0.000000 0.894884
O O4 0.296456 0.216879 0.027609
O O5 0.316434 0.720971 0.370132
O O6 0.187132 0.725239 0.371900
O O7 0.052832 0.722405 0.518416
O O8 0.198886 0.000000 0.415474
O O9 0.436231 0.269085 0.794764
O O10 0.345166 0.000000 0.889428
O O11 0.505937 0.718426 0.319147
O O12 0.639205 0.721130 0.315568
O O13 0.755696 0.774622 0.175769
O O14 0.591858 0.000000 0.303667
O O15 0.956826 0.500000 0.304079
O O16 0.417233 0.500000 0.594466
O O17 0.405287 0.000000 0.092954
O O18 0.500000 0.725445 0.000000
#
# Coordination Sequence:
#
# PCOD9205830 Si02
#       7
#     8   8   8   8   8   8   8
#     4   9  18  31  49  73  98 131 172 219 266 306
#     4   8  16  33  59  84 104 135 181 226 264 312
#     4   9  17  30  50  73  98 132 173 215 260 309
#     4  11  23  35  51  79 113 147 177 213 269 328
#     4   9  18  32  51  76 106 140 176 216 262 317
#     4   9  18  35  60  85 105 134 180 227 266 311
#     4  10  21  36  54  76 104 141 183 226 269 309
#
# _framework density 22.628451999999999
#
# number of rings (size 3 to 8) (size 9 to 14) (size 15 to 20)
#    0.000    2.714    0.000    2.143    2.000    1.429 
#    0.000    2.143    0.000    3.429    0.000    0.000 
#    0.000    0.000    0.000    0.000    0.000    0.000 
#
# Total GULP energy -156311.864230 kJ/mol
# GULP energy per Si atom -5582.566580 kJ/mol
# Density = 2.257695 g / cm^3
# Si number density = 22.628452 Si / 1000 Ang^3
#
#
#
# Elastic Constant Matrix: (Units=GPa)
#
#
# Indices 1 2 3 4 5 6 
#
# 1 132.0604 1.9092 32.9140 0.0055 -26.8047 0.0628
# 2 1.9092 53.5572 -10.1923 0.0154 2.1431 0.0304
# 3 32.9140 -10.1923 48.1684 -0.0017 1.8370 -0.0013
# 4 0.0055 0.0154 -0.0017 45.1516 -0.0198 4.6419
# 5 -26.8047 2.1431 1.8370 -0.0198 30.1032 0.0135
# 6 0.0628 0.0304 -0.0013 4.6419 0.0135 -0.0217
#
#
#
# Elastic Compliance Matrix: (Units=1/GPa)
#
#
# Indices 1 2 3 4 5 6 
#
# 1 0.012362 -0.002715 -0.009470 -0.000178 0.011777 0.001772
# 2 -0.002715 0.020132 0.006277 -0.000078 -0.004234 0.000679
# 3 -0.009470 0.006277 0.028966 0.000120 -0.010647 -0.001214
# 4 -0.000178 -0.000078 0.000120 0.000965 -0.000252 0.206041
# 5 0.011777 -0.004234 -0.010647 -0.000252 0.044656 0.002635
# 6 0.001772 0.000679 -0.001214 0.206041 0.002635 -2.004160
#
#
# Mechanical properties :
#
#
# Convention : Reuss Voigt Hill
#
# Bulk Modulus (GPa) = 20.14444 31.44978 25.79711
# Shear Modulus (GPa) = -2.67564 28.99030 13.15733
#
# Velocity S-wave (km/s) = -1.08857 3.58319 2.41395
# Velocity P-wave (km/s) = 2.70954 5.57203 4.38116
#
# Compressibility (1/GPa) = 0.04964149
#
# Stress axis : x y z
#
# Youngs Moduli (GPa) = 80.89597 49.67225 34.52343
#
# Poissons Ratio (x) = 0.13487 0.32695
# Poissons Ratio (y) = 0.21965 -0.21669
# Poissons Ratio (z) = 0.76612 -0.31178
#
# Static dielectric constant tensor:
#      x y z
#    x 1.858030 -0.000010 0.001380 
#    y -0.000010 1.869970 0.000000 
#    z 0.001380 0.000000 1.796980 
# 
# From -- ./inp_files/380594.got.cif
#   From: 2010.05.17/outbox.cif.g08.bks.cpg/sg12_191_cif.got.tgz:380594.got - 2010.06.03 13:09:07.
