data_PCOD9205426
_publ_section_title
;
Structure prediction by ZEFSAII (Michael W. Deem and Ramdas Pophale) SiO2 
 PCOD9205426
Probable space group: C 2/M
;
_chemical_formula_sum "Si O2"
_cell_formula_units_Z 44
_cell_length_a 17.150688
_cell_length_b 27.991251
_cell_length_c 5.821197
_cell_angle_alpha 90.000000
_cell_angle_beta 133.884193
_cell_angle_gamma 90.000000
_cell_volume 2014.170418
_symmetry_space_group_name_H-M "C 2/M"
_symmetry_group_IT_number 12
_symmetry_cell_setting 'monoclinic'
loop_
_space_group_symop_operation_xyz
x,y,z
-x,y,-z
-x,-y,-z
x,-y,z
1/2+x,1/2+y,z
1/2-x,1/2+y,-z
1/2-x,1/2-y,-z
1/2+x,1/2-y,z
loop_
_atom_site_type_symbol
_atom_site_label
_atom_site_fract_x
_atom_site_fract_y
_atom_site_fract_z
Si Si1 0.792909 0.912848 0.727719
Si Si2 0.348865 0.138308 0.172713
Si Si3 0.170006 0.729849 0.639937
Si Si4 0.315439 0.679580 0.545418
Si Si5 0.097489 0.446820 0.017594
Si Si6 0.941549 0.000000 0.133498
O O1 0.718196 0.890372 0.772713
O O2 0.858644 0.868866 0.747054
O O3 0.710989 0.937447 0.379369
O O4 0.869583 0.952643 0.983951
O O5 0.396312 0.185293 0.395201
O O6 0.265474 0.160063 0.815651
O O7 0.415985 0.098715 0.173280
O O8 0.243560 0.705405 0.593897
O O9 0.114581 0.777374 0.421639
O O10 0.250000 0.750000 0.000000
O O11 0.100151 0.500000 0.914135
O O12 0.000000 0.446527 0.000000
O O13 0.000000 0.000000 0.500000
O O14 0.000000 0.000000 0.000000
#
# Coordination Sequence:
#
# PCOD9205426 Si02
#       6
#     8   8   8   8   8   4
#     4  10  21  38  60  89 124 168 213 276 329 401
#     4   9  18  30  55  83 124 162 208 263 320 389
#     4   8  13  26  48  88 116 150 200 253 320 398
#     4   8  15  28  53  83 121 149 203 254 325 396
#     4  10  21  35  55  84 126 176 219 261 322 396
#     4  12  30  46  69  97 131 177 230 290 350 399
#
# _framework density 21.845222
#
# number of rings (size 3 to 8) (size 9 to 14) (size 15 to 20)
#    0.000    2.727    0.909    0.000    6.364    0.727 
#    0.000    1.818    0.000    0.000    0.000  165.455 
#    0.000    0.000    0.000    0.000    0.000    0.000 
#
# Total GULP energy -122572.377897 kJ/mol
# GULP energy per Si atom -5571.471723 kJ/mol
# Density = 2.179550 g / cm^3
# Si number density = 21.845222 Si / 1000 Ang^3
#
#
#
# Elastic Constant Matrix: (Units=GPa)
#
#
# Indices 1 2 3 4 5 6 
#
# 1 52.3830 49.6628 6.0346 0.0000 -4.4447 0.0000
# 2 49.6628 241.0716 43.9841 0.0000 -4.7278 0.0000
# 3 6.0346 43.9841 87.6270 0.0000 -5.1818 0.0000
# 4 0.0000 0.0000 0.0000 -30.2589 0.0000 -13.3969
# 5 -4.4447 -4.7278 -5.1818 0.0000 19.7822 0.0000
# 6 0.0000 0.0000 0.0000 -13.3969 0.0000 31.3562
#
#
#
# Elastic Compliance Matrix: (Units=1/GPa)
#
#
# Indices 1 2 3 4 5 6 
#
# 1 0.024179 -0.005105 0.001164 0.000000 0.004518 0.000000
# 2 -0.005105 0.005649 -0.002511 0.000000 -0.000455 0.000000
# 3 0.001164 -0.002511 0.012770 0.000000 0.003007 0.000000
# 4 0.000000 0.000000 0.000000 -0.027791 0.000000 -0.011874
# 5 0.004518 -0.000455 0.003007 0.000000 0.052245 0.000000
# 6 0.000000 0.000000 0.000000 -0.011874 0.000000 0.026819
#
#
# Mechanical properties :
#
#
# Convention : Reuss Voigt Hill
#
# Bulk Modulus (GPa) = 33.67532 64.49384 49.08458
# Shear Modulus (GPa) = 42.85546 22.93590 32.89568
#
# Velocity S-wave (km/s) = 4.43400 3.24377 3.88474
# Velocity P-wave (km/s) = 6.45466 6.60429 6.52990
#
# Compressibility (1/GPa) = 0.02969534
#
# Stress axis : x y z
#
# Youngs Moduli (GPa) = 41.35789 177.02254 78.30916
#
# Poissons Ratio (x) = 0.90369 -0.09118
# Poissons Ratio (y) = 0.21113 0.19662
# Poissons Ratio (z) = -0.04816 0.44447
#
# Static dielectric constant tensor:
#      x y z
#    x 1.818030 0.000000 -0.020160 
#    y 0.000000 1.839400 0.000000 
#    z -0.020160 0.000000 1.829050 
# 
# From -- ./inp_files/17544.got.cif
#   From: 2010.05.17/outbox.cif.g08.bks.cpg/sg12_9_cif.got.tgz:17544.got - 2010.06.03 13:09:07.
