data_PCOD9205741
_publ_section_title
;
Structure prediction by ZEFSAII (Michael W. Deem and Ramdas Pophale) SiO2 
 PCOD9205741
Probable space group: C 2/M
;
_chemical_formula_sum "Si O2"
_cell_formula_units_Z 44
_cell_length_a 8.393904
_cell_length_b 14.007081
_cell_length_c 15.499005
_cell_angle_alpha 90.000000
_cell_angle_beta 110.514257
_cell_angle_gamma 90.000000
_cell_volume 1706.721512
_symmetry_space_group_name_H-M "C 2/M"
_symmetry_group_IT_number 12
_symmetry_cell_setting 'monoclinic'
loop_
_space_group_symop_operation_xyz
x,y,z
-x,y,-z
-x,-y,-z
x,-y,z
1/2+x,1/2+y,z
1/2-x,1/2+y,-z
1/2-x,1/2-y,-z
1/2+x,1/2-y,z
loop_
_atom_site_type_symbol
_atom_site_label
_atom_site_fract_x
_atom_site_fract_y
_atom_site_fract_z
Si Si1 0.045257 0.111188 0.242136
Si Si2 0.964699 0.385108 0.127999
Si Si3 0.277959 0.385848 0.057108
Si Si4 0.939619 0.388759 0.305250
Si Si5 0.362888 0.657617 0.549837
Si Si6 0.000000 0.630684 0.500000
O O1 0.239817 0.112415 0.249403
O O2 0.047226 0.151984 0.339569
O O3 0.934672 0.152926 0.142427
O O4 0.990400 0.000000 0.241811
O O5 0.940372 0.500000 0.135627
O O6 0.020088 0.350681 0.232918
O O7 0.119474 0.375273 0.091858
O O8 0.792766 0.349023 0.048240
O O9 0.309351 0.500000 0.049268
O O10 0.988628 0.500000 0.332544
O O11 0.970982 0.330197 0.397608
O O12 0.500000 0.637434 0.500000
O O13 0.250000 0.750000 0.500000
O O14 0.193564 0.591267 0.526469
#
# Coordination Sequence:
#
# PCOD9205741 Si02
#       6
#     8   8   8   8   8   4
#     4   9  19  33  51  80 111 136 179 230 274 322
#     4   8  14  24  42  67 104 149 176 207 269 324
#     4   8  14  26  42  69 107 139 177 220 259 324
#     4   9  17  29  46  72 108 146 174 217 277 318
#     4  11  23  40  59  78 107 145 188 226 275 329
#     4  10  21  36  52  76 107 134 188 232 260 324
#
# _framework density 25.780418999999998
#
# number of rings (size 3 to 8) (size 9 to 14) (size 15 to 20)
#    0.000    2.909    0.909    1.364    2.545    1.818 
#    0.000    3.636    0.000    0.000    0.000    1.273 
#    5.455    0.182    0.000    0.000    0.000    0.000 
#
# Total GULP energy -122480.181883 kJ/mol
# GULP energy per Si atom -5567.280995 kJ/mol
# Density = 2.572174 g / cm^3
# Si number density = 25.780419 Si / 1000 Ang^3
#
#
#
# Elastic Constant Matrix: (Units=GPa)
#
#
# Indices 1 2 3 4 5 6 
#
# 1 85.4467 -5.3821 35.1155 0.0000 -1.6286 0.0000
# 2 -5.3821 73.7245 7.6123 0.0000 -0.1267 0.0000
# 3 35.1155 7.6123 203.6754 0.0000 6.7203 0.0000
# 4 0.0000 0.0000 0.0000 75.0991 0.0000 -6.5232
# 5 -1.6286 -0.1267 6.7203 0.0000 60.0074 0.0000
# 6 0.0000 0.0000 0.0000 -6.5232 0.0000 -19.1084
#
#
#
# Elastic Compliance Matrix: (Units=1/GPa)
#
#
# Indices 1 2 3 4 5 6 
#
# 1 0.012715 0.001162 -0.002255 0.000000 0.000600 0.000000
# 2 0.001162 0.013723 -0.000718 0.000000 0.000141 0.000000
# 3 -0.002255 -0.000718 0.005347 0.000000 -0.000662 0.000000
# 4 0.000000 0.000000 0.000000 0.012932 0.000000 -0.004415
# 5 0.000600 0.000141 -0.000662 0.000000 0.016755 0.000000
# 6 0.000000 0.000000 0.000000 -0.004415 0.000000 -0.050826
#
#
# Mechanical properties :
#
#
# Convention : Reuss Voigt Hill
#
# Bulk Modulus (GPa) = 35.50773 48.61533 42.06153
# Shear Modulus (GPa) = 211.35624 44.89969 128.12797
#
# Velocity S-wave (km/s) = 9.06428 4.17780 7.05745
# Velocity P-wave (km/s) = 11.10636 6.49388 9.09730
#
# Compressibility (1/GPa) = 0.02816288
#
# Stress axis : x y z
#
# Youngs Moduli (GPa) = 78.64901 72.86925 187.01100
#
# Poissons Ratio (x) = -0.08468 0.42178
# Poissons Ratio (y) = -0.09140 0.13426
# Poissons Ratio (z) = 0.17738 0.05231
#
# Static dielectric constant tensor:
#      x y z
#    x 2.060110 0.000000 -0.037740 
#    y 0.000000 3.454030 0.000000 
#    z -0.037740 0.000000 2.029180 
# 
# From -- ./inp_files/197270.got.cif
#   From: 2010.05.17/outbox.cif.g08.bks.cpg/sg12_99_cif.got.tgz:197270.got - 2010.06.03 13:09:07.
