data_PCOD9205013
_publ_section_title
;
Structure prediction by ZEFSAII (Michael W. Deem and Ramdas Pophale) SiO2 
 PCOD9205013
Probable space group: C 2/M
;
_chemical_formula_sum "Si O2"
_cell_formula_units_Z 52
_cell_length_a 24.898989
_cell_length_b 16.987178
_cell_length_c 11.150507
_cell_angle_alpha 90.000000
_cell_angle_beta 33.835144
_cell_angle_gamma 90.000000
_cell_volume 2626.037132
_symmetry_space_group_name_H-M "C 2/M"
_symmetry_group_IT_number 12
_symmetry_cell_setting 'monoclinic'
loop_
_space_group_symop_operation_xyz
x,y,z
-x,y,-z
-x,-y,-z
x,-y,z
1/2+x,1/2+y,z
1/2-x,1/2+y,-z
1/2-x,1/2-y,-z
1/2+x,1/2-y,z
loop_
_atom_site_type_symbol
_atom_site_label
_atom_site_fract_x
_atom_site_fract_y
_atom_site_fract_z
Si Si1 0.000000 0.641718 0.500000
Si Si2 0.193086 0.084585 0.237769
Si Si3 0.611997 0.086187 0.523159
Si Si4 0.475167 0.766260 0.183200
Si Si5 0.686472 0.611638 0.971723
Si Si6 0.472997 0.409884 0.268489
Si Si7 0.852574 0.712851 0.949693
O O1 0.955029 0.594772 0.471668
O O2 0.914313 0.692819 0.716625
O O3 0.181584 0.081976 0.116488
O O4 0.091518 0.097372 0.491652
O O5 0.230378 0.000000 0.210297
O O6 0.272617 0.148209 0.121648
O O7 0.594861 0.165042 0.634358
O O8 0.590482 0.000000 0.619358
O O9 0.721358 0.084583 0.273110
O O10 0.448220 0.672544 0.245712
O O11 0.570292 0.778666 0.087359
O O12 0.500000 0.781702 0.000000
O O13 0.585898 0.594036 0.092376
O O14 0.698291 0.704444 0.966968
O O15 0.454464 0.500000 0.253902
#
# Coordination Sequence:
#
# PCOD9205013 Si02
#       7
#     4   8   8   8   8   8   8
#     4  10  21  34  56  88 119 160 193 244 302 352
#     4  11  21  34  56  88 126 159 190 237 297 364
#     4  11  22  37  60  89 122 158 200 243 296 359
#     4  10  24  44  63  85 116 159 207 254 301 346
#     4  11  21  34  59  90 127 160 190 237 300 365
#     4  10  22  39  61  89 121 158 201 247 299 357
#     4  10  22  35  59  86 120 157 199 246 292 360
#
# _framework density 19.8017
#
# number of rings (size 3 to 8) (size 9 to 14) (size 15 to 20)
#    0.000    1.538    1.538    3.462    6.462    4.308 
#    0.000    6.923    0.000    3.692    0.000    0.000 
#    0.000    0.000    0.000    0.000    0.000    0.000 
#
# Total GULP energy -144983.715119 kJ/mol
# GULP energy per Si atom -5576.296735 kJ/mol
# Density = 1.975663 g / cm^3
# Si number density = 19.801700 Si / 1000 Ang^3
#
#
#
# Elastic Constant Matrix: (Units=GPa)
#
#
# Indices 1 2 3 4 5 6 
#
# 1 17.0487 18.2764 24.2134 0.0000 14.5368 0.0000
# 2 18.2764 176.4102 61.6144 0.0000 3.3317 0.0000
# 3 24.2134 61.6144 107.6570 0.0000 3.6278 0.0000
# 4 0.0000 0.0000 0.0000 16.5501 0.0000 -0.6472
# 5 14.5368 3.3317 3.6278 0.0000 28.1042 0.0000
# 6 0.0000 0.0000 0.0000 -0.6472 0.0000 0.7394
#
#
#
# Elastic Compliance Matrix: (Units=1/GPa)
#
#
# Indices 1 2 3 4 5 6 
#
# 1 0.209542 -0.005648 -0.040442 0.000000 -0.102495 0.000000
# 2 -0.005648 0.007240 -0.002956 0.000000 0.002445 0.000000
# 3 -0.040442 -0.002956 0.019444 0.000000 0.018759 0.000000
# 4 0.000000 0.000000 0.000000 0.062564 0.000000 0.054761
# 5 -0.102495 0.002445 0.018759 0.000000 0.085886 0.000000
# 6 0.000000 0.000000 0.000000 0.054761 0.000000 1.400332
#
#
# Mechanical properties :
#
#
# Convention : Reuss Voigt Hill
#
# Bulk Modulus (GPa) = 7.23935 56.59161 31.91548
# Shear Modulus (GPa) = 2.59182 22.21285 12.40234
#
# Velocity S-wave (km/s) = 1.14531 3.35291 2.50537
# Velocity P-wave (km/s) = 2.32655 6.60534 4.95194
#
# Compressibility (1/GPa) = 0.13813401
#
# Stress axis : x y z
#
# Youngs Moduli (GPa) = 4.77232 138.12382 51.42925
#
# Poissons Ratio (x) = 0.78012 2.07992
# Poissons Ratio (y) = 0.02695 0.15201
# Poissons Ratio (z) = 0.19300 0.40824
#
# Static dielectric constant tensor:
#      x y z
#    x 1.666120 0.000000 -0.002570 
#    y 0.000000 1.755070 0.000000 
#    z -0.002570 0.000000 1.671100 
# 
# From -- ./inp_files/184298.got.cif
#   From: 2010.05.17/outbox.cif.g08.bks.cpg/sg12_93_cif.got.tgz:184298.got - 2010.06.03 13:09:07.
