data_PCOD9205389
_publ_section_title
;
Structure prediction by ZEFSAII (Michael W. Deem and Ramdas Pophale) SiO2 
 PCOD9205389
Probable space group: C 2/M
;
_chemical_formula_sum "Si O2"
_cell_formula_units_Z 56
_cell_length_a 31.345958
_cell_length_b 7.928427
_cell_length_c 21.144647
_cell_angle_alpha 90.000000
_cell_angle_beta 151.577840
_cell_angle_gamma 90.000000
_cell_volume 2501.171553
_symmetry_space_group_name_H-M "C 2/M"
_symmetry_group_IT_number 12
_symmetry_cell_setting 'monoclinic'
loop_
_space_group_symop_operation_xyz
x,y,z
-x,y,-z
-x,-y,-z
x,-y,z
1/2+x,1/2+y,z
1/2-x,1/2+y,-z
1/2-x,1/2-y,-z
1/2+x,1/2-y,z
loop_
_atom_site_type_symbol
_atom_site_label
_atom_site_fract_x
_atom_site_fract_y
_atom_site_fract_z
Si Si1 0.415473 0.305453 0.554893
Si Si2 0.605574 0.193510 0.841665
Si Si3 0.659108 0.296561 0.416528
Si Si4 0.782890 0.197316 0.131176
Si Si5 0.543300 0.294328 0.152328
Si Si6 0.182208 0.303437 0.685561
Si Si7 0.360933 0.294531 0.849371
O O1 0.393582 0.500000 0.514952
O O2 0.514444 0.293516 0.713036
O O3 0.351311 0.230954 0.525917
O O4 0.402367 0.216281 0.470870
O O5 0.658819 0.205991 0.844602
O O6 0.581842 0.000000 0.824162
O O7 0.678898 0.253922 0.988601
O O8 0.653877 0.500000 0.413799
O O9 0.750000 0.250000 0.500000
O O10 0.578823 0.236940 0.266216
O O11 0.820169 0.216365 0.249917
O O12 0.784103 0.000000 0.114621
O O13 0.543532 0.500000 0.152744
O O14 0.611733 0.240363 0.185753
O O15 0.444024 0.242343 0.002298
O O16 0.197032 0.500000 0.717942
O O17 0.267142 0.237180 0.755692
O O18 0.359171 0.500000 0.845669
#
# Coordination Sequence:
#
# PCOD9205389 Si02
#       7
#     8   8   8   8   8   8   8
#     4  11  24  39  58  87 124 163 202 250 302 354
#     4  10  22  42  66  92 120 154 198 244 293 360
#     4  10  21  35  55  80 114 158 201 245 294 351
#     4  10  22  41  65  92 123 155 189 243 305 359
#     4   8  14  28  48  75 106 143 191 241 289 337
#     4  11  22  36  59  88 118 159 202 246 295 358
#     4   8  15  27  49  78 109 143 189 243 287 337
#
# _framework density 22.389509
#
# number of rings (size 3 to 8) (size 9 to 14) (size 15 to 20)
#    0.000    2.286    0.000    3.429    2.000    4.571 
#    0.000    2.857    0.000    0.000    0.000    5.000 
#    0.000    0.000    0.000    0.000    0.000    0.000 
#
# Total GULP energy -156413.237089 kJ/mol
# GULP energy per Si atom -5586.187039 kJ/mol
# Density = 2.233855 g / cm^3
# Si number density = 22.389509 Si / 1000 Ang^3
#
#
#
# Elastic Constant Matrix: (Units=GPa)
#
#
# Indices 1 2 3 4 5 6 
#
# 1 49.1181 1.6168 20.1520 0.0000 -23.4561 0.0000
# 2 1.6168 34.7601 -1.2306 0.0000 -2.1401 0.0000
# 3 20.1520 -1.2306 67.2898 0.0000 -20.2706 0.0000
# 4 0.0000 0.0000 0.0000 21.0509 0.0000 1.5855
# 5 -23.4561 -2.1401 -20.2706 0.0000 40.5613 0.0000
# 6 0.0000 0.0000 0.0000 1.5855 0.0000 15.0094
#
#
#
# Elastic Compliance Matrix: (Units=1/GPa)
#
#
# Indices 1 2 3 4 5 6 
#
# 1 0.029158 -0.000606 -0.004325 0.000000 0.014669 0.000000
# 2 -0.000606 0.028952 0.001254 0.000000 0.001804 0.000000
# 3 -0.004325 0.001254 0.018183 0.000000 0.006652 0.000000
# 4 0.000000 0.000000 0.000000 0.047885 0.000000 -0.005058
# 5 0.014669 0.001804 0.006652 0.000000 0.036556 0.000000
# 6 0.000000 0.000000 0.000000 -0.005058 0.000000 0.067159
#
#
# Mechanical properties :
#
#
# Convention : Reuss Voigt Hill
#
# Bulk Modulus (GPa) = 14.50517 21.36049 17.93283
# Shear Modulus (GPa) = 19.36277 24.03296 21.69787
#
# Velocity S-wave (km/s) = 2.94396 3.27984 3.11643
# Velocity P-wave (km/s) = 4.24835 4.88919 4.58000
#
# Compressibility (1/GPa) = 0.06894094
#
# Stress axis : x y z
#
# Youngs Moduli (GPa) = 34.29560 34.53960 54.99603
#
# Poissons Ratio (x) = 0.02094 0.23783
# Poissons Ratio (y) = 0.02079 -0.06899
# Poissons Ratio (z) = 0.14831 -0.04333
#
# Static dielectric constant tensor:
#      x y z
#    x 1.815610 0.000000 0.005700 
#    y 0.000000 1.784240 0.000000 
#    z 0.005700 0.000000 1.847560 
# 
# From -- ./inp_files/329632.got.cif
#   From: 2010.05.17/outbox.cif.g08.bks.cpg/sg12_165_cif.got.tgz:329632.got - 2010.06.03 13:09:07.
