data_PCOD9205824
_publ_section_title
;
Structure prediction by ZEFSAII (Michael W. Deem and Ramdas Pophale) SiO2 
 PCOD9205824
Probable space group: C 2/M
;
_chemical_formula_sum "Si O2"
_cell_formula_units_Z 60
_cell_length_a 5.573052
_cell_length_b 28.433276
_cell_length_c 21.596277
_cell_angle_alpha 90.000000
_cell_angle_beta 95.592319
_cell_angle_gamma 90.000000
_cell_volume 3405.860958
_symmetry_space_group_name_H-M "C 2/M"
_symmetry_group_IT_number 12
_symmetry_cell_setting 'monoclinic'
loop_
_space_group_symop_operation_xyz
x,y,z
-x,y,-z
-x,-y,-z
x,-y,z
1/2+x,1/2+y,z
1/2-x,1/2+y,-z
1/2-x,1/2-y,-z
1/2+x,1/2-y,z
loop_
_atom_site_type_symbol
_atom_site_label
_atom_site_fract_x
_atom_site_fract_y
_atom_site_fract_z
Si Si1 0.482455 0.443680 0.367320
Si Si2 0.000000 0.790900 0.000000
Si Si3 0.496291 0.057139 0.572659
Si Si4 0.013811 0.052720 0.112084
Si Si5 0.219407 0.553547 0.233980
Si Si6 0.716458 0.274465 0.133586
Si Si7 0.902673 0.375061 0.164868
Si Si8 0.705862 0.871398 0.055111
O O1 0.493556 0.500000 0.378542
O O2 0.750723 0.426083 0.390735
O O3 0.403937 0.437237 0.294309
O O4 0.253402 0.426155 0.402034
O O5 0.814354 0.770823 0.943261
O O6 0.142804 0.826725 0.959673
O O7 0.500000 0.068256 0.500000
O O8 0.493335 0.000000 0.578418
O O9 0.864861 0.052098 0.173085
O O10 0.850789 0.080370 0.059789
O O11 0.244547 0.084739 0.128470
O O12 0.075075 0.000000 0.096281
O O13 0.115462 0.500000 0.240728
O O14 0.026106 0.595985 0.224046
O O15 0.471664 0.251123 0.152946
O O16 0.747006 0.327297 0.162269
O O17 0.109161 0.362225 0.121159
O O18 0.500000 0.875065 0.000000
#
# Coordination Sequence:
#
# PCOD9205824 Si02
#       8
#     8   4   8   8   8   8   8   8
#     4   9  17  28  44  69  97 131 181 222 249 293
#     4  12  22  40  57  78  98 126 155 212 260 328
#     4   9  16  26  41  64  99 139 176 219 258 284
#     4  10  21  36  54  73  97 134 173 215 265 311
#     4   9  20  34  53  76 100 137 179 223 262 295
#     4  12  26  40  61  84 101 129 164 204 266 327
#     4  11  22  37  56  73 106 126 165 219 261 318
#     4  11  20  36  56  74 100 129 158 203 268 321
#
# _framework density 17.616692
#
# number of rings (size 3 to 8) (size 9 to 14) (size 15 to 20)
#    0.000    1.733    2.667    2.000    3.733    2.400 
#    0.000    2.333    0.000    0.000    0.000    0.000 
#    0.000    0.000    0.000    0.000    0.000   13.333 
#
# Total GULP energy -167220.410687 kJ/mol
# GULP energy per Si atom -5574.013690 kJ/mol
# Density = 1.757660 g / cm^3
# Si number density = 17.616692 Si / 1000 Ang^3
#
#
#
# Elastic Constant Matrix: (Units=GPa)
#
#
# Indices 1 2 3 4 5 6 
#
# 1 82.6205 37.6970 7.0327 0.0000 15.9353 0.0000
# 2 37.6970 95.0968 11.6713 0.0000 12.1153 0.0000
# 3 7.0327 11.6713 33.5757 0.0000 11.4065 0.0000
# 4 0.0000 0.0000 0.0000 -0.8395 0.0000 -0.0165
# 5 15.9353 12.1153 11.4065 0.0000 22.5685 0.0000
# 6 0.0000 0.0000 0.0000 -0.0165 0.0000 22.2243
#
#
#
# Elastic Compliance Matrix: (Units=1/GPa)
#
#
# Indices 1 2 3 4 5 6 
#
# 1 0.016263 -0.005455 0.001686 0.000000 -0.009407 0.000000
# 2 -0.005455 0.013260 -0.002846 0.000000 -0.001828 0.000000
# 3 0.001686 -0.002846 0.036587 0.000000 -0.018154 0.000000
# 4 0.000000 0.000000 0.000000 -1.191169 0.000000 -0.000886
# 5 -0.009407 -0.001828 -0.018154 0.000000 0.061108 0.000000
# 6 0.000000 0.000000 0.000000 -0.000886 0.000000 0.044995
#
#
# Mechanical properties :
#
#
# Convention : Reuss Voigt Hill
#
# Bulk Modulus (GPa) = 18.91080 36.01055 27.46068
# Shear Modulus (GPa) = -5.06023 19.11680 7.02828
#
# Velocity S-wave (km/s) = -1.69666 3.29774 1.99955
# Velocity P-wave (km/s) = 2.63053 5.91487 4.57741
#
# Compressibility (1/GPa) = 0.05287984
#
# Stress axis : x y z
#
# Youngs Moduli (GPa) = 61.48738 75.41288 27.33206
#
# Poissons Ratio (x) = 0.41141 -0.04607
# Poissons Ratio (y) = 0.33544 0.07778
# Poissons Ratio (z) = -0.10364 0.21460
#
# Static dielectric constant tensor:
#      x y z
#    x 1.708770 0.000000 -0.006300 
#    y 0.000000 1.637080 0.000000 
#    z -0.006300 0.000000 1.595670 
# 
# From -- ./inp_files/298098.got.cif
#   From: 2010.05.17/outbox.cif.g08.bks.cpg/sg12_150_cif.got.tgz:298098.got - 2010.06.03 13:09:07.
