data_PCOD9205996
_publ_section_title
;
Structure prediction by ZEFSAII (Michael W. Deem and Ramdas Pophale) SiO2 
 PCOD9205996
Probable space group: C 2/M
;
_chemical_formula_sum "Si O2"
_cell_formula_units_Z 48
_cell_length_a 24.177564
_cell_length_b 7.536421
_cell_length_c 17.137788
_cell_angle_alpha 90.000000
_cell_angle_beta 46.527278
_cell_angle_gamma 90.000000
_cell_volume 2266.161117
_symmetry_space_group_name_H-M "C 2/M"
_symmetry_group_IT_number 12
_symmetry_cell_setting 'monoclinic'
loop_
_space_group_symop_operation_xyz
x,y,z
-x,y,-z
-x,-y,-z
x,-y,z
1/2+x,1/2+y,z
1/2-x,1/2+y,-z
1/2-x,1/2-y,-z
1/2+x,1/2-y,z
loop_
_atom_site_type_symbol
_atom_site_label
_atom_site_fract_x
_atom_site_fract_y
_atom_site_fract_z
Si Si1 0.827757 0.707636 0.025479
Si Si2 0.583559 0.704254 0.908447
Si Si3 0.155294 0.285103 0.167908
Si Si4 0.191076 0.791088 0.670253
Si Si5 0.854776 0.715278 0.458866
Si Si6 0.505029 0.783034 0.405325
O O1 0.846831 0.500000 0.009160
O O2 0.873001 0.794967 0.051698
O O3 0.736837 0.728786 0.122583
O O4 0.847728 0.775941 0.919344
O O5 0.570498 0.500000 0.895542
O O6 0.638927 0.785808 0.789336
O O7 0.500000 0.786123 0.000000
O O8 0.155468 0.500000 0.166465
O O9 0.082929 0.225805 0.287907
O O10 0.150303 0.771185 0.626288
O O11 0.276842 0.719705 0.575695
O O12 0.201203 0.000000 0.677450
O O13 0.853776 0.500000 0.460475
O O14 0.930790 0.773732 0.428949
O O15 0.500000 0.726733 0.500000
O O16 0.505357 0.000000 0.404693
#
# Coordination Sequence:
#
# PCOD9205996 Si02
#       6
#     8   8   8   8   8   8
#     4  10  21  36  55  81 108 139 179 220 266 313
#     4  10  22  37  55  80 108 142 181 217 262 318
#     4   9  19  36  57  79 107 142 177 216 266 320
#     4   9  19  35  54  77 105 140 176 213 262 315
#     4   9  18  33  55  80 104 135 176 218 260 308
#     4   9  18  31  54  83 105 134 177 218 257 310
#
# _framework density 21.181194000000001
#
# number of rings (size 3 to 8) (size 9 to 14) (size 15 to 20)
#    0.000    2.667    0.000    0.500    4.667    1.667 
#    0.000    0.833    0.000    1.000    0.000    0.000 
#    0.000    0.000    0.000    0.000    0.000    0.000 
#
# Total GULP energy -133998.751358 kJ/mol
# GULP energy per Si atom -5583.281307 kJ/mol
# Density = 2.113298 g / cm^3
# Si number density = 21.181194 Si / 1000 Ang^3
#
#
#
# Elastic Constant Matrix: (Units=GPa)
#
#
# Indices 1 2 3 4 5 6 
#
# 1 118.0872 -18.7366 88.0496 0.0013 -12.0092 -0.0008
# 2 -18.7366 51.8519 -2.0774 -0.0093 -0.2503 -0.0098
# 3 88.0496 -2.0774 179.6604 0.0049 -9.2735 -0.0009
# 4 0.0013 -0.0093 0.0049 -2.5290 0.0019 1.0726
# 5 -12.0092 -0.2503 -9.2735 0.0019 13.6238 -0.0018
# 6 -0.0008 -0.0098 -0.0009 1.0726 -0.0018 17.5970
#
#
#
# Elastic Compliance Matrix: (Units=1/GPa)
#
#
# Indices 1 2 3 4 5 6 
#
# 1 0.015504 0.005362 -0.007075 -0.000017 0.008950 0.000005
# 2 0.005362 0.021153 -0.002197 -0.000070 0.003620 0.000016
# 3 -0.007075 -0.002197 0.009000 0.000021 -0.000150 -0.000002
# 4 -0.000017 -0.000070 0.000021 -0.385454 0.000056 0.023494
# 5 0.008950 0.003620 -0.000150 0.000056 0.081255 0.000007
# 6 0.000005 0.000016 -0.000002 0.023494 0.000007 0.055396
#
#
# Mechanical properties :
#
#
# Convention : Reuss Voigt Hill
#
# Bulk Modulus (GPa) = 26.42739 53.78563 40.10651
# Shear Modulus (GPa) = -27.36499 24.56262 -1.40118
#
# Velocity S-wave (km/s) = -3.59827 3.40905 -0.81422
# Velocity P-wave (km/s) = 2.18162 6.39873 4.25348
#
# Compressibility (1/GPa) = 0.03783953
#
# Stress axis : x y z
#
# Youngs Moduli (GPa) = 64.49816 47.27511 111.11051
#
# Poissons Ratio (x) = -0.25350 0.78605
# Poissons Ratio (y) = -0.34585 0.24406
# Poissons Ratio (z) = 0.45629 0.10384
#
# Static dielectric constant tensor:
#      x y z
#    x 1.699150 0.000000 -0.010300 
#    y 0.000000 1.803090 0.000000 
#    z -0.010300 0.000000 1.768140 
# 
# From -- ./inp_files/280780.got.cif
#   From: 2010.05.17/outbox.cif.g08.bks.cpg/sg12_141_cif.got.tgz:280780.got - 2010.06.03 13:09:07.
