data_PCOD9205979
_publ_section_title
;
Structure prediction by ZEFSAII (Michael W. Deem and Ramdas Pophale) SiO2 
 PCOD9205979
Probable space group: C 2/M
;
_chemical_formula_sum "Si O2"
_cell_formula_units_Z 56
_cell_length_a 10.023553
_cell_length_b 7.549074
_cell_length_c 32.508463
_cell_angle_alpha 90.000000
_cell_angle_beta 110.492006
_cell_angle_gamma 90.000000
_cell_volume 2304.210154
_symmetry_space_group_name_H-M "C 2/M"
_symmetry_group_IT_number 12
_symmetry_cell_setting 'monoclinic'
loop_
_space_group_symop_operation_xyz
x,y,z
-x,y,-z
-x,-y,-z
x,-y,z
1/2+x,1/2+y,z
1/2-x,1/2+y,-z
1/2-x,1/2-y,-z
1/2+x,1/2-y,z
loop_
_atom_site_type_symbol
_atom_site_label
_atom_site_fract_x
_atom_site_fract_y
_atom_site_fract_z
Si Si1 0.823037 0.785120 0.311569
Si Si2 0.738547 0.793190 0.821950
Si Si3 0.411396 0.288127 0.028600
Si Si4 0.453642 0.715515 0.125891
Si Si5 0.515233 0.793584 0.260001
Si Si6 0.314137 0.715400 0.405654
Si Si7 0.381088 0.298036 0.543253
O O1 0.674893 0.721158 0.274835
O O2 0.957340 0.718825 0.300344
O O3 0.818044 0.730861 0.358536
O O4 0.825774 0.000000 0.310915
O O5 0.680152 0.778605 0.862089
O O6 0.612040 0.711876 0.780814
O O7 0.898353 0.721011 0.837536
O O8 0.749395 0.000000 0.811872
O O9 0.434660 0.500000 0.032688
O O10 0.447436 0.222590 0.078141
O O11 0.500000 0.214695 0.000000
O O12 0.250000 0.250000 0.000000
O O13 0.452998 0.500000 0.126269
O O14 0.526559 0.000000 0.249777
O O15 0.309807 0.500000 0.406266
O O16 0.461832 0.784453 0.441983
O O17 0.179827 0.778989 0.417231
O O18 0.408248 0.500000 0.536310
O O19 0.250000 0.250000 0.500000
#
# Coordination Sequence:
#
# PCOD9205979 Si02
#       7
#     8   8   8   8   8   8   8
#     4  10  21  37  57  82 112 145 181 223 270 319
#     4  10  21  37  56  80 111 144 179 222 269 317
#     4  10  21  37  56  79 108 141 178 222 270 320
#     4  10  21  36  55  80 108 141 181 221 266 321
#     4  10  21  36  56  83 111 142 182 223 266 319
#     4  10  22  39  57  81 113 145 181 225 270 321
#     4  11  23  38  58  83 110 144 184 225 273 325
#
# _framework density 24.303339000000001
#
# number of rings (size 3 to 8) (size 9 to 14) (size 15 to 20)
#    0.000    1.857    0.000    3.429    0.000    7.143 
#    0.000    0.000    0.000    0.000    0.000    0.000 
#    0.000    0.000    0.000    0.000    0.000    0.000 
#
# Total GULP energy -156605.110533 kJ/mol
# GULP energy per Si atom -5593.039662 kJ/mol
# Density = 2.424802 g / cm^3
# Si number density = 24.303339 Si / 1000 Ang^3
#
#
#
# Elastic Constant Matrix: (Units=GPa)
#
#
# Indices 1 2 3 4 5 6 
#
# 1 108.1223 -14.2860 -13.5981 0.0000 3.3069 0.0000
# 2 -14.2860 62.1352 0.4407 0.0000 7.8223 0.0000
# 3 -13.5981 0.4407 71.0114 0.0000 0.3680 0.0000
# 4 0.0000 0.0000 0.0000 17.6386 0.0000 -8.2874
# 5 3.3069 7.8223 0.3680 0.0000 47.3093 0.0000
# 6 0.0000 0.0000 0.0000 -8.2874 0.0000 15.5500
#
#
#
# Elastic Compliance Matrix: (Units=1/GPa)
#
#
# Indices 1 2 3 4 5 6 
#
# 1 0.009833 0.002386 0.001874 0.000000 -0.001096 0.000000
# 2 0.002386 0.017015 0.000367 0.000000 -0.002983 0.000000
# 3 0.001874 0.000367 0.014440 0.000000 -0.000304 0.000000
# 4 0.000000 0.000000 0.000000 0.075633 0.000000 0.040309
# 5 -0.001096 -0.002983 -0.000304 0.000000 0.021710 0.000000
# 6 0.000000 0.000000 0.000000 0.040309 0.000000 0.085791
#
#
# Mechanical properties :
#
#
# Convention : Reuss Voigt Hill
#
# Bulk Modulus (GPa) = 19.78588 20.70912 20.24750
# Shear Modulus (GPa) = 21.55013 34.01374 27.78193
#
# Velocity S-wave (km/s) = 2.98101 3.74511 3.38469
# Velocity P-wave (km/s) = 4.47297 5.21927 4.86046
#
# Compressibility (1/GPa) = 0.05054108
#
# Stress axis : x y z
#
# Youngs Moduli (GPa) = 101.69650 58.77045 69.25030
#
# Poissons Ratio (x) = -0.14020 -0.12976
# Poissons Ratio (y) = -0.24260 -0.02539
# Poissons Ratio (z) = -0.19056 -0.02155
#
# Static dielectric constant tensor:
#      x y z
#    x 1.893350 0.000000 0.021960 
#    y 0.000000 1.895200 0.000000 
#    z 0.021960 0.000000 1.981190 
# 
# From -- ./inp_files/373630.got.cif
#   From: 2010.05.17/outbox.cif.g08.bks.cpg/sg12_187_cif.got.tgz:373630.got - 2010.06.03 13:09:07.
