data_PCOD9205837
_publ_section_title
;
Structure prediction by ZEFSAII (Michael W. Deem and Ramdas Pophale) SiO2 
 PCOD9205837
Probable space group: C 2/M
;
_chemical_formula_sum "Si O2"
_cell_formula_units_Z 40
_cell_length_a 19.660313
_cell_length_b 9.065498
_cell_length_c 14.010049
_cell_angle_alpha 90.000000
_cell_angle_beta 112.503258
_cell_angle_gamma 90.000000
_cell_volume 2306.889883
_symmetry_space_group_name_H-M "C 2/M"
_symmetry_group_IT_number 12
_symmetry_cell_setting 'monoclinic'
loop_
_space_group_symop_operation_xyz
x,y,z
-x,y,-z
-x,-y,-z
x,-y,z
1/2+x,1/2+y,z
1/2-x,1/2+y,-z
1/2-x,1/2-y,-z
1/2+x,1/2-y,z
loop_
_atom_site_type_symbol
_atom_site_label
_atom_site_fract_x
_atom_site_fract_y
_atom_site_fract_z
Si Si1 0.332621 0.823846 0.221221
Si Si2 0.100824 0.325693 0.946954
Si Si3 0.051532 0.324457 0.242654
Si Si4 0.024384 0.823903 0.620652
Si Si5 0.336610 0.675940 0.832581
O O1 0.394375 0.737842 0.313291
O O2 0.249741 0.786687 0.205518
O O3 0.344220 0.000000 0.239799
O O4 0.347865 0.793797 0.117326
O O5 0.106753 0.500000 0.973414
O O6 0.017821 0.297776 0.865967
O O7 0.124295 0.231683 0.049903
O O8 0.058628 0.500000 0.257168
O O9 0.122987 0.254047 0.233507
O O10 0.028806 0.251653 0.330314
O O11 0.000000 0.789692 0.500000
O O12 0.023162 0.000000 0.633132
O O13 0.343516 0.500000 0.828291
#
# Coordination Sequence:
#
# PCOD9205837 Si02
#       5
#     8   8   8   8   8
#     4   9  20  36  53  77 108 141 176 213 255 308
#     4   9  18  33  51  73 105 145 183 213 249 303
#     4  10  21  36  54  77 106 141 178 213 255 309
#     4  10  21  38  60  82 101 126 168 220 267 314
#     4  11  21  32  50  79 112 142 175 215 256 300
#
# _framework density 17.339362999999999
#
# number of rings (size 3 to 8) (size 9 to 14) (size 15 to 20)
#    0.000    2.200    0.000    4.200    0.000    9.600 
#    0.000    1.000    0.000    0.000    0.000    0.000 
#    0.000    0.000    0.000    0.000    0.000    0.000 
#
# Total GULP energy -111684.455182 kJ/mol
# GULP energy per Si atom -5584.222759 kJ/mol
# Density = 1.729990 g / cm^3
# Si number density = 17.339363 Si / 1000 Ang^3
#
#
#
# Elastic Constant Matrix: (Units=GPa)
#
#
# Indices 1 2 3 4 5 6 
#
# 1 141.3521 59.2895 42.1743 0.0000 -10.6430 0.0000
# 2 59.2895 58.3893 50.2210 0.0000 -10.0131 0.0000
# 3 42.1743 50.2210 81.6323 0.0000 -18.4719 0.0000
# 4 0.0000 0.0000 0.0000 29.2818 0.0000 -0.2089
# 5 -10.6430 -10.0131 -18.4719 0.0000 7.2474 0.0000
# 6 0.0000 0.0000 0.0000 -0.2089 0.0000 31.6444
#
#
#
# Elastic Compliance Matrix: (Units=1/GPa)
#
#
# Indices 1 2 3 4 5 6 
#
# 1 0.013050 -0.016413 0.006049 0.000000 0.011907 0.000000
# 2 -0.016413 0.057819 -0.034185 0.000000 -0.031347 0.000000
# 3 0.006049 -0.034185 0.050745 0.000000 0.090989 0.000000
# 4 0.000000 0.000000 0.000000 0.034153 0.000000 0.000225
# 5 0.011907 -0.031347 0.090989 0.000000 0.344062 0.000000
# 6 0.000000 0.000000 0.000000 0.000225 0.000000 0.031603
#
#
# Mechanical properties :
#
#
# Convention : Reuss Voigt Hill
#
# Bulk Modulus (GPa) = 30.75261 64.97147 47.86204
# Shear Modulus (GPa) = 7.91933 22.28065 15.09999
#
# Velocity S-wave (km/s) = 2.13943 3.58854 2.95422
# Velocity P-wave (km/s) = 4.88642 7.39744 6.26894
#
# Compressibility (1/GPa) = 0.03251757
#
# Stress axis : x y z
#
# Youngs Moduli (GPa) = 76.62602 17.29541 19.70655
#
# Poissons Ratio (x) = 0.28386 -0.11921
# Poissons Ratio (y) = 1.25764 0.67366
# Poissons Ratio (z) = -0.46352 0.59124
#
# Static dielectric constant tensor:
#      x y z
#    x 1.591330 0.000000 -0.002380 
#    y 0.000000 1.574140 0.000000 
#    z -0.002380 0.000000 1.554260 
# 
# From -- ./inp_files/221222.got.cif
#   From: 2010.05.17/outbox.cif.g08.bks.cpg/sg12_111_cif.got.tgz:221222.got - 2010.06.03 13:09:07.
