data_PCOD9205270
_publ_section_title
;
Structure prediction by ZEFSAII (Michael W. Deem and Ramdas Pophale) SiO2 
 PCOD9205270
Probable space group: C 2/M
;
_chemical_formula_sum "Si O2"
_cell_formula_units_Z 48
_cell_length_a 13.147657
_cell_length_b 29.228939
_cell_length_c 15.010540
_cell_angle_alpha 90.000000
_cell_angle_beta 28.849573
_cell_angle_gamma 90.000000
_cell_volume 2783.335556
_symmetry_space_group_name_H-M "C 2/M"
_symmetry_group_IT_number 12
_symmetry_cell_setting 'monoclinic'
loop_
_space_group_symop_operation_xyz
x,y,z
-x,y,-z
-x,-y,-z
x,-y,z
1/2+x,1/2+y,z
1/2-x,1/2+y,-z
1/2-x,1/2-y,-z
1/2+x,1/2-y,z
loop_
_atom_site_type_symbol
_atom_site_label
_atom_site_fract_x
_atom_site_fract_y
_atom_site_fract_z
Si Si1 0.830990 0.127655 0.499998
Si Si2 0.828713 0.708131 0.499998
Si Si3 0.291155 0.555698 0.208844
Si Si4 0.282279 0.157717 0.217719
Si Si5 0.830614 0.554944 0.499997
Si Si6 0.282998 0.731920 0.216999
O O1 0.737315 0.162714 0.499998
O O2 0.725717 0.137700 0.676417
O O3 0.778322 0.078460 0.500002
O O4 0.078554 0.137699 0.323576
O O5 0.750000 0.750000 0.500000
O O6 0.724554 0.712582 0.677256
O O7 0.079070 0.712582 0.322735
O O8 0.294212 0.500000 0.205787
O O9 0.276077 0.568903 0.324066
O O10 0.075796 0.568903 0.324060
O O11 0.500000 0.572648 0.000000
O O12 0.256916 0.212863 0.243080
O O13 0.500000 0.148168 0.000000
O O14 0.822701 0.500000 0.499996
O O15 0.500000 0.722159 0.000000
#
# Coordination Sequence:
#
# PCOD9205270 Si02
#       6
#     8   8   8   8   8   8
#     4  11  21  36  56  77 104 138 175 220 259 307
#     4  11  19  35  54  77 105 136 171 213 258 305
#     4   8  15  31  53  76 105 137 167 205 257 314
#     4  10  21  37  54  75 103 140 178 212 261 316
#     4   9  19  34  54  79 105 140 177 210 258 309
#     4  10  21  35  53  79 110 138 172 214 258 312
#
# _framework density 17.245495999999999
#
# number of rings (size 3 to 8) (size 9 to 14) (size 15 to 20)
#    0.000    2.167    3.333    2.000    0.000    6.000 
#    0.000    3.333    0.000    1.000    0.000    0.000 
#    0.000    0.000    0.000    0.000    0.000    0.000 
#
# Total GULP energy -133914.066758 kJ/mol
# GULP energy per Si atom -5579.752782 kJ/mol
# Density = 1.720624 g / cm^3
# Si number density = 17.245496 Si / 1000 Ang^3
#
#
#
# Elastic Constant Matrix: (Units=GPa)
#
#
# Indices 1 2 3 4 5 6 
#
# 1 137.3862 43.3470 80.8950 0.0000 -3.2807 0.0001
# 2 43.3470 44.3537 34.5708 0.0000 -0.6213 0.0000
# 3 80.8950 34.5708 173.1254 -0.0001 5.7877 0.0003
# 4 0.0000 0.0000 -0.0001 12.7265 0.0000 -1.0521
# 5 -3.2807 -0.6213 5.7877 0.0000 5.6778 -0.0001
# 6 0.0001 0.0000 0.0003 -1.0521 -0.0001 27.6330
#
#
#
# Elastic Compliance Matrix: (Units=1/GPa)
#
#
# Indices 1 2 3 4 5 6 
#
# 1 0.013200 -0.009040 -0.004746 0.000000 0.011476 0.000000
# 2 -0.009040 0.033310 -0.002459 0.000000 0.000928 0.000000
# 3 -0.004746 -0.002459 0.008888 0.000000 -0.012072 0.000000
# 4 0.000000 0.000000 0.000000 0.078824 -0.000001 0.003001
# 5 0.011476 0.000928 -0.012072 -0.000001 0.195163 0.000001
# 6 0.000000 0.000000 0.000000 0.003001 0.000001 0.036303
#
#
# Mechanical properties :
#
#
# Convention : Reuss Voigt Hill
#
# Bulk Modulus (GPa) = 43.65149 74.72121 59.18635
# Shear Modulus (GPa) = 12.32092 22.27761 17.29926
#
# Velocity S-wave (km/s) = 2.67581 3.59805 3.17064
# Velocity P-wave (km/s) = 5.90875 7.78995 6.91363
#
# Compressibility (1/GPa) = 0.02290873
#
# Stress axis : x y z
#
# Youngs Moduli (GPa) = 75.75977 30.02094 112.50655
#
# Poissons Ratio (x) = 0.27139 0.53398
# Poissons Ratio (y) = 0.68487 0.27660
# Poissons Ratio (z) = 0.35957 0.07381
#
# Static dielectric constant tensor:
#      x y z
#    x 1.562180 0.000000 0.001080 
#    y 0.000000 1.605210 0.000000 
#    z 0.001080 0.000000 1.577530 
# 
# From -- ./inp_files/209304.got.cif
#   From: 2010.05.17/outbox.cif.g08.bks.cpg/sg12_105_cif.got.tgz:209304.got - 2010.06.03 13:09:07.
