data_PCOD9205137
_publ_section_title
;
Structure prediction by ZEFSAII (Michael W. Deem and Ramdas Pophale) SiO2 
 PCOD9205137
Probable space group: C 2/M
;
_chemical_formula_sum "Si O2"
_cell_formula_units_Z 48
_cell_length_a 18.567775
_cell_length_b 22.628533
_cell_length_c 10.932091
_cell_angle_alpha 90.000000
_cell_angle_beta 23.150807
_cell_angle_gamma 90.000000
_cell_volume 1805.845826
_symmetry_space_group_name_H-M "C 2/M"
_symmetry_group_IT_number 12
_symmetry_cell_setting 'monoclinic'
loop_
_space_group_symop_operation_xyz
x,y,z
-x,y,-z
-x,-y,-z
x,-y,z
1/2+x,1/2+y,z
1/2-x,1/2+y,-z
1/2-x,1/2-y,-z
1/2+x,1/2-y,z
loop_
_atom_site_type_symbol
_atom_site_label
_atom_site_fract_x
_atom_site_fract_y
_atom_site_fract_z
Si Si1 0.854582 0.767247 0.613851
Si Si2 0.112422 0.433530 0.194617
Si Si3 0.202971 0.432465 0.635343
Si Si4 0.430182 0.429922 0.840845
Si Si5 0.206572 0.364363 0.397609
Si Si6 0.960457 0.768966 0.197762
O O1 0.836184 0.697973 0.600998
O O2 0.944737 0.798956 0.355308
O O3 0.000000 0.771575 0.500000
O O4 0.630969 0.777510 0.959317
O O5 0.124416 0.500000 0.130377
O O6 0.000000 0.433127 0.500000
O O7 0.988962 0.396516 0.300356
O O8 0.311190 0.408170 0.912877
O O9 0.224710 0.500000 0.548850
O O10 0.353663 0.428301 0.506099
O O11 0.255199 0.380548 0.460407
O O12 0.000000 0.426192 0.000000
O O13 0.380362 0.500000 0.930532
O O14 0.348480 0.398509 0.088233
O O15 0.750000 0.750000 0.500000
O O16 0.000000 0.794804 0.000000
#
# Coordination Sequence:
#
# PCOD9205137 Si02
#       6
#     8   8   8   8   8   8
#     4  11  22  39  64  91 119 152 194 244 302 366
#     4   8  14  27  48  75 106 137 175 226 274 316
#     4  10  21  35  50  75 115 159 198 238 286 336
#     4   9  17  31  52  77 107 146 191 235 278 326
#     4  11  20  32  55  84 110 142 189 238 282 336
#     4   9  21  41  63  87 115 149 190 238 299 363
#
# _framework density 26.580342000000002
#
# number of rings (size 3 to 8) (size 9 to 14) (size 15 to 20)
#    0.000    2.333    0.000    5.000    0.000    6.000 
#    0.000    2.500    0.000    8.000    0.000    0.000 
#    0.000    0.000    0.000    0.000    0.000    0.000 
#
# Total GULP energy -133832.163233 kJ/mol
# GULP energy per Si atom -5576.340135 kJ/mol
# Density = 2.651984 g / cm^3
# Si number density = 26.580342 Si / 1000 Ang^3
#
#
#
# Elastic Constant Matrix: (Units=GPa)
#
#
# Indices 1 2 3 4 5 6 
#
# 1 178.4341 11.4023 59.4449 0.0038 -39.5507 -0.0045
# 2 11.4023 85.2903 30.7961 0.0008 0.6713 -0.0037
# 3 59.4449 30.7961 160.3166 -0.0100 -36.1208 -0.0055
# 4 0.0038 0.0008 -0.0100 23.5986 -0.0127 6.5194
# 5 -39.5507 0.6713 -36.1208 -0.0127 59.0428 0.0117
# 6 -0.0045 -0.0037 -0.0055 6.5194 0.0117 21.0417
#
#
#
# Elastic Compliance Matrix: (Units=1/GPa)
#
#
# Indices 1 2 3 4 5 6 
#
# 1 0.007005 -0.000349 -0.001708 0.000000 0.003652 -0.000001
# 2 -0.000349 0.012799 -0.002801 -0.000004 -0.002093 0.000004
# 3 -0.001708 -0.002801 0.008303 0.000007 0.003967 -0.000003
# 4 0.000000 -0.000004 0.000007 0.046342 0.000017 -0.014358
# 5 0.003652 -0.002093 0.003967 0.000017 0.021834 -0.000016
# 6 -0.000001 0.000004 -0.000003 -0.014358 -0.000016 0.051973
#
#
# Mechanical properties :
#
#
# Convention : Reuss Voigt Hill
#
# Bulk Modulus (GPa) = 54.37021 69.70307 62.03664
# Shear Modulus (GPa) = 30.46901 42.22980 36.34940
#
# Velocity S-wave (km/s) = 3.38938 3.99025 3.70202
# Velocity P-wave (km/s) = 5.98470 6.89274 6.45471
#
# Compressibility (1/GPa) = 0.01839243
#
# Stress axis : x y z
#
# Youngs Moduli (GPa) = 142.75752 78.13081 120.44161
#
# Poissons Ratio (x) = 0.02724 0.20568
# Poissons Ratio (y) = 0.04977 0.33734
# Poissons Ratio (z) = 0.24379 0.21883
#
# Static dielectric constant tensor:
#      x y z
#    x 2.093130 -0.000010 -0.046670 
#    y -0.000010 2.248720 0.000030 
#    z -0.046670 0.000030 2.161000 
# 
# From -- ./inp_files/170803.got.cif
#   From: 2010.05.17/outbox.cif.g08.bks.cpg/sg12_86_cif.got.tgz:170803.got - 2010.06.03 13:09:07.
