data_PCOD9205020
_publ_section_title
;
Structure prediction by ZEFSAII (Michael W. Deem and Ramdas Pophale) SiO2 
 PCOD9205020
Probable space group: C 2/M
;
_chemical_formula_sum "Si O2"
_cell_formula_units_Z 50
_cell_length_a 12.490062
_cell_length_b 27.901797
_cell_length_c 8.978488
_cell_angle_alpha 90.000000
_cell_angle_beta 136.398932
_cell_angle_gamma 90.000000
_cell_volume 2157.834026
_symmetry_space_group_name_H-M "C 2/M"
_symmetry_group_IT_number 12
_symmetry_cell_setting 'monoclinic'
loop_
_space_group_symop_operation_xyz
x,y,z
-x,y,-z
-x,-y,-z
x,-y,z
1/2+x,1/2+y,z
1/2-x,1/2+y,-z
1/2-x,1/2-y,-z
1/2+x,1/2-y,z
loop_
_atom_site_type_symbol
_atom_site_label
_atom_site_fract_x
_atom_site_fract_y
_atom_site_fract_z
Si Si1 0.629227 0.918793 0.441431
Si Si2 0.305813 0.183094 0.552665
Si Si3 0.344870 0.500000 0.138016
Si Si4 0.207140 0.000000 0.582978
Si Si5 0.428918 0.311171 0.175402
Si Si6 0.657327 0.593638 0.062016
Si Si7 0.500000 0.000000 0.500000
Si Si8 0.751760 0.751866 0.243267
O O1 0.602926 0.866880 0.344422
O O2 0.718193 0.902881 0.681771
O O3 0.731876 0.951782 0.435280
O O4 0.509329 0.957850 0.380350
O O5 0.337338 0.215354 0.727439
O O6 0.340012 0.213145 0.437459
O O7 0.114922 0.179194 0.361378
O O8 0.524314 0.500000 0.368256
O O9 0.254202 0.500000 0.202842
O O10 0.322644 0.545725 0.011618
O O11 0.362277 0.285862 0.255722
O O12 0.351237 0.362120 0.058847
O O13 0.364243 0.277006 0.979792
O O14 0.500000 0.591263 0.000000
#
# Coordination Sequence:
#
# PCOD9205020 Si02
#       8
#     8   8   4   4   8   8   2   8
#     4  11  22  43  67  89 127 173 218 266 335 394
#     4  11  21  41  65  94 129 177 224 266 333 391
#     4  11  21  31  56 102 129 148 201 269 341 388
#     4  10  21  34  56  94 132 153 196 274 331 390
#     4  11  21  40  63  94 138 170 220 281 317 390
#     4  12  20  37  65  93 124 169 212 271 327 395
#     4  10  26  46  64  92 128 166 222 276 312 414
#     4  10  23  37  59  99 136 175 217 276 332 386
#
# _framework density 23.171384
#
# number of rings (size 3 to 8) (size 9 to 14) (size 15 to 20)
#    0.000    1.120    4.800    2.160    2.240    0.000 
#    5.760    1.600    0.000    7.680    0.000    0.000 
#    0.000    0.000    0.000    0.000    0.000    0.000 
#
# Total GULP energy -139465.829863 kJ/mol
# GULP energy per Si atom -5578.633195 kJ/mol
# Density = 2.311864 g / cm^3
# Si number density = 23.171384 Si / 1000 Ang^3
#
#
#
# Elastic Constant Matrix: (Units=GPa)
#
#
# Indices 1 2 3 4 5 6 
#
# 1 94.3785 54.3008 10.4858 0.0000 -20.5744 0.0000
# 2 54.3008 218.6846 27.1210 0.0000 -23.6360 0.0000
# 3 10.4858 27.1210 49.6488 0.0000 -20.9340 0.0000
# 4 0.0000 0.0000 0.0000 -13.0713 0.0000 30.9387
# 5 -20.5744 -23.6360 -20.9340 0.0000 36.6739 0.0000
# 6 0.0000 0.0000 0.0000 30.9387 0.0000 -24.1780
#
#
#
# Elastic Compliance Matrix: (Units=1/GPa)
#
#
# Indices 1 2 3 4 5 6 
#
# 1 0.013492 -0.002820 0.001470 0.000000 0.006590 0.000000
# 2 -0.002820 0.005627 -0.002128 0.000000 0.000829 0.000000
# 3 0.001470 -0.002128 0.027344 0.000000 0.015061 0.000000
# 4 0.000000 0.000000 0.000000 0.037709 0.000000 0.048254
# 5 0.006590 0.000829 0.015061 0.000000 0.040096 0.000000
# 6 0.000000 0.000000 0.000000 0.048254 0.000000 0.020387
#
#
# Mechanical properties :
#
#
# Convention : Reuss Voigt Hill
#
# Bulk Modulus (GPa) = 25.31302 60.72524 43.01913
# Shear Modulus (GPa) = 30.34345 17.93853 24.14099
#
# Velocity S-wave (km/s) = 3.62266 2.78541 3.23126
# Velocity P-wave (km/s) = 5.33350 6.05050 5.70328
#
# Compressibility (1/GPa) = 0.03950536
#
# Stress axis : x y z
#
# Youngs Moduli (GPa) = 74.12052 177.72680 36.57092
#
# Poissons Ratio (x) = 0.50119 -0.05375
# Poissons Ratio (y) = 0.20902 0.07783
# Poissons Ratio (z) = -0.10895 0.37825
#
# Static dielectric constant tensor:
#      x y z
#    x 1.930190 0.000000 0.051950 
#    y 0.000000 1.874590 0.000000 
#    z 0.051950 0.000000 1.885770 
# 
# From -- ./inp_files/53384.got.cif
#   From: 2010.05.17/outbox.cif.g08.bks.cpg/sg12_27_cif.got.tgz:53384.got - 2010.06.03 13:09:07.
