data_PCOD9205321
_publ_section_title
;
Structure prediction by ZEFSAII (Michael W. Deem and Ramdas Pophale) SiO2 
 PCOD9205321
Probable space group: C 2/M
;
_chemical_formula_sum "Si O2"
_cell_formula_units_Z 44
_cell_length_a 9.922087
_cell_length_b 14.038419
_cell_length_c 21.779433
_cell_angle_alpha 90.000000
_cell_angle_beta 32.052224
_cell_angle_gamma 90.000000
_cell_volume 1609.942483
_symmetry_space_group_name_H-M "C 2/M"
_symmetry_group_IT_number 12
_symmetry_cell_setting 'monoclinic'
loop_
_space_group_symop_operation_xyz
x,y,z
-x,y,-z
-x,-y,-z
x,-y,z
1/2+x,1/2+y,z
1/2-x,1/2+y,-z
1/2-x,1/2-y,-z
1/2+x,1/2-y,z
loop_
_atom_site_type_symbol
_atom_site_label
_atom_site_fract_x
_atom_site_fract_y
_atom_site_fract_z
Si Si1 0.327797 0.000000 0.425210
Si Si2 0.848603 0.863263 0.633039
Si Si3 0.301572 0.865297 0.820876
Si Si4 0.840300 0.365665 0.622993
Si Si5 0.257383 0.363311 0.009646
Si Si6 0.285648 0.360795 0.802235
O O1 0.466100 0.082798 0.631056
O O2 0.098049 0.082310 0.518217
O O3 0.589567 0.902474 0.700559
O O4 0.859365 0.749461 0.619949
O O5 0.819290 0.877959 0.717007
O O6 0.271972 0.879382 0.905898
O O7 0.296684 0.752405 0.810908
O O8 0.043320 0.898404 0.887595
O O9 0.545237 0.394250 0.732346
O O10 0.000000 0.391979 0.500000
O O11 0.001269 0.395911 0.074209
O O12 0.250000 0.250000 0.000000
#
# Coordination Sequence:
#
# PCOD9205321 Si02
#       6
#     4   8   8   8   8   8
#     4  12  23  36  55  79 106 147 183 234 263 322
#     4  10  21  35  54  78 109 143 181 227 273 318
#     4   8  15  28  48  76 108 141 176 217 267 320
#     4  11  22  36  56  78 106 144 184 226 270 318
#     4   8  13  25  47  77 108 138 176 219 261 317
#     4   9  17  29  51  76 108 139 178 221 268 316
#
# _framework density 27.330169999999999
#
# number of rings (size 3 to 8) (size 9 to 14) (size 15 to 20)
#    0.000    2.545    1.818    0.818    0.000    0.000 
#    0.000    0.455    0.000    9.818    0.000    0.000 
#    0.000  453.818    0.000    0.000    0.000    1.455 
#
# Total GULP energy -122596.821563 kJ/mol
# GULP energy per Si atom -5572.582798 kJ/mol
# Density = 2.726796 g / cm^3
# Si number density = 27.330170 Si / 1000 Ang^3
#
#
#
# Elastic Constant Matrix: (Units=GPa)
#
#
# Indices 1 2 3 4 5 6 
#
# 1 174.0673 1.0415 87.9377 -0.0002 -60.0720 0.0013
# 2 1.0415 179.6394 19.9415 -0.0131 -37.8202 -0.0088
# 3 87.9377 19.9415 243.8234 -0.0273 -95.4741 -0.0177
# 4 -0.0002 -0.0131 -0.0273 -42.5340 0.0048 -144.2495
# 5 -60.0720 -37.8202 -95.4741 0.0048 98.7488 0.0016
# 6 0.0013 -0.0088 -0.0177 -144.2495 0.0016 -82.3576
#
#
#
# Elastic Compliance Matrix: (Units=1/GPa)
#
#
# Indices 1 2 3 4 5 6 
#
# 1 0.007722 0.000884 -0.001425 0.000000 0.003658 0.000000
# 2 0.000884 0.006224 0.000509 0.000000 0.003413 -0.000001
# 3 -0.001425 0.000509 0.006937 0.000000 0.006035 -0.000001
# 4 0.000000 0.000000 0.000000 0.004759 0.000000 -0.008336
# 5 0.003658 0.003413 0.006035 0.000000 0.019494 -0.000001
# 6 0.000000 -0.000001 -0.000001 -0.008336 -0.000001 0.002458
#
#
# Mechanical properties :
#
#
# Convention : Reuss Voigt Hill
#
# Bulk Modulus (GPa) = 48.03671 90.59683 69.31677
# Shear Modulus (GPa) = 91.57985 27.34540 59.46263
#
# Velocity S-wave (km/s) = 5.79495 3.16659 4.66951
# Velocity P-wave (km/s) = 7.89873 6.82574 7.38175
#
# Compressibility (1/GPa) = 0.02081741
#
# Stress axis : x y z
#
# Youngs Moduli (GPa) = 129.50126 160.67689 144.16338
#
# Poissons Ratio (x) = -0.14198 0.20540
# Poissons Ratio (y) = -0.11443 -0.07334
# Poissons Ratio (z) = 0.18451 -0.08174
#
# Static dielectric constant tensor:
#      x y z
#    x 2.119750 0.000370 0.041300 
#    y 0.000370 -0.602540 -0.000160 
#    z 0.041300 -0.000160 2.159420 
# 
# From -- ./inp_files/373948.got.cif
#   From: 2010.05.17/outbox.cif.g08.bks.cpg/sg12_187_cif.got.tgz:373948.got - 2010.06.03 13:09:07.
