data_PCOD9205703
_publ_section_title
;
Structure prediction by ZEFSAII (Michael W. Deem and Ramdas Pophale) SiO2 
 PCOD9205703
Probable space group: C 2/M
;
_chemical_formula_sum "Si O2"
_cell_formula_units_Z 44
_cell_length_a 13.977960
_cell_length_b 18.012898
_cell_length_c 13.504338
_cell_angle_alpha 90.000000
_cell_angle_beta 147.200455
_cell_angle_gamma 90.000000
_cell_volume 1841.877526
_symmetry_space_group_name_H-M "C 2/M"
_symmetry_group_IT_number 12
_symmetry_cell_setting 'monoclinic'
loop_
_space_group_symop_operation_xyz
x,y,z
-x,y,-z
-x,-y,-z
x,-y,z
1/2+x,1/2+y,z
1/2-x,1/2+y,-z
1/2-x,1/2-y,-z
1/2+x,1/2-y,z
loop_
_atom_site_type_symbol
_atom_site_label
_atom_site_fract_x
_atom_site_fract_y
_atom_site_fract_z
Si Si1 0.500000 0.632016 0.000000
Si Si2 0.216677 0.422583 0.893027
Si Si3 0.044674 0.726213 0.691506
Si Si4 0.274728 0.916693 0.697998
Si Si5 0.702748 0.251940 0.281613
Si Si6 0.427080 0.392680 0.268789
O O1 0.339457 0.585116 0.902627
O O2 0.447593 0.688482 0.866797
O O3 0.113037 0.500000 0.796181
O O4 0.101078 0.348498 0.793860
O O5 0.340329 0.426704 0.096743
O O6 0.171034 0.737026 0.705153
O O7 0.070465 0.806373 0.759873
O O8 0.839515 0.724134 0.484406
O O9 0.360372 0.833710 0.764802
O O10 0.189365 0.910466 0.734237
O O11 0.120787 0.913679 0.479879
O O12 0.358453 0.000000 0.765384
#
# Coordination Sequence:
#
# PCOD9205703 Si02
#       6
#     4   8   8   8   8   8
#     4  10  21  36  47  64  98 138 168 192 227 282
#     4  11  20  31  48  73  98 127 164 202 234 273
#     4   8  16  31  50  72  94 121 159 200 242 284
#     4   9  15  27  49  78 100 118 150 202 248 282
#     4   8  16  32  51  68  95 130 161 192 236 290
#     4   9  16  28  50  75  99 123 153 194 245 295
#
# _framework density 23.888667000000002
#
# number of rings (size 3 to 8) (size 9 to 14) (size 15 to 20)
#    0.000    2.909    0.000    5.182    0.000    0.000 
#    0.000   12.273    0.000    0.000    0.000   14.000 
#    0.000    0.000    0.000    0.000    0.000    0.000 
#
# Total GULP energy -122643.160305 kJ/mol
# GULP energy per Si atom -5574.689105 kJ/mol
# Density = 2.383430 g / cm^3
# Si number density = 23.888667 Si / 1000 Ang^3
#
#
#
# Elastic Constant Matrix: (Units=GPa)
#
#
# Indices 1 2 3 4 5 6 
#
# 1 90.8662 6.9531 15.0005 0.0000 -15.3930 0.0000
# 2 6.9531 248.2013 68.4719 0.0000 -10.4699 0.0000
# 3 15.0005 68.4719 56.9026 0.0000 -20.2259 0.0000
# 4 0.0000 0.0000 0.0000 -8.1456 0.0000 8.3016
# 5 -15.3930 -10.4699 -20.2259 0.0000 21.0222 0.0000
# 6 0.0000 0.0000 0.0000 8.3016 0.0000 -5.1837
#
#
#
# Elastic Compliance Matrix: (Units=1/GPa)
#
#
# Indices 1 2 3 4 5 6 
#
# 1 0.012565 0.000084 -0.000194 0.000000 0.009055 0.000000
# 2 0.000084 0.006584 -0.010269 0.000000 -0.006540 0.000000
# 3 -0.000194 -0.010269 0.042724 0.000000 0.035849 0.000000
# 4 0.000000 0.000000 0.000000 0.194206 0.000000 0.311016
# 5 0.009055 -0.006540 0.035849 0.000000 0.085433 0.000000
# 6 0.000000 0.000000 0.000000 0.311016 0.000000 0.305171
#
#
# Mechanical properties :
#
#
# Convention : Reuss Voigt Hill
#
# Bulk Modulus (GPa) = 24.32282 64.09123 44.20703
# Shear Modulus (GPa) = 7.34056 21.90823 14.62439
#
# Velocity S-wave (km/s) = 1.75485 3.03165 2.47693
# Velocity P-wave (km/s) = 3.78283 6.25635 5.16971
#
# Compressibility (1/GPa) = 0.04111365
#
# Stress axis : x y z
#
# Youngs Moduli (GPa) = 79.58738 151.89159 23.40597
#
# Poissons Ratio (x) = -0.01270 0.00455
# Poissons Ratio (y) = -0.00665 0.24035
# Poissons Ratio (z) = 0.01547 1.55973
#
# Static dielectric constant tensor:
#      x y z
#    x 1.920800 0.000000 -0.003890 
#    y 0.000000 1.934480 0.000000 
#    z -0.003890 0.000000 1.925660 
# 
# From -- ./inp_files/226644.got.cif
#   From: 2010.05.17/outbox.cif.g08.bks.cpg/sg12_114_cif.got.tgz:226644.got - 2010.06.03 13:09:07.
