data_PCOD9205585
_publ_section_title
;
Structure prediction by ZEFSAII (Michael W. Deem and Ramdas Pophale) SiO2 
 PCOD9205585
Probable space group: C 2/M
;
_chemical_formula_sum "Si O2"
_cell_formula_units_Z 56
_cell_length_a 9.805169
_cell_length_b 19.096429
_cell_length_c 15.621436
_cell_angle_alpha 90.000000
_cell_angle_beta 68.523750
_cell_angle_gamma 90.000000
_cell_volume 2721.930120
_symmetry_space_group_name_H-M "C 2/M"
_symmetry_group_IT_number 12
_symmetry_cell_setting 'monoclinic'
loop_
_space_group_symop_operation_xyz
x,y,z
-x,y,-z
-x,-y,-z
x,-y,z
1/2+x,1/2+y,z
1/2-x,1/2+y,-z
1/2-x,1/2-y,-z
1/2+x,1/2-y,z
loop_
_atom_site_type_symbol
_atom_site_label
_atom_site_fract_x
_atom_site_fract_y
_atom_site_fract_z
Si Si1 0.713654 0.818226 0.067420
Si Si2 0.454244 0.786761 0.257552
Si Si3 0.398717 0.712521 0.441073
Si Si4 0.584133 0.577447 0.661360
Si Si5 0.076567 0.146691 0.835048
Si Si6 0.271501 0.078622 0.265566
Si Si7 0.744850 0.418777 0.076503
O O1 0.596756 0.804260 0.168904
O O2 0.849773 0.849050 0.089846
O O3 0.750000 0.750000 0.000000
O O4 0.661318 0.878664 0.015256
O O5 0.479017 0.754789 0.345899
O O6 0.392083 0.721861 0.216198
O O7 0.349720 0.854468 0.288763
O O8 0.500000 0.705411 0.500000
O O9 0.250000 0.750000 0.500000
O O10 0.356535 0.637404 0.412491
O O11 0.627400 0.500000 0.625984
O O12 0.626827 0.592093 0.750309
O O13 0.406108 0.583512 0.693391
O O14 0.906036 0.126133 0.884507
O O15 0.310810 0.082664 0.155962
O O16 0.309936 0.000000 0.288456
O O17 0.714442 0.500000 0.062405
#
# Coordination Sequence:
#
# PCOD9205585 Si02
#       7
#     8   8   8   8   8   8   8
#     4  12  24  36  55  91 127 170 212 248 313 373
#     4  11  24  38  64  86 128 162 202 258 320 374
#     4  11  25  43  70 100 126 162 212 267 327 385
#     4   9  20  40  69  96 121 159 208 264 318 374
#     4  10  21  35  58  86 124 164 206 258 301 368
#     4   9  19  39  63  91 126 165 210 254 307 373
#     4  10  21  37  58  86 121 164 215 263 297 355
#
# _framework density 20.573637000000002
#
# number of rings (size 3 to 8) (size 9 to 14) (size 15 to 20)
#    0.000    1.714    1.429    3.429    8.000    4.286 
#    0.000    2.143    0.000    0.857    0.000    0.000 
#    0.000    0.000    0.000    0.000    0.000    0.000 
#
# Total GULP energy -156246.771678 kJ/mol
# GULP energy per Si atom -5580.241846 kJ/mol
# Density = 2.052681 g / cm^3
# Si number density = 20.573637 Si / 1000 Ang^3
#
#
#
# Elastic Constant Matrix: (Units=GPa)
#
#
# Indices 1 2 3 4 5 6 
#
# 1 28.9258 20.6425 9.2565 0.0000 9.6367 0.0000
# 2 20.6425 160.1214 41.9170 0.0000 5.9457 0.0000
# 3 9.2565 41.9170 96.6401 0.0000 6.3389 0.0000
# 4 0.0000 0.0000 0.0000 22.8181 0.0000 -6.1119
# 5 9.6367 5.9457 6.3389 0.0000 31.3698 0.0000
# 6 0.0000 0.0000 0.0000 -6.1119 0.0000 23.3944
#
#
#
# Elastic Compliance Matrix: (Units=1/GPa)
#
#
# Indices 1 2 3 4 5 6 
#
# 1 0.042255 -0.004683 -0.001239 0.000000 -0.011843 0.000000
# 2 -0.004683 0.007581 -0.002878 0.000000 0.000583 0.000000
# 3 -0.001239 -0.002878 0.011810 0.000000 -0.001460 0.000000
# 4 0.000000 0.000000 0.000000 0.047122 0.000000 0.012311
# 5 -0.011843 0.000583 -0.001460 0.000000 0.035700 0.000000
# 6 0.000000 0.000000 0.000000 0.012311 0.000000 0.045962
#
#
# Mechanical properties :
#
#
# Convention : Reuss Voigt Hill
#
# Bulk Modulus (GPa) = 22.70362 47.70216 35.20289
# Shear Modulus (GPa) = 22.45039 29.77455 26.11247
#
# Velocity S-wave (km/s) = 3.30695 3.80836 3.56648
# Velocity P-wave (km/s) = 5.06364 6.52492 5.84016
#
# Compressibility (1/GPa) = 0.04404585
#
# Stress axis : x y z
#
# Youngs Moduli (GPa) = 23.66565 131.91366 84.67135
#
# Poissons Ratio (x) = 0.61780 0.10492
# Poissons Ratio (y) = 0.11083 0.24366
# Poissons Ratio (z) = 0.02933 0.37962
#
# Static dielectric constant tensor:
#      x y z
#    x 1.769870 0.000000 -0.029490 
#    y 0.000000 1.755730 0.000000 
#    z -0.029490 0.000000 1.782750 
# 
# From -- ./inp_files/206541.got.cif
#   From: 2010.05.17/outbox.cif.g08.bks.cpg/sg12_104_cif.got.tgz:206541.got - 2010.06.03 13:09:07.
