data_PCOD9205231
_publ_section_title
;
Structure prediction by ZEFSAII (Michael W. Deem and Ramdas Pophale) SiO2 
 PCOD9205231
Probable space group: C 2/M
;
_chemical_formula_sum "Si O2"
_cell_formula_units_Z 56
_cell_length_a 30.619550
_cell_length_b 9.008321
_cell_length_c 12.907050
_cell_angle_alpha 90.000000
_cell_angle_beta 54.643113
_cell_angle_gamma 90.000000
_cell_volume 2903.537273
_symmetry_space_group_name_H-M "C 2/M"
_symmetry_group_IT_number 12
_symmetry_cell_setting 'monoclinic'
loop_
_space_group_symop_operation_xyz
x,y,z
-x,y,-z
-x,-y,-z
x,-y,z
1/2+x,1/2+y,z
1/2-x,1/2+y,-z
1/2-x,1/2-y,-z
1/2+x,1/2-y,z
loop_
_atom_site_type_symbol
_atom_site_label
_atom_site_fract_x
_atom_site_fract_y
_atom_site_fract_z
Si Si1 0.395417 0.175929 0.549328
Si Si2 0.527095 0.822145 0.073457
Si Si3 0.673200 0.327037 0.535125
Si Si4 0.004470 0.826044 0.675225
Si Si5 0.858281 0.178267 0.037367
Si Si6 0.702624 0.827303 0.702263
Si Si7 0.380329 0.327200 0.778359
O O1 0.362992 0.243306 0.497781
O O2 0.454561 0.244761 0.456519
O O3 0.370003 0.229562 0.692152
O O4 0.397267 0.000000 0.541416
O O5 0.494376 0.750165 0.213472
O O6 0.530092 0.000000 0.083057
O O7 0.500000 0.791249 0.000000
O O8 0.586277 0.751837 0.999953
O O9 0.658213 0.500000 0.564103
O O10 0.672054 0.248960 0.648308
O O11 0.734559 0.319379 0.410947
O O12 0.943491 0.815225 0.719461
O O13 0.018045 0.000000 0.663641
O O14 0.812047 0.240749 0.173622
O O15 0.862976 0.000000 0.038046
O O16 0.851428 0.215237 0.925187
O O17 0.687420 0.000000 0.732001
O O18 0.369083 0.500000 0.770159
#
# Coordination Sequence:
#
# PCOD9205231 Si02
#       7
#     8   8   8   8   8   8   8
#     4  12  24  36  57  86 116 149 191 241 287 333
#     4  10  21  35  52  79 116 150 188 238 278 325
#     4  10  22  40  61  85 114 150 188 233 286 341
#     4  10  21  37  57  80 112 154 194 233 281 339
#     4  10  21  37  60  84 112 153 190 227 283 345
#     4  10  21  39  63  88 115 145 186 237 287 339
#     4   9  20  39  58  81 113 152 195 233 276 338
#
# _framework density 19.286819999999999
#
# number of rings (size 3 to 8) (size 9 to 14) (size 15 to 20)
#    0.000    1.857    0.000    4.714    2.000    8.000 
#    0.000    0.714    0.000    0.000    0.000    0.000 
#    0.000    0.000    0.000    0.000    0.000    0.000 
#
# Total GULP energy -156476.633690 kJ/mol
# GULP energy per Si atom -5588.451203 kJ/mol
# Density = 1.924292 g / cm^3
# Si number density = 19.286820 Si / 1000 Ang^3
#
#
#
# Elastic Constant Matrix: (Units=GPa)
#
#
# Indices 1 2 3 4 5 6 
#
# 1 14.2386 14.2072 2.7484 0.0000 8.8828 0.0000
# 2 14.2072 104.4141 36.9365 0.0000 9.6332 0.0000
# 3 2.7484 36.9365 90.5696 0.0000 13.9252 0.0000
# 4 0.0000 0.0000 0.0000 20.6475 0.0000 -3.3139
# 5 8.8828 9.6332 13.9252 0.0000 13.5003 0.0000
# 6 0.0000 0.0000 0.0000 -3.3139 0.0000 24.5443
#
#
#
# Elastic Compliance Matrix: (Units=1/GPa)
#
#
# Indices 1 2 3 4 5 6 
#
# 1 0.149585 -0.017244 0.018699 0.000000 -0.105406 0.000000
# 2 -0.017244 0.013355 -0.006183 0.000000 0.008194 0.000000
# 3 0.018699 -0.006183 0.016887 0.000000 -0.025310 0.000000
# 4 0.000000 0.000000 0.000000 0.049505 0.000000 0.006684
# 5 -0.105406 0.008194 -0.025310 0.000000 0.163686 0.000000
# 6 0.000000 0.000000 0.000000 0.006684 0.000000 0.041645
#
#
# Mechanical properties :
#
#
# Convention : Reuss Voigt Hill
#
# Bulk Modulus (GPa) = 5.86950 35.22296 20.54623
# Shear Modulus (GPa) = 9.98187 22.09376 16.03781
#
# Velocity S-wave (km/s) = 2.27744 3.38825 2.88678
# Velocity P-wave (km/s) = 3.15682 5.79736 4.66770
#
# Compressibility (1/GPa) = 0.17037231
#
# Stress axis : x y z
#
# Youngs Moduli (GPa) = 6.68516 74.87962 59.21773
#
# Poissons Ratio (x) = 1.29120 -1.10734
# Poissons Ratio (y) = 0.11528 0.36614
# Poissons Ratio (z) = -0.12501 0.46298
#
# Static dielectric constant tensor:
#      x y z
#    x 1.661050 0.000000 -0.012990 
#    y 0.000000 1.639380 0.000000 
#    z -0.012990 0.000000 1.692280 
# 
# From -- ./inp_files/187248.got.cif
#   From: 2010.05.17/outbox.cif.g08.bks.cpg/sg12_94_cif.got.tgz:187248.got - 2010.06.03 13:09:07.
