data_PCOD9205367
_publ_section_title
;
Structure prediction by ZEFSAII (Michael W. Deem and Ramdas Pophale) SiO2 
 PCOD9205367
Probable space group: C 2/M
;
_chemical_formula_sum "Si O2"
_cell_formula_units_Z 64
_cell_length_a 14.734731
_cell_length_b 16.266779
_cell_length_c 20.037218
_cell_angle_alpha 90.000000
_cell_angle_beta 146.045965
_cell_angle_gamma 90.000000
_cell_volume 2682.414378
_symmetry_space_group_name_H-M "C 2/M"
_symmetry_group_IT_number 12
_symmetry_cell_setting 'monoclinic'
loop_
_space_group_symop_operation_xyz
x,y,z
-x,y,-z
-x,-y,-z
x,-y,z
1/2+x,1/2+y,z
1/2-x,1/2+y,-z
1/2-x,1/2-y,-z
1/2+x,1/2-y,z
loop_
_atom_site_type_symbol
_atom_site_label
_atom_site_fract_x
_atom_site_fract_y
_atom_site_fract_z
Si Si1 0.973290 0.907770 0.662817
Si Si2 0.025626 0.092755 0.176483
Si Si3 0.650217 0.166586 0.422362
Si Si4 0.199812 0.184944 0.701854
Si Si5 0.115475 0.409327 0.004133
Si Si6 0.455203 0.263250 0.044310
Si Si7 0.903166 0.589116 0.741417
Si Si8 0.889795 0.359404 0.375773
O O1 0.972869 0.894901 0.742527
O O2 0.791376 0.898570 0.524318
O O3 0.086811 0.843695 0.693021
O O4 0.030236 0.000000 0.683204
O O5 0.925187 0.163859 0.077780
O O6 0.212192 0.101637 0.265169
O O7 0.970609 0.000000 0.127853
O O8 0.750000 0.250000 0.500000
O O9 0.587833 0.159385 0.308627
O O10 0.496069 0.146645 0.374140
O O11 0.375614 0.217971 0.832690
O O12 0.234106 0.107645 0.675780
O O13 0.137831 0.263286 0.624008
O O14 0.199959 0.500000 0.060534
O O15 0.170638 0.313060 0.039201
O O16 0.032466 0.412603 0.880355
O O17 0.000000 0.411409 0.000000
O O18 0.500000 0.300768 0.000000
O O19 0.908165 0.500000 0.711716
O O20 0.000000 0.398760 0.500000
#
# Coordination Sequence:
#
# PCOD9205367 Si02
#       8
#     8   8   8   8   8   8   8   8
#     4  11  23  38  56  83 120 162 206 248 296 358
#     4  10  23  39  59  85 118 164 213 256 293 347
#     4  12  23  36  57  84 122 164 203 249 297 359
#     4  10  21  35  59  86 118 152 192 244 310 370
#     4   8  15  30  55  85 115 147 184 236 304 368
#     4   9  19  37  62  89 116 153 200 252 314 373
#     4  10  21  35  54  84 119 154 194 242 299 366
#     4  11  21  37  59  82 115 159 207 251 298 351
#
# _framework density 23.859103000000001
#
# number of rings (size 3 to 8) (size 9 to 14) (size 15 to 20)
#    0.000    1.875    2.500    1.500    3.500    2.000 
#    0.000    1.875    0.000    4.500    0.000   15.750 
#    0.000    0.000    0.000    0.000    0.000    0.000 
#
# Total GULP energy -178467.871958 kJ/mol
# GULP energy per Si atom -5577.120999 kJ/mol
# Density = 2.380480 g / cm^3
# Si number density = 23.859103 Si / 1000 Ang^3
#
#
#
# Elastic Constant Matrix: (Units=GPa)
#
#
# Indices 1 2 3 4 5 6 
#
# 1 107.7072 1.4340 -5.8669 -0.0007 1.3981 -0.0002
# 2 1.4340 113.9845 -1.1174 -0.0009 -1.8095 -0.0003
# 3 -5.8669 -1.1174 40.7401 -0.0014 -8.2714 -0.0005
# 4 -0.0007 -0.0009 -0.0014 19.6902 -0.0003 -16.6628
# 5 1.3981 -1.8095 -8.2714 -0.0003 38.1763 0.0000
# 6 -0.0002 -0.0003 -0.0005 -16.6628 0.0000 14.3443
#
#
#
# Elastic Compliance Matrix: (Units=1/GPa)
#
#
# Indices 1 2 3 4 5 6 
#
# 1 0.009359 -0.000106 0.001333 0.000032 -0.000059 0.000037
# 2 -0.000106 0.008785 0.000325 0.000033 0.000491 0.000039
# 3 0.001333 0.000325 0.025878 0.000167 0.005573 0.000195
# 4 0.000032 0.000033 0.000167 2.992040 0.000059 3.475638
# 5 -0.000059 0.000491 0.005573 0.000059 0.027427 0.000068
# 6 0.000037 0.000039 0.000195 3.475638 0.000068 4.107112
#
#
# Mechanical properties :
#
#
# Convention : Reuss Voigt Hill
#
# Bulk Modulus (GPa) = 21.21864 27.92569 24.57216
# Shear Modulus (GPa) = 0.69607 32.30762 16.50185
#
# Velocity S-wave (km/s) = 0.54072 3.68380 2.63275
# Velocity P-wave (km/s) = 3.04999 5.46111 4.42302
#
# Compressibility (1/GPa) = 0.04712837
#
# Stress axis : x y z
#
# Youngs Moduli (GPa) = 106.84660 113.82474 38.64242
#
# Poissons Ratio (x) = 0.01202 -0.05151
# Poissons Ratio (y) = 0.01128 -0.01257
# Poissons Ratio (z) = -0.14242 -0.03704
#
# Static dielectric constant tensor:
#      x y z
#    x 1.904670 0.000000 0.023470 
#    y 0.000000 1.972440 0.000000 
#    z 0.023470 0.000000 1.955770 
# 
# From -- ./inp_files/271761.got.cif
#   From: 2010.05.17/outbox.cif.g08.bks.cpg/sg12_136_cif.got.tgz:271761.got - 2010.06.03 13:09:07.
