data_PCOD9205014
_publ_section_title
;
Structure prediction by ZEFSAII (Michael W. Deem and Ramdas Pophale) SiO2 
 PCOD9205014
Probable space group: C 2/M
;
_chemical_formula_sum "Si O2"
_cell_formula_units_Z 44
_cell_length_a 20.762280
_cell_length_b 20.633117
_cell_length_c 5.216878
_cell_angle_alpha 90.000000
_cell_angle_beta 50.677344
_cell_angle_gamma 90.000000
_cell_volume 1728.865635
_symmetry_space_group_name_H-M "C 2/M"
_symmetry_group_IT_number 12
_symmetry_cell_setting 'monoclinic'
loop_
_space_group_symop_operation_xyz
x,y,z
-x,y,-z
-x,-y,-z
x,-y,z
1/2+x,1/2+y,z
1/2-x,1/2+y,-z
1/2-x,1/2-y,-z
1/2+x,1/2-y,z
loop_
_atom_site_type_symbol
_atom_site_label
_atom_site_fract_x
_atom_site_fract_y
_atom_site_fract_z
Si Si1 0.334658 0.177184 0.171435
Si Si2 0.908226 0.878881 0.760619
Si Si3 0.094134 0.206892 0.733799
Si Si4 0.599961 0.928742 0.612804
Si Si5 0.500000 0.848573 0.500000
Si Si6 0.756584 0.929135 0.853151
O O1 0.339095 0.239388 0.345660
O O2 0.359204 0.117985 0.289121
O O3 0.254043 0.143366 0.246053
O O4 0.413170 0.187658 0.778953
O O5 0.905603 0.821670 0.552750
O O6 0.831021 0.922676 0.870652
O O7 0.000000 0.909525 0.500000
O O8 0.902014 0.849977 0.061383
O O9 0.000000 0.236887 0.000000
O O10 0.521058 0.895523 0.682212
O O11 0.587182 0.000000 0.748852
O O12 0.668091 0.933669 0.215109
O O13 0.768596 0.000000 0.685497
#
# Coordination Sequence:
#
# PCOD9205014 Si02
#       6
#     8   8   8   8   4   8
#     4  11  23  37  63  91 130 172 212 265 329 389
#     4  10  24  45  69  98 129 171 221 276 333 389
#     4  10  23  41  68  97 135 167 217 271 326 395
#     4  10  21  37  56  85 126 170 218 269 318 381
#     4  10  21  34  56  88 122 172 221 256 324 382
#     4  10  24  43  64  93 130 170 221 275 328 388
#
# _framework density 25.450215
#
# number of rings (size 3 to 8) (size 9 to 14) (size 15 to 20)
#    0.000    1.818    0.000    2.455   11.455    4.727 
#    0.000    0.000    0.000    3.273    0.000    0.000 
#    0.000    0.000    0.000    0.000    0.000    0.000 
#
# Total GULP energy -122849.403045 kJ/mol
# GULP energy per Si atom -5584.063775 kJ/mol
# Density = 2.539229 g / cm^3
# Si number density = 25.450215 Si / 1000 Ang^3
#
#
#
# Elastic Constant Matrix: (Units=GPa)
#
#
# Indices 1 2 3 4 5 6 
#
# 1 125.3213 0.1580 -10.3325 0.0000 -15.4826 0.0000
# 2 0.1580 92.0196 4.4488 0.0000 -1.5388 0.0000
# 3 -10.3325 4.4488 52.6442 0.0000 4.1371 0.0000
# 4 0.0000 0.0000 0.0000 23.8015 0.0000 29.5683
# 5 -15.4826 -1.5388 4.1371 0.0000 41.6197 0.0000
# 6 0.0000 0.0000 0.0000 29.5683 0.0000 78.1212
#
#
#
# Elastic Compliance Matrix: (Units=1/GPa)
#
#
# Indices 1 2 3 4 5 6 
#
# 1 0.008469 -0.000033 0.001429 0.000000 0.003007 0.000000
# 2 -0.000033 0.010922 -0.000968 0.000000 0.000488 0.000000
# 3 0.001429 -0.000968 0.019471 0.000000 -0.001440 0.000000
# 4 0.000000 0.000000 0.000000 0.079301 0.000000 -0.030015
# 5 0.003007 0.000488 -0.001440 0.000000 0.025307 0.000000
# 6 0.000000 0.000000 0.000000 -0.030015 0.000000 0.024161
#
#
# Mechanical properties :
#
#
# Convention : Reuss Voigt Hill
#
# Bulk Modulus (GPa) = 25.17824 28.72598 26.95211
# Shear Modulus (GPa) = 27.77542 47.08921 37.43231
#
# Velocity S-wave (km/s) = 3.30716 4.30612 3.83927
# Velocity P-wave (km/s) = 4.94952 6.00293 5.50149
#
# Compressibility (1/GPa) = 0.03971684
#
# Stress axis : x y z
#
# Youngs Moduli (GPa) = 118.07996 91.55617 51.35895
#
# Poissons Ratio (x) = 0.00305 -0.07338
# Poissons Ratio (y) = 0.00393 0.04971
# Poissons Ratio (z) = -0.16870 0.08862
#
# Static dielectric constant tensor:
#      x y z
#    x 2.027980 0.000000 -0.014960 
#    y 0.000000 2.059440 0.000000 
#    z -0.014960 0.000000 2.085510 
# 
# From -- ./inp_files/16824.got.cif
#   From: 2010.05.17/outbox.cif.g08.bks.cpg/sg12_9_cif.got.tgz:16824.got - 2010.06.03 13:09:07.
