data_PCOD9205053
_publ_section_title
;
Structure prediction by ZEFSAII (Michael W. Deem and Ramdas Pophale) SiO2 
 PCOD9205053
Probable space group: C 2/M
;
_chemical_formula_sum "Si O2"
_cell_formula_units_Z 36
_cell_length_a 13.824155
_cell_length_b 5.621998
_cell_length_c 20.158577
_cell_angle_alpha 90.000000
_cell_angle_beta 75.240572
_cell_angle_gamma 90.000000
_cell_volume 1515.016762
_symmetry_space_group_name_H-M "C 2/M"
_symmetry_group_IT_number 12
_symmetry_cell_setting 'monoclinic'
loop_
_space_group_symop_operation_xyz
x,y,z
-x,y,-z
-x,-y,-z
x,-y,z
1/2+x,1/2+y,z
1/2-x,1/2+y,-z
1/2-x,1/2-y,-z
1/2+x,1/2-y,z
loop_
_atom_site_type_symbol
_atom_site_label
_atom_site_fract_x
_atom_site_fract_y
_atom_site_fract_z
Si Si1 0.463450 0.249576 0.930314
Si Si2 0.649554 0.000000 0.235359
Si Si3 0.709905 0.500000 0.570070
Si Si4 0.048287 0.000000 0.251582
Si Si5 0.824238 0.500000 0.411952
Si Si6 0.441427 0.000000 0.606066
Si Si7 0.522388 0.500000 0.414164
Si Si8 0.384408 0.500000 0.179844
O O1 0.407061 0.500000 0.929051
O O2 0.563498 0.281723 0.868720
O O3 0.411839 0.000000 0.924675
O O4 0.500000 0.247112 0.000000
O O5 0.600322 0.748713 0.220737
O O6 0.766712 0.000000 0.200338
O O7 0.629589 0.000000 0.318147
O O8 0.786955 0.500000 0.495245
O O9 0.714408 0.251431 0.608452
O O10 0.597568 0.500000 0.559037
O O11 0.044654 0.000000 0.331622
O O12 0.936343 0.000000 0.242446
O O13 0.944036 0.500000 0.386673
O O14 0.434309 0.249286 0.569050
#
# Coordination Sequence:
#
# PCOD9205053 Si02
#       8
#     8   4   4   4   4   4   4   4
#     4   8  16  30  52  76  98 131 164 199 251 290
#     4  10  22  34  50  77 104 134 170 207 250 298
#     4   8  12  18  32  52  75 109 149 187 231 280
#     4  10  22  34  50  77 104 134 170 207 250 298
#     4   8  12  18  32  52  75 109 149 187 231 280
#     4   8  14  26  38  56  90 119 149 198 240 279
#     4   8  14  26  38  56  90 119 149 198 240 279
#     4  10  21  34  60  74 105 136 170 204 250 296
#
# _framework density 23.762114
#
# number of rings (size 3 to 8) (size 9 to 14) (size 15 to 20)
#    0.667    2.667    0.000    0.000    3.111    0.000 
#    0.000    0.000    0.000    5.333    0.000    0.778 
#    0.000    0.000    0.000   74.222    0.000    3.556 
#
# Total GULP energy -100354.071530 kJ/mol
# GULP energy per Si atom -5575.226196 kJ/mol
# Density = 2.370803 g / cm^3
# Si number density = 23.762114 Si / 1000 Ang^3
#
#
#
# Elastic Constant Matrix: (Units=GPa)
#
#
# Indices 1 2 3 4 5 6 
#
# 1 98.5866 21.3883 17.1436 0.0000 -14.0200 -0.0001
# 2 21.3883 255.5354 29.4176 0.0000 6.4333 -0.0001
# 3 17.1436 29.4176 62.3440 -0.0001 7.9275 0.0000
# 4 0.0000 0.0000 -0.0001 52.7545 0.0000 -3.3631
# 5 -14.0200 6.4333 7.9275 0.0000 9.9091 0.0000
# 6 -0.0001 -0.0001 0.0000 -3.3631 0.0000 -0.8671
#
#
#
# Elastic Compliance Matrix: (Units=1/GPa)
#
#
# Indices 1 2 3 4 5 6 
#
# 1 0.015870 -0.001199 -0.007517 0.000000 0.029246 0.000000
# 2 -0.001199 0.004243 -0.001231 0.000000 -0.003466 0.000000
# 3 -0.007517 -0.001231 0.022197 0.000000 -0.027594 -0.000001
# 4 0.000000 0.000000 0.000000 0.015198 0.000000 -0.058945
# 5 0.029246 -0.003466 -0.027594 0.000000 0.166622 0.000001
# 6 0.000000 0.000000 -0.000001 -0.058945 0.000001 -0.924624
#
#
# Mechanical properties :
#
#
# Convention : Reuss Voigt Hill
#
# Bulk Modulus (GPa) = 44.61452 61.37389 52.99420
# Shear Modulus (GPa) = -7.42800 35.59372 14.08286
#
# Velocity S-wave (km/s) = -1.76996 3.87449 2.43710
# Velocity P-wave (km/s) = 3.82612 6.77496 5.50179
#
# Compressibility (1/GPa) = 0.02241423
#
# Stress axis : x y z
#
# Youngs Moduli (GPa) = 63.01327 235.69584 45.05142
#
# Poissons Ratio (x) = 0.28265 0.33864
# Poissons Ratio (y) = 0.07557 0.05548
# Poissons Ratio (z) = 0.47366 0.29026
#
# Static dielectric constant tensor:
#      x y z
#    x 1.818930 0.000000 0.002940 
#    y 0.000000 2.049880 0.000000 
#    z 0.002940 0.000000 1.877590 
# 
# From -- ./inp_files/337407.got.cif
#   From: 2010.05.17/outbox.cif.g08.bks.cpg/sg12_169_cif.got.tgz:337407.got - 2010.06.03 13:09:07.
