data_PCOD9205855
_publ_section_title
;
Structure prediction by ZEFSAII (Michael W. Deem and Ramdas Pophale) SiO2 
 PCOD9205855
Probable space group: C 2/M
;
_chemical_formula_sum "Si O2"
_cell_formula_units_Z 44
_cell_length_a 5.203672
_cell_length_b 16.476893
_cell_length_c 30.194509
_cell_angle_alpha 90.000000
_cell_angle_beta 63.871958
_cell_angle_gamma 90.000000
_cell_volume 2324.334809
_symmetry_space_group_name_H-M "C 2/M"
_symmetry_group_IT_number 12
_symmetry_cell_setting 'monoclinic'
loop_
_space_group_symop_operation_xyz
x,y,z
-x,y,-z
-x,-y,-z
x,-y,z
1/2+x,1/2+y,z
1/2-x,1/2+y,-z
1/2-x,1/2-y,-z
1/2+x,1/2-y,z
loop_
_atom_site_type_symbol
_atom_site_label
_atom_site_fract_x
_atom_site_fract_y
_atom_site_fract_z
Si Si1 0.389788 0.803954 0.260897
Si Si2 0.000000 0.693693 0.000000
Si Si3 0.669401 0.597701 0.530972
Si Si4 0.461829 0.902485 0.837132
Si Si5 0.803604 0.902123 0.898516
Si Si6 0.471129 0.695726 0.630135
O O1 0.683905 0.767558 0.257933
O O2 0.451576 0.862919 0.215646
O O3 0.208599 0.841433 0.315323
O O4 0.869967 0.638938 0.048906
O O5 0.750000 0.750000 0.000000
O O6 0.500000 0.624224 0.500000
O O7 0.653623 0.500000 0.534963
O O8 0.540486 0.636146 0.584865
O O9 0.000000 0.621173 0.500000
O O10 0.669855 0.877928 0.861382
O O11 0.137169 0.879256 0.874198
O O12 0.471348 0.000000 0.832512
O O13 0.782599 0.000000 0.903824
O O14 0.763750 0.733541 0.627029
#
# Coordination Sequence:
#
# PCOD9205855 Si02
#       6
#     8   4   8   8   8   8
#     4  10  21  36  55  80 111 142 174 220 271 314
#     4  12  25  38  57  86 112 140 182 224 265 316
#     4  10  21  36  54  78 107 139 177 222 270 315
#     4  10  21  37  59  83 106 141 185 219 260 320
#     4  10  22  40  58  79 111 146 178 218 267 318
#     4  10  21  36  54  79 108 141 180 217 263 321
#
# _framework density 18.930145
#
# number of rings (size 3 to 8) (size 9 to 14) (size 15 to 20)
#    0.000    1.818    0.000    3.545    0.000    7.273 
#    0.000    3.636    0.000   13.091    0.000    0.000 
#    0.000    0.000    0.000    0.000    0.000    0.000 
#
# Total GULP energy -122943.537174 kJ/mol
# GULP energy per Si atom -5588.342599 kJ/mol
# Density = 1.888706 g / cm^3
# Si number density = 18.930145 Si / 1000 Ang^3
#
#
#
# Elastic Constant Matrix: (Units=GPa)
#
#
# Indices 1 2 3 4 5 6 
#
# 1 82.4914 4.0457 -2.7576 0.0000 5.7888 0.0000
# 2 4.0457 11.7713 31.2470 0.0000 -3.7522 0.0000
# 3 -2.7576 31.2470 131.0117 0.0000 0.4253 0.0000
# 4 0.0000 0.0000 0.0000 60.2899 0.0000 6.3847
# 5 5.7888 -3.7522 0.4253 0.0000 29.4919 0.0000
# 6 0.0000 0.0000 0.0000 6.3847 0.0000 7.0815
#
#
#
# Elastic Compliance Matrix: (Units=1/GPa)
#
#
# Indices 1 2 3 4 5 6 
#
# 1 0.013610 -0.019482 0.004950 0.000000 -0.005221 0.000000
# 2 -0.019482 0.290003 -0.069713 0.000000 0.041726 0.000000
# 3 0.004950 -0.069713 0.024397 0.000000 -0.010193 0.000000
# 4 0.000000 0.000000 0.000000 0.018337 0.000000 -0.016533
# 5 -0.005221 0.041726 -0.010193 0.000000 0.040388 0.000000
# 6 0.000000 0.000000 0.000000 -0.016533 0.000000 0.156118
#
#
# Mechanical properties :
#
#
# Convention : Reuss Voigt Hill
#
# Bulk Modulus (GPa) = 6.26877 32.26051 19.26464
# Shear Modulus (GPa) = 6.54007 32.22194 19.38100
#
# Velocity S-wave (km/s) = 1.86074 4.13019 3.20319
# Velocity P-wave (km/s) = 2.81694 6.31058 4.88665
#
# Compressibility (1/GPa) = 0.15952102
#
# Stress axis : x y z
#
# Youngs Moduli (GPa) = 73.47643 3.44824 40.98843
#
# Poissons Ratio (x) = 0.06718 -0.20289
# Poissons Ratio (y) = 1.43144 2.85743
# Poissons Ratio (z) = -0.36370 0.24039
#
# Static dielectric constant tensor:
#      x y z
#    x 1.640480 0.000000 -0.000020 
#    y 0.000000 1.632370 0.000000 
#    z -0.000020 0.000000 1.625740 
# 
# From -- ./inp_files/297610.got.cif
#   From: 2010.05.17/outbox.cif.g08.bks.cpg/sg12_149_cif.got.tgz:297610.got - 2010.06.03 13:09:07.
