data_PCOD9205665
_publ_section_title
;
Structure prediction by ZEFSAII (Michael W. Deem and Ramdas Pophale) SiO2 
 PCOD9205665
Probable space group: C 2/M
;
_chemical_formula_sum "Si O2"
_cell_formula_units_Z 56
_cell_length_a 26.068803
_cell_length_b 14.878014
_cell_length_c 7.971261
_cell_angle_alpha 90.000000
_cell_angle_beta 134.512034
_cell_angle_gamma 90.000000
_cell_volume 2204.679580
_symmetry_space_group_name_H-M "C 2/M"
_symmetry_group_IT_number 12
_symmetry_cell_setting 'monoclinic'
loop_
_space_group_symop_operation_xyz
x,y,z
-x,y,-z
-x,-y,-z
x,-y,z
1/2+x,1/2+y,z
1/2-x,1/2+y,-z
1/2-x,1/2-y,-z
1/2+x,1/2-y,z
loop_
_atom_site_type_symbol
_atom_site_label
_atom_site_fract_x
_atom_site_fract_y
_atom_site_fract_z
Si Si1 0.349810 0.900193 0.125091
Si Si2 0.177373 0.099386 0.688143
Si Si3 0.965665 0.707123 0.242311
Si Si4 0.037066 0.100293 0.902866
Si Si5 0.801386 0.271634 0.465101
Si Si6 0.817066 0.101519 0.930267
Si Si7 0.083152 0.397422 0.344940
O O1 0.383848 0.821979 0.089363
O O2 0.376831 0.891972 0.379323
O O3 0.375034 0.000000 0.126088
O O4 0.263915 0.899651 0.912769
O O5 0.164076 0.184380 0.541946
O O6 0.157416 0.000000 0.576074
O O7 0.145318 0.109946 0.801406
O O8 0.983872 0.809638 0.241906
O O9 0.000000 0.685026 0.500000
O O10 0.005613 0.644877 0.200195
O O11 0.019523 0.000000 0.794633
O O12 0.124161 0.106783 0.082830
O O13 0.000000 0.104862 0.000000
O O14 0.750000 0.250000 0.500000
O O15 0.745357 0.326057 0.220665
O O16 0.866679 0.337410 0.657068
O O17 0.785868 0.000000 0.852826
O O18 0.080385 0.500000 0.287365
#
# Coordination Sequence:
#
# PCOD9205665 Si02
#       7
#     8   8   8   8   8   8   8
#     4   9  17  35  62  90 115 148 195 247 290 339
#     4  10  21  38  62  89 115 151 204 252 289 346
#     4  10  21  35  61  89 117 152 192 242 293 351
#     4  10  23  41  60  83 116 156 201 247 296 353
#     4  12  25  36  59  89 125 160 190 241 303 358
#     4  10  21  40  65  85 111 157 206 251 295 349
#     4  10  21  38  59  87 120 154 191 234 293 357
#
# _framework density 25.400514999999999
#
# number of rings (size 3 to 8) (size 9 to 14) (size 15 to 20)
#    0.000    1.857    1.429    2.143    6.000    3.143 
#    0.000    0.714    0.000    0.857    0.000    0.000 
#    0.000    0.000    0.000    0.000    0.000    0.000 
#
# Total GULP energy -156707.911191 kJ/mol
# GULP energy per Si atom -5596.711114 kJ/mol
# Density = 2.534270 g / cm^3
# Si number density = 25.400515 Si / 1000 Ang^3
#
#
#
# Elastic Constant Matrix: (Units=GPa)
#
#
# Indices 1 2 3 4 5 6 
#
# 1 152.9168 78.6524 16.8232 0.0000 -0.8965 0.0000
# 2 78.6524 150.7320 23.9388 0.0000 -10.7475 0.0000
# 3 16.8232 23.9388 39.1757 0.0000 1.9671 0.0000
# 4 0.0000 0.0000 0.0000 -5.3774 0.0000 3.2472
# 5 -0.8965 -10.7475 1.9671 0.0000 35.6435 0.0000
# 6 0.0000 0.0000 0.0000 3.2472 0.0000 40.6903
#
#
#
# Elastic Compliance Matrix: (Units=1/GPa)
#
#
# Indices 1 2 3 4 5 6 
#
# 1 0.009024 -0.004631 -0.000989 0.000000 -0.001115 0.000000
# 2 -0.004631 0.009947 -0.004246 0.000000 0.003117 0.000000
# 3 -0.000989 -0.004246 0.028691 0.000000 -0.002889 0.000000
# 4 0.000000 0.000000 0.000000 -0.177413 0.000000 0.014158
# 5 -0.001115 0.003117 -0.002889 0.000000 0.029127 0.000000
# 6 0.000000 0.000000 0.000000 0.014158 0.000000 0.023446
#
#
# Mechanical properties :
#
#
# Convention : Reuss Voigt Hill
#
# Bulk Modulus (GPa) = 35.80554 64.62814 50.21684
# Shear Modulus (GPa) = -103.87214 29.08530 -37.39342
#
# Velocity S-wave (km/s) = -6.40176 3.38756 -3.84103
# Velocity P-wave (km/s) = 6.36524 6.38745 0.37633
#
# Compressibility (1/GPa) = 0.02792864
#
# Stress axis : x y z
#
# Youngs Moduli (GPa) = 110.81886 100.52873 34.85457
#
# Poissons Ratio (x) = 0.46555 0.03448
# Poissons Ratio (y) = 0.51320 0.14800
# Poissons Ratio (z) = 0.10963 0.42688
#
# Static dielectric constant tensor:
#      x y z
#    x 1.978740 0.000000 0.002900 
#    y 0.000000 1.994660 0.000000 
#    z 0.002900 0.000000 2.047000 
# 
# From -- ./inp_files/96942.got.cif
#   From: 2010.05.17/outbox.cif.g08.bks.cpg/sg12_49_cif.got.tgz:96942.got - 2010.06.03 13:09:07.
