data_PCOD9205370
_publ_section_title
;
Structure prediction by ZEFSAII (Michael W. Deem and Ramdas Pophale) SiO2 
 PCOD9205370
Probable space group: C 2/M
;
_chemical_formula_sum "Si O2"
_cell_formula_units_Z 56
_cell_length_a 32.856342
_cell_length_b 7.582416
_cell_length_c 11.828989
_cell_angle_alpha 90.000000
_cell_angle_beta 58.412111
_cell_angle_gamma 90.000000
_cell_volume 2510.332736
_symmetry_space_group_name_H-M "C 2/M"
_symmetry_group_IT_number 12
_symmetry_cell_setting 'monoclinic'
loop_
_space_group_symop_operation_xyz
x,y,z
-x,y,-z
-x,-y,-z
x,-y,z
1/2+x,1/2+y,z
1/2-x,1/2+y,-z
1/2-x,1/2-y,-z
1/2+x,1/2-y,z
loop_
_atom_site_type_symbol
_atom_site_label
_atom_site_fract_x
_atom_site_fract_y
_atom_site_fract_z
Si Si1 0.197740 0.710450 0.527074
Si Si2 0.687578 0.213561 0.284761
Si Si3 0.621275 0.293399 0.193432
Si Si4 0.487636 0.287690 0.650384
Si Si5 0.572263 0.000000 0.929437
Si Si6 0.145194 0.804465 0.818225
Si Si7 0.980448 0.500000 0.225956
Si Si8 0.289208 0.710813 0.076510
O O1 0.191176 0.500000 0.538783
O O2 0.250000 0.750000 0.500000
O O3 0.191962 0.771764 0.407290
O O4 0.159531 0.792295 0.667397
O O5 0.639303 0.273639 0.295349
O O6 0.735112 0.278887 0.148373
O O7 0.688820 0.000000 0.281545
O O8 0.619346 0.500000 0.167858
O O9 0.567823 0.228425 0.253117
O O10 0.666198 0.214359 0.059118
O O11 0.500000 0.257367 0.500000
O O12 0.491913 0.500000 0.663967
O O13 0.518082 0.170025 0.693419
O O14 0.604400 0.169012 0.906782
O O15 0.559648 0.000000 0.813569
O O16 0.527323 0.000000 0.077548
O O17 0.192966 0.766036 0.820622
O O18 0.129704 0.000000 0.872124
O O19 0.286745 0.500000 0.058613
#
# Coordination Sequence:
#
# PCOD9205370 Si02
#       8
#     8   8   8   8   4   8   4   8
#     4  11  21  37  58  86 126 172 223 267 309 374
#     4  10  21  35  54  84 125 164 205 258 309 366
#     4  10  21  37  59  89 121 155 209 260 306 384
#     4  10  23  45  72  99 127 168 217 272 339 410
#     4  11  26  44  64 106 130 166 226 276 325 423
#     4  11  22  41  65  89 129 176 216 267 324 380
#     4  11  25  46  72  96 137 165 212 282 352 397
#     4   9  18  36  58  83 122 168 207 251 310 371
#
# _framework density 22.307797999999998
#
# number of rings (size 3 to 8) (size 9 to 14) (size 15 to 20)
#    0.000    1.714    2.143    1.929    1.000    4.571 
#    2.571    2.857    0.000    0.000    0.000    0.000 
#    0.000    0.000    0.000    0.000    0.000    0.000 
#
# Total GULP energy -156478.411915 kJ/mol
# GULP energy per Si atom -5588.514711 kJ/mol
# Density = 2.225702 g / cm^3
# Si number density = 22.307798 Si / 1000 Ang^3
#
#
#
# Elastic Constant Matrix: (Units=GPa)
#
#
# Indices 1 2 3 4 5 6 
#
# 1 62.4827 24.5504 -2.3317 0.0000 13.7357 0.0000
# 2 24.5504 84.8739 10.4727 0.0000 2.9426 0.0000
# 3 -2.3317 10.4727 70.4400 0.0000 18.5790 0.0000
# 4 0.0000 0.0000 0.0000 -41.3893 0.0000 -3.0670
# 5 13.7357 2.9426 18.5790 0.0000 36.7687 0.0000
# 6 0.0000 0.0000 0.0000 -3.0670 0.0000 21.2296
#
#
#
# Elastic Compliance Matrix: (Units=1/GPa)
#
#
# Indices 1 2 3 4 5 6 
#
# 1 0.020597 -0.006135 0.004031 0.000000 -0.009240 0.000000
# 2 -0.006135 0.013830 -0.002967 0.000000 0.002684 0.000000
# 3 0.004031 -0.002967 0.017428 0.000000 -0.010075 0.000000
# 4 0.000000 0.000000 0.000000 -0.023905 0.000000 -0.003453
# 5 -0.009240 0.002684 -0.010075 0.000000 0.035525 0.000000
# 6 0.000000 0.000000 0.000000 -0.003453 0.000000 0.046605
#
#
# Mechanical properties :
#
#
# Convention : Reuss Voigt Hill
#
# Bulk Modulus (GPa) = 23.97344 31.46437 27.71891
# Shear Modulus (GPa) = 37.27845 15.66216 26.47030
#
# Velocity S-wave (km/s) = 4.09234 2.65258 3.44843
# Velocity P-wave (km/s) = 5.75323 4.84942 5.32055
#
# Compressibility (1/GPa) = 0.04171282
#
# Stress axis : x y z
#
# Youngs Moduli (GPa) = 48.55181 72.30777 57.37773
#
# Poissons Ratio (x) = 0.44359 -0.23129
# Poissons Ratio (y) = 0.29785 0.17025
# Poissons Ratio (z) = -0.19571 0.21455
#
# Static dielectric constant tensor:
#      x y z
#    x 1.807980 0.000000 0.035930 
#    y 0.000000 1.846200 0.000000 
#    z 0.035930 0.000000 1.874920 
# 
# From -- ./inp_files/187329.got.cif
#   From: 2010.05.17/outbox.cif.g08.bks.cpg/sg12_94_cif.got.tgz:187329.got - 2010.06.03 13:09:07.
