data_PCOD9205597
_publ_section_title
;
Structure prediction by ZEFSAII (Michael W. Deem and Ramdas Pophale) SiO2 
 PCOD9205597
Probable space group: C 2/M
;
_chemical_formula_sum "Si O2"
_cell_formula_units_Z 58
_cell_length_a 24.030617
_cell_length_b 7.860721
_cell_length_c 25.519465
_cell_angle_alpha 90.000000
_cell_angle_beta 34.183474
_cell_angle_gamma 90.000000
_cell_volume 2708.415139
_symmetry_space_group_name_H-M "C 2/M"
_symmetry_group_IT_number 12
_symmetry_cell_setting 'monoclinic'
loop_
_space_group_symop_operation_xyz
x,y,z
-x,y,-z
-x,-y,-z
x,-y,z
1/2+x,1/2+y,z
1/2-x,1/2+y,-z
1/2-x,1/2-y,-z
1/2+x,1/2-y,z
loop_
_atom_site_type_symbol
_atom_site_label
_atom_site_fract_x
_atom_site_fract_y
_atom_site_fract_z
Si Si1 0.762905 0.703370 0.635340
Si Si2 0.934072 0.803886 0.262601
Si Si3 0.431871 0.200337 0.746245
Si Si4 0.000000 0.000000 0.500000
Si Si5 0.489992 0.205163 0.428847
Si Si6 0.721152 0.695637 0.892284
Si Si7 0.491043 0.801738 0.905891
Si Si8 0.688162 0.198571 0.805745
O O1 0.749958 0.500000 0.650797
O O2 0.674940 0.768139 0.666072
O O3 0.872018 0.733509 0.528701
O O4 0.744990 0.778940 0.706743
O O5 0.995973 0.725622 0.261343
O O6 0.993159 0.788893 0.161896
O O7 0.920801 0.000000 0.287075
O O8 0.480045 0.250416 0.653621
O O9 0.321137 0.273645 0.838764
O O10 0.414670 0.000000 0.754123
O O11 0.963956 0.846030 0.568788
O O12 0.509969 0.000000 0.423490
O O13 0.708527 0.500000 0.918631
O O14 0.732874 0.704621 0.820222
O O15 0.618783 0.784195 0.986915
O O16 0.575897 0.741113 0.880103
O O17 0.513366 0.000000 0.879063
O O18 0.685296 0.000000 0.822276
#
# Coordination Sequence:
#
# PCOD9205597 Si02
#       8
#     8   8   8   2   8   8   8   8
#     4   9  20  39  62  90 120 159 201 249 309 357
#     4  10  21  39  65  90 117 152 204 257 300 365
#     4  10  24  43  59  85 122 163 201 250 313 357
#     4  12  26  40  68  98 128 170 214 248 300 382
#     4  10  24  44  64  93 134 168 206 255 305 364
#     4  11  23  37  57  83 117 158 201 245 302 367
#     4  10  21  39  59  86 117 155 196 247 308 360
#     4  10  21  35  58  88 121 153 197 247 299 366
#
# _framework density 21.414736000000001
#
# number of rings (size 3 to 8) (size 9 to 14) (size 15 to 20)
#    0.000    1.931    0.000    2.276    3.862    6.069 
#    0.000    0.000    0.000    0.000    0.000    0.000 
#    0.000    0.000    0.000    0.000    0.000    0.000 
#
# Total GULP energy -161703.316850 kJ/mol
# GULP energy per Si atom -5575.976443 kJ/mol
# Density = 2.136600 g / cm^3
# Si number density = 21.414736 Si / 1000 Ang^3
#
#
#
# Elastic Constant Matrix: (Units=GPa)
#
#
# Indices 1 2 3 4 5 6 
#
# 1 96.9559 9.4105 28.1163 -0.0006 -16.1973 0.0036
# 2 9.4105 42.6725 11.4290 0.0020 -7.4578 -0.0014
# 3 28.1163 11.4290 72.7118 -0.0031 -27.0668 -0.0020
# 4 -0.0006 0.0020 -0.0031 10.3217 -0.0019 8.3318
# 5 -16.1973 -7.4578 -27.0668 -0.0019 27.0436 0.0005
# 6 0.0036 -0.0014 -0.0020 8.3318 0.0005 25.1976
#
#
#
# Elastic Compliance Matrix: (Units=1/GPa)
#
#
# Indices 1 2 3 4 5 6 
#
# 1 0.011938 -0.001159 -0.003014 0.000003 0.003813 -0.000003
# 2 -0.001159 0.024944 -0.001865 -0.000008 0.004318 0.000004
# 3 -0.003014 -0.001865 0.022868 0.000013 0.020568 -0.000002
# 4 0.000003 -0.000008 0.000013 0.132158 0.000023 -0.043699
# 5 0.003813 0.004318 0.020568 0.000023 0.061037 -0.000007
# 6 -0.000003 0.000004 -0.000002 -0.043699 -0.000007 0.054136
#
#
# Mechanical properties :
#
#
# Convention : Reuss Voigt Hill
#
# Bulk Modulus (GPa) = 20.97645 34.47243 27.72444
# Shear Modulus (GPa) = 14.92319 23.40488 19.16403
#
# Velocity S-wave (km/s) = 2.64269 3.30954 2.99473
# Velocity P-wave (km/s) = 4.37359 5.54406 4.99324
#
# Compressibility (1/GPa) = 0.04767252
#
# Stress axis : x y z
#
# Youngs Moduli (GPa) = 83.76868 40.08967 43.72903
#
# Poissons Ratio (x) = 0.04646 0.13182
# Poissons Ratio (y) = 0.09707 0.08157
# Poissons Ratio (z) = 0.25252 0.07478
#
# Static dielectric constant tensor:
#      x y z
#    x 1.790430 0.000000 -0.067100 
#    y 0.000000 1.766710 0.000000 
#    z -0.067100 0.000000 1.788260 
# 
# From -- ./inp_files/346456.got.cif
#   From: 2010.05.17/outbox.cif.g08.bks.cpg/sg12_174_cif.got.tgz:346456.got - 2010.06.03 13:09:07.
