data_PCOD9205233
_publ_section_title
;
Structure prediction by ZEFSAII (Michael W. Deem and Ramdas Pophale) SiO2 
 PCOD9205233
Probable space group: C 2/M
;
_chemical_formula_sum "Si O2"
_cell_formula_units_Z 60
_cell_length_a 27.443212
_cell_length_b 18.295316
_cell_length_c 9.547752
_cell_angle_alpha 90.000000
_cell_angle_beta 136.525974
_cell_angle_gamma 90.000000
_cell_volume 3298.227643
_symmetry_space_group_name_H-M "C 2/M"
_symmetry_group_IT_number 12
_symmetry_cell_setting 'monoclinic'
loop_
_space_group_symop_operation_xyz
x,y,z
-x,y,-z
-x,-y,-z
x,-y,z
1/2+x,1/2+y,z
1/2-x,1/2+y,-z
1/2-x,1/2-y,-z
1/2+x,1/2-y,z
loop_
_atom_site_type_symbol
_atom_site_label
_atom_site_fract_x
_atom_site_fract_y
_atom_site_fract_z
Si Si1 0.887592 0.140070 0.048493
Si Si2 0.317019 0.200318 0.483829
Si Si3 0.000000 0.137188 0.500000
Si Si4 0.916215 0.918899 0.805046
Si Si5 0.737618 0.085022 0.817008
Si Si6 0.376386 0.670779 0.450564
Si Si7 0.227151 0.412504 0.108821
Si Si8 0.834770 0.715639 0.836916
O O1 0.952968 0.105609 0.272254
O O2 0.884147 0.107425 0.885016
O O3 0.815125 0.121485 0.975646
O O4 0.888503 0.228219 0.026079
O O5 0.305348 0.120335 0.399003
O O6 0.356484 0.247338 0.449282
O O7 0.239770 0.239657 0.327072
O O8 0.351947 0.202536 0.709476
O O9 0.064764 0.171714 0.547162
O O10 0.903240 0.864599 0.651183
O O11 0.888954 0.000000 0.713603
O O12 0.000000 0.922483 0.000000
O O13 0.748314 0.000000 0.818615
O O14 0.703289 0.096275 0.897679
O O15 0.306695 0.621692 0.275060
O O16 0.227457 0.500000 0.142712
O O17 0.181973 0.359687 0.116628
#
# Coordination Sequence:
#
# PCOD9205233 Si02
#       8
#     8   8   4   8   8   8   8   8
#     4  11  21  38  53  78 107 149 188 228 266 320
#     4   9  19  34  56  78 104 139 185 231 272 327
#     4  12  24  34  57  80 109 144 200 226 258 318
#     4  11  22  36  51  72 109 153 190 224 265 313
#     4  10  21  35  52  80 114 145 176 221 281 331
#     4  11  21  38  53  78 107 149 188 228 266 320
#     4  10  21  35  52  80 114 145 176 221 281 331
#     4   9  19  34  56  78 104 139 185 231 272 327
#
# _framework density 18.191589
#
# number of rings (size 3 to 8) (size 9 to 14) (size 15 to 20)
#    0.000    1.733    4.000    0.800    3.733    2.133 
#    0.000    2.667    0.000    0.000    0.000    1.867 
#    0.000    3.200    0.000    0.000    0.000    0.000 
#
# Total GULP energy -167010.627749 kJ/mol
# GULP energy per Si atom -5567.020925 kJ/mol
# Density = 1.815018 g / cm^3
# Si number density = 18.191589 Si / 1000 Ang^3
#
#
#
# Elastic Constant Matrix: (Units=GPa)
#
#
# Indices 1 2 3 4 5 6 
#
# 1 35.7956 -0.2061 -6.0529 0.0000 -12.9939 0.0000
# 2 -0.2061 73.7382 21.4713 0.0000 -8.2317 0.0000
# 3 -6.0529 21.4713 53.2340 0.0000 -16.9345 0.0000
# 4 0.0000 0.0000 0.0000 30.2024 0.0000 -5.2097
# 5 -12.9939 -8.2317 -16.9345 0.0000 22.9934 0.0000
# 6 0.0000 0.0000 0.0000 -5.2097 0.0000 20.7307
#
#
#
# Elastic Compliance Matrix: (Units=1/GPa)
#
#
# Indices 1 2 3 4 5 6 
#
# 1 0.044548 -0.000718 0.017345 0.000000 0.037692 0.000000
# 2 -0.000718 0.015404 -0.006098 0.000000 0.000617 0.000000
# 3 0.017345 -0.006098 0.033486 0.000000 0.032281 0.000000
# 4 0.000000 0.000000 0.000000 0.034610 0.000000 0.008698
# 5 0.037692 0.000617 0.032281 0.000000 0.088787 0.000000
# 6 0.000000 0.000000 0.000000 0.008698 0.000000 0.050423
#
#
# Mechanical properties :
#
#
# Convention : Reuss Voigt Hill
#
# Bulk Modulus (GPa) = 8.73402 21.46583 15.09993
# Shear Modulus (GPa) = 17.58295 24.62233 21.10264
#
# Velocity S-wave (km/s) = 3.11230 3.68299 3.40960
# Velocity P-wave (km/s) = 4.21032 5.46913 4.88048
#
# Compressibility (1/GPa) = 0.11449482
#
# Stress axis : x y z
#
# Youngs Moduli (GPa) = 22.44788 64.91763 29.86323
#
# Poissons Ratio (x) = 0.04664 -0.51799
# Poissons Ratio (y) = 0.01613 0.18212
# Poissons Ratio (z) = -0.38937 0.39589
#
# Static dielectric constant tensor:
#      x y z
#    x 1.631940 0.000000 -0.015060 
#    y 0.000000 1.637660 0.000000 
#    z -0.015060 0.000000 1.685710 
# 
# From -- ./inp_files/105816.got.cif
#   From: 2010.05.17/outbox.cif.g08.bks.cpg/sg12_53_cif.got.tgz:105816.got - 2010.06.03 13:09:07.
