data_PCOD9205881
_publ_section_title
;
Structure prediction by ZEFSAII (Michael W. Deem and Ramdas Pophale) SiO2 
 PCOD9205881
Probable space group: C 2/M
;
_chemical_formula_sum "Si O2"
_cell_formula_units_Z 64
_cell_length_a 10.224602
_cell_length_b 7.655208
_cell_length_c 35.356870
_cell_angle_alpha 90.000000
_cell_angle_beta 91.262465
_cell_angle_gamma 90.000000
_cell_volume 2766.761886
_symmetry_space_group_name_H-M "C 2/M"
_symmetry_group_IT_number 12
_symmetry_cell_setting 'monoclinic'
loop_
_space_group_symop_operation_xyz
x,y,z
-x,y,-z
-x,-y,-z
x,-y,z
1/2+x,1/2+y,z
1/2-x,1/2+y,-z
1/2-x,1/2-y,-z
1/2+x,1/2-y,z
loop_
_atom_site_type_symbol
_atom_site_label
_atom_site_fract_x
_atom_site_fract_y
_atom_site_fract_z
Si Si1 0.832344 0.712677 0.108730
Si Si2 0.120025 0.709547 0.976166
Si Si3 0.320542 0.294386 0.346634
Si Si4 0.914977 0.296377 0.846172
Si Si5 0.540794 0.703418 0.726826
Si Si6 0.075797 0.287581 0.390885
Si Si7 0.709203 0.297239 0.233221
Si Si8 0.379653 0.790401 0.523806
O O1 0.830616 0.500000 0.109196
O O2 0.868083 0.773084 0.066783
O O3 0.691064 0.776351 0.121159
O O4 0.945647 0.771539 0.138426
O O5 0.104633 0.500000 0.973321
O O6 0.250000 0.750000 0.000000
O O7 0.000000 0.779870 0.000000
O O8 0.299132 0.500000 0.339273
O O9 0.387128 0.217974 0.309325
O O10 0.182760 0.223897 0.360912
O O11 0.431004 0.273380 0.379357
O O12 0.932252 0.500000 0.837195
O O13 0.851405 0.212892 0.808806
O O14 0.514547 0.500000 0.718426
O O15 0.402505 0.779118 0.739519
O O16 0.649785 0.711623 0.760426
O O17 0.076432 0.500000 0.390166
O O18 0.116889 0.227562 0.432962
O O19 0.729769 0.500000 0.242210
O O20 0.500000 0.721168 0.500000
O O21 0.250000 0.750000 0.500000
O O22 0.392396 0.000000 0.526226
#
# Coordination Sequence:
#
# PCOD9205881 Si02
#       8
#     8   8   8   8   8   8   8   8
#     4  10  22  39  59  85 116 150 189 232 278 330
#     4  10  21  38  59  85 117 150 188 233 278 329
#     4  10  21  37  57  82 111 143 182 226 273 328
#     4  11  23  39  60  84 112 148 187 229 278 328
#     4  10  22  39  58  83 113 144 182 227 273 327
#     4  10  21  36  55  81 111 144 184 228 275 329
#     4  11  23  38  58  84 112 144 183 225 273 329
#     4  10  21  36  54  79 110 144 185 230 275 327
#
# _framework density 23.131736
#
# number of rings (size 3 to 8) (size 9 to 14) (size 15 to 20)
#    0.000    1.750    0.000    3.750    0.000    7.500 
#    0.000    0.000    0.000    0.000    0.000    0.000 
#    0.000    0.000    0.000    0.000    0.000    0.000 
#
# Total GULP energy -178979.109417 kJ/mol
# GULP energy per Si atom -5593.097169 kJ/mol
# Density = 2.307909 g / cm^3
# Si number density = 23.131736 Si / 1000 Ang^3
#
#
#
# Elastic Constant Matrix: (Units=GPa)
#
#
# Indices 1 2 3 4 5 6 
#
# 1 90.0982 -13.8493 -17.4991 0.0000 -4.0737 0.0000
# 2 -13.8493 46.8839 -3.1463 0.0000 -5.3061 0.0000
# 3 -17.4991 -3.1463 70.0501 0.0000 0.3238 0.0000
# 4 0.0000 0.0000 0.0000 3.6497 0.0000 7.5386
# 5 -4.0737 -5.3061 0.3238 0.0000 44.8071 0.0000
# 6 0.0000 0.0000 0.0000 7.5386 0.0000 16.2235
#
#
#
# Elastic Compliance Matrix: (Units=1/GPa)
#
#
# Indices 1 2 3 4 5 6 
#
# 1 0.012434 0.004073 0.003282 0.000000 0.001589 0.000000
# 2 0.004073 0.023018 0.002037 0.000000 0.003081 0.000000
# 3 0.003282 0.002037 0.015185 0.000000 0.000430 0.000000
# 4 0.000000 0.000000 0.000000 6.812600 0.000000 -3.165600
# 5 0.001589 0.003081 0.000430 0.000000 0.022824 0.000000
# 6 0.000000 0.000000 0.000000 -3.165600 0.000000 1.532594
#
#
# Mechanical properties :
#
#
# Convention : Reuss Voigt Hill
#
# Bulk Modulus (GPa) = 14.40483 15.33810 14.87147
# Shear Modulus (GPa) = 0.59361 29.03786 14.81573
#
# Velocity S-wave (km/s) = 0.50713 3.54690 2.53354
# Velocity P-wave (km/s) = 2.56588 4.83934 3.87317
#
# Compressibility (1/GPa) = 0.06942115
#
# Stress axis : x y z
#
# Youngs Moduli (GPa) = 80.42245 43.44441 65.85525
#
# Poissons Ratio (x) = -0.17696 -0.21612
# Poissons Ratio (y) = -0.32757 -0.13415
# Poissons Ratio (z) = -0.26393 -0.08850
#
# Static dielectric constant tensor:
#      x y z
#    x 1.810840 0.000000 -0.027040 
#    y 0.000000 1.862490 0.000000 
#    z -0.027040 0.000000 1.878980 
# 
# From -- ./inp_files/373611.got.cif
#   From: 2010.05.17/outbox.cif.g08.bks.cpg/sg12_187_cif.got.tgz:373611.got - 2010.06.03 13:09:07.
