data_PCOD9205018
_publ_section_title
;
Structure prediction by ZEFSAII (Michael W. Deem and Ramdas Pophale) SiO2 
 PCOD9205018
Probable space group: C 2/M
;
_chemical_formula_sum "Si O2"
_cell_formula_units_Z 40
_cell_length_a 10.156526
_cell_length_b 21.132511
_cell_length_c 10.653729
_cell_angle_alpha 90.000000
_cell_angle_beta 58.962735
_cell_angle_gamma 90.000000
_cell_volume 1959.267265
_symmetry_space_group_name_H-M "C 2/M"
_symmetry_group_IT_number 12
_symmetry_cell_setting 'monoclinic'
loop_
_space_group_symop_operation_xyz
x,y,z
-x,y,-z
-x,-y,-z
x,-y,z
1/2+x,1/2+y,z
1/2-x,1/2+y,-z
1/2-x,1/2-y,-z
1/2+x,1/2-y,z
loop_
_atom_site_type_symbol
_atom_site_label
_atom_site_fract_x
_atom_site_fract_y
_atom_site_fract_z
Si Si1 0.881262 0.569632 0.674321
Si Si2 0.431453 0.746998 0.900714
Si Si3 0.178154 0.825131 0.393707
Si Si4 0.548467 0.109833 0.838319
Si Si5 0.709146 0.312708 0.663755
O O1 0.807713 0.500000 0.700823
O O2 0.764248 0.628001 0.717592
O O3 0.000000 0.575756 0.500000
O O4 0.975082 0.573272 0.758197
O O5 0.483118 0.818958 0.856370
O O6 0.526910 0.702798 0.759325
O O7 0.500000 0.725749 0.000000
O O8 0.250000 0.750000 0.000000
O O9 0.269990 0.876572 0.267198
O O10 0.207643 0.752572 0.334387
O O11 0.251329 0.825330 0.498193
O O12 0.000000 0.838516 0.500000
O O13 0.500000 0.086475 0.000000
#
# Coordination Sequence:
#
# PCOD9205018 Si02
#       5
#     8   8   8   8   8
#     4  11  22  40  64  89 125 171 219 260 304 376
#     4  10  21  34  56  92 128 161 194 258 329 382
#     4  10  21  34  59  93 126 158 198 262 326 379
#     4  10  22  38  59  91 125 161 207 260 322 379
#     4  10  21  35  60  89 129 160 207 256 316 384
#
# _framework density 20.415796
#
# number of rings (size 3 to 8) (size 9 to 14) (size 15 to 20)
#    0.000    1.800    2.000    1.800   14.000    0.400 
#    0.000    0.000    0.000    7.800    0.000    0.000 
#    0.000    0.000    0.000    0.000    0.000    0.000 
#
# Total GULP energy -111644.865122 kJ/mol
# GULP energy per Si atom -5582.243256 kJ/mol
# Density = 2.036933 g / cm^3
# Si number density = 20.415796 Si / 1000 Ang^3
#
#
#
# Elastic Constant Matrix: (Units=GPa)
#
#
# Indices 1 2 3 4 5 6 
#
# 1 93.9736 35.7292 49.1316 0.0000 -16.4639 0.0000
# 2 35.7292 78.1843 21.7639 0.0000 -0.3026 0.0000
# 3 49.1316 21.7639 126.2849 0.0000 -0.9631 0.0000
# 4 0.0000 0.0000 0.0000 4.1493 0.0000 -3.3921
# 5 -16.4639 -0.3026 -0.9631 0.0000 49.9747 0.0000
# 6 0.0000 0.0000 0.0000 -3.3921 0.0000 19.2832
#
#
#
# Elastic Compliance Matrix: (Units=1/GPa)
#
#
# Indices 1 2 3 4 5 6 
#
# 1 0.016743 -0.006122 -0.005418 0.000000 0.005375 0.000000
# 2 -0.006122 0.015674 -0.000334 0.000000 -0.001929 0.000000
# 3 -0.005418 -0.000334 0.010072 0.000000 -0.001593 0.000000
# 4 0.000000 0.000000 0.000000 0.281485 0.000000 0.049515
# 5 0.005375 -0.001929 -0.001593 0.000000 0.021738 0.000000
# 6 0.000000 0.000000 0.000000 0.049515 0.000000 0.060569
#
#
# Mechanical properties :
#
#
# Convention : Reuss Voigt Hill
#
# Bulk Modulus (GPa) = 53.36128 56.85470 55.10799
# Shear Modulus (GPa) = 11.46063 27.46931 19.46497
#
# Velocity S-wave (km/s) = 2.37188 3.67208 3.09111
# Velocity P-wave (km/s) = 5.80474 6.77405 6.30804
#
# Compressibility (1/GPa) = 0.01874018
#
# Stress axis : x y z
#
# Youngs Moduli (GPa) = 59.72545 63.80127 99.28647
#
# Poissons Ratio (x) = 0.39062 0.53792
# Poissons Ratio (y) = 0.36567 0.03316
# Poissons Ratio (z) = 0.32359 0.02131
#
# Static dielectric constant tensor:
#      x y z
#    x 1.871720 0.000000 0.122870 
#    y 0.000000 1.697490 0.000000 
#    z 0.122870 0.000000 1.926610 
# 
# From -- ./inp_files/132317.got.cif
#   From: 2010.05.17/outbox.cif.g08.bks.cpg/sg12_67_cif.got.tgz:132317.got - 2010.06.03 13:09:07.
