data_PCOD9205104
_publ_section_title
;
Structure prediction by ZEFSAII (Michael W. Deem and Ramdas Pophale) SiO2 
 PCOD9205104
Probable space group: C 2/M
;
_chemical_formula_sum "Si O2"
_cell_formula_units_Z 56
_cell_length_a 24.816382
_cell_length_b 9.838624
_cell_length_c 15.203996
_cell_angle_alpha 90.000000
_cell_angle_beta 136.425080
_cell_angle_gamma 90.000000
_cell_volume 2558.824034
_symmetry_space_group_name_H-M "C 2/M"
_symmetry_group_IT_number 12
_symmetry_cell_setting 'monoclinic'
loop_
_space_group_symop_operation_xyz
x,y,z
-x,y,-z
-x,-y,-z
x,-y,z
1/2+x,1/2+y,z
1/2-x,1/2+y,-z
1/2-x,1/2-y,-z
1/2+x,1/2-y,z
loop_
_atom_site_type_symbol
_atom_site_label
_atom_site_fract_x
_atom_site_fract_y
_atom_site_fract_z
Si Si1 0.665992 0.160505 0.151499
Si Si2 0.475437 0.650527 0.070859
Si Si3 0.925250 0.349528 0.249914
Si Si4 0.904502 0.156744 0.382504
Si Si5 0.783119 0.348538 0.967014
Si Si6 0.620316 0.838359 0.290692
Si Si7 0.887724 0.343289 0.526066
O O1 0.672391 0.185692 0.264032
O O2 0.643835 0.000000 0.117856
O O3 0.601625 0.262314 0.037282
O O4 0.731066 0.179076 0.152746
O O5 0.465303 0.500000 0.101154
O O6 0.544725 0.741760 0.192507
O O7 0.500000 0.628387 0.000000
O O8 0.913129 0.500000 0.276027
O O9 0.892670 0.236992 0.277609
O O10 0.875898 0.347385 0.102105
O O11 0.018006 0.335689 0.346531
O O12 0.873479 0.239427 0.430309
O O13 0.000000 0.157632 0.500000
O O14 0.880162 0.000000 0.354580
O O15 0.754709 0.500000 0.952295
O O16 0.750000 0.250000 0.000000
O O17 0.652254 0.813604 0.426917
O O18 0.598934 0.000000 0.263647
O O19 0.869947 0.500000 0.480175
#
# Coordination Sequence:
#
# PCOD9205104 Si02
#       7
#     8   8   8   8   8   8   8
#     4   9  17  30  45  61  85 117 152 187 222 268
#     4   9  16  24  36  58  87 117 148 180 216 259
#     4   9  17  30  46  64  90 123 155 187 223 265
#     4   9  17  28  43  66  94 122 151 183 221 265
#     4  10  21  35  50  68  89 117 157 200 238 274
#     4   9  16  26  42  63  89 122 153 179 214 266
#     4   9  16  27  45  69  95 123 152 179 214 266
#
# _framework density 21.885054
#
# number of rings (size 3 to 8) (size 9 to 14) (size 15 to 20)
#    0.000    2.857    0.000    1.714    0.000    7.429 
#    0.000    2.857    0.000    0.000    0.000    1.000 
#    0.000    0.000    0.000    0.000    0.000    0.000 
#
# Total GULP energy -155942.239771 kJ/mol
# GULP energy per Si atom -5569.365706 kJ/mol
# Density = 2.183524 g / cm^3
# Si number density = 21.885054 Si / 1000 Ang^3
#
#
#
# Elastic Constant Matrix: (Units=GPa)
#
#
# Indices 1 2 3 4 5 6 
#
# 1 71.0957 54.9501 36.2274 0.0000 -40.1378 0.0000
# 2 54.9501 107.4497 68.7501 0.0000 -42.9733 0.0000
# 3 36.2274 68.7501 113.9928 0.0000 -33.5199 0.0000
# 4 0.0000 0.0000 0.0000 17.7112 0.0000 -21.1042
# 5 -40.1378 -42.9733 -33.5199 0.0000 50.9664 0.0000
# 6 0.0000 0.0000 0.0000 -21.1042 0.0000 -262.8486
#
#
#
# Elastic Compliance Matrix: (Units=1/GPa)
#
#
# Indices 1 2 3 4 5 6 
#
# 1 0.030155 -0.009477 0.000950 0.000000 0.016382 0.000000
# 2 -0.009477 0.021709 -0.008546 0.000000 0.005220 0.000000
# 3 0.000950 -0.008546 0.014537 0.000000 0.003103 0.000000
# 4 0.000000 0.000000 0.000000 0.051531 0.000000 -0.004137
# 5 0.016382 0.005220 0.003103 0.000000 0.038964 0.000000
# 6 0.000000 0.000000 0.000000 -0.004137 0.000000 -0.003472
#
#
# Mechanical properties :
#
#
# Convention : Reuss Voigt Hill
#
# Bulk Modulus (GPa) = 31.00378 68.04371 49.52374
# Shear Modulus (GPa) = 25.21119 -29.99349 -2.39115
#
# Velocity S-wave (km/s) = 3.39777 -3.70604 -1.04641
# Velocity P-wave (km/s) = 5.43972 3.58412 4.60632
#
# Compressibility (1/GPa) = 0.03225413
#
# Stress axis : x y z
#
# Youngs Moduli (GPa) = 33.16167 46.06324 68.78808
#
# Poissons Ratio (x) = 0.43656 -0.06532
# Poissons Ratio (y) = 0.31428 0.58787
# Poissons Ratio (z) = -0.03149 0.39366
#
# Static dielectric constant tensor:
#      x y z
#    x 1.910920 0.000000 0.023330 
#    y 0.000000 1.887070 0.000000 
#    z 0.023330 0.000000 1.793410 
# 
# From -- ./inp_files/243245.got.cif
#   From: 2010.05.17/outbox.cif.g08.bks.cpg/sg12_122_cif.got.tgz:243245.got - 2010.06.03 13:09:07.
