data_PCOD9205807
_publ_section_title
;
Structure prediction by ZEFSAII (Michael W. Deem and Ramdas Pophale) SiO2 
 PCOD9205807
Probable space group: C 2/M
;
_chemical_formula_sum "Si O2"
_cell_formula_units_Z 48
_cell_length_a 31.181208
_cell_length_b 14.429556
_cell_length_c 5.375334
_cell_angle_alpha 90.000000
_cell_angle_beta 73.774098
_cell_angle_gamma 90.000000
_cell_volume 2322.193172
_symmetry_space_group_name_H-M "C 2/M"
_symmetry_group_IT_number 12
_symmetry_cell_setting 'monoclinic'
loop_
_space_group_symop_operation_xyz
x,y,z
-x,y,-z
-x,-y,-z
x,-y,z
1/2+x,1/2+y,z
1/2-x,1/2+y,-z
1/2-x,1/2-y,-z
1/2+x,1/2-y,z
loop_
_atom_site_type_symbol
_atom_site_label
_atom_site_fract_x
_atom_site_fract_y
_atom_site_fract_z
Si Si1 0.527061 0.389027 0.707027
Si Si2 0.382207 0.837148 0.996924
Si Si3 0.019249 0.393646 0.219319
Si Si4 0.216412 0.790550 0.351384
Si Si5 0.617849 0.278357 0.508838
Si Si6 0.210598 0.396741 0.037959
O O1 0.500000 0.365973 0.500000
O O2 0.532302 0.500000 0.704618
O O3 0.575524 0.343126 0.616871
O O4 0.500000 0.362696 0.000000
O O5 0.427500 0.892397 0.869964
O O6 0.382425 0.759475 0.775545
O O7 0.335241 0.890184 0.045085
O O8 0.385723 0.800641 0.273017
O O9 0.002636 0.500000 0.246579
O O10 0.000000 0.349086 0.500000
O O11 0.000000 0.349821 0.000000
O O12 0.250000 0.750000 0.500000
O O13 0.166358 0.822372 0.492057
O O14 0.208283 0.695901 0.208229
O O15 0.244074 0.873991 0.183783
O O16 0.212544 0.500000 0.148393
#
# Coordination Sequence:
#
# PCOD9205807 Si02
#       6
#     8   8   8   8   8   8
#     4  10  22  41  62  89 125 162 209 265 319 387
#     4  11  22  38  59  89 119 157 202 252 300 377
#     4  10  21  36  53  78 116 154 191 241 289 340
#     4  10  21  42  62  90 132 161 210 279 315 388
#     4  11  23  38  65  88 120 162 199 252 323 367
#     4  10  22  40  64  90 123 169 210 257 329 389
#
# _framework density 20.670114000000002
#
# number of rings (size 3 to 8) (size 9 to 14) (size 15 to 20)
#    0.000    1.667    1.667    2.500    0.000    5.333 
#    0.000    1.667    0.000    0.000    0.000    0.000 
#    0.000    0.000    0.000    0.000    0.000    0.000 
#
# Total GULP energy -133782.867824 kJ/mol
# GULP energy per Si atom -5574.286159 kJ/mol
# Density = 2.062307 g / cm^3
# Si number density = 20.670114 Si / 1000 Ang^3
#
#
#
# Elastic Constant Matrix: (Units=GPa)
#
#
# Indices 1 2 3 4 5 6 
#
# 1 152.9183 32.9708 41.0141 0.0000 -20.3414 0.0000
# 2 32.9708 80.9062 9.8776 0.0000 -8.0453 0.0000
# 3 41.0141 9.8776 83.7076 0.0000 -7.8339 0.0000
# 4 0.0000 0.0000 0.0000 -5.9141 0.0000 -6.2322
# 5 -20.3414 -8.0453 -7.8339 0.0000 44.5724 0.0000
# 6 0.0000 0.0000 0.0000 -6.2322 0.0000 10.9736
#
#
#
# Elastic Compliance Matrix: (Units=1/GPa)
#
#
# Indices 1 2 3 4 5 6 
#
# 1 0.008448 -0.002736 -0.003560 0.000000 0.002736 0.000000
# 2 -0.002736 0.013611 -0.000155 0.000000 0.001181 0.000000
# 3 -0.003560 -0.000155 0.013781 0.000000 0.000769 0.000000
# 4 0.000000 0.000000 0.000000 -0.105781 0.000000 -0.060075
# 5 0.002736 0.001181 0.000769 0.000000 0.024032 0.000000
# 6 0.000000 0.000000 0.000000 -0.060075 0.000000 0.057010
#
#
# Mechanical properties :
#
#
# Convention : Reuss Voigt Hill
#
# Bulk Modulus (GPa) = 43.59661 53.91746 48.75704
# Shear Modulus (GPa) = 157.97230 25.50435 91.73833
#
# Velocity S-wave (km/s) = 8.75165 3.51647 6.66922
# Velocity P-wave (km/s) = 11.10222 6.52907 9.10736
#
# Compressibility (1/GPa) = 0.02293756
#
# Stress axis : x y z
#
# Youngs Moduli (GPa) = 118.36772 73.46803 72.56288
#
# Poissons Ratio (x) = 0.20101 0.25836
# Poissons Ratio (y) = 0.32386 0.01125
# Poissons Ratio (z) = 0.42145 0.01139
#
# Static dielectric constant tensor:
#      x y z
#    x 1.800980 0.000000 0.001210 
#    y 0.000000 1.728520 0.000000 
#    z 0.001210 0.000000 1.856800 
# 
# From -- ./inp_files/31201.got.cif
#   From: 2010.05.17/outbox.cif.g08.bks.cpg/sg12_16_cif.got.tgz:31201.got - 2010.06.03 13:09:07.
