data_PCOD9205469
_publ_section_title
;
Structure prediction by ZEFSAII (Michael W. Deem and Ramdas Pophale) SiO2 
 PCOD9205469
Probable space group: C 2/M
;
_chemical_formula_sum "Si O2"
_cell_formula_units_Z 56
_cell_length_a 22.610750
_cell_length_b 8.502522
_cell_length_c 14.693435
_cell_angle_alpha 90.000000
_cell_angle_beta 104.865884
_cell_angle_gamma 90.000000
_cell_volume 2730.240875
_symmetry_space_group_name_H-M "C 2/M"
_symmetry_group_IT_number 12
_symmetry_cell_setting 'monoclinic'
loop_
_space_group_symop_operation_xyz
x,y,z
-x,y,-z
-x,-y,-z
x,-y,z
1/2+x,1/2+y,z
1/2-x,1/2+y,-z
1/2-x,1/2-y,-z
1/2+x,1/2-y,z
loop_
_atom_site_type_symbol
_atom_site_label
_atom_site_fract_x
_atom_site_fract_y
_atom_site_fract_z
Si Si1 0.088977 0.186730 0.280093
Si Si2 0.816714 0.684216 0.549055
Si Si3 0.618453 0.690438 0.898091
Si Si4 0.635562 0.311076 0.109061
Si Si5 0.771497 0.188193 0.188710
Si Si6 0.134875 0.813729 0.613390
Si Si7 0.035867 0.315609 0.705545
O O1 0.152252 0.225702 0.355223
O O2 0.095013 0.243313 0.178255
O O3 0.034576 0.270294 0.312239
O O4 0.077934 0.000000 0.276587
O O5 0.813513 0.500000 0.568346
O O6 0.750000 0.750000 0.500000
O O7 0.857051 0.718096 0.475491
O O8 0.611463 0.500000 0.891057
O O9 0.684258 0.727995 0.878753
O O10 0.568205 0.765960 0.812922
O O11 0.616115 0.744259 0.001293
O O12 0.631557 0.500000 0.106034
O O13 0.705882 0.266438 0.154935
O O14 0.810449 0.229054 0.294408
O O15 0.763331 0.000000 0.186406
O O16 0.072306 0.776701 0.641533
O O17 0.139168 0.000000 0.595984
O O18 0.043525 0.500000 0.692866
#
# Coordination Sequence:
#
# PCOD9205469 Si02
#       7
#     8   8   8   8   8   8   8
#     4  11  24  42  61  84 116 157 199 246 296 347
#     4  12  25  42  64  93 124 156 194 238 288 348
#     4   9  19  37  57  82 116 156 196 239 291 350
#     4  10  21  35  56  83 114 154 200 243 290 345
#     4   9  18  32  55  85 118 150 186 235 294 351
#     4  10  21  40  64  89 118 156 195 241 296 350
#     4  11  23  40  61  88 117 151 196 245 293 352
#
# _framework density 20.511012000000001
#
# number of rings (size 3 to 8) (size 9 to 14) (size 15 to 20)
#    0.000    1.714    0.000    5.571    0.000    8.000 
#    0.000    5.714    0.000    0.000    0.000    0.000 
#    0.000    0.000    0.000    0.000    0.000    0.000 
#
# Total GULP energy -156559.445676 kJ/mol
# GULP energy per Si atom -5591.408774 kJ/mol
# Density = 2.046433 g / cm^3
# Si number density = 20.511012 Si / 1000 Ang^3
#
#
#
# Elastic Constant Matrix: (Units=GPa)
#
#
# Indices 1 2 3 4 5 6 
#
# 1 56.2967 -4.8404 2.5713 0.0000 3.4817 0.0000
# 2 -4.8404 22.4221 -4.6767 0.0000 -0.5625 0.0000
# 3 2.5713 -4.6767 55.1886 0.0000 -22.1149 0.0000
# 4 0.0000 0.0000 0.0000 23.8911 0.0000 6.3045
# 5 3.4817 -0.5625 -22.1149 0.0000 22.2872 0.0000
# 6 0.0000 0.0000 0.0000 6.3045 0.0000 29.9357
#
#
#
# Elastic Compliance Matrix: (Units=1/GPa)
#
#
# Indices 1 2 3 4 5 6 
#
# 1 0.018522 0.003264 -0.002843 0.000000 -0.005633 0.000000
# 2 0.003264 0.046907 0.006795 0.000000 0.007416 0.000000
# 3 -0.002843 0.006795 0.031665 0.000000 0.032036 0.000000
# 4 0.000000 0.000000 0.000000 0.044320 0.000000 -0.009334
# 5 -0.005633 0.007416 0.032036 0.000000 0.077724 0.000000
# 6 0.000000 0.000000 0.000000 -0.009334 0.000000 0.035371
#
#
# Mechanical properties :
#
#
# Convention : Reuss Voigt Hill
#
# Bulk Modulus (GPa) = 8.96668 13.33511 11.15089
# Shear Modulus (GPa) = 18.03407 24.61301 21.32354
#
# Velocity S-wave (km/s) = 2.96841 3.46785 3.22780
# Velocity P-wave (km/s) = 4.01619 4.74870 4.39772
#
# Compressibility (1/GPa) = 0.11152405
#
# Stress axis : x y z
#
# Youngs Moduli (GPa) = 53.99016 21.31894 31.58032
#
# Poissons Ratio (x) = -0.06959 0.08980
# Poissons Ratio (y) = -0.17622 -0.21457
# Poissons Ratio (z) = 0.15352 -0.14485
#
# Static dielectric constant tensor:
#      x y z
#    x 1.730150 0.000000 -0.006800 
#    y 0.000000 1.686120 0.000000 
#    z -0.006800 0.000000 1.745340 
# 
# From -- ./inp_files/237883.got.cif
#   From: 2010.05.17/outbox.cif.g08.bks.cpg/sg12_119_cif.got.tgz:237883.got - 2010.06.03 13:09:07.
