data_PCOD9205110
_publ_section_title
;
Structure prediction by ZEFSAII (Michael W. Deem and Ramdas Pophale) SiO2 
 PCOD9205110
Probable space group: C 2/M
;
_chemical_formula_sum "Si O2"
_cell_formula_units_Z 48
_cell_length_a 16.183963
_cell_length_b 8.762938
_cell_length_c 14.660988
_cell_angle_alpha 90.000000
_cell_angle_beta 98.183901
_cell_angle_gamma 90.000000
_cell_volume 2058.033507
_symmetry_space_group_name_H-M "C 2/M"
_symmetry_group_IT_number 12
_symmetry_cell_setting 'monoclinic'
loop_
_space_group_symop_operation_xyz
x,y,z
-x,y,-z
-x,-y,-z
x,-y,z
1/2+x,1/2+y,z
1/2-x,1/2+y,-z
1/2-x,1/2-y,-z
1/2+x,1/2-y,z
loop_
_atom_site_type_symbol
_atom_site_label
_atom_site_fract_x
_atom_site_fract_y
_atom_site_fract_z
Si Si1 0.289051 0.677604 0.226470
Si Si2 0.175604 0.316256 0.051156
Si Si3 0.834121 0.315535 0.554626
Si Si4 0.943636 0.177046 0.105531
Si Si5 0.907497 0.318024 0.383644
Si Si6 0.555072 0.815634 0.270901
O O1 0.279622 0.500000 0.250981
O O2 0.206100 0.725448 0.158058
O O3 0.364857 0.687096 0.164086
O O4 0.323534 0.770231 0.317110
O O5 0.175547 0.500000 0.046725
O O6 0.250000 0.250000 0.000000
O O7 0.091812 0.253740 0.991773
O O8 0.829791 0.500000 0.554797
O O9 0.750000 0.250000 0.500000
O O10 0.901411 0.269286 0.487418
O O11 0.862192 0.268657 0.660434
O O12 0.021255 0.251971 0.170377
O O13 0.960173 0.000000 0.092389
O O14 0.913908 0.500000 0.385668
O O15 0.983485 0.266087 0.332530
O O16 0.556233 0.000000 0.262683
#
# Coordination Sequence:
#
# PCOD9205110 Si02
#       6
#     8   8   8   8   8   8
#     4   8  15  25  38  61  92 122 152 187 227 271
#     4   9  15  23  36  58  91 126 156 187 226 273
#     4  10  21  35  50  70  94 122 156 193 236 283
#     4   9  16  25  39  63  93 122 154 190 230 276
#     4   9  17  30  49  70  92 121 158 196 231 272
#     4   9  17  31  50  69  92 123 158 195 233 274
#
# _framework density 23.323233999999999
#
# number of rings (size 3 to 8) (size 9 to 14) (size 15 to 20)
#    0.000    3.000    0.000    2.500    0.000    8.000 
#    0.000    0.000    0.000    5.000    0.000    1.167 
#    0.000    9.333    0.000    0.000    0.000    0.000 
#
# Total GULP energy -134005.696283 kJ/mol
# GULP energy per Si atom -5583.570678 kJ/mol
# Density = 2.327015 g / cm^3
# Si number density = 23.323234 Si / 1000 Ang^3
#
#
#
# Elastic Constant Matrix: (Units=GPa)
#
#
# Indices 1 2 3 4 5 6 
#
# 1 90.2894 8.9564 48.9479 0.0000 23.0873 0.0000
# 2 8.9564 22.8229 40.9587 0.0000 13.5757 0.0000
# 3 48.9479 40.9587 215.4950 0.0000 25.9752 0.0000
# 4 0.0000 0.0000 0.0000 28.3362 0.0000 13.1237
# 5 23.0873 13.5757 25.9752 0.0000 53.0531 0.0000
# 6 0.0000 0.0000 0.0000 13.1237 0.0000 7.9956
#
#
#
# Elastic Compliance Matrix: (Units=1/GPa)
#
#
# Indices 1 2 3 4 5 6 
#
# 1 0.013805 0.003385 -0.003136 0.000000 -0.005338 0.000000
# 2 0.003385 0.074669 -0.013263 0.000000 -0.014086 0.000000
# 3 -0.003136 -0.013263 0.007758 0.000000 0.000960 0.000000
# 4 0.000000 0.000000 0.000000 0.147161 0.000000 -0.241546
# 5 -0.005338 -0.014086 0.000960 0.000000 0.024307 0.000000
# 6 0.000000 0.000000 0.000000 -0.241546 0.000000 0.521537
#
#
# Mechanical properties :
#
#
# Convention : Reuss Voigt Hill
#
# Bulk Modulus (GPa) = 14.24416 58.48147 36.36282
# Shear Modulus (GPa) = 5.96186 33.19326 19.57756
#
# Velocity S-wave (km/s) = 1.60054 3.77660 2.90039
# Velocity P-wave (km/s) = 3.08807 6.64423 5.18083
#
# Compressibility (1/GPa) = 0.07020422
#
# Stress axis : x y z
#
# Youngs Moduli (GPa) = 72.43957 13.39253 128.90133
#
# Poissons Ratio (x) = -0.04534 0.40418
# Poissons Ratio (y) = -0.24523 1.70964
# Poissons Ratio (z) = 0.22714 0.17763
#
# Static dielectric constant tensor:
#      x y z
#    x 2.011610 0.000000 -0.028740 
#    y 0.000000 1.780010 0.000000 
#    z -0.028740 0.000000 1.892630 
# 
# From -- ./inp_files/274133.got.cif
#   From: 2010.05.17/outbox.cif.g08.bks.cpg/sg12_138_cif.got.tgz:274133.got - 2010.06.03 13:09:07.
