data_PCOD9205580
_publ_section_title
;
Structure prediction by ZEFSAII (Michael W. Deem and Ramdas Pophale) SiO2 
 PCOD9205580
Probable space group: C 2/M
;
_chemical_formula_sum "Si O2"
_cell_formula_units_Z 40
_cell_length_a 10.252339
_cell_length_b 22.929812
_cell_length_c 8.276367
_cell_angle_alpha 90.000000
_cell_angle_beta 62.832572
_cell_angle_gamma 90.000000
_cell_volume 1730.992191
_symmetry_space_group_name_H-M "C 2/M"
_symmetry_group_IT_number 12
_symmetry_cell_setting 'monoclinic'
loop_
_space_group_symop_operation_xyz
x,y,z
-x,y,-z
-x,-y,-z
x,-y,z
1/2+x,1/2+y,z
1/2-x,1/2+y,-z
1/2-x,1/2-y,-z
1/2+x,1/2-y,z
loop_
_atom_site_type_symbol
_atom_site_label
_atom_site_fract_x
_atom_site_fract_y
_atom_site_fract_z
Si Si1 0.127346 0.241982 0.309773
Si Si2 0.307701 0.432307 0.815127
Si Si3 0.212052 0.353161 0.583282
Si Si4 0.456791 0.642705 0.207589
Si Si5 0.410822 0.154853 0.887107
O O1 0.045112 0.190172 0.261963
O O2 0.166117 0.290931 0.157221
O O3 0.000000 0.265512 0.500000
O O4 0.249436 0.208691 0.347932
O O5 0.272592 0.500000 0.833695
O O6 0.470904 0.418829 0.784520
O O7 0.199130 0.395423 0.993828
O O8 0.287801 0.402585 0.651464
O O9 0.709159 0.353240 0.634266
O O10 0.040749 0.365318 0.695381
O O11 0.500000 0.653551 0.000000
O O12 0.500000 0.172818 0.000000
#
# Coordination Sequence:
#
# PCOD9205580 Si02
#       5
#     8   8   8   8   8
#     4   9  19  35  57  86 120 150 182 227 286 346
#     4  10  22  40  59  82 114 151 194 241 285 333
#     4   9  21  38  58  88 116 151 192 227 283 347
#     4  10  21  37  60  87 116 148 189 235 283 342
#     4  10  21  35  58  86 116 150 190 235 284 335
#
# _framework density 23.108134
#
# number of rings (size 3 to 8) (size 9 to 14) (size 15 to 20)
#    0.000    2.400    0.000    2.400    0.000   19.200 
#    0.000    2.000    0.000    4.200    0.000    0.000 
#    0.000    0.000    0.000    0.000    0.000    0.000 
#
# Total GULP energy -111823.423743 kJ/mol
# GULP energy per Si atom -5591.171187 kJ/mol
# Density = 2.305554 g / cm^3
# Si number density = 23.108134 Si / 1000 Ang^3
#
#
#
# Elastic Constant Matrix: (Units=GPa)
#
#
# Indices 1 2 3 4 5 6 
#
# 1 53.9865 14.4919 39.2842 0.0000 -23.2476 0.0000
# 2 14.4919 136.1448 49.7991 0.0000 7.4643 0.0000
# 3 39.2842 49.7991 165.8309 0.0000 -29.3486 0.0000
# 4 0.0000 0.0000 0.0000 19.5751 0.0000 -4.0828
# 5 -23.2476 7.4643 -29.3486 0.0000 37.1540 0.0000
# 6 0.0000 0.0000 0.0000 -4.0828 0.0000 9.9841
#
#
#
# Elastic Compliance Matrix: (Units=1/GPa)
#
#
# Indices 1 2 3 4 5 6 
#
# 1 0.028327 -0.002759 -0.003077 0.000000 0.015848 0.000000
# 2 -0.002759 0.009126 -0.003159 0.000000 -0.006055 0.000000
# 3 -0.003077 -0.003159 0.008695 0.000000 0.005577 0.000000
# 4 0.000000 0.000000 0.000000 0.055849 0.000000 0.022839
# 5 0.015848 -0.006055 0.005577 0.000000 0.042453 0.000000
# 6 0.000000 0.000000 0.000000 0.022839 0.000000 0.109499
#
#
# Mechanical properties :
#
#
# Convention : Reuss Voigt Hill
#
# Bulk Modulus (GPa) = 35.51238 62.56806 49.04022
# Shear Modulus (GPa) = 17.77304 30.16843 23.97073
#
# Velocity S-wave (km/s) = 2.77632 3.61714 3.22425
# Velocity P-wave (km/s) = 5.06740 6.67682 5.92699
#
# Compressibility (1/GPa) = 0.02815919
#
# Stress axis : x y z
#
# Youngs Moduli (GPa) = 35.30151 109.57642 115.01079
#
# Poissons Ratio (x) = 0.30227 0.35394
# Poissons Ratio (y) = 0.09738 0.36327
# Poissons Ratio (z) = 0.10864 0.34611
#
# Static dielectric constant tensor:
#      x y z
#    x 1.932530 0.000000 0.004460 
#    y 0.000000 1.829060 0.000000 
#    z 0.004460 0.000000 1.911880 
# 
# From -- ./inp_files/49907.got.cif
#   From: 2010.05.17/outbox.cif.g08.bks.cpg/sg12_25_cif.got.tgz:49907.got - 2010.06.03 13:09:07.
