data_PCOD9205820
_publ_section_title
;
Structure prediction by ZEFSAII (Michael W. Deem and Ramdas Pophale) SiO2 
 PCOD9205820
Probable space group: C 2/M
;
_chemical_formula_sum "Si O2"
_cell_formula_units_Z 64
_cell_length_a 24.838147
_cell_length_b 31.724397
_cell_length_c 5.352813
_cell_angle_alpha 90.000000
_cell_angle_beta 49.543169
_cell_angle_gamma 90.000000
_cell_volume 3209.367211
_symmetry_space_group_name_H-M "C 2/M"
_symmetry_group_IT_number 12
_symmetry_cell_setting 'monoclinic'
loop_
_space_group_symop_operation_xyz
x,y,z
-x,y,-z
-x,-y,-z
x,-y,z
1/2+x,1/2+y,z
1/2-x,1/2+y,-z
1/2-x,1/2-y,-z
1/2+x,1/2-y,z
loop_
_atom_site_type_symbol
_atom_site_label
_atom_site_fract_x
_atom_site_fract_y
_atom_site_fract_z
Si Si1 0.852121 0.869354 0.470310
Si Si2 0.723924 0.285033 0.272238
Si Si3 0.639074 0.248791 0.919803
Si Si4 0.828996 0.547876 0.588769
Si Si5 0.915084 0.370953 0.272780
Si Si6 0.736241 0.548533 0.370106
Si Si7 0.919597 0.667232 0.760319
Si Si8 0.083137 0.165035 0.238892
O O1 0.790249 0.834555 0.711894
O O2 0.820747 0.915245 0.511496
O O3 0.898111 0.864564 0.583134
O O4 0.893900 0.855252 0.094416
O O5 0.650984 0.267069 0.609181
O O6 0.790862 0.279899 0.256015
O O7 0.750000 0.250000 0.000000
O O8 0.578793 0.215774 0.161968
O O9 0.627602 0.290940 0.117443
O O10 0.854819 0.500000 0.479380
O O11 0.890496 0.582094 0.401680
O O12 0.776243 0.556296 0.513408
O O13 0.789130 0.550704 0.973939
O O14 0.888634 0.341218 0.579522
O O15 0.885096 0.357303 0.094635
O O16 0.000000 0.367200 0.000000
O O17 0.709150 0.500000 0.460334
O O18 0.000000 0.651510 0.500000
O O19 0.000000 0.174842 0.500000
#
# Coordination Sequence:
#
# PCOD9205820 Si02
#       8
#     8   8   8   8   8   8   8   8
#     4  11  23  39  62  90 117 157 193 241 302 342
#     4  10  21  36  53  85 121 148 195 238 285 351
#     4  10  22  36  54  82 117 156 192 240 283 331
#     4  10  21  37  58  86 113 149 193 234 295 356
#     4  10  22  37  53  81 114 150 200 245 282 336
#     4  10  22  40  63  91 119 148 190 243 300 360
#     4  10  22  37  54  78 109 153 200 235 279 330
#     4  11  23  41  62  86 119 156 199 238 283 354
#
# _framework density 19.941624999999998
#
# number of rings (size 3 to 8) (size 9 to 14) (size 15 to 20)
#    0.000    1.750    1.250    2.250    5.250    0.250 
#    0.000    2.500    0.000    6.750    0.000    0.000 
#    0.000    0.000    0.000    0.000    0.000    0.000 
#
# Total GULP energy -178252.615611 kJ/mol
# GULP energy per Si atom -5570.394238 kJ/mol
# Density = 1.989624 g / cm^3
# Si number density = 19.941625 Si / 1000 Ang^3
#
#
#
# Elastic Constant Matrix: (Units=GPa)
#
#
# Indices 1 2 3 4 5 6 
#
# 1 34.0284 -1.6630 28.2084 0.0000 15.3663 0.0000
# 2 -1.6630 80.9504 31.2367 0.0000 0.7947 0.0000
# 3 28.2084 31.2367 88.8463 0.0000 21.4169 0.0000
# 4 0.0000 0.0000 0.0000 24.4095 0.0000 -4.6931
# 5 15.3663 0.7947 21.4169 0.0000 25.6122 0.0000
# 6 0.0000 0.0000 0.0000 -4.6931 0.0000 29.2731
#
#
#
# Elastic Compliance Matrix: (Units=1/GPa)
#
#
# Indices 1 2 3 4 5 6 
#
# 1 0.049137 0.006353 -0.013377 0.000000 -0.018492 0.000000
# 2 0.006353 0.015582 -0.008091 0.000000 0.002471 0.000000
# 3 -0.013377 -0.008091 0.020480 0.000000 -0.008849 0.000000
# 4 0.000000 0.000000 0.000000 0.042271 0.000000 0.006777
# 5 -0.018492 0.002471 -0.008849 0.000000 0.057461 0.000000
# 6 0.000000 0.000000 0.000000 0.006777 0.000000 0.035247
#
#
# Mechanical properties :
#
#
# Convention : Reuss Voigt Hill
#
# Bulk Modulus (GPa) = 18.19209 35.48769 26.83989
# Shear Modulus (GPa) = 18.60606 25.59517 22.10062
#
# Velocity S-wave (km/s) = 3.05786 3.58649 3.33267
# Velocity P-wave (km/s) = 4.64864 5.91481 5.31953
#
# Compressibility (1/GPa) = 0.05496896
#
# Stress axis : x y z
#
# Youngs Moduli (GPa) = 20.35133 64.17864 48.82796
#
# Poissons Ratio (x) = -0.40771 0.65316
# Poissons Ratio (y) = -0.12929 0.39505
# Poissons Ratio (z) = 0.27224 0.51925
#
# Static dielectric constant tensor:
#      x y z
#    x 1.788230 0.000000 0.033170 
#    y 0.000000 1.735320 0.000000 
#    z 0.033170 0.000000 1.761760 
# 
# From -- ./inp_files/32619.got.cif
#   From: 2010.05.17/outbox.cif.g08.bks.cpg/sg12_17_cif.got.tgz:32619.got - 2010.06.03 13:09:07.
