data_PCOD9205372
_publ_section_title
;
Structure prediction by ZEFSAII (Michael W. Deem and Ramdas Pophale) SiO2 
 PCOD9205372
Probable space group: C 2/M
;
_chemical_formula_sum "Si O2"
_cell_formula_units_Z 44
_cell_length_a 14.359210
_cell_length_b 21.359507
_cell_length_c 11.155261
_cell_angle_alpha 90.000000
_cell_angle_beta 134.821965
_cell_angle_gamma 90.000000
_cell_volume 2426.787822
_symmetry_space_group_name_H-M "C 2/M"
_symmetry_group_IT_number 12
_symmetry_cell_setting 'monoclinic'
loop_
_space_group_symop_operation_xyz
x,y,z
-x,y,-z
-x,-y,-z
x,-y,z
1/2+x,1/2+y,z
1/2-x,1/2+y,-z
1/2-x,1/2-y,-z
1/2+x,1/2-y,z
loop_
_atom_site_type_symbol
_atom_site_label
_atom_site_fract_x
_atom_site_fract_y
_atom_site_fract_z
Si Si1 0.500000 0.726858 0.500000
Si Si2 0.613079 0.573625 0.014592
Si Si3 0.846145 0.303968 0.537429
Si Si4 0.849410 0.426515 0.406438
Si Si5 0.149377 0.167656 0.853690
Si Si6 0.569983 0.785633 0.934816
O O1 0.390884 0.773048 0.453203
O O2 0.557833 0.686244 0.659926
O O3 0.591054 0.500000 0.983622
O O4 0.752042 0.583700 0.206313
O O5 0.500000 0.599490 0.000000
O O6 0.613423 0.603814 0.885021
O O7 0.750000 0.250000 0.500000
O O8 0.808313 0.375011 0.468850
O O9 0.965588 0.307423 0.740108
O O10 0.836326 0.500000 0.431538
O O11 0.000000 0.416857 0.500000
O O12 0.122744 0.218923 0.934299
O O13 0.300121 0.171679 0.948776
O O14 0.500000 0.782037 0.000000
#
# Coordination Sequence:
#
# PCOD9205372 Si02
#       6
#     4   8   8   8   8   8
#     4  10  22  36  50  88 112 146 192 230 296 342
#     4  10  22  38  60  87 114 150 197 240 291 352
#     4  11  22  34  58  85 120 148 191 245 287 352
#     4  10  21  38  60  86 118 153 194 245 295 346
#     4  10  21  35  58  78 117 152 187 240 292 350
#     4  10  21  35  54  85 112 153 188 235 295 344
#
# _framework density 18.130963000000001
#
# number of rings (size 3 to 8) (size 9 to 14) (size 15 to 20)
#    0.000    1.818    0.909    2.727   12.727    0.000 
#    0.000    0.455    0.000    5.455    0.000    0.000 
#    0.000    0.000    0.000    0.000    0.000    0.000 
#
# Total GULP energy -122692.611010 kJ/mol
# GULP energy per Si atom -5576.936864 kJ/mol
# Density = 1.808970 g / cm^3
# Si number density = 18.130963 Si / 1000 Ang^3
#
#
#
# Elastic Constant Matrix: (Units=GPa)
#
#
# Indices 1 2 3 4 5 6 
#
# 1 112.8543 36.8434 22.0604 0.0000 -5.8352 0.0000
# 2 36.8434 83.9888 40.8583 0.0000 -7.9993 0.0000
# 3 22.0604 40.8583 65.8781 0.0000 -1.4219 0.0000
# 4 0.0000 0.0000 0.0000 15.8255 0.0000 -9.3417
# 5 -5.8352 -7.9993 -1.4219 0.0000 24.2411 0.0000
# 6 0.0000 0.0000 0.0000 -9.3417 0.0000 30.1312
#
#
#
# Elastic Compliance Matrix: (Units=1/GPa)
#
#
# Indices 1 2 3 4 5 6 
#
# 1 0.010412 -0.003974 -0.000997 0.000000 0.001136 0.000000
# 2 -0.003974 0.019198 -0.010473 0.000000 0.004764 0.000000
# 3 -0.000997 -0.010473 0.021957 0.000000 -0.002408 0.000000
# 4 0.000000 0.000000 0.000000 0.077344 0.000000 0.023979
# 5 0.001136 0.004764 -0.002408 0.000000 0.042957 0.000000
# 6 0.000000 0.000000 0.000000 0.023979 0.000000 0.040623
#
#
# Mechanical properties :
#
#
# Convention : Reuss Voigt Hill
#
# Bulk Modulus (GPa) = 48.36042 51.36059 49.86050
# Shear Modulus (GPa) = 19.97813 24.90351 22.44082
#
# Velocity S-wave (km/s) = 3.32306 3.71014 3.52192
# Velocity P-wave (km/s) = 6.43851 6.83686 6.64067
#
# Compressibility (1/GPa) = 0.02067807
#
# Stress axis : x y z
#
# Youngs Moduli (GPa) = 96.04206 52.08754 45.54292
#
# Poissons Ratio (x) = 0.20700 0.04542
# Poissons Ratio (y) = 0.38167 0.47699
# Poissons Ratio (z) = 0.09579 0.54554
#
# Static dielectric constant tensor:
#      x y z
#    x 1.641030 0.000000 0.042040 
#    y 0.000000 1.654550 0.000000 
#    z 0.042040 0.000000 1.612980 
# 
# From -- ./inp_files/147796.got.cif
#   From: 2010.05.17/outbox.cif.g08.bks.cpg/sg12_74_cif.got.tgz:147796.got - 2010.06.03 13:09:07.
