data_PCOD9205593
_publ_section_title
;
Structure prediction by ZEFSAII (Michael W. Deem and Ramdas Pophale) SiO2 
 PCOD9205593
Probable space group: C 2/M
;
_chemical_formula_sum "Si O2"
_cell_formula_units_Z 40
_cell_length_a 21.511639
_cell_length_b 9.453778
_cell_length_c 12.219432
_cell_angle_alpha 90.000000
_cell_angle_beta 131.511995
_cell_angle_gamma 90.000000
_cell_volume 1860.825314
_symmetry_space_group_name_H-M "C 2/M"
_symmetry_group_IT_number 12
_symmetry_cell_setting 'monoclinic'
loop_
_space_group_symop_operation_xyz
x,y,z
-x,y,-z
-x,-y,-z
x,-y,z
1/2+x,1/2+y,z
1/2-x,1/2+y,-z
1/2-x,1/2-y,-z
1/2+x,1/2-y,z
loop_
_atom_site_type_symbol
_atom_site_label
_atom_site_fract_x
_atom_site_fract_y
_atom_site_fract_z
Si Si1 0.187886 0.658408 0.295045
Si Si2 0.867972 0.170698 0.439590
Si Si3 0.812360 0.352812 0.187721
Si Si4 0.538830 0.173833 0.274119
Si Si5 0.142287 0.725608 0.000272
O O1 0.200009 0.500000 0.351839
O O2 0.280614 0.718809 0.395231
O O3 0.114767 0.718828 0.283389
O O4 0.155810 0.652312 0.132720
O O5 0.853919 0.221917 0.298829
O O6 0.939584 0.257529 0.583738
O O7 0.876771 0.000000 0.456107
O O8 0.844391 0.500000 0.273309
O O9 0.831254 0.350078 0.081467
O O10 0.713034 0.345364 0.086939
O O11 0.455214 0.243178 0.129740
O O12 0.530770 0.000000 0.266493
#
# Coordination Sequence:
#
# PCOD9205593 Si02
#       5
#     8   8   8   8   8
#     4   9  18  35  58  83 112 147 184 226 279 336
#     4  10  22  39  58  82 115 151 189 232 278 329
#     4  10  21  39  61  82 111 151 191 230 277 335
#     4  11  21  35  59  87 115 147 186 230 278 335
#     4  10  21  35  58  88 114 142 184 235 281 330
#
# _framework density 21.495839
#
# number of rings (size 3 to 8) (size 9 to 14) (size 15 to 20)
#    0.000    2.000    0.000    3.600    0.000    8.800 
#    0.000    7.000    0.000    6.000    0.000    0.000 
#    0.000    0.000    0.000    0.000    0.000    0.000 
#
# Total GULP energy -111348.570360 kJ/mol
# GULP energy per Si atom -5567.428518 kJ/mol
# Density = 2.144691 g / cm^3
# Si number density = 21.495839 Si / 1000 Ang^3
#
#
#
# Elastic Constant Matrix: (Units=GPa)
#
#
# Indices 1 2 3 4 5 6 
#
# 1 58.0772 19.1332 19.1560 0.0000 -9.1761 0.0000
# 2 19.1332 30.0482 -7.4861 0.0000 -13.3966 0.0000
# 3 19.1560 -7.4861 98.8261 0.0000 0.2846 0.0000
# 4 0.0000 0.0000 0.0000 14.3141 0.0000 -23.5967
# 5 -9.1761 -13.3966 0.2846 0.0000 23.8178 0.0000
# 6 0.0000 0.0000 0.0000 -23.5967 0.0000 -70.3170
#
#
#
# Elastic Compliance Matrix: (Units=1/GPa)
#
#
# Indices 1 2 3 4 5 6 
#
# 1 0.025006 -0.017528 -0.006174 0.000000 -0.000151 0.000000
# 2 -0.017528 0.057803 0.007702 0.000000 0.025667 0.000000
# 3 -0.006174 0.007702 0.011894 0.000000 0.001811 0.000000
# 4 0.000000 0.000000 0.000000 0.044979 0.000000 -0.015094
# 5 -0.000151 0.025667 0.001811 0.000000 0.056342 0.000000
# 6 0.000000 0.000000 0.000000 -0.015094 0.000000 -0.009156
#
#
# Mechanical properties :
#
#
# Convention : Reuss Voigt Hill
#
# Bulk Modulus (GPa) = 15.94838 27.61753 21.78295
# Shear Modulus (GPa) = 20.85345 3.97287 12.41316
#
# Velocity S-wave (km/s) = 3.11805 1.36096 2.40566
# Velocity P-wave (km/s) = 4.51645 3.91732 4.22751
#
# Compressibility (1/GPa) = 0.06270231
#
# Stress axis : x y z
#
# Youngs Moduli (GPa) = 39.99109 17.30011 84.07733
#
# Poissons Ratio (x) = 0.30324 0.51912
# Poissons Ratio (y) = 0.70097 -0.64758
# Poissons Ratio (z) = 0.24692 -0.13325
#
# Static dielectric constant tensor:
#      x y z
#    x 1.833490 0.000000 0.019560 
#    y 0.000000 1.780670 0.000000 
#    z 0.019560 0.000000 1.765280 
# 
# From -- ./inp_files/238099.got.cif
#   From: 2010.05.17/outbox.cif.g08.bks.cpg/sg12_120_cif.got.tgz:238099.got - 2010.06.03 13:09:07.
