data_PCOD9205144
_publ_section_title
;
Structure prediction by ZEFSAII (Michael W. Deem and Ramdas Pophale) SiO2 
 PCOD9205144
Probable space group: C 2/M
;
_chemical_formula_sum "Si O2"
_cell_formula_units_Z 56
_cell_length_a 23.123040
_cell_length_b 7.368998
_cell_length_c 14.621750
_cell_angle_alpha 90.000000
_cell_angle_beta 69.239555
_cell_angle_gamma 90.000000
_cell_volume 2329.684600
_symmetry_space_group_name_H-M "C 2/M"
_symmetry_group_IT_number 12
_symmetry_cell_setting 'monoclinic'
loop_
_space_group_symop_operation_xyz
x,y,z
-x,y,-z
-x,-y,-z
x,-y,z
1/2+x,1/2+y,z
1/2-x,1/2+y,-z
1/2-x,1/2-y,-z
1/2+x,1/2-y,z
loop_
_atom_site_type_symbol
_atom_site_label
_atom_site_fract_x
_atom_site_fract_y
_atom_site_fract_z
Si Si1 0.868987 0.786852 0.404587
Si Si2 0.615404 0.222473 0.100541
Si Si3 0.876024 0.280117 0.111674
Si Si4 0.772918 0.792537 0.317786
Si Si5 0.167920 0.290645 0.252500
Si Si6 0.570319 0.719926 0.446302
Si Si7 0.024908 0.281784 0.802160
O O1 0.809834 0.709942 0.383187
O O2 0.887996 0.713419 0.492247
O O3 0.929240 0.773227 0.305338
O O4 0.856565 0.000000 0.423619
O O5 0.661530 0.285443 0.154398
O O6 0.545334 0.282056 0.162225
O O7 0.615736 0.000000 0.102182
O O8 0.630661 0.278041 0.988925
O O9 0.872283 0.500000 0.115852
O O10 0.823621 0.207715 0.208374
O O11 0.940948 0.229020 0.122609
O O12 0.713638 0.706067 0.302133
O O13 0.757101 0.000000 0.351913
O O14 0.187797 0.500000 0.231814
O O15 0.100397 0.284373 0.335699
O O16 0.500000 0.778400 0.500000
O O17 0.570603 0.500000 0.445820
O O18 0.023039 0.500000 0.801534
#
# Coordination Sequence:
#
# PCOD9205144 Si02
#       7
#     8   8   8   8   8   8   8
#     4   9  18  33  51  69  96 130 156 191 243 287
#     4   9  17  30  48  71  99 128 158 197 242 279
#     4   9  17  30  50  73  96 126 162 197 235 281
#     4   9  19  35  50  69  98 128 160 196 235 279
#     4  10  21  35  51  71  97 129 162 196 233 279
#     4  10  21  36  53  74  98 123 154 195 243 289
#     4   9  16  28  49  75  98 122 158 200 237 279
#
# _framework density 24.037586999999998
#
# number of rings (size 3 to 8) (size 9 to 14) (size 15 to 20)
#    0.000    2.714    0.000    1.286    0.000    4.286 
#    0.000    1.429    0.000    3.429    0.000    0.000 
#    0.000    0.000    0.000    0.000    0.000    0.000 
#
# Total GULP energy -156425.015228 kJ/mol
# GULP energy per Si atom -5586.607687 kJ/mol
# Density = 2.398288 g / cm^3
# Si number density = 24.037587 Si / 1000 Ang^3
#
#
#
# Elastic Constant Matrix: (Units=GPa)
#
#
# Indices 1 2 3 4 5 6 
#
# 1 99.1828 9.9776 21.4442 0.0000 22.4138 0.0000
# 2 9.9776 91.7117 -4.6608 0.0000 8.8956 0.0000
# 3 21.4442 -4.6608 88.5771 0.0000 35.2661 0.0000
# 4 0.0000 0.0000 0.0000 0.2424 0.0000 -15.1424
# 5 22.4138 8.8956 35.2661 0.0000 39.5261 0.0000
# 6 0.0000 0.0000 0.0000 -15.1424 0.0000 -6.4602
#
#
#
# Elastic Compliance Matrix: (Units=1/GPa)
#
#
# Indices 1 2 3 4 5 6 
#
# 1 0.011612 -0.000702 -0.000449 0.000000 -0.006026 0.000000
# 2 -0.000702 0.011546 0.002565 0.000000 -0.004489 0.000000
# 3 -0.000449 0.002565 0.018087 0.000000 -0.016460 0.000000
# 4 0.000000 0.000000 0.000000 0.027984 0.000000 -0.065592
# 5 -0.006026 -0.004489 -0.016460 0.000000 0.044413 0.000000
# 6 0.000000 0.000000 0.000000 -0.065592 0.000000 -0.001050
#
#
# Mechanical properties :
#
#
# Convention : Reuss Voigt Hill
#
# Bulk Modulus (GPa) = 22.68983 36.99928 29.84455
# Shear Modulus (GPa) = 40.17568 23.50904 31.84236
#
# Velocity S-wave (km/s) = 4.09267 3.13071 3.64358
# Velocity P-wave (km/s) = 5.63854 5.33799 5.49032
#
# Compressibility (1/GPa) = 0.04407260
#
# Stress axis : x y z
#
# Youngs Moduli (GPa) = 86.11877 86.61183 55.28970
#
# Poissons Ratio (x) = 0.06076 0.02481
# Poissons Ratio (y) = 0.06042 -0.14179
# Poissons Ratio (z) = 0.03865 -0.22212
#
# Static dielectric constant tensor:
#      x y z
#    x 1.946310 0.000000 0.029020 
#    y 0.000000 1.900630 0.000000 
#    z 0.029020 0.000000 1.864270 
# 
# From -- ./inp_files/165639.got.cif
#   From: 2010.05.17/outbox.cif.g08.bks.cpg/sg12_83_cif.got.tgz:165639.got - 2010.06.03 13:09:07.
