data_PCOD9205377
_publ_section_title
;
Structure prediction by ZEFSAII (Michael W. Deem and Ramdas Pophale) SiO2 
 PCOD9205377
Probable space group: C 2/M
;
_chemical_formula_sum "Si O2"
_cell_formula_units_Z 48
_cell_length_a 21.788421
_cell_length_b 7.744113
_cell_length_c 14.015405
_cell_angle_alpha 90.000000
_cell_angle_beta 120.503191
_cell_angle_gamma 90.000000
_cell_volume 2037.554490
_symmetry_space_group_name_H-M "C 2/M"
_symmetry_group_IT_number 12
_symmetry_cell_setting 'monoclinic'
loop_
_space_group_symop_operation_xyz
x,y,z
-x,y,-z
-x,-y,-z
x,-y,z
1/2+x,1/2+y,z
1/2-x,1/2+y,-z
1/2-x,1/2-y,-z
1/2+x,1/2-y,z
loop_
_atom_site_type_symbol
_atom_site_label
_atom_site_fract_x
_atom_site_fract_y
_atom_site_fract_z
Si Si1 0.824590 0.801945 0.963283
Si Si2 0.689556 0.798154 0.748018
Si Si3 0.041051 0.790650 0.833661
Si Si4 0.470672 0.698311 0.379643
Si Si5 0.093404 0.703943 0.157809
Si Si6 0.271451 0.795491 0.623704
O O1 0.749229 0.726629 0.869226
O O2 0.873835 0.799586 0.907077
O O3 0.810102 0.000000 0.978485
O O4 0.878987 0.723398 0.082789
O O5 0.614923 0.701743 0.687183
O O6 0.724291 0.787444 0.670064
O O7 0.676818 0.000000 0.758582
O O8 0.011250 0.724329 0.709217
O O9 0.986110 0.744697 0.873188
O O10 0.045661 0.000000 0.832841
O O11 0.500000 0.780002 0.500000
O O12 0.497103 0.500000 0.399492
O O13 0.098975 0.500000 0.141828
O O14 0.146753 0.748569 0.286929
O O15 0.250000 0.750000 0.500000
O O16 0.263296 0.000000 0.629364
#
# Coordination Sequence:
#
# PCOD9205377 Si02
#       6
#     8   8   8   8   8   8
#     4   9  19  37  59  84 114 149 189 230 283 344
#     4  10  21  38  59  83 112 147 188 238 286 333
#     4  10  21  37  58  82 113 155 194 230 279 340
#     4  10  23  41  58  81 112 151 194 237 284 338
#     4  10  21  35  54  86 120 146 182 234 286 334
#     4  10  21  36  56  83 114 150 189 232 283 337
#
# _framework density 23.557653999999999
#
# number of rings (size 3 to 8) (size 9 to 14) (size 15 to 20)
#    0.000    2.167    0.000    2.000    2.333    7.000 
#    0.000    0.000    0.000    0.000    0.000    0.000 
#    0.000    0.000    0.000    0.000    0.000    0.000 
#
# Total GULP energy -134095.130043 kJ/mol
# GULP energy per Si atom -5587.297085 kJ/mol
# Density = 2.350404 g / cm^3
# Si number density = 23.557654 Si / 1000 Ang^3
#
#
#
# Elastic Constant Matrix: (Units=GPa)
#
#
# Indices 1 2 3 4 5 6 
#
# 1 85.4301 -7.8588 7.4030 0.0000 0.5978 0.0000
# 2 -7.8588 57.0327 8.6811 0.0000 -0.8756 0.0000
# 3 7.4030 8.6811 123.2759 0.0000 9.3314 0.0000
# 4 0.0000 0.0000 0.0000 10.0747 0.0000 2.4682
# 5 0.5978 -0.8756 9.3314 0.0000 28.9714 0.0000
# 6 0.0000 0.0000 0.0000 2.4682 0.0000 21.6354
#
#
#
# Elastic Compliance Matrix: (Units=1/GPa)
#
#
# Indices 1 2 3 4 5 6 
#
# 1 0.011942 0.001776 -0.000848 0.000000 0.000080 0.000000
# 2 0.001776 0.018014 -0.001449 0.000000 0.000975 0.000000
# 3 -0.000848 -0.001449 0.008473 0.000000 -0.002755 0.000000
# 4 0.000000 0.000000 0.000000 0.102113 0.000000 -0.011649
# 5 0.000080 0.000975 -0.002755 0.000000 0.035432 0.000000
# 6 0.000000 0.000000 0.000000 -0.011649 0.000000 0.047549
#
#
# Mechanical properties :
#
#
# Convention : Reuss Voigt Hill
#
# Bulk Modulus (GPa) = 26.74765 31.35439 29.05102
# Shear Modulus (GPa) = 21.09451 29.30386 25.19918
#
# Velocity S-wave (km/s) = 2.99564 3.53075 3.27415
# Velocity P-wave (km/s) = 4.83155 5.47359 5.16256
#
# Compressibility (1/GPa) = 0.03738647
#
# Stress axis : x y z
#
# Youngs Moduli (GPa) = 83.73959 55.51237 118.01583
#
# Poissons Ratio (x) = -0.09858 0.10011
# Poissons Ratio (y) = -0.14871 0.17100
# Poissons Ratio (z) = 0.07103 0.08044
#
# Static dielectric constant tensor:
#      x y z
#    x 1.872850 0.000000 0.003960 
#    y 0.000000 1.868560 0.000000 
#    z 0.003960 0.000000 1.948290 
# 
# From -- ./inp_files/173055.got.cif
#   From: 2010.05.17/outbox.cif.g08.bks.cpg/sg12_87_cif.got.tgz:173055.got - 2010.06.03 13:09:07.
