data_PCOD9205050
_publ_section_title
;
Structure prediction by ZEFSAII (Michael W. Deem and Ramdas Pophale) SiO2 
 PCOD9205050
Probable space group: C 2/M
;
_chemical_formula_sum "Si O2"
_cell_formula_units_Z 64
_cell_length_a 27.220105
_cell_length_b 14.641291
_cell_length_c 23.838669
_cell_angle_alpha 90.000000
_cell_angle_beta 163.654122
_cell_angle_gamma 90.000000
_cell_volume 2673.803698
_symmetry_space_group_name_H-M "C 2/M"
_symmetry_group_IT_number 12
_symmetry_cell_setting 'monoclinic'
loop_
_space_group_symop_operation_xyz
x,y,z
-x,y,-z
-x,-y,-z
x,-y,z
1/2+x,1/2+y,z
1/2-x,1/2+y,-z
1/2-x,1/2-y,-z
1/2+x,1/2-y,z
loop_
_atom_site_type_symbol
_atom_site_label
_atom_site_fract_x
_atom_site_fract_y
_atom_site_fract_z
Si Si1 0.877308 0.639083 0.519884
Si Si2 0.508246 0.863675 0.944267
Si Si3 0.001377 0.154570 0.103682
Si Si4 0.694605 0.652004 0.806852
Si Si5 0.618238 0.858143 0.683717
Si Si6 0.640197 0.359577 0.494143
Si Si7 0.131081 0.393445 0.891531
Si Si8 0.034303 0.106788 0.812934
O O1 0.684752 0.607545 0.291320
O O2 0.866157 0.749413 0.507382
O O3 0.017412 0.605981 0.627810
O O4 0.947669 0.615445 0.658879
O O5 0.506689 0.752734 0.935369
O O6 0.329636 0.893560 0.719028
O O7 0.500000 0.887160 0.000000
O O8 0.685482 0.894957 0.108432
O O9 0.012135 0.163496 0.183176
O O10 0.814902 0.107768 0.889722
O O11 0.642249 0.750008 0.723814
O O12 0.518273 0.608777 0.638964
O O13 0.823573 0.659329 0.002077
O O14 0.500000 0.870986 0.500000
O O15 0.595607 0.383278 0.381504
O O16 0.159827 0.500000 0.936089
O O17 0.278736 0.365230 0.008152
O O18 0.042513 0.000000 0.838083
#
# Coordination Sequence:
#
# PCOD9205050 Si02
#       8
#     8   8   8   8   8   8   8   8
#     4  10  21  34  59  89 119 152 192 244 295 351
#     4  10  22  36  56  89 119 148 194 249 291 346
#     4  10  22  34  57  87 117 150 193 238 293 351
#     4   9  21  34  58  84 115 155 191 235 296 349
#     4  10  21  36  58  87 117 153 196 244 294 343
#     4   9  21  35  57  88 119 149 194 242 293 348
#     4  10  21  39  60  87 123 156 194 241 293 356
#     4  10  21  39  60  85 122 157 190 238 297 357
#
# _framework density 23.935936999999999
#
# number of rings (size 3 to 8) (size 9 to 14) (size 15 to 20)
#    0.000    2.250    1.250    0.000   15.750    3.000 
#    0.000    0.000    0.000    3.750    0.000    0.000 
#    0.000    0.000    0.000    0.000    0.000    0.000 
#
# Total GULP energy -178849.445884 kJ/mol
# GULP energy per Si atom -5589.045184 kJ/mol
# Density = 2.388146 g / cm^3
# Si number density = 23.935937 Si / 1000 Ang^3
#
#
#
# Elastic Constant Matrix: (Units=GPa)
#
#
# Indices 1 2 3 4 5 6 
#
# 1 112.4900 6.4023 41.6983 0.0004 -1.7894 -0.0124
# 2 6.4023 86.3974 -8.2717 -0.0043 6.8072 -0.0172
# 3 41.6983 -8.2717 150.1682 0.0051 10.0361 -0.0261
# 4 0.0004 -0.0043 0.0051 16.6048 -0.0058 3.0065
# 5 -1.7894 6.8072 10.0361 -0.0058 38.6561 0.0020
# 6 -0.0124 -0.0172 -0.0261 3.0065 0.0020 -24.3635
#
#
#
# Elastic Compliance Matrix: (Units=1/GPa)
#
#
# Indices 1 2 3 4 5 6 
#
# 1 0.010073 -0.001143 -0.002956 0.000001 0.001435 -0.000001
# 2 -0.001143 0.011962 0.001140 0.000004 -0.002455 -0.000009
# 3 -0.002956 0.001140 0.007699 -0.000001 -0.002336 -0.000008
# 4 0.000001 0.000004 -0.000001 0.058907 0.000008 0.007269
# 5 0.001435 -0.002455 -0.002336 0.000008 0.026975 0.000007
# 6 -0.000001 -0.000009 -0.000008 0.007269 0.000007 -0.040148
#
#
# Mechanical properties :
#
#
# Convention : Reuss Voigt Hill
#
# Bulk Modulus (GPa) = 41.98603 47.63482 44.81042
# Shear Modulus (GPa) = 55.97631 26.79460 41.38546
#
# Velocity S-wave (km/s) = 4.84114 3.34942 4.16265
# Velocity P-wave (km/s) = 6.98770 5.90782 6.47033
#
# Compressibility (1/GPa) = 0.02381745
#
# Stress axis : x y z
#
# Youngs Moduli (GPa) = 99.27280 83.60016 129.88773
#
# Poissons Ratio (x) = 0.09551 0.38394
# Poissons Ratio (y) = 0.11342 -0.14810
# Poissons Ratio (z) = 0.29344 -0.09532
#
# Static dielectric constant tensor:
#      x y z
#    x 1.882350 -0.000040 0.056520 
#    y -0.000040 0.491090 0.000040 
#    z 0.056520 0.000040 1.922920 
# 
# From -- ./inp_files/326140.got.cif
#   From: 2010.05.17/outbox.cif.g08.bks.cpg/sg12_164_cif.got.tgz:326140.got - 2010.06.03 13:09:07.
