data_PCOD9205086
_publ_section_title
;
Structure prediction by ZEFSAII (Michael W. Deem and Ramdas Pophale) SiO2 
 PCOD9205086
Probable space group: C 2/M
;
_chemical_formula_sum "Si O2"
_cell_formula_units_Z 56
_cell_length_a 26.253328
_cell_length_b 7.533703
_cell_length_c 18.376511
_cell_angle_alpha 90.000000
_cell_angle_beta 134.096073
_cell_angle_gamma 90.000000
_cell_volume 2610.270966
_symmetry_space_group_name_H-M "C 2/M"
_symmetry_group_IT_number 12
_symmetry_cell_setting 'monoclinic'
loop_
_space_group_symop_operation_xyz
x,y,z
-x,y,-z
-x,-y,-z
x,-y,z
1/2+x,1/2+y,z
1/2-x,1/2+y,-z
1/2-x,1/2-y,-z
1/2+x,1/2-y,z
loop_
_atom_site_type_symbol
_atom_site_label
_atom_site_fract_x
_atom_site_fract_y
_atom_site_fract_z
Si Si1 0.336929 0.282917 0.935621
Si Si2 0.924977 0.717987 0.459724
Si Si3 0.323300 0.793482 0.234418
Si Si4 0.835266 0.711974 0.505761
Si Si5 0.327895 0.214158 0.664614
Si Si6 0.430318 0.796467 0.893170
Si Si7 0.665586 0.710114 0.910622
O O1 0.339432 0.500000 0.935548
O O2 0.255594 0.220916 0.850809
O O3 0.376135 0.206587 0.906028
O O4 0.366089 0.227916 0.044065
O O5 0.926479 0.500000 0.463078
O O6 0.868042 0.782077 0.344027
O O7 0.895132 0.776196 0.508679
O O8 0.000000 0.772771 0.500000
O O9 0.359742 0.782882 0.191539
O O10 0.314163 0.000000 0.242245
O O11 0.843290 0.500000 0.517985
O O12 0.754330 0.743963 0.397943
O O13 0.839825 0.779670 0.593522
O O14 0.386905 0.279643 0.780983
O O15 0.332465 0.000000 0.669299
O O16 0.449655 0.000000 0.892560
O O17 0.500000 0.711911 0.000000
O O18 0.657319 0.500000 0.899109
O O19 0.750000 0.750000 0.000000
#
# Coordination Sequence:
#
# PCOD9205086 Si02
#       7
#     8   8   8   8   8   8   8
#     4   9  18  32  50  71  96 128 168 207 241 288
#     4   9  17  30  48  75 105 131 166 207 248 298
#     4   9  17  30  49  74 100 128 167 208 244 289
#     4   9  17  32  55  77  99 130 170 214 252 292
#     4   9  18  33  53  76 101 130 167 211 257 299
#     4  10  21  35  48  71 105 132 162 205 253 306
#     4   9  17  30  48  71  98 124 159 201 240 287
#
# _framework density 21.453710000000001
#
# number of rings (size 3 to 8) (size 9 to 14) (size 15 to 20)
#    0.000    2.857    0.000    2.143    0.000    4.857 
#    2.571    0.714    0.000    1.714    0.000    0.000 
#    0.000    0.000    0.000    0.000    0.000    0.000 
#
# Total GULP energy -155987.456198 kJ/mol
# GULP energy per Si atom -5570.980579 kJ/mol
# Density = 2.140488 g / cm^3
# Si number density = 21.453710 Si / 1000 Ang^3
#
#
#
# Elastic Constant Matrix: (Units=GPa)
#
#
# Indices 1 2 3 4 5 6 
#
# 1 128.3273 0.7606 76.7245 0.0000 -11.7665 0.0000
# 2 0.7606 49.5707 -4.6036 0.0001 3.6927 0.0000
# 3 76.7245 -4.6036 111.3756 0.0000 -8.6611 0.0000
# 4 0.0000 0.0001 0.0000 -16.5481 0.0000 4.7663
# 5 -11.7665 3.6927 -8.6611 0.0000 21.2854 0.0000
# 6 0.0000 0.0000 0.0000 4.7663 0.0000 12.5008
#
#
#
# Elastic Compliance Matrix: (Units=1/GPa)
#
#
# Indices 1 2 3 4 5 6 
#
# 1 0.013632 -0.001359 -0.009132 0.000000 0.004056 0.000000
# 2 -0.001359 0.020610 0.001499 0.000000 -0.003717 0.000000
# 3 -0.009132 0.001499 0.015406 0.000000 0.000961 0.000000
# 4 0.000000 0.000000 0.000000 -0.054450 0.000000 0.020761
# 5 0.004056 -0.003717 0.000961 0.000000 0.050258 0.000000
# 6 0.000000 0.000000 0.000000 0.020761 0.000000 0.072079
#
#
# Mechanical properties :
#
#
# Convention : Reuss Voigt Hill
#
# Bulk Modulus (GPa) = 31.58086 48.33741 39.95913
# Shear Modulus (GPa) = 34.22913 17.87376 26.05145
#
# Velocity S-wave (km/s) = 3.99869 2.88953 3.48848
# Velocity P-wave (km/s) = 6.00598 5.80624 5.90696
#
# Compressibility (1/GPa) = 0.03166475
#
# Stress axis : x y z
#
# Youngs Moduli (GPa) = 73.35547 48.51970 64.90973
#
# Poissons Ratio (x) = 0.06596 0.59274
# Poissons Ratio (y) = 0.09972 -0.09732
# Poissons Ratio (z) = 0.66987 -0.07275
#
# Static dielectric constant tensor:
#      x y z
#    x 1.824890 0.000000 0.007300 
#    y 0.000000 1.856900 0.000000 
#    z 0.007300 0.000000 1.815550 
# 
# From -- ./inp_files/288487.got.cif
#   From: 2010.05.17/outbox.cif.g08.bks.cpg/sg12_145_cif.got.tgz:288487.got - 2010.06.03 13:09:07.
