data_PCOD9205948
_publ_section_title
;
Structure prediction by ZEFSAII (Michael W. Deem and Ramdas Pophale) SiO2 
 PCOD9205948
Probable space group: C 2/M
;
_chemical_formula_sum "Si O2"
_cell_formula_units_Z 56
_cell_length_a 23.446867
_cell_length_b 9.052150
_cell_length_c 15.749578
_cell_angle_alpha 90.000000
_cell_angle_beta 88.023386
_cell_angle_gamma 90.000000
_cell_volume 3340.773225
_symmetry_space_group_name_H-M "C 2/M"
_symmetry_group_IT_number 12
_symmetry_cell_setting 'monoclinic'
loop_
_space_group_symop_operation_xyz
x,y,z
-x,y,-z
-x,-y,-z
x,-y,z
1/2+x,1/2+y,z
1/2-x,1/2+y,-z
1/2-x,1/2-y,-z
1/2+x,1/2-y,z
loop_
_atom_site_type_symbol
_atom_site_label
_atom_site_fract_x
_atom_site_fract_y
_atom_site_fract_z
Si Si1 0.624050 0.175683 0.141416
Si Si2 0.942384 0.677401 0.684752
Si Si3 0.575400 0.822848 0.662209
Si Si4 0.067240 0.825995 0.982497
Si Si5 0.253356 0.324554 0.092671
Si Si6 0.863341 0.677316 0.168067
Si Si7 0.069125 0.170057 0.488468
O O1 0.592131 0.220215 0.229382
O O2 0.692056 0.196291 0.140277
O O3 0.613411 0.000000 0.128216
O O4 0.599731 0.265122 0.063203
O O5 0.939646 0.500000 0.676905
O O6 0.917860 0.749052 0.600415
O O7 0.009573 0.718047 0.687930
O O8 0.616073 0.783214 0.738367
O O9 0.591185 0.748470 0.572284
O O10 0.576403 0.000000 0.651859
O O11 0.089669 0.736366 0.900520
O O12 0.078888 0.000000 0.970220
O O13 0.000000 0.805777 0.000000
O O14 0.263349 0.500000 0.082399
O O15 0.304243 0.250968 0.142712
O O16 0.250000 0.250000 0.000000
O O17 0.859323 0.500000 0.161946
O O18 0.000000 0.175527 0.500000
O O19 0.086748 0.000000 0.484684
#
# Coordination Sequence:
#
# PCOD9205948 Si02
#       7
#     8   8   8   8   8   8   8
#     4  10  21  36  55  76 101 138 179 218 260 312
#     4   9  17  32  53  77 104 135 172 212 256 312
#     4   9  18  32  52  77 104 136 173 211 256 312
#     4  11  23  35  50  76 108 139 170 212 266 317
#     4  11  22  37  56  77 102 137 182 225 266 310
#     4  11  22  36  55  77 103 139 180 221 263 311
#     4   9  17  29  48  76 108 138 166 203 256 314
#
# _framework density 16.762587
#
# number of rings (size 3 to 8) (size 9 to 14) (size 15 to 20)
#    0.000    2.000    1.429    2.571    0.000    6.286 
#    0.000    2.857    0.000    0.857    0.000    0.000 
#    0.000    0.000    0.000    0.000    0.000    0.000 
#
# Total GULP energy -156275.982207 kJ/mol
# GULP energy per Si atom -5581.285079 kJ/mol
# Density = 1.672443 g / cm^3
# Si number density = 16.762587 Si / 1000 Ang^3
#
#
#
# Elastic Constant Matrix: (Units=GPa)
#
#
# Indices 1 2 3 4 5 6 
#
# 1 63.1312 33.3354 29.4996 0.0000 25.3400 0.0000
# 2 33.3354 53.1707 40.1829 0.0000 20.9057 0.0000
# 3 29.4996 40.1829 107.0997 0.0000 37.5689 0.0000
# 4 0.0000 0.0000 0.0000 13.4445 0.0000 5.1128
# 5 25.3400 20.9057 37.5689 0.0000 21.2518 0.0000
# 6 0.0000 0.0000 0.0000 5.1128 0.0000 22.7805
#
#
#
# Elastic Compliance Matrix: (Units=1/GPa)
#
#
# Indices 1 2 3 4 5 6 
#
# 1 0.041145 -0.012236 0.016439 0.000000 -0.066083 0.000000
# 2 -0.012236 0.034551 -0.007340 0.000000 -0.006423 0.000000
# 3 0.016439 -0.007340 0.031341 0.000000 -0.067786 0.000000
# 4 0.000000 0.000000 0.000000 0.081321 0.000000 -0.018251
# 5 -0.066083 -0.006423 -0.067786 0.000000 0.252001 0.000000
# 6 0.000000 0.000000 0.000000 -0.018251 0.000000 0.047994
#
#
# Mechanical properties :
#
#
# Convention : Reuss Voigt Hill
#
# Bulk Modulus (GPa) = 9.92429 47.71526 28.81977
# Shear Modulus (GPa) = 9.46585 19.52094 14.49339
#
# Velocity S-wave (km/s) = 2.37892 3.41626 2.94364
# Velocity P-wave (km/s) = 3.67138 6.63990 5.36504
#
# Compressibility (1/GPa) = 0.10076288
#
# Stress axis : x y z
#
# Youngs Moduli (GPa) = 24.30448 28.94242 31.90683
#
# Poissons Ratio (x) = 0.35415 -0.52452
# Poissons Ratio (y) = 0.29740 0.23419
# Poissons Ratio (z) = -0.39954 0.21243
#
# Static dielectric constant tensor:
#      x y z
#    x 1.554540 0.000000 -0.002840 
#    y 0.000000 1.562990 0.000000 
#    z -0.002840 0.000000 1.541760 
# 
# From -- ./inp_files/231006.got.cif
#   From: 2010.05.17/outbox.cif.g08.bks.cpg/sg12_116_cif.got.tgz:231006.got - 2010.06.03 13:09:07.
