data_PCOD9205558
_publ_section_title
;
Structure prediction by ZEFSAII (Michael W. Deem and Ramdas Pophale) SiO2 
 PCOD9205558
Probable space group: C 2/M
;
_chemical_formula_sum "Si O2"
_cell_formula_units_Z 56
_cell_length_a 7.860833
_cell_length_b 22.628911
_cell_length_c 14.245207
_cell_angle_alpha 90.000000
_cell_angle_beta 118.893552
_cell_angle_gamma 90.000000
_cell_volume 2218.536198
_symmetry_space_group_name_H-M "C 2/M"
_symmetry_group_IT_number 12
_symmetry_cell_setting 'monoclinic'
loop_
_space_group_symop_operation_xyz
x,y,z
-x,y,-z
-x,-y,-z
x,-y,z
1/2+x,1/2+y,z
1/2-x,1/2+y,-z
1/2-x,1/2-y,-z
1/2+x,1/2-y,z
loop_
_atom_site_type_symbol
_atom_site_label
_atom_site_fract_x
_atom_site_fract_y
_atom_site_fract_z
Si Si1 0.404431 0.823344 0.294595
Si Si2 0.092558 0.882056 0.735925
Si Si3 0.421877 0.935561 0.702376
Si Si4 0.672324 0.280893 0.620146
Si Si5 0.843031 0.930988 0.042498
Si Si6 0.286257 0.932570 0.462880
Si Si7 0.270171 0.688714 0.950470
O O1 0.403249 0.893140 0.280617
O O2 0.296899 0.787637 0.346102
O O3 0.630369 0.807052 0.368171
O O4 0.333032 0.801234 0.175517
O O5 0.287409 0.914378 0.750699
O O6 0.129492 0.815816 0.706014
O O7 0.073223 0.901736 0.838743
O O8 0.901615 0.903201 0.630058
O O9 0.279757 0.935863 0.573876
O O10 0.499586 0.000000 0.741757
O O11 0.500000 0.288229 0.500000
O O12 0.775975 0.000000 0.040793
O O13 0.703117 0.875643 0.973277
O O14 0.000000 0.936219 0.000000
O O15 0.500000 0.905245 0.500000
O O16 0.294263 0.000000 0.428182
O O17 0.500000 0.682167 0.000000
O O18 0.250000 0.750000 0.000000
#
# Coordination Sequence:
#
# PCOD9205558 Si02
#       7
#     8   8   8   8   8   8   8
#     4  11  24  42  66  95 133 177 219 276 338 398
#     4  11  21  41  68  94 132 181 226 280 348 407
#     4  10  22  40  64  97 133 175 225 275 337 415
#     4  11  24  43  69 105 140 174 220 273 339 420
#     4  10  23  42  66  98 133 175 231 290 345 401
#     4  10  21  35  57  93 132 171 217 269 330 405
#     4  11  24  44  68  95 129 175 232 287 338 401
#
# _framework density 25.241869999999999
#
# number of rings (size 3 to 8) (size 9 to 14) (size 15 to 20)
#    0.000    1.429    0.000    5.571    0.000    8.000 
#    0.000    4.286    0.000    4.714    0.000    0.000 
#    0.000    0.000    0.000    0.000    0.000    0.000 
#
# Total GULP energy -156512.983862 kJ/mol
# GULP energy per Si atom -5589.749424 kJ/mol
# Density = 2.518442 g / cm^3
# Si number density = 25.241870 Si / 1000 Ang^3
#
#
#
# Elastic Constant Matrix: (Units=GPa)
#
#
# Indices 1 2 3 4 5 6 
#
# 1 74.2982 29.3141 -3.7379 0.0000 -10.9572 0.0000
# 2 29.3141 204.4863 13.6732 0.0000 -7.8601 0.0000
# 3 -3.7379 13.6732 97.5909 0.0000 -20.1728 0.0000
# 4 0.0000 0.0000 0.0000 31.7609 0.0000 -8.6017
# 5 -10.9572 -7.8601 -20.1728 0.0000 33.4527 0.0000
# 6 0.0000 0.0000 0.0000 -8.6017 0.0000 29.7728
#
#
#
# Elastic Compliance Matrix: (Units=1/GPa)
#
#
# Indices 1 2 3 4 5 6 
#
# 1 0.015240 -0.002102 0.002065 0.000000 0.005743 0.000000
# 2 -0.002102 0.005248 -0.000803 0.000000 0.000060 0.000000
# 3 0.002065 -0.000803 0.012040 0.000000 0.007748 0.000000
# 4 0.000000 0.000000 0.000000 0.034158 0.000000 0.009869
# 5 0.005743 0.000060 0.007748 0.000000 0.036461 0.000000
# 6 0.000000 0.000000 0.000000 0.009869 0.000000 0.036439
#
#
# Mechanical properties :
#
#
# Convention : Reuss Voigt Hill
#
# Bulk Modulus (GPa) = 32.41769 50.54157 41.47963
# Shear Modulus (GPa) = 32.99306 41.47236 37.23271
#
# Velocity S-wave (km/s) = 3.61927 4.05779 3.84479
# Velocity P-wave (km/s) = 5.50783 6.48233 6.01485
#
# Compressibility (1/GPa) = 0.03084735
#
# Stress axis : x y z
#
# Youngs Moduli (GPa) = 65.61893 190.56109 83.05558
#
# Poissons Ratio (x) = 0.40056 -0.17154
# Poissons Ratio (y) = 0.13793 0.06672
# Poissons Ratio (z) = -0.13553 0.15308
#
# Static dielectric constant tensor:
#      x y z
#    x 1.988550 0.000000 -0.053080 
#    y 0.000000 2.129390 0.000000 
#    z -0.053080 0.000000 1.993600 
# 
# From -- ./inp_files/198996.got.cif
#   From: 2010.05.17/outbox.cif.g08.bks.cpg/sg12_100_cif.got.tgz:198996.got - 2010.06.03 13:09:07.
