data_PCOD9205395
_publ_section_title
;
Structure prediction by ZEFSAII (Michael W. Deem and Ramdas Pophale) SiO2 
 PCOD9205395
Probable space group: C 2/M
;
_chemical_formula_sum "Si O2"
_cell_formula_units_Z 28
_cell_length_a 5.040474
_cell_length_b 17.357166
_cell_length_c 16.631947
_cell_angle_alpha 90.000000
_cell_angle_beta 74.058645
_cell_angle_gamma 90.000000
_cell_volume 1399.143127
_symmetry_space_group_name_H-M "C 2/M"
_symmetry_group_IT_number 12
_symmetry_cell_setting 'monoclinic'
loop_
_space_group_symop_operation_xyz
x,y,z
-x,y,-z
-x,-y,-z
x,-y,z
1/2+x,1/2+y,z
1/2-x,1/2+y,-z
1/2-x,1/2-y,-z
1/2+x,1/2-y,z
loop_
_atom_site_type_symbol
_atom_site_label
_atom_site_fract_x
_atom_site_fract_y
_atom_site_fract_z
Si Si1 0.000000 0.192856 0.000000
Si Si2 0.431635 0.911393 0.910052
Si Si3 0.355860 0.696946 0.587792
Si Si4 0.208335 0.805027 0.230587
O O1 0.855755 0.134737 0.074412
O O2 0.750000 0.250000 0.000000
O O3 0.658789 0.865348 0.841168
O O4 0.407396 0.000000 0.887692
O O5 0.500000 0.909656 0.000000
O O6 0.500000 0.655764 0.500000
O O7 0.557828 0.770545 0.587353
O O8 0.335752 0.658908 0.676838
O O9 0.430513 0.736064 0.224358
#
# Coordination Sequence:
#
# PCOD9205395 Si02
#       4
#     4   8   8   8
#     4  12  23  40  61  80 102 138 188 234 271 318
#     4  11  25  41  56  80 115 151 185 227 280 328
#     4   8  14  27  48  75 105 132 167 220 271 313
#     4  10  21  35  55  82 106 140 186 226 268 320
#
# _framework density 20.012249000000001
#
# number of rings (size 3 to 8) (size 9 to 14) (size 15 to 20)
#    0.000    2.000    1.429    2.143    4.000    0.000 
#    0.000    0.000    0.000    0.857    0.000    0.000 
#    0.000   22.857    0.000    0.000    0.000    3.429 
#
# Total GULP energy -78103.527259 kJ/mol
# GULP energy per Si atom -5578.823376 kJ/mol
# Density = 1.996670 g / cm^3
# Si number density = 20.012249 Si / 1000 Ang^3
#
#
#
# Elastic Constant Matrix: (Units=GPa)
#
#
# Indices 1 2 3 4 5 6 
#
# 1 107.2519 15.7472 11.6156 0.0000 -6.4537 0.0000
# 2 15.7472 81.7562 39.8042 0.0000 -5.4959 0.0000
# 3 11.6156 39.8042 166.1977 0.0000 -12.4396 0.0000
# 4 0.0000 0.0000 0.0000 7.3544 0.0000 7.3743
# 5 -6.4537 -5.4959 -12.4396 0.0000 30.8214 0.0000
# 6 0.0000 0.0000 0.0000 7.3743 0.0000 8.6866
#
#
#
# Elastic Compliance Matrix: (Units=1/GPa)
#
#
# Indices 1 2 3 4 5 6 
#
# 1 0.009687 -0.001681 -0.000150 0.000000 0.001668 0.000000
# 2 -0.001681 0.014178 -0.003212 0.000000 0.000880 0.000000
# 3 -0.000150 -0.003212 0.006962 0.000000 0.002206 0.000000
# 4 0.000000 0.000000 0.000000 0.913881 0.000000 -0.775813
# 5 0.001668 0.000880 0.002206 0.000000 0.033841 0.000000
# 6 0.000000 0.000000 0.000000 -0.775813 0.000000 0.773723
#
#
# Mechanical properties :
#
#
# Convention : Reuss Voigt Hill
#
# Bulk Modulus (GPa) = 48.21203 54.39329 51.30266
# Shear Modulus (GPa) = 2.82602 28.57508 15.70055
#
# Velocity S-wave (km/s) = 1.18963 3.78283 2.80402
# Velocity P-wave (km/s) = 5.10201 6.80579 6.01453
#
# Compressibility (1/GPa) = 0.02074171
#
# Stress axis : x y z
#
# Youngs Moduli (GPa) = 103.22874 70.52990 143.64018
#
# Poissons Ratio (x) = 0.11855 0.02149
# Poissons Ratio (y) = 0.17352 0.46143
# Poissons Ratio (z) = 0.01544 0.22657
#
# Static dielectric constant tensor:
#      x y z
#    x 1.763340 0.000000 0.043730 
#    y 0.000000 1.649440 0.000000 
#    z 0.043730 0.000000 1.838790 
# 
# From -- ./inp_files/252433.got.cif
#   From: 2010.05.17/outbox.cif.g08.bks.cpg/sg12_127_cif.got.tgz:252433.got - 2010.06.03 13:09:07.
