data_PCOD9205854
_publ_section_title
;
Structure prediction by ZEFSAII (Michael W. Deem and Ramdas Pophale) SiO2 
 PCOD9205854
Probable space group: C 2/M
;
_chemical_formula_sum "Si O2"
_cell_formula_units_Z 48
_cell_length_a 9.819493
_cell_length_b 7.404406
_cell_length_c 25.733624
_cell_angle_alpha 90.000000
_cell_angle_beta 79.886116
_cell_angle_gamma 90.000000
_cell_volume 1841.953254
_symmetry_space_group_name_H-M "C 2/M"
_symmetry_group_IT_number 12
_symmetry_cell_setting 'monoclinic'
loop_
_space_group_symop_operation_xyz
x,y,z
-x,y,-z
-x,-y,-z
x,-y,z
1/2+x,1/2+y,z
1/2-x,1/2+y,-z
1/2-x,1/2-y,-z
1/2+x,1/2-y,z
loop_
_atom_site_type_symbol
_atom_site_label
_atom_site_fract_x
_atom_site_fract_y
_atom_site_fract_z
Si Si1 0.759001 0.291046 0.119433
Si Si2 0.261136 0.719307 0.277854
Si Si3 0.412922 0.718984 0.555843
Si Si4 0.368460 0.291118 0.380507
Si Si5 0.537079 0.781053 0.055571
Si Si6 0.539321 0.709009 0.214093
O O1 0.776435 0.500000 0.132982
O O2 0.681406 0.283407 0.069129
O O3 0.912115 0.216291 0.101382
O O4 0.649167 0.206536 0.166801
O O5 0.257385 0.500000 0.278469
O O6 0.305691 0.786188 0.331688
O O7 0.385321 0.781737 0.231292
O O8 0.116025 0.782242 0.264683
O O9 0.500000 0.777005 0.500000
O O10 0.412044 0.500000 0.556264
O O11 0.495665 0.785841 0.601431
O O12 0.255861 0.782127 0.569495
O O13 0.398828 0.500000 0.367327
O O14 0.538529 0.000000 0.055803
O O15 0.500000 0.722575 0.000000
O O16 0.522786 0.500000 0.200762
#
# Coordination Sequence:
#
# PCOD9205854 Si02
#       6
#     8   8   8   8   8   8
#     4  10  21  36  55  80 107 139 180 221 266 320
#     4  10  21  36  54  78 107 139 176 218 265 316
#     4  10  21  37  57  81 109 142 179 219 265 315
#     4  10  21  36  54  79 109 139 176 220 263 314
#     4  10  21  36  54  79 110 142 179 223 268 317
#     4  10  21  37  56  79 108 140 177 222 267 316
#
# _framework density 26.059293
#
# number of rings (size 3 to 8) (size 9 to 14) (size 15 to 20)
#    0.000    2.000    0.000    3.000    0.000    5.333 
#    0.000    0.000    0.000    0.000    0.000    0.000 
#    0.000    0.000    0.000    0.000    0.000    0.000 
#
# Total GULP energy -134365.361094 kJ/mol
# GULP energy per Si atom -5598.556712 kJ/mol
# Density = 2.599998 g / cm^3
# Si number density = 26.059293 Si / 1000 Ang^3
#
#
#
# Elastic Constant Matrix: (Units=GPa)
#
#
# Indices 1 2 3 4 5 6 
#
# 1 123.6127 -5.0735 -7.5257 0.0000 4.5133 0.0000
# 2 -5.0735 103.8645 5.8419 0.0000 -0.1976 0.0000
# 3 -7.5257 5.8419 74.4388 0.0000 5.0927 0.0000
# 4 0.0000 0.0000 0.0000 14.0380 0.0000 6.9590
# 5 4.5133 -0.1976 5.0927 0.0000 51.9690 0.0000
# 6 0.0000 0.0000 0.0000 6.9590 0.0000 -0.1014
#
#
#
# Elastic Compliance Matrix: (Units=1/GPa)
#
#
# Indices 1 2 3 4 5 6 
#
# 1 0.008185 0.000350 0.000854 0.000000 -0.000793 0.000000
# 2 0.000350 0.009686 -0.000730 0.000000 0.000078 0.000000
# 3 0.000854 -0.000730 0.013674 0.000000 -0.001417 0.000000
# 4 0.000000 0.000000 0.000000 0.002034 0.000000 0.139595
# 5 -0.000793 0.000078 -0.001417 0.000000 0.019450 0.000000
# 6 0.000000 0.000000 0.000000 0.139595 0.000000 -0.281597
#
#
# Mechanical properties :
#
#
# Convention : Reuss Voigt Hill
#
# Bulk Modulus (GPa) = 30.77420 32.04461 31.40940
# Shear Modulus (GPa) = -22.86406 33.75934 5.44764
#
# Velocity S-wave (km/s) = -2.96528 3.60318 1.44742
# Velocity P-wave (km/s) = 0.33325 5.44372 3.85650
#
# Compressibility (1/GPa) = 0.03249476
#
# Stress axis : x y z
#
# Youngs Moduli (GPa) = 122.17279 103.23916 73.12901
#
# Poissons Ratio (x) = -0.03616 -0.06247
# Poissons Ratio (y) = -0.04279 0.05339
# Poissons Ratio (z) = -0.10437 0.07537
#
# Static dielectric constant tensor:
#      x y z
#    x 1.948230 0.000000 -0.021430 
#    y 0.000000 1.960990 0.000000 
#    z -0.021430 0.000000 2.122690 
# 
# From -- ./inp_files/331985.got.cif
#   From: 2010.05.17/outbox.cif.g08.bks.cpg/sg12_166_cif.got.tgz:331985.got - 2010.06.03 13:09:07.
