data_PCOD9205967
_publ_section_title
;
Structure prediction by ZEFSAII (Michael W. Deem and Ramdas Pophale) SiO2 
 PCOD9205967
Probable space group: C 2/M
;
_chemical_formula_sum "Si O2"
_cell_formula_units_Z 48
_cell_length_a 32.061101
_cell_length_b 8.435002
_cell_length_c 9.499432
_cell_angle_alpha 90.000000
_cell_angle_beta 90.041729
_cell_angle_gamma 90.000000
_cell_volume 2568.982496
_symmetry_space_group_name_H-M "C 2/M"
_symmetry_group_IT_number 12
_symmetry_cell_setting 'monoclinic'
loop_
_space_group_symop_operation_xyz
x,y,z
-x,y,-z
-x,-y,-z
x,-y,z
1/2+x,1/2+y,z
1/2-x,1/2+y,-z
1/2-x,1/2-y,-z
1/2+x,1/2-y,z
loop_
_atom_site_type_symbol
_atom_site_label
_atom_site_fract_x
_atom_site_fract_y
_atom_site_fract_z
Si Si1 0.460715 0.307098 0.587892
Si Si2 0.789073 0.190439 0.409661
Si Si3 0.368859 0.810362 0.910471
Si Si4 0.040484 0.808599 0.085155
Si Si5 0.368130 0.691698 0.590699
Si Si6 0.210807 0.690319 0.909722
O O1 0.500000 0.247555 0.500000
O O2 0.461213 0.500000 0.579998
O O3 0.464880 0.264400 0.751463
O O4 0.414357 0.255848 0.542235
O O5 0.750000 0.250000 0.500000
O O6 0.831214 0.245669 0.488855
O O7 0.787083 0.249657 0.249902
O O8 0.788808 0.000000 0.408851
O O9 0.414547 0.755443 0.960959
O O10 0.362158 0.746293 0.751840
O O11 0.368159 0.000000 0.904189
O O12 0.331715 0.756214 0.012615
O O13 0.042257 0.000000 0.076658
O O14 0.000000 0.754033 0.000000
O O15 0.367954 0.500000 0.592308
O O16 0.211372 0.500000 0.908533
O O17 0.250000 0.750000 0.000000
#
# Coordination Sequence:
#
# PCOD9205967 Si02
#       6
#     8   8   8   8   8   8
#     4   8  14  27  48  73 100 129 166 213 259 304
#     4  11  23  38  58  83 111 144 181 225 276 328
#     4  10  21  36  55  79 109 145 181 223 276 327
#     4   9  18  32  52  77 104 139 182 224 266 317
#     4   9  19  35  55  79 106 139 179 221 267 322
#     4  11  24  40  58  82 111 145 186 229 277 333
#
# _framework density 18.684439999999999
#
# number of rings (size 3 to 8) (size 9 to 14) (size 15 to 20)
#    0.000    2.333    0.000    3.500    0.000    8.333 
#    0.000    3.333    0.000    8.000    0.000    0.000 
#    0.000    0.000    0.000    0.000    0.000    0.000 
#
# Total GULP energy -133941.286817 kJ/mol
# GULP energy per Si atom -5580.886951 kJ/mol
# Density = 1.864191 g / cm^3
# Si number density = 18.684440 Si / 1000 Ang^3
#
#
#
# Elastic Constant Matrix: (Units=GPa)
#
#
# Indices 1 2 3 4 5 6 
#
# 1 228.6308 32.5396 126.2019 0.0000 -0.1336 0.0000
# 2 32.5396 22.7438 22.3558 0.0000 0.5719 0.0000
# 3 126.2019 22.3558 124.7768 0.0000 -0.1959 0.0000
# 4 0.0000 0.0000 0.0000 26.6369 0.0000 -1.2256
# 5 -0.1336 0.5719 -0.1959 0.0000 44.2335 0.0000
# 6 0.0000 0.0000 0.0000 -1.2256 0.0000 26.4698
#
#
#
# Elastic Compliance Matrix: (Units=1/GPa)
#
#
# Indices 1 2 3 4 5 6 
#
# 1 0.010447 -0.005537 -0.009574 0.000000 0.000061 0.000000
# 2 -0.005537 0.056325 -0.004492 0.000000 -0.000765 0.000000
# 3 -0.009574 -0.004492 0.018502 0.000000 0.000111 0.000000
# 4 0.000000 0.000000 0.000000 0.037622 0.000000 0.001742
# 5 0.000061 -0.000765 0.000111 0.000000 0.022618 0.000000
# 6 0.000000 0.000000 0.000000 0.001742 0.000000 0.037859
#
#
# Mechanical properties :
#
#
# Convention : Reuss Voigt Hill
#
# Bulk Modulus (GPa) = 21.70730 82.03844 51.87287
# Shear Modulus (GPa) = 21.01411 32.47167 26.74289
#
# Velocity S-wave (km/s) = 3.35727 4.17333 3.78735
# Velocity P-wave (km/s) = 5.16444 8.19908 6.85188
#
# Compressibility (1/GPa) = 0.04606745
#
# Stress axis : x y z
#
# Youngs Moduli (GPa) = 95.72542 17.75416 54.04690
#
# Poissons Ratio (x) = 0.09830 0.51743
# Poissons Ratio (y) = 0.53003 0.24280
# Poissons Ratio (z) = 0.91645 0.07976
#
# Static dielectric constant tensor:
#      x y z
#    x 1.658900 0.000000 0.001810 
#    y 0.000000 1.646620 0.000000 
#    z 0.001810 0.000000 1.613520 
# 
# From -- ./inp_files/108750.got.cif
#   From: 2010.05.17/outbox.cif.g08.bks.cpg/sg12_55_cif.got.tgz:108750.got - 2010.06.03 13:09:07.
