data_PCOD9205151
_publ_section_title
;
Structure prediction by ZEFSAII (Michael W. Deem and Ramdas Pophale) SiO2 
 PCOD9205151
Probable space group: C 2/M
;
_chemical_formula_sum "Si O2"
_cell_formula_units_Z 36
_cell_length_a 29.459619
_cell_length_b 8.387761
_cell_length_c 12.231562
_cell_angle_alpha 90.000000
_cell_angle_beta 153.666548
_cell_angle_gamma 90.000000
_cell_volume 1340.729833
_symmetry_space_group_name_H-M "C 2/M"
_symmetry_group_IT_number 12
_symmetry_cell_setting 'monoclinic'
loop_
_space_group_symop_operation_xyz
x,y,z
-x,y,-z
-x,-y,-z
x,-y,z
1/2+x,1/2+y,z
1/2-x,1/2+y,-z
1/2-x,1/2-y,-z
1/2+x,1/2-y,z
loop_
_atom_site_type_symbol
_atom_site_label
_atom_site_fract_x
_atom_site_fract_y
_atom_site_fract_z
Si Si1 0.409239 0.670939 0.393117
Si Si2 0.900564 0.500000 0.075777
Si Si3 0.418303 0.000000 0.689892
Si Si4 0.413344 0.672246 0.057427
Si Si5 0.378725 0.000000 0.362296
Si Si6 0.859008 0.815178 0.694615
O O1 0.500000 0.667136 0.500000
O O2 0.356141 0.500000 0.276030
O O3 0.347872 0.832699 0.246157
O O4 0.473563 0.684814 0.645594
O O5 0.964030 0.500000 0.097832
O O6 0.994267 0.500000 0.364611
O O7 0.850798 0.326164 0.966188
O O8 0.395657 0.163542 0.703682
O O9 0.356103 0.000000 0.442188
O O10 0.372622 0.500000 0.005421
O O11 0.418573 0.669272 0.938297
O O12 0.750000 0.750000 0.500000
O O13 0.853315 0.000000 0.638092
#
# Coordination Sequence:
#
# PCOD9205151 Si02
#       6
#     8   4   4   8   4   8
#     4   9  16  29  49  74 107 128 154 195 251 309
#     4   8  17  31  48  70 100 129 152 197 244 306
#     4  10  21  35  51  73 101 139 164 207 248 293
#     4   9  18  31  48  74 104 128 162 202 245 298
#     4   8  17  30  46  71 104 127 158 193 240 303
#     4  11  22  35  50  68  99 135 176 209 239 288
#
# _framework density 26.851046
#
# number of rings (size 3 to 8) (size 9 to 14) (size 15 to 20)
#    0.667    2.000    1.111    1.000    0.000    3.556 
#    0.000    2.222    0.000    0.000    0.000    1.556 
#    0.000    0.000    0.000    0.000    0.000    0.000 
#
# Total GULP energy -100491.958161 kJ/mol
# GULP energy per Si atom -5582.886564 kJ/mol
# Density = 2.678993 g / cm^3
# Si number density = 26.851046 Si / 1000 Ang^3
#
#
#
# Elastic Constant Matrix: (Units=GPa)
#
#
# Indices 1 2 3 4 5 6 
#
# 1 49.7800 35.9996 67.8235 0.0000 -25.4690 0.0000
# 2 35.9996 377.2628 66.0732 0.0000 -11.1584 0.0000
# 3 67.8235 66.0732 9.9960 0.0000 7.8504 0.0000
# 4 0.0000 0.0000 0.0000 33.2426 0.0000 -8.9001
# 5 -25.4690 -11.1584 7.8504 0.0000 24.6591 0.0000
# 6 0.0000 0.0000 0.0000 -8.9001 0.0000 22.1611
#
#
#
# Elastic Compliance Matrix: (Units=1/GPa)
#
#
# Indices 1 2 3 4 5 6 
#
# 1 0.001060 -0.002631 0.013690 0.000000 -0.004453 0.000000
# 2 -0.002631 0.002881 -0.000115 0.000000 -0.001376 0.000000
# 3 0.013690 -0.000115 -0.004195 0.000000 0.015423 0.000000
# 4 0.000000 0.000000 0.000000 0.033706 0.000000 0.013537
# 5 -0.004453 -0.001376 0.015423 0.000000 0.030421 0.000000
# 6 0.000000 0.000000 0.000000 0.013537 0.000000 0.050561
#
#
# Mechanical properties :
#
#
# Convention : Reuss Voigt Hill
#
# Bulk Modulus (GPa) = 46.22308 86.31461 66.26885
# Shear Modulus (GPa) = 50.12145 33.82207 41.97176
#
# Velocity S-wave (km/s) = 4.32516 3.55296 3.95794
# Velocity P-wave (km/s) = 6.49574 7.00335 6.75432
#
# Compressibility (1/GPa) = 0.02163421
#
# Stress axis : x y z
#
# Youngs Moduli (GPa) = 942.99844 347.07833 -238.37829
#
# Poissons Ratio (x) = 0.91299 3.26334
# Poissons Ratio (y) = 2.48056 -0.02752
# Poissons Ratio (z) = -12.90942 0.04007
#
# Static dielectric constant tensor:
#      x y z
#    x 2.098800 0.000000 -0.010340 
#    y 0.000000 2.219430 0.000000 
#    z -0.010340 0.000000 2.132630 
# 
# From -- ./inp_files/186080.got.cif
#   From: 2010.05.17/outbox.cif.g08.bks.cpg/sg12_94_cif.got.tgz:186080.got - 2010.06.03 13:09:07.
