data_PCOD9205617
_publ_section_title
;
Structure prediction by ZEFSAII (Michael W. Deem and Ramdas Pophale) SiO2 
 PCOD9205617
Probable space group: C 2/M
;
_chemical_formula_sum "Si O2"
_cell_formula_units_Z 56
_cell_length_a 8.941365
_cell_length_b 27.169159
_cell_length_c 17.989074
_cell_angle_alpha 90.000000
_cell_angle_beta 143.311407
_cell_angle_gamma 90.000000
_cell_volume 2610.968709
_symmetry_space_group_name_H-M "C 2/M"
_symmetry_group_IT_number 12
_symmetry_cell_setting 'monoclinic'
loop_
_space_group_symop_operation_xyz
x,y,z
-x,y,-z
-x,-y,-z
x,-y,z
1/2+x,1/2+y,z
1/2-x,1/2+y,-z
1/2-x,1/2-y,-z
1/2+x,1/2-y,z
loop_
_atom_site_type_symbol
_atom_site_label
_atom_site_fract_x
_atom_site_fract_y
_atom_site_fract_z
Si Si1 0.597053 0.134426 0.872912
Si Si2 0.567723 0.556071 0.915834
Si Si3 0.758141 0.943401 0.555678
Si Si4 0.035987 0.607107 0.681000
Si Si5 0.745669 0.236710 0.870609
Si Si6 0.863219 0.189199 0.760333
Si Si7 0.821675 0.105912 0.178069
O O1 0.489983 0.123636 0.747395
O O2 0.697273 0.190044 0.905670
O O3 0.396271 0.126301 0.857489
O O4 0.806587 0.094063 0.976873
O O5 0.581909 0.500000 0.946707
O O6 0.281055 0.571916 0.784568
O O7 0.711818 0.562238 0.894335
O O8 0.500000 0.942563 0.500000
O O9 0.686877 0.921125 0.447614
O O10 0.960795 0.911182 0.679350
O O11 0.841654 0.000000 0.583932
O O12 0.117699 0.653757 0.660951
O O13 0.822596 0.214703 0.822552
O O14 0.488205 0.267559 0.761044
O O15 0.000000 0.263225 0.000000
O O16 0.080011 0.148942 0.836852
#
# Coordination Sequence:
#
# PCOD9205617 Si02
#       7
#     8   8   8   8   8   8   8
#     4  11  24  39  58  91 131 160 197 255 310 366
#     4  11  22  38  59  85 123 167 202 242 307 375
#     4  11  21  40  69  89 116 163 214 259 295 359
#     4  10  22  40  62  90 121 161 207 253 307 361
#     4  11  21  37  60  88 122 164 208 246 301 367
#     4  10  21  35  59  86 116 152 197 252 297 355
#     4  11  23  39  61  90 123 161 205 253 305 360
#
# _framework density 21.447977999999999
#
# number of rings (size 3 to 8) (size 9 to 14) (size 15 to 20)
#    0.000    1.286    2.857    5.571    0.000    6.286 
#    0.000    0.714    0.000   15.429    0.000    0.000 
#    0.000    0.000    0.000    0.000    0.000    0.000 
#
# Total GULP energy -156129.477825 kJ/mol
# GULP energy per Si atom -5576.052779 kJ/mol
# Density = 2.139916 g / cm^3
# Si number density = 21.447978 Si / 1000 Ang^3
#
#
#
# Elastic Constant Matrix: (Units=GPa)
#
#
# Indices 1 2 3 4 5 6 
#
# 1 126.7414 21.1818 6.6774 0.0000 -2.3512 -0.0001
# 2 21.1818 103.9093 17.6902 -0.0002 -0.6408 -0.0004
# 3 6.6774 17.6902 64.1194 0.0012 -10.6745 0.0024
# 4 0.0000 -0.0002 0.0012 14.2560 0.0002 -9.0689
# 5 -2.3512 -0.6408 -10.6745 0.0002 23.3031 0.0004
# 6 -0.0001 -0.0004 0.0024 -9.0689 0.0004 18.8940
#
#
#
# Elastic Compliance Matrix: (Units=1/GPa)
#
#
# Indices 1 2 3 4 5 6 
#
# 1 0.008188 -0.001614 -0.000300 0.000000 0.000644 0.000000
# 2 -0.001614 0.010441 -0.002914 0.000001 -0.001211 0.000001
# 3 -0.000300 -0.002914 0.017768 -0.000005 0.008028 -0.000005
# 4 0.000000 0.000001 -0.000005 0.100979 -0.000004 0.048468
# 5 0.000644 -0.001211 0.008028 -0.000004 0.046622 -0.000004
# 6 0.000000 0.000001 -0.000005 0.048468 -0.000004 0.076191
#
#
# Mechanical properties :
#
#
# Convention : Reuss Voigt Hill
#
# Bulk Modulus (GPa) = 37.39691 42.87432 40.13561
# Shear Modulus (GPa) = 17.93669 27.90535 22.92102
#
# Velocity S-wave (km/s) = 2.89500 3.61095 3.27261
# Velocity P-wave (km/s) = 5.35245 6.11707 5.74749
#
# Compressibility (1/GPa) = 0.02674018
#
# Stress axis : x y z
#
# Youngs Moduli (GPa) = 122.13624 95.77209 56.28185
#
# Poissons Ratio (x) = 0.15457 0.01689
# Poissons Ratio (y) = 0.19712 0.16402
# Poissons Ratio (z) = 0.03665 0.27910
#
# Static dielectric constant tensor:
#      x y z
#    x 1.831640 0.000000 0.003460 
#    y 0.000000 1.837180 0.000000 
#    z 0.003460 0.000000 1.760720 
# 
# From -- ./inp_files/259853.got.cif
#   From: 2010.05.17/outbox.cif.g08.bks.cpg/sg12_130_cif.got.tgz:259853.got - 2010.06.03 13:09:07.
