data_PCOD9205235
_publ_section_title
;
Structure prediction by ZEFSAII (Michael W. Deem and Ramdas Pophale) SiO2 
 PCOD9205235
Probable space group: C 2/M
;
_chemical_formula_sum "Si O2"
_cell_formula_units_Z 48
_cell_length_a 13.095798
_cell_length_b 13.654948
_cell_length_c 28.978657
_cell_angle_alpha 90.000000
_cell_angle_beta 28.911779
_cell_angle_gamma 90.000000
_cell_volume 2505.318435
_symmetry_space_group_name_H-M "C 2/M"
_symmetry_group_IT_number 12
_symmetry_cell_setting 'monoclinic'
loop_
_space_group_symop_operation_xyz
x,y,z
-x,y,-z
-x,-y,-z
x,-y,z
1/2+x,1/2+y,z
1/2-x,1/2+y,-z
1/2-x,1/2-y,-z
1/2+x,1/2-y,z
loop_
_atom_site_type_symbol
_atom_site_label
_atom_site_fract_x
_atom_site_fract_y
_atom_site_fract_z
Si Si1 0.072052 0.116605 0.597951
Si Si2 0.735575 0.113089 0.887586
Si Si3 0.408905 0.754679 0.741576
Si Si4 0.808155 0.115267 0.611944
Si Si5 0.968808 0.382559 0.565045
Si Si6 0.339381 0.384846 0.232462
O O1 0.006399 0.173550 0.669174
O O2 0.915745 0.139610 0.618198
O O3 0.317557 0.140371 0.491307
O O4 0.063978 0.000000 0.609007
O O5 0.787857 0.194975 0.829043
O O6 0.911550 0.125091 0.857847
O O7 0.762416 0.000000 0.859421
O O8 0.500000 0.122431 0.000000
O O9 0.602352 0.821639 0.682543
O O10 0.254645 0.821351 0.771529
O O11 0.000000 0.127465 0.500000
O O12 0.751338 0.000000 0.633917
O O13 0.951981 0.500000 0.567328
O O14 0.000000 0.346046 0.500000
O O15 0.772151 0.354877 0.674761
O O16 0.289607 0.500000 0.244733
#
# Coordination Sequence:
#
# PCOD9205235 Si02
#       6
#     8   8   8   8   8   8
#     4  10  21  35  52  80 117 153 189 229 274 327
#     4  10  23  43  63  83 110 144 185 240 303 357
#     4  12  22  35  60  87 111 146 192 238 284 338
#     4  10  22  39  56  81 123 165 193 222 268 329
#     4   9  17  31  52  78 112 152 190 228 269 320
#     4  10  21  37  57  83 113 147 189 235 284 339
#
# _framework density 19.159241000000002
#
# number of rings (size 3 to 8) (size 9 to 14) (size 15 to 20)
#    0.000    1.833    0.000    4.000    0.000   10.667 
#    0.000    0.000    0.000    2.500    0.000    0.000 
#    0.000    0.000    0.000    0.000    0.000    0.000 
#
# Total GULP energy -134152.730744 kJ/mol
# GULP energy per Si atom -5589.697114 kJ/mol
# Density = 1.911563 g / cm^3
# Si number density = 19.159241 Si / 1000 Ang^3
#
#
#
# Elastic Constant Matrix: (Units=GPa)
#
#
# Indices 1 2 3 4 5 6 
#
# 1 125.4439 62.3425 62.1498 0.0003 -20.9988 0.0001
# 2 62.3425 87.7670 46.5292 0.0019 -11.2857 0.0000
# 3 62.1498 46.5292 105.7076 0.0013 -26.0172 0.0008
# 4 0.0003 0.0019 0.0013 47.0080 0.0004 -3.2620
# 5 -20.9988 -11.2857 -26.0172 0.0004 27.0170 0.0000
# 6 0.0001 0.0000 0.0008 -3.2620 0.0000 39.6123
#
#
#
# Elastic Compliance Matrix: (Units=1/GPa)
#
#
# Indices 1 2 3 4 5 6 
#
# 1 0.014475 -0.007536 -0.004193 0.000000 0.004065 0.000000
# 2 -0.007536 0.018786 -0.004388 -0.000001 -0.002236 0.000000
# 3 -0.004193 -0.004388 0.016519 0.000000 0.010816 0.000000
# 4 0.000000 -0.000001 0.000000 0.021395 -0.000001 0.001762
# 5 0.004065 -0.002236 0.010816 -0.000001 0.049654 0.000000
# 6 0.000000 0.000000 0.000000 0.001762 0.000000 0.025390
#
#
# Mechanical properties :
#
#
# Convention : Reuss Voigt Hill
#
# Bulk Modulus (GPa) = 56.99745 73.44018 65.21881
# Shear Modulus (GPa) = 27.12949 32.58725 29.85837
#
# Velocity S-wave (km/s) = 3.76706 4.12863 3.95198
# Velocity P-wave (km/s) = 6.98104 7.81934 7.41205
#
# Compressibility (1/GPa) = 0.01754464
#
# Stress axis : x y z
#
# Youngs Moduli (GPa) = 69.08653 53.23133 60.53756
#
# Poissons Ratio (x) = 0.40116 0.25381
# Poissons Ratio (y) = 0.52065 0.26567
# Poissons Ratio (z) = 0.28965 0.23361
#
# Static dielectric constant tensor:
#      x y z
#    x 1.757320 0.000000 -0.022620 
#    y 0.000000 1.714430 0.000000 
#    z -0.022620 0.000000 1.638060 
# 
# From -- ./inp_files/183869.got.cif
#   From: 2010.05.17/outbox.cif.g08.bks.cpg/sg12_92_cif.got.tgz:183869.got - 2010.06.03 13:09:07.
