data_PCOD9205066
_publ_section_title
;
Structure prediction by ZEFSAII (Michael W. Deem and Ramdas Pophale) SiO2 
 PCOD9205066
Probable space group: C 2/M
;
_chemical_formula_sum "Si O2"
_cell_formula_units_Z 58
_cell_length_a 21.316290
_cell_length_b 17.919325
_cell_length_c 7.536535
_cell_angle_alpha 90.000000
_cell_angle_beta 118.081180
_cell_angle_gamma 90.000000
_cell_volume 2539.874018
_symmetry_space_group_name_H-M "C 2/M"
_symmetry_group_IT_number 12
_symmetry_cell_setting 'monoclinic'
loop_
_space_group_symop_operation_xyz
x,y,z
-x,y,-z
-x,-y,-z
x,-y,z
1/2+x,1/2+y,z
1/2-x,1/2+y,-z
1/2-x,1/2-y,-z
1/2+x,1/2-y,z
loop_
_atom_site_type_symbol
_atom_site_label
_atom_site_fract_x
_atom_site_fract_y
_atom_site_fract_z
Si Si1 0.883496 0.414996 0.487135
Si Si2 0.013689 0.711638 0.306109
Si Si3 0.500000 0.500000 0.500000
Si Si4 0.140348 0.305560 0.872617
Si Si5 0.763596 0.136877 0.615131
Si Si6 0.602749 0.583292 0.018209
Si Si7 0.960821 0.125804 0.696114
Si Si8 0.719612 0.295740 0.719397
O O1 0.907168 0.500000 0.497989
O O2 0.939955 0.361996 0.661250
O O3 0.871082 0.373337 0.281478
O O4 0.807674 0.411302 0.484151
O O5 0.057344 0.786617 0.322224
O O6 0.000000 0.716983 0.500000
O O7 0.933993 0.705291 0.123005
O O8 0.451081 0.567066 0.527448
O O9 0.161574 0.231141 0.786407
O O10 0.208776 0.320653 0.084646
O O11 0.817538 0.107307 0.836455
O O12 0.739297 0.217652 0.651544
O O13 0.796844 0.147421 0.462864
O O14 0.597298 0.500000 0.934275
O O15 0.569822 0.586850 0.170857
O O16 0.547148 0.630469 0.832874
#
# Coordination Sequence:
#
# PCOD9205066 Si02
#       8
#     8   8   2   8   8   8   8   8
#     4  10  22  41  59  86 121 164 214 261 309 361
#     4  10  21  34  61  89 117 154 205 248 304 373
#     4  12  20  38  60  84 134 154 184 264 296 382
#     4   9  19  37  59  89 120 154 195 263 305 369
#     4  10  21  35  64  83 119 164 203 253 299 376
#     4  11  22  38  56  84 123 160 195 242 306 372
#     4  11  22  37  57  89 121 158 195 247 310 369
#     4   9  19  36  59  92 118 149 204 252 312 357
#
# _framework density 22.835777
#
# number of rings (size 3 to 8) (size 9 to 14) (size 15 to 20)
#    0.000    1.931    2.069    1.655    7.724    2.483 
#    0.000    1.379    0.000    0.828    0.000    0.000 
#    0.000    0.000    0.000    0.000    0.000    0.000 
#
# Total GULP energy -161557.972355 kJ/mol
# GULP energy per Si atom -5570.964564 kJ/mol
# Density = 2.278380 g / cm^3
# Si number density = 22.835777 Si / 1000 Ang^3
#
#
#
# Elastic Constant Matrix: (Units=GPa)
#
#
# Indices 1 2 3 4 5 6 
#
# 1 61.8712 18.2867 5.3976 0.0000 19.0550 0.0000
# 2 18.2867 143.5016 13.9077 0.0000 11.4400 0.0000
# 3 5.3976 13.9077 54.9681 0.0000 17.2627 0.0000
# 4 0.0000 0.0000 0.0000 27.9935 0.0000 6.2997
# 5 19.0550 11.4400 17.2627 0.0000 40.7860 0.0000
# 6 0.0000 0.0000 0.0000 6.2997 0.0000 7.1540
#
#
#
# Elastic Compliance Matrix: (Units=1/GPa)
#
#
# Indices 1 2 3 4 5 6 
#
# 1 0.019412 -0.001884 0.001445 0.000000 -0.009152 0.000000
# 2 -0.001884 0.007400 -0.001513 0.000000 -0.000555 0.000000
# 3 0.001445 -0.001513 0.021350 0.000000 -0.009287 0.000000
# 4 0.000000 0.000000 0.000000 0.044551 0.000000 -0.039232
# 5 -0.009152 -0.000555 -0.009287 0.000000 0.032881 0.000000
# 6 0.000000 0.000000 0.000000 -0.039232 0.000000 0.174330
#
#
# Mechanical properties :
#
#
# Convention : Reuss Voigt Hill
#
# Bulk Modulus (GPa) = 22.59523 37.28055 29.93789
# Shear Modulus (GPa) = 15.69466 30.03663 22.86565
#
# Velocity S-wave (km/s) = 2.62445 3.63069 3.16778
# Velocity P-wave (km/s) = 4.37033 5.82553 5.14959
#
# Compressibility (1/GPa) = 0.04425712
#
# Stress axis : x y z
#
# Youngs Moduli (GPa) = 51.51415 135.14386 46.83866
#
# Poissons Ratio (x) = 0.25463 -0.06767
# Poissons Ratio (y) = 0.09706 0.07086
# Poissons Ratio (z) = -0.07443 0.20446
#
# Static dielectric constant tensor:
#      x y z
#    x 1.906970 0.000000 0.137640 
#    y 0.000000 1.833280 0.000000 
#    z 0.137640 0.000000 1.469150 
# 
# From -- ./inp_files/88467.got.cif
#   From: 2010.05.17/outbox.cif.g08.bks.cpg/sg12_45_cif.got.tgz:88467.got - 2010.06.03 13:09:07.
