data_PCOD9205604
_publ_section_title
;
Structure prediction by ZEFSAII (Michael W. Deem and Ramdas Pophale) SiO2 
 PCOD9205604
Probable space group: C 2/M
;
_chemical_formula_sum "Si O2"
_cell_formula_units_Z 56
_cell_length_a 8.687715
_cell_length_b 24.862803
_cell_length_c 11.580158
_cell_angle_alpha 90.000000
_cell_angle_beta 64.205804
_cell_angle_gamma 90.000000
_cell_volume 2252.100199
_symmetry_space_group_name_H-M "C 2/M"
_symmetry_group_IT_number 12
_symmetry_cell_setting 'monoclinic'
loop_
_space_group_symop_operation_xyz
x,y,z
-x,y,-z
-x,-y,-z
x,-y,z
1/2+x,1/2+y,z
1/2-x,1/2+y,-z
1/2-x,1/2-y,-z
1/2+x,1/2-y,z
loop_
_atom_site_type_symbol
_atom_site_label
_atom_site_fract_x
_atom_site_fract_y
_atom_site_fract_z
Si Si1 0.486450 0.937664 0.188326
Si Si2 0.527326 0.671856 0.156619
Si Si3 0.622124 0.628179 0.567216
Si Si4 0.286340 0.563040 0.900767
Si Si5 0.151856 0.559264 0.358039
Si Si6 0.267138 0.756207 0.794195
Si Si7 0.868040 0.708869 0.388359
O O1 0.310271 0.918774 0.186652
O O2 0.574450 0.911533 0.271142
O O3 0.444486 0.000000 0.231686
O O4 0.634295 0.937677 0.044104
O O5 0.464817 0.668024 0.311998
O O6 0.588082 0.611799 0.107195
O O7 0.671273 0.717906 0.122405
O O8 0.367429 0.695974 0.138320
O O9 0.500000 0.615756 0.500000
O O10 0.684812 0.581004 0.628823
O O11 0.793625 0.653563 0.459221
O O12 0.345512 0.500000 0.872924
O O13 0.200180 0.500000 0.300991
O O14 0.000000 0.556379 0.500000
O O15 0.174757 0.717880 0.731647
O O16 0.430213 0.781504 0.673152
O O17 0.750000 0.750000 0.500000
#
# Coordination Sequence:
#
# PCOD9205604 Si02
#       7
#     8   8   8   8   8   8   8
#     4   8  17  41  73 102 133 179 232 288 342 408
#     4  11  23  37  60 102 136 180 231 294 348 404
#     4  12  24  36  58  94 132 182 228 277 353 404
#     4   9  19  40  75 108 133 174 239 296 346 409
#     4  10  24  41  61  99 145 177 214 273 355 435
#     4  10  21  35  58  90 137 177 237 286 344 412
#     4  11  18  34  57  83 122 175 229 292 328 403
#
# _framework density 24.865677000000002
#
# number of rings (size 3 to 8) (size 9 to 14) (size 15 to 20)
#    0.000    1.857    4.286    1.286    4.000    0.857 
#    2.571    0.714    0.000    6.000    0.000    0.000 
#    0.000    0.000    0.000    0.429    0.000    0.000 
#
# Total GULP energy -156419.908221 kJ/mol
# GULP energy per Si atom -5586.425294 kJ/mol
# Density = 2.480908 g / cm^3
# Si number density = 24.865677 Si / 1000 Ang^3
#
#
#
# Elastic Constant Matrix: (Units=GPa)
#
#
# Indices 1 2 3 4 5 6 
#
# 1 121.1362 65.7117 26.4451 0.0000 14.6348 0.0000
# 2 65.7117 131.8164 20.5252 0.0000 -8.1980 0.0000
# 3 26.4451 20.5252 62.4574 0.0000 10.6651 0.0000
# 4 0.0000 0.0000 0.0000 22.5660 0.0000 -0.5858
# 5 14.6348 -8.1980 10.6651 0.0000 40.2184 0.0000
# 6 0.0000 0.0000 0.0000 -0.5858 0.0000 41.7362
#
#
#
# Elastic Compliance Matrix: (Units=1/GPa)
#
#
# Indices 1 2 3 4 5 6 
#
# 1 0.012897 -0.006380 -0.002452 0.000000 -0.005343 0.000000
# 2 -0.006380 0.011386 -0.001920 0.000000 0.005152 0.000000
# 3 -0.002452 -0.001920 0.018429 0.000000 -0.004386 0.000000
# 4 0.000000 0.000000 0.000000 0.044331 0.000000 0.000622
# 5 -0.005343 0.005152 -0.004386 0.000000 0.029022 0.000000
# 6 0.000000 0.000000 0.000000 0.000622 0.000000 0.023969
#
#
# Mechanical properties :
#
#
# Convention : Reuss Voigt Hill
#
# Bulk Modulus (GPa) = 47.15064 60.08598 53.61831
# Shear Modulus (GPa) = 29.65506 34.41931 32.03719
#
# Velocity S-wave (km/s) = 3.45717 3.72453 3.59334
# Velocity P-wave (km/s) = 5.91095 6.53551 6.23106
#
# Compressibility (1/GPa) = 0.02120862
#
# Stress axis : x y z
#
# Youngs Moduli (GPa) = 77.53971 87.82711 54.26232
#
# Poissons Ratio (x) = 0.56031 0.13303
# Poissons Ratio (y) = 0.49468 0.10420
# Poissons Ratio (z) = 0.19010 0.16865
#
# Static dielectric constant tensor:
#      x y z
#    x 2.011270 0.000000 0.000250 
#    y 0.000000 2.073490 0.000000 
#    z 0.000250 0.000000 1.978110 
# 
# From -- ./inp_files/124234.got.cif
#   From: 2010.05.17/outbox.cif.g08.bks.cpg/sg12_63_cif.got.tgz:124234.got - 2010.06.03 13:09:07.
