data_PCOD9205853
_publ_section_title
;
Structure prediction by ZEFSAII (Michael W. Deem and Ramdas Pophale) SiO2 
 PCOD9205853
Probable space group: C 2/M
;
_chemical_formula_sum "Si O2"
_cell_formula_units_Z 56
_cell_length_a 10.442957
_cell_length_b 7.519078
_cell_length_c 34.537903
_cell_angle_alpha 90.000000
_cell_angle_beta 111.583640
_cell_angle_gamma 90.000000
_cell_volume 2521.806043
_symmetry_space_group_name_H-M "C 2/M"
_symmetry_group_IT_number 12
_symmetry_cell_setting 'monoclinic'
loop_
_space_group_symop_operation_xyz
x,y,z
-x,y,-z
-x,-y,-z
x,-y,z
1/2+x,1/2+y,z
1/2-x,1/2+y,-z
1/2-x,1/2-y,-z
1/2+x,1/2-y,z
loop_
_atom_site_type_symbol
_atom_site_label
_atom_site_fract_x
_atom_site_fract_y
_atom_site_fract_z
Si Si1 0.925453 0.212143 0.829119
Si Si2 0.034352 0.713551 0.315146
Si Si3 0.153012 0.713227 0.025547
Si Si4 0.694249 0.215889 0.409070
Si Si5 0.731242 0.714267 0.879760
Si Si6 0.271299 0.712634 0.735889
Si Si7 0.993714 0.709188 0.542571
O O1 0.839699 0.243094 0.858442
O O2 0.842587 0.283664 0.782821
O O3 0.080159 0.282605 0.851334
O O4 0.937751 0.000000 0.824726
O O5 0.024815 0.500000 0.317948
O O6 0.104859 0.778176 0.362503
O O7 0.130999 0.754158 0.289628
O O8 0.881192 0.783277 0.289891
O O9 0.142167 0.500000 0.028480
O O10 0.217435 0.781262 0.072836
O O11 0.250000 0.750000 0.000000
O O12 0.000000 0.782696 0.000000
O O13 0.852569 0.272721 0.423482
O O14 0.620632 0.280131 0.440422
O O15 0.692976 0.000000 0.409221
O O16 0.721542 0.500000 0.881433
O O17 0.257038 0.500000 0.739321
O O18 0.961877 0.500000 0.534961
O O19 0.000000 0.787461 0.500000
#
# Coordination Sequence:
#
# PCOD9205853 Si02
#       7
#     8   8   8   8   8   8   8
#     4  10  21  36  55  80 107 138 177 218 264 317
#     4  10  21  36  54  78 107 139 176 217 262 313
#     4  10  21  36  54  78 107 140 179 221 267 319
#     4  10  21  36  54  79 109 139 176 220 262 311
#     4  10  21  36  54  79 109 139 177 223 266 316
#     4  10  21  37  56  79 108 140 176 219 264 314
#     4  10  21  37  57  81 109 142 179 219 265 315
#
# _framework density 22.206306000000001
#
# number of rings (size 3 to 8) (size 9 to 14) (size 15 to 20)
#    0.000    2.000    0.000    3.000    0.000    5.143 
#    0.000    0.000    0.000    0.000    0.000    0.000 
#    0.000    0.000    0.000    0.000    0.000    0.000 
#
# Total GULP energy -156567.102933 kJ/mol
# GULP energy per Si atom -5591.682248 kJ/mol
# Density = 2.215576 g / cm^3
# Si number density = 22.206306 Si / 1000 Ang^3
#
#
#
# Elastic Constant Matrix: (Units=GPa)
#
#
# Indices 1 2 3 4 5 6 
#
# 1 93.3751 -21.2832 -13.6041 0.0000 2.8424 0.0000
# 2 -21.2832 54.2707 -5.2257 0.0000 5.5756 0.0000
# 3 -13.6041 -5.2257 83.9048 0.0000 0.1048 0.0000
# 4 0.0000 0.0000 0.0000 4.7744 0.0000 -4.7176
# 5 2.8424 5.5756 0.1048 0.0000 46.6924 0.0000
# 6 0.0000 0.0000 0.0000 -4.7176 0.0000 31.6278
#
#
#
# Elastic Compliance Matrix: (Units=1/GPa)
#
#
# Indices 1 2 3 4 5 6 
#
# 1 0.012268 0.005174 0.002313 0.000000 -0.001370 0.000000
# 2 0.005174 0.020952 0.002147 0.000000 -0.002822 0.000000
# 3 0.002313 0.002147 0.012428 0.000000 -0.000425 0.000000
# 4 0.000000 0.000000 0.000000 0.245655 0.000000 0.036642
# 5 -0.001370 -0.002822 -0.000425 0.000000 0.021838 0.000000
# 6 0.000000 0.000000 0.000000 0.036642 0.000000 0.037083
#
#
# Mechanical properties :
#
#
# Convention : Reuss Voigt Hill
#
# Bulk Modulus (GPa) = 15.40430 16.81384 16.10907
# Shear Modulus (GPa) = 14.18064 34.72982 24.45523
#
# Velocity S-wave (km/s) = 2.52977 3.95899 3.32215
# Velocity P-wave (km/s) = 3.93509 5.33725 4.68888
#
# Compressibility (1/GPa) = 0.06491693
#
# Stress axis : x y z
#
# Youngs Moduli (GPa) = 81.51554 47.72801 80.46623
#
# Poissons Ratio (x) = -0.24696 -0.18612
# Poissons Ratio (y) = -0.42179 -0.17279
# Poissons Ratio (z) = -0.18855 -0.10249
#
# Static dielectric constant tensor:
#      x y z
#    x 1.746290 0.000000 0.026720 
#    y 0.000000 1.771130 0.000000 
#    z 0.026720 0.000000 1.803260 
# 
# From -- ./inp_files/373627.got.cif
#   From: 2010.05.17/outbox.cif.g08.bks.cpg/sg12_187_cif.got.tgz:373627.got - 2010.06.03 13:09:07.
