data_PCOD9205083
_publ_section_title
;
Structure prediction by ZEFSAII (Michael W. Deem and Ramdas Pophale) SiO2 
 PCOD9205083
Probable space group: C 2/M
;
_chemical_formula_sum "Si O2"
_cell_formula_units_Z 56
_cell_length_a 30.488701
_cell_length_b 7.767959
_cell_length_c 14.111602
_cell_angle_alpha 90.000000
_cell_angle_beta 75.825500
_cell_angle_gamma 90.000000
_cell_volume 3240.368191
_symmetry_space_group_name_H-M "C 2/M"
_symmetry_group_IT_number 12
_symmetry_cell_setting 'monoclinic'
loop_
_space_group_symop_operation_xyz
x,y,z
-x,y,-z
-x,-y,-z
x,-y,z
1/2+x,1/2+y,z
1/2-x,1/2+y,-z
1/2-x,1/2-y,-z
1/2+x,1/2-y,z
loop_
_atom_site_type_symbol
_atom_site_label
_atom_site_fract_x
_atom_site_fract_y
_atom_site_fract_z
Si Si1 0.299113 0.293123 0.086562
Si Si2 0.802174 0.207167 0.866897
Si Si3 0.534801 0.705236 0.778101
Si Si4 0.388858 0.710601 0.136070
Si Si5 0.896415 0.792796 0.754036
Si Si6 0.487010 0.798062 0.608979
Si Si7 0.445788 0.708898 0.923498
O O1 0.302873 0.500000 0.080014
O O2 0.247858 0.251116 0.141849
O O3 0.338553 0.229577 0.135472
O O4 0.305882 0.229401 0.974336
O O5 0.844558 0.268154 0.781757
O O6 0.805585 0.000000 0.869245
O O7 0.535444 0.500000 0.791183
O O8 0.584209 0.767894 0.784238
O O9 0.516670 0.732737 0.681841
O O10 0.495744 0.772639 0.870176
O O11 0.386593 0.500000 0.138600
O O12 0.421248 0.763875 0.031654
O O13 0.934115 0.727524 0.661549
O O14 0.915168 0.749331 0.848779
O O15 0.897092 0.000000 0.745393
O O16 0.500000 0.722052 0.500000
O O17 0.496083 0.000000 0.601053
O O18 0.448159 0.500000 0.928216
#
# Coordination Sequence:
#
# PCOD9205083 Si02
#       7
#     8   8   8   8   8   8   8
#     4   9  16  25  40  61  90 125 155 181 208 246
#     4   9  16  27  41  62  90 119 153 186 214 245
#     4   9  17  27  45  67  85 112 149 184 214 251
#     4   9  14  23  40  64  90 118 152 181 207 246
#     4   9  16  28  48  68  86 114 151 187 216 249
#     4  10  21  35  48  64  88 114 139 176 229 280
#     4   8  12  21  38  62  87 112 144 178 208 242
#
# _framework density 17.281987000000001
#
# number of rings (size 3 to 8) (size 9 to 14) (size 15 to 20)
#    0.000    3.000    1.429    1.714    0.000    3.429 
#    0.000    0.714    0.000    6.857    0.000    1.000 
#    0.000    0.000    0.000    0.000    0.000    0.000 
#
# Total GULP energy -155897.841536 kJ/mol
# GULP energy per Si atom -5567.780055 kJ/mol
# Density = 1.724265 g / cm^3
# Si number density = 17.281987 Si / 1000 Ang^3
#
#
#
# Elastic Constant Matrix: (Units=GPa)
#
#
# Indices 1 2 3 4 5 6 
#
# 1 161.6587 3.5122 52.2912 0.0000 4.7023 0.0000
# 2 3.5122 15.8148 -5.8396 0.0000 2.2939 0.0000
# 3 52.2912 -5.8396 65.0152 0.0000 -5.7115 0.0000
# 4 0.0000 0.0000 0.0000 21.3725 0.0000 0.4952
# 5 4.7023 2.2939 -5.7115 0.0000 11.4200 0.0000
# 6 0.0000 0.0000 0.0000 0.4952 0.0000 16.4512
#
#
#
# Elastic Compliance Matrix: (Units=1/GPa)
#
#
# Indices 1 2 3 4 5 6 
#
# 1 0.009200 -0.004105 -0.008397 0.000000 -0.007163 0.000000
# 2 -0.004105 0.068499 0.008779 0.000000 -0.007678 0.000000
# 3 -0.008397 0.008779 0.024132 0.000000 0.013764 0.000000
# 4 0.000000 0.000000 0.000000 0.046822 0.000000 -0.001409
# 5 -0.007163 -0.007678 0.013764 0.000000 0.098941 0.000000
# 6 0.000000 0.000000 0.000000 -0.001409 0.000000 0.060828
#
#
# Mechanical properties :
#
#
# Convention : Reuss Voigt Hill
#
# Bulk Modulus (GPa) = 10.59477 38.04623 24.32050
# Shear Modulus (GPa) = 14.39556 22.68372 18.53964
#
# Velocity S-wave (km/s) = 2.88927 3.62686 3.27887
# Velocity P-wave (km/s) = 4.15624 6.29298 5.33273
#
# Compressibility (1/GPa) = 0.09438618
#
# Stress axis : x y z
#
# Youngs Moduli (GPa) = 108.70038 14.59874 41.43801
#
# Poissons Ratio (x) = 0.05992 0.34796
# Poissons Ratio (y) = 0.44618 -0.36380
# Poissons Ratio (z) = 0.91277 -0.12817
#
# Static dielectric constant tensor:
#      x y z
#    x 1.635110 0.000000 0.004470 
#    y 0.000000 1.648810 0.000000 
#    z 0.004470 0.000000 1.580170 
# 
# From -- ./inp_files/247821.got.cif
#   From: 2010.05.17/outbox.cif.g08.bks.cpg/sg12_124_cif.got.tgz:247821.got - 2010.06.03 13:09:07.
