data_PCOD9205752
_publ_section_title
;
Structure prediction by ZEFSAII (Michael W. Deem and Ramdas Pophale) SiO2 
 PCOD9205752
Probable space group: C 2/M
;
_chemical_formula_sum "Si O2"
_cell_formula_units_Z 58
_cell_length_a 13.179737
_cell_length_b 13.405798
_cell_length_c 16.968588
_cell_angle_alpha 90.000000
_cell_angle_beta 127.721858
_cell_angle_gamma 90.000000
_cell_volume 2371.462234
_symmetry_space_group_name_H-M "C 2/M"
_symmetry_group_IT_number 12
_symmetry_cell_setting 'monoclinic'
loop_
_space_group_symop_operation_xyz
x,y,z
-x,y,-z
-x,-y,-z
x,-y,z
1/2+x,1/2+y,z
1/2-x,1/2+y,-z
1/2-x,1/2-y,-z
1/2+x,1/2-y,z
loop_
_atom_site_type_symbol
_atom_site_label
_atom_site_fract_x
_atom_site_fract_y
_atom_site_fract_z
Si Si1 0.000000 0.500000 0.000000
Si Si2 0.331961 0.393378 0.083056
Si Si3 0.844349 0.648972 0.859017
Si Si4 0.676157 0.892006 0.566353
Si Si5 0.071072 0.107810 0.425085
Si Si6 0.989733 0.322118 0.652801
Si Si7 0.795415 0.313595 0.131204
Si Si8 0.738158 0.321539 0.642907
O O1 0.024059 0.589912 0.077926
O O2 0.406399 0.500000 0.117791
O O3 0.228999 0.404796 0.104123
O O4 0.376445 0.280465 0.129073
O O5 0.263326 0.377984 0.966613
O O6 0.823731 0.762610 0.877551
O O7 0.773764 0.635762 0.743599
O O8 0.803124 0.891723 0.571197
O O9 0.558411 0.875692 0.449524
O O10 0.695899 0.794273 0.627796
O O11 0.670615 0.000000 0.602264
O O12 0.993550 0.204904 0.361694
O O13 0.130352 0.124014 0.540048
O O14 0.008227 0.000000 0.386326
O O15 0.866623 0.326622 0.651564
O O16 0.109636 0.359920 0.759757
#
# Coordination Sequence:
#
# PCOD9205752 Si02
#       8
#     2   8   8   8   8   8   8   8
#     4  12  24  36  60  84 112 140 178 226 296 340
#     4   9  19  37  54  73 105 147 181 224 282 334
#     4  10  21  36  52  80 113 137 172 237 282 328
#     4   8  15  31  48  74 109 142 184 229 260 313
#     4   8  15  28  46  73 106 139 179 220 267 322
#     4   9  17  30  51  78  99 146 187 218 271 328
#     4   9  20  36  53  74 113 143 180 231 285 323
#     4   9  18  29  53  77 109 142 179 228 277 317
#
# _framework density 24.457483
#
# number of rings (size 3 to 8) (size 9 to 14) (size 15 to 20)
#    0.828    2.207    0.690    1.655    2.897    1.103 
#    0.000    3.448    0.000    1.655    0.000    1.931 
#    0.000    0.000    0.000    0.000    0.000    0.000 
#
# Total GULP energy -161528.536038 kJ/mol
# GULP energy per Si atom -5569.949519 kJ/mol
# Density = 2.440182 g / cm^3
# Si number density = 24.457483 Si / 1000 Ang^3
#
#
#
# Elastic Constant Matrix: (Units=GPa)
#
#
# Indices 1 2 3 4 5 6 
#
# 1 66.6232 23.1759 32.8499 0.0000 -7.2456 0.0000
# 2 23.1759 81.2150 8.2395 0.0000 1.7200 0.0000
# 3 32.8499 8.2395 138.9645 0.0000 -15.4086 0.0000
# 4 0.0000 0.0000 0.0000 -634.8921 0.0000 -107.2854
# 5 -7.2456 1.7200 -15.4086 0.0000 25.6173 0.0000
# 6 0.0000 0.0000 0.0000 -107.2854 0.0000 -6.6272
#
#
#
# Elastic Compliance Matrix: (Units=1/GPa)
#
#
# Indices 1 2 3 4 5 6 
#
# 1 0.019047 -0.005121 -0.003818 0.000000 0.003435 0.000000
# 2 -0.005121 0.013809 0.000138 0.000000 -0.002293 0.000000
# 3 -0.003818 0.000138 0.008539 0.000000 0.004047 0.000000
# 4 0.000000 0.000000 0.000000 0.000908 0.000000 -0.014691
# 5 0.003435 -0.002293 0.004047 0.000000 0.042596 0.000000
# 6 0.000000 0.000000 0.000000 -0.014691 0.000000 0.086941
#
#
# Mechanical properties :
#
#
# Convention : Reuss Voigt Hill
#
# Bulk Modulus (GPa) = 42.02991 46.14814 44.08902
# Shear Modulus (GPa) = 25.33273 -108.34457 -41.50592
#
# Velocity S-wave (km/s) = 3.22186 -6.66298 -4.12401
# Velocity P-wave (km/s) = 5.57339 6.34697 2.14726
#
# Compressibility (1/GPa) = 0.02379258
#
# Stress axis : x y z
#
# Youngs Moduli (GPa) = 52.50094 72.41705 117.10629
#
# Poissons Ratio (x) = 0.37083 0.44713
# Poissons Ratio (y) = 0.26885 -0.01610
# Poissons Ratio (z) = 0.20046 -0.00996
#
# Static dielectric constant tensor:
#      x y z
#    x 2.233520 0.000000 0.145500 
#    y 0.000000 1.970590 0.000000 
#    z 0.145500 0.000000 1.964750 
# 
# From -- ./inp_files/284052.got.cif
#   From: 2010.05.17/outbox.cif.g08.bks.cpg/sg12_143_cif.got.tgz:284052.got - 2010.06.03 13:09:07.
