data_PCOD9205217
_publ_section_title
;
Structure prediction by ZEFSAII (Michael W. Deem and Ramdas Pophale) SiO2 
 PCOD9205217
Probable space group: C 2/M
;
_chemical_formula_sum "Si O2"
_cell_formula_units_Z 48
_cell_length_a 16.557133
_cell_length_b 9.105925
_cell_length_c 26.398981
_cell_angle_alpha 90.000000
_cell_angle_beta 146.646937
_cell_angle_gamma 90.000000
_cell_volume 2188.257644
_symmetry_space_group_name_H-M "C 2/M"
_symmetry_group_IT_number 12
_symmetry_cell_setting 'monoclinic'
loop_
_space_group_symop_operation_xyz
x,y,z
-x,y,-z
-x,-y,-z
x,-y,z
1/2+x,1/2+y,z
1/2-x,1/2+y,-z
1/2-x,1/2-y,-z
1/2+x,1/2-y,z
loop_
_atom_site_type_symbol
_atom_site_label
_atom_site_fract_x
_atom_site_fract_y
_atom_site_fract_z
Si Si1 0.054651 0.829526 0.285856
Si Si2 0.103292 0.328339 0.942605
Si Si3 0.229223 0.672382 0.116630
Si Si4 0.192551 0.825663 0.204099
Si Si5 0.506181 0.327658 0.626475
Si Si6 0.347707 0.325029 0.445832
O O1 0.199874 0.743906 0.347140
O O2 0.892631 0.786675 0.182067
O O3 0.037954 0.812024 0.338163
O O4 0.076246 0.000000 0.284927
O O5 0.101262 0.500000 0.927403
O O6 0.952907 0.248110 0.848996
O O7 0.250000 0.250000 0.000000
O O8 0.118816 0.320626 0.012115
O O9 0.237233 0.500000 0.137780
O O10 0.196277 0.773865 0.147090
O O11 0.346042 0.763852 0.305766
O O12 0.185041 0.000000 0.204343
O O13 0.540437 0.500000 0.635639
O O14 0.376972 0.287736 0.520139
O O15 0.500000 0.277593 0.500000
O O16 0.335656 0.500000 0.434348
#
# Coordination Sequence:
#
# PCOD9205217 Si02
#       6
#     8   8   8   8   8   8
#     4   9  18  34  56  79 103 136 179 222 266 320
#     4  11  23  39  58  81 114 151 185 224 273 328
#     4   9  20  39  60  82 110 145 182 224 277 330
#     4  11  22  36  58  86 111 140 186 234 274 324
#     4   9  19  37  57  77 106 143 181 222 272 326
#     4  10  21  35  52  78 110 142 177 220 272 326
#
# _framework density 21.935258999999999
#
# number of rings (size 3 to 8) (size 9 to 14) (size 15 to 20)
#    0.000    2.167    0.000    4.000    0.000    8.333 
#    0.000    3.333    0.000    0.000    0.000    0.000 
#    0.000    0.000    0.000    0.000    0.000    0.000 
#
# Total GULP energy -134153.018130 kJ/mol
# GULP energy per Si atom -5589.709089 kJ/mol
# Density = 2.188533 g / cm^3
# Si number density = 21.935259 Si / 1000 Ang^3
#
#
#
# Elastic Constant Matrix: (Units=GPa)
#
#
# Indices 1 2 3 4 5 6 
#
# 1 53.6718 33.2354 14.2784 0.0000 22.2381 0.0000
# 2 33.2354 95.6952 53.3551 0.0000 34.0813 0.0000
# 3 14.2784 53.3551 118.5188 0.0000 34.5386 0.0000
# 4 0.0000 0.0000 0.0000 27.6924 0.0000 15.7266
# 5 22.2381 34.0813 34.5386 0.0000 48.2626 0.0000
# 6 0.0000 0.0000 0.0000 15.7266 0.0000 25.3019
#
#
#
# Elastic Compliance Matrix: (Units=1/GPa)
#
#
# Indices 1 2 3 4 5 6 
#
# 1 0.026174 -0.007531 0.002782 0.000000 -0.008733 0.000000
# 2 -0.007531 0.018120 -0.005727 0.000000 -0.005227 0.000000
# 3 0.002782 -0.005727 0.012478 0.000000 -0.006167 0.000000
# 4 0.000000 0.000000 0.000000 0.055812 0.000000 -0.034690
# 5 -0.008733 -0.005227 -0.006167 0.000000 0.032849 0.000000
# 6 0.000000 0.000000 0.000000 -0.034690 0.000000 0.061085
#
#
# Mechanical properties :
#
#
# Convention : Reuss Voigt Hill
#
# Bulk Modulus (GPa) = 27.91769 52.18039 40.04904
# Shear Modulus (GPa) = 20.88486 31.38586 26.13536
#
# Velocity S-wave (km/s) = 3.08898 3.78675 3.45552
# Velocity P-wave (km/s) = 5.04751 6.55433 5.84964
#
# Compressibility (1/GPa) = 0.03581959
#
# Stress axis : x y z
#
# Youngs Moduli (GPa) = 38.20657 55.18740 80.14308
#
# Poissons Ratio (x) = 0.41563 -0.22297
# Poissons Ratio (y) = 0.28774 0.45896
# Poissons Ratio (z) = -0.10629 0.31604
#
# Static dielectric constant tensor:
#      x y z
#    x 1.867210 0.000000 -0.021700 
#    y 0.000000 1.734690 0.000000 
#    z -0.021700 0.000000 1.790180 
# 
# From -- ./inp_files/274093.got.cif
#   From: 2010.05.17/outbox.cif.g08.bks.cpg/sg12_138_cif.got.tgz:274093.got - 2010.06.03 13:09:07.
