data_PCOD9205904
_publ_section_title
;
Structure prediction by ZEFSAII (Michael W. Deem and Ramdas Pophale) SiO2 
 PCOD9205904
Probable space group: C 2/M
;
_chemical_formula_sum "Si O2"
_cell_formula_units_Z 56
_cell_length_a 25.382882
_cell_length_b 8.810689
_cell_length_c 15.345273
_cell_angle_alpha 90.000000
_cell_angle_beta 105.860108
_cell_angle_gamma 90.000000
_cell_volume 3301.183857
_symmetry_space_group_name_H-M "C 2/M"
_symmetry_group_IT_number 12
_symmetry_cell_setting 'monoclinic'
loop_
_space_group_symop_operation_xyz
x,y,z
-x,y,-z
-x,-y,-z
x,-y,z
1/2+x,1/2+y,z
1/2-x,1/2+y,-z
1/2-x,1/2-y,-z
1/2+x,1/2-y,z
loop_
_atom_site_type_symbol
_atom_site_label
_atom_site_fract_x
_atom_site_fract_y
_atom_site_fract_z
Si Si1 0.239884 0.181019 0.091216
Si Si2 0.443730 0.681098 0.784060
Si Si3 0.920519 0.682197 0.397033
Si Si4 0.432606 0.318374 0.101417
Si Si5 0.044887 0.682103 0.396367
Si Si6 0.846957 0.819242 0.218044
Si Si7 0.623837 0.819541 0.090907
O O1 0.290518 0.234512 0.173115
O O2 0.182669 0.243840 0.101000
O O3 0.237773 0.000000 0.083931
O O4 0.250000 0.250000 0.000000
O O5 0.437688 0.500000 0.787995
O O6 0.506169 0.719839 0.840340
O O7 0.436026 0.734946 0.681641
O O8 0.402881 0.761832 0.831965
O O9 0.913442 0.500000 0.387119
O O10 0.923080 0.722179 0.500436
O O11 0.875412 0.766136 0.319793
O O12 0.980851 0.717845 0.385650
O O13 0.430283 0.500000 0.084412
O O14 0.389477 0.283162 0.158730
O O15 0.414918 0.233295 0.006237
O O16 0.048586 0.500000 0.386803
O O17 0.838249 0.000000 0.213762
O O18 0.629225 0.000000 0.092975
#
# Coordination Sequence:
#
# PCOD9205904 Si02
#       7
#     8   8   8   8   8   8   8
#     4  12  24  40  60  82 109 146 188 234 279 327
#     4  11  22  37  56  81 115 153 188 230 279 332
#     4   9  18  33  54  82 115 149 185 230 280 328
#     4  10  21  36  54  80 116 152 185 227 277 329
#     4   9  18  33  54  81 114 149 187 230 276 330
#     4  11  21  35  57  85 116 148 184 231 279 329
#     4  12  25  39  57  81 110 150 192 232 277 334
#
# _framework density 16.963612000000001
#
# number of rings (size 3 to 8) (size 9 to 14) (size 15 to 20)
#    0.000    1.429    2.857    4.714    0.000    4.000 
#    0.000    1.429    0.000    0.857    0.000    0.000 
#    0.000    0.000    0.000    0.000    0.000    0.000 
#
# Total GULP energy -156480.051058 kJ/mol
# GULP energy per Si atom -5588.573252 kJ/mol
# Density = 1.692500 g / cm^3
# Si number density = 16.963612 Si / 1000 Ang^3
#
#
#
# Elastic Constant Matrix: (Units=GPa)
#
#
# Indices 1 2 3 4 5 6 
#
# 1 83.3497 48.3330 54.9944 0.0000 -14.8770 0.0000
# 2 48.3330 77.7575 61.4992 0.0000 -8.6247 0.0000
# 3 54.9944 61.4992 134.1585 0.0000 -7.3705 0.0000
# 4 0.0000 0.0000 0.0000 34.1365 0.0000 1.4226
# 5 -14.8770 -8.6247 -7.3705 0.0000 21.6266 0.0000
# 6 0.0000 0.0000 0.0000 1.4226 0.0000 22.4447
#
#
#
# Elastic Compliance Matrix: (Units=1/GPa)
#
#
# Indices 1 2 3 4 5 6 
#
# 1 0.021865 -0.009147 -0.004223 0.000000 0.009954 0.000000
# 2 -0.009147 0.024544 -0.007449 0.000000 0.000957 0.000000
# 3 -0.004223 -0.007449 0.012511 0.000000 -0.001612 0.000000
# 4 0.000000 0.000000 0.000000 0.029372 0.000000 -0.001862
# 5 0.009954 0.000957 -0.001612 0.000000 0.052919 0.000000
# 6 0.000000 0.000000 0.000000 -0.001862 0.000000 0.044672
#
#
# Mechanical properties :
#
#
# Convention : Reuss Voigt Hill
#
# Bulk Modulus (GPa) = 57.86364 69.43543 63.64954
# Shear Modulus (GPa) = 21.43348 24.33750 22.88549
#
# Velocity S-wave (km/s) = 3.55843 3.79184 3.67698
# Velocity P-wave (km/s) = 7.14617 7.75832 7.45853
#
# Compressibility (1/GPa) = 0.01728201
#
# Stress axis : x y z
#
# Youngs Moduli (GPa) = 45.73594 40.74390 79.92923
#
# Poissons Ratio (x) = 0.37267 0.33754
# Poissons Ratio (y) = 0.41833 0.59539
# Poissons Ratio (z) = 0.19314 0.30350
#
# Static dielectric constant tensor:
#      x y z
#    x 1.549580 0.000000 0.002630 
#    y 0.000000 1.566540 0.000000 
#    z 0.002630 0.000000 1.560380 
# 
# From -- ./inp_files/237802.got.cif
#   From: 2010.05.17/outbox.cif.g08.bks.cpg/sg12_119_cif.got.tgz:237802.got - 2010.06.03 13:09:07.
