data_PCOD9205307
_publ_section_title
;
Structure prediction by ZEFSAII (Michael W. Deem and Ramdas Pophale) SiO2 
 PCOD9205307
Probable space group: C 2/M
;
_chemical_formula_sum "Si O2"
_cell_formula_units_Z 48
_cell_length_a 10.431523
_cell_length_b 14.486391
_cell_length_c 14.168611
_cell_angle_alpha 90.000000
_cell_angle_beta 75.353256
_cell_angle_gamma 90.000000
_cell_volume 2071.512749
_symmetry_space_group_name_H-M "C 2/M"
_symmetry_group_IT_number 12
_symmetry_cell_setting 'monoclinic'
loop_
_space_group_symop_operation_xyz
x,y,z
-x,y,-z
-x,-y,-z
x,-y,z
1/2+x,1/2+y,z
1/2-x,1/2+y,-z
1/2-x,1/2-y,-z
1/2+x,1/2-y,z
loop_
_atom_site_type_symbol
_atom_site_label
_atom_site_fract_x
_atom_site_fract_y
_atom_site_fract_z
Si Si1 0.472577 0.202294 0.217404
Si Si2 0.934388 0.102855 0.260178
Si Si3 0.567518 0.110333 0.589512
Si Si4 0.865234 0.393234 0.961483
Si Si5 0.235343 0.893462 0.164936
Si Si6 0.638560 0.608790 0.511448
O O1 0.414375 0.303877 0.206760
O O2 0.499684 0.176221 0.320738
O O3 0.598145 0.171824 0.132551
O O4 0.349890 0.139325 0.211113
O O5 0.865842 0.111278 0.374190
O O6 0.093827 0.111949 0.240425
O O7 0.906427 0.000000 0.226729
O O8 0.500000 0.117004 0.500000
O O9 0.720629 0.142692 0.551902
O O10 0.561591 0.000000 0.616841
O O11 0.842167 0.500000 0.934511
O O12 0.752785 0.357075 0.054505
O O13 0.000000 0.393148 0.000000
O O14 0.261305 0.000000 0.143044
O O15 0.500000 0.649827 0.500000
O O16 0.637104 0.500000 0.484394
#
# Coordination Sequence:
#
# PCOD9205307 Si02
#       6
#     8   8   8   8   8   8
#     4  11  20  32  57  82 109 148 191 232 285 349
#     4  10  22  36  52  79 113 148 188 236 285 335
#     4  10  21  35  53  84 123 153 183 237 303 354
#     4   8  15  30  55  85 110 136 182 243 292 332
#     4   9  18  36  60  84 110 141 187 245 291 333
#     4   9  18  35  57  77 104 149 200 242 281 335
#
# _framework density 23.171472999999999
#
# number of rings (size 3 to 8) (size 9 to 14) (size 15 to 20)
#    0.000    2.500    0.000    3.500    0.000    6.000 
#    0.000    0.000    0.000    6.500    0.000    0.000 
#    0.000    0.000    0.000    0.000    0.000    0.000 
#
# Total GULP energy -133870.072855 kJ/mol
# GULP energy per Si atom -5577.919702 kJ/mol
# Density = 2.311873 g / cm^3
# Si number density = 23.171473 Si / 1000 Ang^3
#
#
#
# Elastic Constant Matrix: (Units=GPa)
#
#
# Indices 1 2 3 4 5 6 
#
# 1 27.5712 0.5114 -2.6331 0.0000 -0.6347 0.0000
# 2 0.5114 23.4045 71.2294 0.0000 -18.5440 0.0000
# 3 -2.6331 71.2294 83.3248 0.0000 7.1029 0.0000
# 4 0.0000 0.0000 0.0000 -7.6613 0.0000 -33.2020
# 5 -0.6347 -18.5440 7.1029 0.0000 10.0302 0.0000
# 6 0.0000 0.0000 0.0000 -33.2020 0.0000 -15.5465
#
#
#
# Elastic Compliance Matrix: (Units=1/GPa)
#
#
# Indices 1 2 3 4 5 6 
#
# 1 0.036366 0.000604 0.000363 0.000000 0.003161 0.000000
# 2 0.000604 -0.009815 0.010593 0.000000 -0.025610 0.000000
# 3 0.000363 0.010593 0.001369 0.000000 0.018637 0.000000
# 4 0.000000 0.000000 0.000000 0.015811 0.000000 -0.033767
# 5 0.003161 -0.025610 0.018637 0.000000 0.039353 0.000000
# 6 0.000000 0.000000 0.000000 -0.033767 0.000000 0.007792
#
#
# Mechanical properties :
#
#
# Convention : Reuss Voigt Hill
#
# Bulk Modulus (GPa) = 19.59253 30.27954 24.93604
# Shear Modulus (GPa) = 58.98372 1.71066 30.34719
#
# Velocity S-wave (km/s) = 5.05080 0.86015 3.62287
# Velocity P-wave (km/s) = 6.51828 3.75266 5.31838
#
# Compressibility (1/GPa) = 0.05103985
#
# Stress axis : x y z
#
# Youngs Moduli (GPa) = 27.49818 -101.88234 730.45889
#
# Poissons Ratio (x) = 0.06155 -0.26540
# Poissons Ratio (y) = -0.01661 -7.73746
# Poissons Ratio (z) = -0.00999 1.07920
#
# Static dielectric constant tensor:
#      x y z
#    x 1.872040 0.000000 -0.005640 
#    y 0.000000 2.292320 0.000000 
#    z -0.005640 0.000000 1.935910 
# 
# From -- ./inp_files/204857.got.cif
#   From: 2010.05.17/outbox.cif.g08.bks.cpg/sg12_103_cif.got.tgz:204857.got - 2010.06.03 13:09:07.
