data_PCOD9205462
_publ_section_title
;
Structure prediction by ZEFSAII (Michael W. Deem and Ramdas Pophale) SiO2 
 PCOD9205462
Probable space group: C 2/M
;
_chemical_formula_sum "Si O2"
_cell_formula_units_Z 48
_cell_length_a 16.230903
_cell_length_b 18.450520
_cell_length_c 8.625878
_cell_angle_alpha 90.000000
_cell_angle_beta 121.588834
_cell_angle_gamma 90.000000
_cell_volume 2200.427394
_symmetry_space_group_name_H-M "C 2/M"
_symmetry_group_IT_number 12
_symmetry_cell_setting 'monoclinic'
loop_
_space_group_symop_operation_xyz
x,y,z
-x,y,-z
-x,-y,-z
x,-y,z
1/2+x,1/2+y,z
1/2-x,1/2+y,-z
1/2-x,1/2-y,-z
1/2+x,1/2-y,z
loop_
_atom_site_type_symbol
_atom_site_label
_atom_site_fract_x
_atom_site_fract_y
_atom_site_fract_z
Si Si1 0.219956 0.219258 0.729558
Si Si2 0.367553 0.419216 0.532573
Si Si3 0.070151 0.422512 0.714493
Si Si4 0.267093 0.377003 0.749784
Si Si5 0.040905 0.128405 0.881991
Si Si6 0.590897 0.778855 0.886241
O O1 0.174902 0.148703 0.604954
O O2 0.238602 0.296066 0.662395
O O3 0.146360 0.245329 0.791630
O O4 0.324982 0.204178 0.907696
O O5 0.353435 0.500000 0.452254
O O6 0.313230 0.415453 0.646559
O O7 0.481852 0.406584 0.684044
O O8 0.065252 0.500000 0.791183
O O9 0.174951 0.411948 0.739775
O O10 0.044688 0.354352 0.794643
O O11 0.000000 0.422420 0.500000
O O12 0.345223 0.373283 0.968354
O O13 0.017846 0.214492 0.855293
O O14 0.000000 0.095278 0.000000
#
# Coordination Sequence:
#
# PCOD9205462 Si02
#       6
#     8   8   8   8   8   8
#     4   9  19  36  56  81 107 148 196 220 269 331
#     4  11  22  34  56  90 121 145 178 229 286 339
#     4  10  21  35  56  83 104 140 192 237 282 322
#     4   9  19  38  59  79 112 154 188 226 271 332
#     4   9  20  36  57  86 113 149 189 217 272 344
#     4   9  19  37  56  75 108 149 187 233 270 321
#
# _framework density 21.813943999999999
#
# number of rings (size 3 to 8) (size 9 to 14) (size 15 to 20)
#    0.000    2.500    0.000    2.000    4.667    4.333 
#    0.000    1.667    0.000    0.500    0.000    0.000 
#    0.000    0.000    0.000    0.000    0.000    0.000 
#
# Total GULP energy -133766.151853 kJ/mol
# GULP energy per Si atom -5573.589661 kJ/mol
# Density = 2.176429 g / cm^3
# Si number density = 21.813944 Si / 1000 Ang^3
#
#
#
# Elastic Constant Matrix: (Units=GPa)
#
#
# Indices 1 2 3 4 5 6 
#
# 1 24.8227 -0.9527 0.1005 0.0000 9.7315 0.0000
# 2 -0.9527 151.2594 47.3941 0.0000 10.4254 0.0000
# 3 0.1005 47.3941 64.1005 0.0000 16.4871 0.0000
# 4 0.0000 0.0000 0.0000 -45.7603 0.0000 -27.6382
# 5 9.7315 10.4254 16.4871 0.0000 21.6064 0.0000
# 6 0.0000 0.0000 0.0000 -27.6382 0.0000 6.4082
#
#
#
# Elastic Compliance Matrix: (Units=1/GPa)
#
#
# Indices 1 2 3 4 5 6 
#
# 1 0.051551 0.000018 0.007316 0.000000 -0.028810 0.000000
# 2 0.000018 0.008618 -0.006594 0.000000 0.000866 0.000000
# 3 0.007316 -0.006594 0.025498 0.000000 -0.019570 0.000000
# 4 0.000000 0.000000 0.000000 -0.006062 0.000000 -0.026145
# 5 -0.028810 0.000866 -0.019570 0.000000 0.073774 0.000000
# 6 0.000000 0.000000 0.000000 -0.026145 0.000000 0.043288
#
#
# Mechanical properties :
#
#
# Convention : Reuss Voigt Hill
#
# Bulk Modulus (GPa) = 11.47489 37.02959 24.25224
# Shear Modulus (GPa) = 22.29774 9.36021 15.82898
#
# Velocity S-wave (km/s) = 3.20062 2.07370 2.69669
# Velocity P-wave (km/s) = 4.35091 4.76925 4.56487
#
# Compressibility (1/GPa) = 0.08714679
#
# Stress axis : x y z
#
# Youngs Moduli (GPa) = 19.39809 116.03802 39.21816
#
# Poissons Ratio (x) = -0.00210 -0.28692
# Poissons Ratio (y) = -0.00035 0.25862
# Poissons Ratio (z) = -0.14192 0.76521
#
# Static dielectric constant tensor:
#      x y z
#    x 1.837900 0.000000 -0.017290 
#    y 0.000000 1.849570 0.000000 
#    z -0.017290 0.000000 1.814640 
# 
# From -- ./inp_files/88127.got.cif
#   From: 2010.05.17/outbox.cif.g08.bks.cpg/sg12_45_cif.got.tgz:88127.got - 2010.06.03 13:09:07.
