data_PCOD9205632
_publ_section_title
;
Structure prediction by ZEFSAII (Michael W. Deem and Ramdas Pophale) SiO2 
 PCOD9205632
Probable space group: C 2/M
;
_chemical_formula_sum "Si O2"
_cell_formula_units_Z 32
_cell_length_a 5.213087
_cell_length_b 29.730042
_cell_length_c 14.785227
_cell_angle_alpha 90.000000
_cell_angle_beta 133.936225
_cell_angle_gamma 90.000000
_cell_volume 1650.132746
_symmetry_space_group_name_H-M "C 2/M"
_symmetry_group_IT_number 12
_symmetry_cell_setting 'monoclinic'
loop_
_space_group_symop_operation_xyz
x,y,z
-x,y,-z
-x,-y,-z
x,-y,z
1/2+x,1/2+y,z
1/2-x,1/2+y,-z
1/2-x,1/2-y,-z
1/2+x,1/2-y,z
loop_
_atom_site_type_symbol
_atom_site_label
_atom_site_fract_x
_atom_site_fract_y
_atom_site_fract_z
Si Si1 0.434303 0.050101 0.378702
Si Si2 0.894543 0.624599 0.232288
Si Si3 0.782601 0.416101 0.863815
Si Si4 0.780013 0.278948 0.650101
O O1 0.500000 0.059406 0.500000
O O2 0.574318 0.089732 0.348210
O O3 0.009961 0.051942 0.254199
O O4 0.567462 0.000000 0.389559
O O5 0.478284 0.621929 0.156867
O O6 0.968009 0.604283 0.151951
O O7 0.051569 0.673864 0.280609
O O8 0.000000 0.436674 0.000000
O O9 0.500000 0.287226 0.500000
O O10 0.571084 0.254884 0.679948
#
# Coordination Sequence:
#
# PCOD9205632 Si02
#       4
#     8   8   8   8
#     4   9  22  39  61  94 124 157 200 247 303 362
#     4  10  22  37  64  85 124 159 197 248 308 344
#     4  10  22  39  61  87 119 166 207 243 292 356
#     4  10  21  35  59  92 122 153 198 249 300 362
#
# _framework density 19.392379999999999
#
# number of rings (size 3 to 8) (size 9 to 14) (size 15 to 20)
#    1.500    0.750    0.000    2.250    3.500    2.500 
#    0.000    3.750    0.000   15.000    0.000    0.000 
#    0.000    0.000    0.000    0.000    0.000    0.000 
#
# Total GULP energy -89147.863135 kJ/mol
# GULP energy per Si atom -5571.741446 kJ/mol
# Density = 1.934824 g / cm^3
# Si number density = 19.392380 Si / 1000 Ang^3
#
#
#
# Elastic Constant Matrix: (Units=GPa)
#
#
# Indices 1 2 3 4 5 6 
#
# 1 68.9983 -2.0900 14.5959 0.0000 -4.2324 0.0000
# 2 -2.0900 61.6056 25.2695 0.0000 -7.1242 0.0000
# 3 14.5959 25.2695 118.6976 0.0000 -15.6760 0.0000
# 4 0.0000 0.0000 0.0000 5.9522 0.0000 -13.4745
# 5 -4.2324 -7.1242 -15.6760 0.0000 21.5940 0.0000
# 6 0.0000 0.0000 0.0000 -13.4745 0.0000 23.5270
#
#
#
# Elastic Compliance Matrix: (Units=1/GPa)
#
#
# Indices 1 2 3 4 5 6 
#
# 1 0.015070 0.001533 -0.001905 0.000000 0.002076 0.000000
# 2 0.001533 0.018177 -0.003569 0.000000 0.003707 0.000000
# 3 -0.001905 -0.003569 0.010191 0.000000 0.005847 0.000000
# 4 0.000000 0.000000 0.000000 -0.566581 0.000000 -0.324495
# 5 0.002076 0.003707 0.005847 0.000000 0.052184 0.000000
# 6 0.000000 0.000000 0.000000 -0.324495 0.000000 -0.143343
#
#
# Mechanical properties :
#
#
# Convention : Reuss Voigt Hill
#
# Bulk Modulus (GPa) = 28.12487 36.09470 32.10979
# Shear Modulus (GPa) = -8.40947 24.31639 7.95346
#
# Velocity S-wave (km/s) = -2.08468 3.54491 2.02737
# Velocity P-wave (km/s) = 2.95635 5.95050 4.69832
#
# Compressibility (1/GPa) = 0.03555572
#
# Stress axis : x y z
#
# Youngs Moduli (GPa) = 66.35732 55.01542 98.12567
#
# Poissons Ratio (x) = -0.08433 0.18695
# Poissons Ratio (y) = -0.10172 0.35017
# Poissons Ratio (z) = 0.12643 0.19633
#
# Static dielectric constant tensor:
#      x y z
#    x 1.682590 0.000000 0.031920 
#    y 0.000000 1.632930 0.000000 
#    z 0.031920 0.000000 1.695540 
# 
# From -- ./inp_files/115211.got.cif
#   From: 2010.05.17/outbox.cif.g08.bks.cpg/sg12_58_cif.got.tgz:115211.got - 2010.06.03 13:09:07.
