data_PCOD9205659
_publ_section_title
;
Structure prediction by ZEFSAII (Michael W. Deem and Ramdas Pophale) SiO2 
 PCOD9205659
Probable space group: C 2/M
;
_chemical_formula_sum "Si O2"
_cell_formula_units_Z 32
_cell_length_a 9.796064
_cell_length_b 16.436539
_cell_length_c 9.395993
_cell_angle_alpha 90.000000
_cell_angle_beta 63.439602
_cell_angle_gamma 90.000000
_cell_volume 1353.216548
_symmetry_space_group_name_H-M "C 2/M"
_symmetry_group_IT_number 12
_symmetry_cell_setting 'monoclinic'
loop_
_space_group_symop_operation_xyz
x,y,z
-x,y,-z
-x,-y,-z
x,-y,z
1/2+x,1/2+y,z
1/2-x,1/2+y,-z
1/2-x,1/2-y,-z
1/2+x,1/2-y,z
loop_
_atom_site_type_symbol
_atom_site_label
_atom_site_fract_x
_atom_site_fract_y
_atom_site_fract_z
Si Si1 0.189681 0.750801 0.740347
Si Si2 0.529072 0.846591 0.342638
Si Si3 0.842053 0.374769 0.014275
Si Si4 0.001494 0.912787 0.827906
O O1 0.366505 0.771704 0.650580
O O2 0.159617 0.715705 0.913511
O O3 0.123267 0.682471 0.666295
O O4 0.096564 0.832542 0.747285
O O5 0.500000 0.896143 0.500000
O O6 0.634968 0.880102 0.165975
O O7 0.676615 0.407346 0.132987
O O8 0.000000 0.411223 0.000000
O O9 0.064654 0.000000 0.748171
O O10 0.000000 0.913552 0.000000
#
# Coordination Sequence:
#
# PCOD9205659 Si02
#       4
#     8   8   8   8
#     4  11  20  37  59  85 113 151 191 241 275 334
#     4  11  21  32  55  90 116 144 190 240 283 330
#     4  10  21  35  61  82 114 150 191 239 279 330
#     4  11  21  35  59  88 113 147 193 238 283 333
#
# _framework density 23.647359999999999
#
# number of rings (size 3 to 8) (size 9 to 14) (size 15 to 20)
#    0.000    1.250    5.000    3.750    0.000    0.500 
#    0.000    0.000    0.000    3.750    0.000    0.000 
#    0.000    0.000    0.000    0.000    0.000    0.000 
#
# Total GULP energy -89217.707866 kJ/mol
# GULP energy per Si atom -5576.106742 kJ/mol
# Density = 2.359354 g / cm^3
# Si number density = 23.647360 Si / 1000 Ang^3
#
#
#
# Elastic Constant Matrix: (Units=GPa)
#
#
# Indices 1 2 3 4 5 6 
#
# 1 142.2543 7.9936 3.4547 0.0000 0.5753 0.0000
# 2 7.9936 94.8364 15.0745 0.0000 -3.8383 0.0000
# 3 3.4547 15.0745 114.1731 0.0000 8.8554 0.0000
# 4 0.0000 0.0000 0.0000 -4.0024 0.0000 -6.9196
# 5 0.5753 -3.8383 8.8554 0.0000 28.8051 0.0000
# 6 0.0000 0.0000 0.0000 -6.9196 0.0000 -3.1129
#
#
#
# Elastic Compliance Matrix: (Units=1/GPa)
#
#
# Indices 1 2 3 4 5 6 
#
# 1 0.007066 -0.000583 -0.000123 0.000000 -0.000181 0.000000
# 2 -0.000583 0.010923 -0.001576 0.000000 0.001952 0.000000
# 3 -0.000123 -0.001576 0.009206 0.000000 -0.003038 0.000000
# 4 0.000000 0.000000 0.000000 0.087884 0.000000 -0.195351
# 5 -0.000181 0.001952 -0.003038 0.000000 0.035914 0.000000
# 6 0.000000 0.000000 0.000000 -0.195351 0.000000 0.112994
#
#
# Mechanical properties :
#
#
# Convention : Reuss Voigt Hill
#
# Bulk Modulus (GPa) = 44.18683 44.92326 44.55504
# Shear Modulus (GPa) = 18.10977 25.98735 22.04856
#
# Velocity S-wave (km/s) = 2.77036 3.31864 3.05682
# Velocity P-wave (km/s) = 5.38140 5.80714 5.59832
#
# Compressibility (1/GPa) = 0.02263118
#
# Stress axis : x y z
#
# Youngs Moduli (GPa) = 141.51951 91.54879 108.62454
#
# Poissons Ratio (x) = 0.05341 0.01333
# Poissons Ratio (y) = 0.08257 0.17118
# Poissons Ratio (z) = 0.01737 0.14427
#
# Static dielectric constant tensor:
#      x y z
#    x 1.920320 0.000000 0.001780 
#    y 0.000000 1.962880 0.000000 
#    z 0.001780 0.000000 2.021100 
# 
# From -- ./inp_files/46004.got.cif
#   From: 2010.05.17/outbox.cif.g08.bks.cpg/sg12_24_cif.got.tgz:46004.got - 2010.06.03 13:09:07.
