data_PCOD9205903
_publ_section_title
;
Structure prediction by ZEFSAII (Michael W. Deem and Ramdas Pophale) SiO2 
 PCOD9205903
Probable space group: C 2/M
;
_chemical_formula_sum "Si O2"
_cell_formula_units_Z 64
_cell_length_a 14.434509
_cell_length_b 8.066104
_cell_length_c 32.363939
_cell_angle_alpha 90.000000
_cell_angle_beta 135.111399
_cell_angle_gamma 90.000000
_cell_volume 2659.292908
_symmetry_space_group_name_H-M "C 2/M"
_symmetry_group_IT_number 12
_symmetry_cell_setting 'monoclinic'
loop_
_space_group_symop_operation_xyz
x,y,z
-x,y,-z
-x,-y,-z
x,-y,z
1/2+x,1/2+y,z
1/2-x,1/2+y,-z
1/2-x,1/2-y,-z
1/2+x,1/2-y,z
loop_
_atom_site_type_symbol
_atom_site_label
_atom_site_fract_x
_atom_site_fract_y
_atom_site_fract_z
Si Si1 0.144448 0.807337 0.048270
Si Si2 0.099663 0.314446 0.401964
Si Si3 0.079990 0.702992 0.878389
Si Si4 0.660047 0.693458 0.721340
Si Si5 0.325164 0.201321 0.850913
Si Si6 0.997481 0.810810 0.544911
Si Si7 0.767293 0.182119 0.631254
Si Si8 0.427682 0.192879 0.752200
O O1 0.272719 0.737831 0.065556
O O2 0.182291 0.792496 0.108212
O O3 0.131854 0.000000 0.031635
O O4 0.000000 0.728150 0.000000
O O5 0.146824 0.500000 0.410755
O O6 0.192520 0.200660 0.403574
O O7 0.955367 0.294762 0.336200
O O8 0.085187 0.273010 0.445330
O O9 0.081366 0.500000 0.876987
O O10 0.965151 0.745813 0.874003
O O11 0.033567 0.760737 0.818112
O O12 0.619057 0.500000 0.709560
O O13 0.709475 0.745713 0.782352
O O14 0.791969 0.701083 0.735508
O O15 0.322459 0.000000 0.855049
O O16 0.150896 0.806272 0.605855
O O17 0.000000 0.733475 0.500000
O O18 0.952996 0.000000 0.527432
O O19 0.894814 0.215224 0.699525
O O20 0.715715 0.000000 0.624091
O O21 0.455235 0.000000 0.751979
#
# Coordination Sequence:
#
# PCOD9205903 Si02
#       8
#     8   8   8   8   8   8   8   8
#     4  10  21  36  54  80 115 154 199 249 299 355
#     4  12  25  40  63  94 127 166 206 249 306 366
#     4   8  17  35  56  79 111 155 193 234 299 361
#     4   9  18  35  59  86 121 155 192 249 308 363
#     4   9  19  36  57  81 110 151 196 241 295 358
#     4  11  25  47  71  93 124 165 208 256 306 360
#     4  12  25  40  62  94 129 164 205 253 303 363
#     4   9  17  34  60  85 117 158 199 244 303 370
#
# _framework density 24.066548000000001
#
# number of rings (size 3 to 8) (size 9 to 14) (size 15 to 20)
#    0.000    2.000    1.250    4.125    1.750    2.750 
#    0.000    2.500    0.000    0.000    0.000    0.000 
#    0.000    0.000    0.000    0.000    0.000    0.000 
#
# Total GULP energy -178942.213709 kJ/mol
# GULP energy per Si atom -5591.944178 kJ/mol
# Density = 2.401177 g / cm^3
# Si number density = 24.066548 Si / 1000 Ang^3
#
#
#
# Elastic Constant Matrix: (Units=GPa)
#
#
# Indices 1 2 3 4 5 6 
#
# 1 70.0925 -3.6587 9.3672 0.0000 17.9714 0.0000
# 2 -3.6587 45.6251 -4.5007 0.0000 4.9250 0.0000
# 3 9.3672 -4.5007 35.5840 0.0000 17.6007 0.0000
# 4 0.0000 0.0000 0.0000 15.3951 0.0000 -10.1608
# 5 17.9714 4.9250 17.6007 0.0000 46.4193 0.0000
# 6 0.0000 0.0000 0.0000 -10.1608 0.0000 11.4941
#
#
#
# Elastic Compliance Matrix: (Units=1/GPa)
#
#
# Indices 1 2 3 4 5 6 
#
# 1 0.016042 0.001837 -0.001012 0.000000 -0.006022 0.000000
# 2 0.001837 0.023094 0.004925 0.000000 -0.005028 0.000000
# 3 -0.001012 0.004925 0.035764 0.000000 -0.013691 0.000000
# 4 0.000000 0.000000 0.000000 0.155934 0.000000 0.137846
# 5 -0.006022 -0.005028 -0.013691 0.000000 0.029599 0.000000
# 6 0.000000 0.000000 0.000000 0.137846 0.000000 0.208857
#
#
# Mechanical properties :
#
#
# Convention : Reuss Voigt Hill
#
# Bulk Modulus (GPa) = 11.57439 17.07969 14.32704
# Shear Modulus (GPa) = 10.27558 24.66799 17.47178
#
# Velocity S-wave (km/s) = 2.06856 3.20502 2.69732
# Velocity P-wave (km/s) = 3.24423 4.56163 3.95812
#
# Compressibility (1/GPa) = 0.08639762
#
# Stress axis : x y z
#
# Youngs Moduli (GPa) = 62.33660 43.30201 27.96130
#
# Poissons Ratio (x) = -0.07953 0.02830
# Poissons Ratio (y) = -0.11449 -0.13770
# Poissons Ratio (z) = 0.06309 -0.21325
#
# Static dielectric constant tensor:
#      x y z
#    x 1.935210 0.000000 0.022860 
#    y 0.000000 1.841880 0.000000 
#    z 0.022860 0.000000 1.960130 
# 
# From -- ./inp_files/375634.got.cif
#   From: 2010.05.17/outbox.cif.g08.bks.cpg/sg12_188_cif.got.tgz:375634.got - 2010.06.03 13:09:07.
