data_PCOD9205035
_publ_section_title
;
Structure prediction by ZEFSAII (Michael W. Deem and Ramdas Pophale) SiO2 
 PCOD9205035
Probable space group: C 2/M
;
_chemical_formula_sum "Si O2"
_cell_formula_units_Z 40
_cell_length_a 11.162229
_cell_length_b 26.497852
_cell_length_c 10.652332
_cell_angle_alpha 90.000000
_cell_angle_beta 141.508983
_cell_angle_gamma 90.000000
_cell_volume 1960.966815
_symmetry_space_group_name_H-M "C 2/M"
_symmetry_group_IT_number 12
_symmetry_cell_setting 'monoclinic'
loop_
_space_group_symop_operation_xyz
x,y,z
-x,y,-z
-x,-y,-z
x,-y,z
1/2+x,1/2+y,z
1/2-x,1/2+y,-z
1/2-x,1/2-y,-z
1/2+x,1/2-y,z
loop_
_atom_site_type_symbol
_atom_site_label
_atom_site_fract_x
_atom_site_fract_y
_atom_site_fract_z
Si Si1 0.707961 0.079838 0.669216
Si Si2 0.628653 0.558000 0.926933
Si Si3 0.652720 0.775447 0.221681
Si Si4 0.210856 0.317963 0.521212
Si Si5 0.907332 0.858645 0.297347
O O1 0.500000 0.053779 0.500000
O O2 0.667959 0.132364 0.564578
O O3 0.895554 0.057464 0.753022
O O4 0.780348 0.081179 0.871945
O O5 0.692240 0.500000 0.963944
O O6 0.674819 0.596405 0.853325
O O7 0.780741 0.730291 0.381746
O O8 0.585921 0.804023 0.295256
O O9 0.760619 0.816972 0.226974
O O10 0.500000 0.752663 0.000000
O O11 0.424799 0.329517 0.641133
O O12 0.000000 0.881030 0.500000
#
# Coordination Sequence:
#
# PCOD9205035 Si02
#       5
#     8   8   8   8   8
#     4  10  21  36  61  86 120 147 188 240 288 341
#     4  10  22  39  60  87 114 149 197 240 293 341
#     4  10  21  34  58  82 116 152 192 228 278 341
#     4   9  21  37  51  86 116 151 188 227 280 346
#     4   9  20  39  56  79 117 151 189 235 284 342
#
# _framework density 20.398102000000002
#
# number of rings (size 3 to 8) (size 9 to 14) (size 15 to 20)
#    0.000    2.400    0.000    1.200    8.400    6.800 
#    0.000    0.000    0.000    0.600    0.000    0.000 
#    0.000    0.000    0.000    0.000    0.000    0.000 
#
# Total GULP energy -111461.671763 kJ/mol
# GULP energy per Si atom -5573.083588 kJ/mol
# Density = 2.035168 g / cm^3
# Si number density = 20.398102 Si / 1000 Ang^3
#
#
#
# Elastic Constant Matrix: (Units=GPa)
#
#
# Indices 1 2 3 4 5 6 
#
# 1 68.1930 30.7473 33.9246 0.0000 -12.7190 0.0000
# 2 30.7473 110.2939 29.5349 0.0000 -30.8739 0.0000
# 3 33.9246 29.5349 91.4304 0.0000 -13.5121 0.0000
# 4 0.0000 0.0000 0.0000 -455.8038 0.0000 485.7981
# 5 -12.7190 -30.8739 -13.5121 0.0000 27.3753 0.0000
# 6 0.0000 0.0000 0.0000 485.7981 0.0000 -478.6952
#
#
#
# Elastic Compliance Matrix: (Units=1/GPa)
#
#
# Indices 1 2 3 4 5 6 
#
# 1 0.019463 -0.003127 -0.005821 0.000000 0.002643 0.000000
# 2 -0.003127 0.014189 -0.001373 0.000000 0.013872 0.000000
# 3 -0.005821 -0.001373 0.013928 0.000000 0.002622 0.000000
# 4 0.000000 0.000000 0.000000 0.026880 0.000000 0.027279
# 5 0.002643 0.013872 0.002622 0.000000 0.054696 0.000000
# 6 0.000000 0.000000 0.000000 0.027279 0.000000 0.025594
#
#
# Mechanical properties :
#
#
# Convention : Reuss Voigt Hill
#
# Bulk Modulus (GPa) = 37.12267 50.92566 44.02416
# Shear Modulus (GPa) = 27.11905 -169.71069 -71.29582
#
# Velocity S-wave (km/s) = 3.65017 -9.13126 -5.91845
# Velocity P-wave (km/s) = 6.00030 9.28187 5.00747
#
# Compressibility (1/GPa) = 0.02693772
#
# Stress axis : x y z
#
# Youngs Moduli (GPa) = 51.37963 70.47573 71.79754
#
# Poissons Ratio (x) = 0.22040 0.41792
# Poissons Ratio (y) = 0.16068 0.09859
# Poissons Ratio (z) = 0.29907 0.09677
#
# Static dielectric constant tensor:
#      x y z
#    x 1.762910 0.000000 0.018160 
#    y 0.000000 1.721170 0.000000 
#    z 0.018160 0.000000 1.753950 
# 
# From -- ./inp_files/54465.got.cif
#   From: 2010.05.17/outbox.cif.g08.bks.cpg/sg12_28_cif.got.tgz:54465.got - 2010.06.03 13:09:07.
