data_PCOD9205152
_publ_section_title
;
Structure prediction by ZEFSAII (Michael W. Deem and Ramdas Pophale) SiO2 
 PCOD9205152
Probable space group: C 2/M
;
_chemical_formula_sum "Si O2"
_cell_formula_units_Z 56
_cell_length_a 9.478198
_cell_length_b 18.640181
_cell_length_c 23.314354
_cell_angle_alpha 90.000000
_cell_angle_beta 127.575674
_cell_angle_gamma 90.000000
_cell_volume 3264.564118
_symmetry_space_group_name_H-M "C 2/M"
_symmetry_group_IT_number 12
_symmetry_cell_setting 'monoclinic'
loop_
_space_group_symop_operation_xyz
x,y,z
-x,y,-z
-x,-y,-z
x,-y,z
1/2+x,1/2+y,z
1/2-x,1/2+y,-z
1/2-x,1/2-y,-z
1/2+x,1/2-y,z
loop_
_atom_site_type_symbol
_atom_site_label
_atom_site_fract_x
_atom_site_fract_y
_atom_site_fract_z
Si Si1 0.973026 0.915677 0.927549
Si Si2 0.190379 0.584323 0.072451
Si Si3 0.240975 0.824760 0.214422
Si Si4 0.597710 0.324760 0.785578
Si Si5 0.337775 0.412657 0.500000
Si Si6 0.619721 0.414964 0.357944
Si Si7 0.454112 0.914964 0.357944
O O1 0.829436 0.869295 0.857633
O O2 0.158315 0.909099 0.938877
O O3 0.922565 0.000000 0.914112
O O4 0.000000 0.893663 0.000000
O O5 0.180228 0.500000 0.085888
O O6 0.256536 0.630705 0.142367
O O7 0.000000 0.606337 0.000000
O O8 0.324042 0.750000 0.216028
O O9 0.380933 0.871234 0.285816
O O10 0.070107 0.813638 0.213404
O O11 0.523484 0.371234 0.714184
O O12 0.500000 0.389126 0.500000
O O13 0.335992 0.500000 0.500000
O O14 0.365244 0.390640 0.572636
O O15 0.147337 0.390640 0.427364
O O16 0.576535 0.500000 0.346031
O O17 0.809311 0.406782 0.372874
O O18 0.461556 0.000000 0.346031
#
# Coordination Sequence:
#
# PCOD9205152 Si02
#       7
#     8   8   8   8   8   8   8
#     4   9  18  34  55  77 100 128 165 207 248 291
#     4   9  18  34  55  77 100 128 165 207 248 291
#     4  10  21  35  51  73 102 134 167 204 246 293
#     4  10  21  35  51  73 102 134 167 204 246 293
#     4   9  17  29  48  77 106 127 155 203 256 297
#     4   9  17  32  54  75  96 128 169 207 244 291
#     4   9  17  32  54  75  96 128 169 207 244 291
#
# _framework density 17.153898000000002
#
# number of rings (size 3 to 8) (size 9 to 14) (size 15 to 20)
#    0.000    2.714    0.000    1.286    0.000    8.000 
#    0.000    3.571    0.000    8.571    0.000    0.000 
#    0.000    0.000    0.000    0.000    0.000    0.000 
#
# Total GULP energy -156166.583043 kJ/mol
# GULP energy per Si atom -5577.377966 kJ/mol
# Density = 1.711486 g / cm^3
# Si number density = 17.153898 Si / 1000 Ang^3
#
#
#
# Elastic Constant Matrix: (Units=GPa)
#
#
# Indices 1 2 3 4 5 6 
#
# 1 55.8539 56.1734 94.3177 0.0000 0.0040 0.0000
# 2 56.1734 77.8533 95.5893 0.0000 0.0017 0.0000
# 3 94.3177 95.5893 213.1874 0.0000 0.0026 0.0000
# 4 0.0000 0.0000 0.0000 -4.8002 0.0000 -0.0015
# 5 0.0040 0.0017 0.0026 0.0000 28.1186 0.0000
# 6 0.0000 0.0000 0.0000 -0.0015 0.0000 28.8395
#
#
#
# Elastic Compliance Matrix: (Units=1/GPa)
#
#
# Indices 1 2 3 4 5 6 
#
# 1 0.116033 -0.046035 -0.030694 0.000000 -0.000011 0.000000
# 2 -0.046035 0.046841 -0.000636 0.000000 0.000004 0.000000
# 3 -0.030694 -0.000636 0.018555 0.000000 0.000003 0.000000
# 4 0.000000 0.000000 0.000000 -0.208325 0.000000 -0.000011
# 5 -0.000011 0.000004 0.000003 0.000000 0.035564 0.000000
# 6 0.000000 0.000000 0.000000 -0.000011 0.000000 0.034675
#
#
# Mechanical properties :
#
#
# Convention : Reuss Voigt Hill
#
# Bulk Modulus (GPa) = 37.45319 93.22836 65.34077
# Shear Modulus (GPa) = 24.15780 17.15252 20.65516
#
# Velocity S-wave (km/s) = 3.75680 3.16558 3.47379
# Velocity P-wave (km/s) = 6.37958 8.23574 7.36636
#
# Compressibility (1/GPa) = 0.02670000
#
# Stress axis : x y z
#
# Youngs Moduli (GPa) = 8.61825 21.34871 53.89284
#
# Poissons Ratio (x) = 0.98279 1.65417
# Poissons Ratio (y) = 0.39674 0.03428
# Poissons Ratio (z) = 0.26453 0.01358
#
# Static dielectric constant tensor:
#      x y z
#    x 1.572040 0.000000 0.000000 
#    y 0.000000 1.556660 0.000000 
#    z 0.000000 0.000000 1.558700 
# 
# From -- ./inp_files/300909.got.cif
#   From: 2010.05.17/outbox.cif.g08.bks.cpg/sg12_151_cif.got.tgz:300909.got - 2010.06.03 13:09:07.
