data_PCOD9205666
_publ_section_title
;
Structure prediction by ZEFSAII (Michael W. Deem and Ramdas Pophale) SiO2 
 PCOD9205666
Probable space group: C 2/M
;
_chemical_formula_sum "Si O2"
_cell_formula_units_Z 36
_cell_length_a 7.786807
_cell_length_b 27.420448
_cell_length_c 13.097026
_cell_angle_alpha 90.000000
_cell_angle_beta 144.179032
_cell_angle_gamma 90.000000
_cell_volume 1636.633262
_symmetry_space_group_name_H-M "C 2/M"
_symmetry_group_IT_number 12
_symmetry_cell_setting 'monoclinic'
loop_
_space_group_symop_operation_xyz
x,y,z
-x,y,-z
-x,-y,-z
x,-y,z
1/2+x,1/2+y,z
1/2-x,1/2+y,-z
1/2-x,1/2-y,-z
1/2+x,1/2-y,z
loop_
_atom_site_type_symbol
_atom_site_label
_atom_site_fract_x
_atom_site_fract_y
_atom_site_fract_z
Si Si1 0.648169 0.945629 0.346247
Si Si2 0.179706 0.645818 0.900086
Si Si3 0.536999 0.328036 0.257644
Si Si4 0.799241 0.263247 0.209500
Si Si5 0.000000 0.411723 0.500000
O O1 0.507045 0.901360 0.215325
O O2 0.535566 0.940002 0.409877
O O3 0.000000 0.942291 0.500000
O O4 0.560376 0.000000 0.268795
O O5 0.048755 0.695349 0.788193
O O6 0.500000 0.639028 0.000000
O O7 0.263326 0.655023 0.056949
O O8 0.726306 0.293173 0.274618
O O9 0.448699 0.288567 0.298958
O O10 0.721899 0.375385 0.370558
O O11 0.500000 0.253810 0.000000
#
# Coordination Sequence:
#
# PCOD9205666 Si02
#       5
#     8   8   8   8   4
#     4  11  25  45  68  93 124 162 209 270 326 367
#     4   9  17  40  63  88 122 165 211 253 309 374
#     4  10  21  35  61  89 127 171 208 246 309 374
#     4   9  17  34  56  85 122 162 206 247 295 366
#     4  12  23  44  60  96 132 162 213 260 316 372
#
# _framework density 21.996375
#
# number of rings (size 3 to 8) (size 9 to 14) (size 15 to 20)
#    0.000    2.444    4.444    3.000    0.000    4.889 
#    2.000    0.000    0.000    2.667    0.000    0.000 
#    0.000    0.000    0.000    0.000    0.000    0.000 
#
# Total GULP energy -100425.794141 kJ/mol
# GULP energy per Si atom -5579.210786 kJ/mol
# Density = 2.194631 g / cm^3
# Si number density = 21.996375 Si / 1000 Ang^3
#
#
#
# Elastic Constant Matrix: (Units=GPa)
#
#
# Indices 1 2 3 4 5 6 
#
# 1 54.8507 24.5749 15.5414 0.0000 12.4805 0.0000
# 2 24.5749 158.7314 46.8720 0.0000 11.9942 0.0000
# 3 15.5414 46.8720 32.2669 0.0000 0.7843 0.0000
# 4 0.0000 0.0000 0.0000 -116.2890 0.0000 30.0140
# 5 12.4805 11.9942 0.7843 0.0000 17.0151 0.0000
# 6 0.0000 0.0000 0.0000 30.0140 0.0000 20.2452
#
#
#
# Elastic Compliance Matrix: (Units=1/GPa)
#
#
# Indices 1 2 3 4 5 6 
#
# 1 0.026072 0.001785 -0.014672 0.000000 -0.019706 0.000000
# 2 0.001785 0.012068 -0.018172 0.000000 -0.008979 0.000000
# 3 -0.014672 -0.018172 0.063954 0.000000 0.020623 0.000000
# 4 0.000000 0.000000 0.000000 -0.006219 0.000000 0.009220
# 5 -0.019706 -0.008979 0.020623 0.000000 0.078604 0.000000
# 6 0.000000 0.000000 0.000000 0.009220 0.000000 0.035725
#
#
# Mechanical properties :
#
#
# Convention : Reuss Voigt Hill
#
# Bulk Modulus (GPa) = 25.01426 46.64730 35.83078
# Shear Modulus (GPa) = 17.50414 -5.21502 6.14456
#
# Velocity S-wave (km/s) = 2.82401 -1.54143 1.67317
# Velocity P-wave (km/s) = 4.69362 4.25263 4.47855
#
# Compressibility (1/GPa) = 0.03997720
#
# Stress axis : x y z
#
# Youngs Moduli (GPa) = 38.35462 82.86323 15.63624
#
# Poissons Ratio (x) = -0.14790 0.22941
# Poissons Ratio (y) = -0.06846 0.28414
# Poissons Ratio (z) = 0.56272 1.50579
#
# Static dielectric constant tensor:
#      x y z
#    x 1.867590 0.000000 0.018210 
#    y 0.000000 1.778030 0.000000 
#    z 0.018210 0.000000 1.832580 
# 
# From -- ./inp_files/200289.got.cif
#   From: 2010.05.17/outbox.cif.g08.bks.cpg/sg12_101_cif.got.tgz:200289.got - 2010.06.03 13:09:07.
