data_PCOD9205932
_publ_section_title
;
Structure prediction by ZEFSAII (Michael W. Deem and Ramdas Pophale) SiO2 
 PCOD9205932
Probable space group: C 2/M
;
_chemical_formula_sum "Si O2"
_cell_formula_units_Z 64
_cell_length_a 16.706487
_cell_length_b 22.135384
_cell_length_c 18.056329
_cell_angle_alpha 90.000000
_cell_angle_beta 27.506286
_cell_angle_gamma 90.000000
_cell_volume 3083.889253
_symmetry_space_group_name_H-M "C 2/M"
_symmetry_group_IT_number 12
_symmetry_cell_setting 'monoclinic'
loop_
_space_group_symop_operation_xyz
x,y,z
-x,y,-z
-x,-y,-z
x,-y,z
1/2+x,1/2+y,z
1/2-x,1/2+y,-z
1/2-x,1/2-y,-z
1/2+x,1/2-y,z
loop_
_atom_site_type_symbol
_atom_site_label
_atom_site_fract_x
_atom_site_fract_y
_atom_site_fract_z
Si Si1 0.710683 0.629270 0.388238
Si Si2 0.490722 0.353802 0.169463
Si Si3 0.040882 0.276288 0.878163
Si Si4 0.264536 0.569118 0.136028
Si Si5 0.719243 0.880422 0.956644
Si Si6 0.538703 0.931090 0.713624
Si Si7 0.692689 0.070189 0.362812
Si Si8 0.851655 0.931463 0.700811
O O1 0.751528 0.579503 0.290656
O O2 0.509546 0.616695 0.569426
O O3 0.779361 0.690160 0.292813
O O4 0.815054 0.613971 0.377088
O O5 0.464996 0.286587 0.160333
O O6 0.598984 0.360611 0.156132
O O7 0.309235 0.389433 0.320331
O O8 0.614480 0.386018 0.007439
O O9 0.894426 0.321369 0.966899
O O10 0.000000 0.269713 0.000000
O O11 0.300213 0.500000 0.082995
O O12 0.063154 0.581119 0.279081
O O13 0.286124 0.571942 0.205869
O O14 0.742701 0.916609 0.861988
O O15 0.615040 0.921405 0.100370
O O16 0.602056 0.000000 0.661339
O O17 0.500000 0.091186 0.500000
O O18 0.683376 0.000000 0.394717
O O19 0.917741 0.000000 0.649184
#
# Coordination Sequence:
#
# PCOD9205932 Si02
#       8
#     8   8   8   8   8   8   8   8
#     4  10  21  36  54  83 118 154 197 239 286 351
#     4  11  22  38  61  86 113 156 203 240 297 355
#     4  11  21  40  60  82 115 160 200 247 295 341
#     4   9  18  34  56  83 112 144 189 247 298 347
#     4  10  22  37  56  88 117 145 196 248 290 344
#     4   9  17  31  53  80 110 143 184 235 291 347
#     4  10  21  37  56  84 119 150 192 250 302 356
#     4  11  21  37  59  84 119 158 191 236 301 357
#
# _framework density 20.753015000000001
#
# number of rings (size 3 to 8) (size 9 to 14) (size 15 to 20)
#    0.000    1.875    1.250    3.750    0.000    3.500 
#    2.250    3.750    0.000    0.000    0.000    0.000 
#    0.000    0.000    0.000    0.000    0.000    0.000 
#
# Total GULP energy -178572.686159 kJ/mol
# GULP energy per Si atom -5580.396442 kJ/mol
# Density = 2.070578 g / cm^3
# Si number density = 20.753015 Si / 1000 Ang^3
#
#
#
# Elastic Constant Matrix: (Units=GPa)
#
#
# Indices 1 2 3 4 5 6 
#
# 1 67.6722 5.4152 -7.4144 0.0649 -10.4210 0.0061
# 2 5.4152 70.6805 11.3589 0.1023 -9.7876 -0.0015
# 3 -7.4144 11.3589 38.6499 0.0664 -10.6723 0.0106
# 4 0.0649 0.1023 0.0664 -15.1807 -0.0446 -16.0057
# 5 -10.4210 -9.7876 -10.6723 -0.0446 31.0292 -0.0092
# 6 0.0061 -0.0015 0.0106 -16.0057 -0.0092 17.0035
#
#
#
# Elastic Compliance Matrix: (Units=1/GPa)
#
#
# Indices 1 2 3 4 5 6 
#
# 1 0.016560 -0.001169 0.005474 0.000036 0.007076 0.000028
# 2 -0.001169 0.015288 -0.003861 0.000033 0.003102 0.000037
# 3 0.005474 -0.003861 0.031192 0.000059 0.011349 0.000040
# 4 0.000036 0.000033 0.000059 -0.033061 -0.000014 -0.031121
# 5 0.007076 0.003102 0.011349 -0.000014 0.039486 -0.000001
# 6 0.000028 0.000037 0.000040 -0.031121 -0.000001 0.029517
#
#
# Mechanical properties :
#
#
# Convention : Reuss Voigt Hill
#
# Bulk Modulus (GPa) = 15.64247 21.74688 18.69468
# Shear Modulus (GPa) = 41.87544 17.74659 29.81102
#
# Velocity S-wave (km/s) = 4.49687 2.92744 3.79419
# Velocity P-wave (km/s) = 5.87505 4.68275 5.31246
#
# Compressibility (1/GPa) = 0.06392851
#
# Stress axis : x y z
#
# Youngs Moduli (GPa) = 60.38668 65.41230 32.05986
#
# Poissons Ratio (x) = 0.07645 -0.17549
# Poissons Ratio (y) = 0.07057 0.12377
# Poissons Ratio (z) = -0.33055 0.25253
#
# Static dielectric constant tensor:
#      x y z
#    x 1.788750 -0.000020 -0.018040 
#    y -0.000020 1.696440 0.000040 
#    z -0.018040 0.000040 1.783480 
# 
# From -- ./inp_files/272831.got.cif
#   From: 2010.05.17/outbox.cif.g08.bks.cpg/sg12_137_cif.got.tgz:272831.got - 2010.06.03 13:09:07.
