data_PCOD9205516
_publ_section_title
;
Structure prediction by ZEFSAII (Michael W. Deem and Ramdas Pophale) SiO2 
 PCOD9205516
Probable space group: C 2/M
;
_chemical_formula_sum "Si O2"
_cell_formula_units_Z 48
_cell_length_a 26.571558
_cell_length_b 13.619000
_cell_length_c 14.393135
_cell_angle_alpha 90.000000
_cell_angle_beta 150.642241
_cell_angle_gamma 90.000000
_cell_volume 2553.555321
_symmetry_space_group_name_H-M "C 2/M"
_symmetry_group_IT_number 12
_symmetry_cell_setting 'monoclinic'
loop_
_space_group_symop_operation_xyz
x,y,z
-x,y,-z
-x,-y,-z
x,-y,z
1/2+x,1/2+y,z
1/2-x,1/2+y,-z
1/2-x,1/2-y,-z
1/2+x,1/2-y,z
loop_
_atom_site_type_symbol
_atom_site_label
_atom_site_fract_x
_atom_site_fract_y
_atom_site_fract_z
Si Si1 0.445663 0.885055 0.691768
Si Si2 0.421080 0.500000 0.249428
Si Si3 0.379664 0.885639 0.778579
Si Si4 0.575920 0.886143 0.548682
Si Si5 0.321226 0.161554 0.879548
Si Si6 0.152317 0.000000 0.655225
Si Si7 0.217854 0.822457 0.033882
O O1 0.382392 0.844329 0.678219
O O2 0.425022 0.842100 0.556317
O O3 0.416534 0.000000 0.642592
O O4 0.567327 0.881104 0.910167
O O5 0.542984 0.500000 0.427608
O O6 0.385361 0.500000 0.299351
O O7 0.370398 0.399885 0.130817
O O8 0.324492 0.829314 0.773314
O O9 0.344098 0.000000 0.723390
O O10 0.500000 0.888376 0.000000
O O11 0.500000 0.835774 0.500000
O O12 0.683357 0.882562 0.773301
O O13 0.542382 0.000000 0.482003
O O14 0.226373 0.091861 0.753921
O O15 0.311570 0.258102 0.924700
O O16 0.250000 0.750000 0.000000
#
# Coordination Sequence:
#
# PCOD9205516 Si02
#       7
#     8   4   8   8   8   4   8
#     4   9  17  32  58  92 119 140 179 246 305 343
#     4  11  26  44  52  82 125 166 192 246 290 357
#     4   8  14  28  54  88 119 140 180 243 302 335
#     4  10  21  35  57  82 112 147 183 234 298 355
#     4  11  19  33  60  91 114 153 192 242 290 354
#     4  11  22  38  62  81 122 157 201 236 295 350
#     4  12  24  38  59  80 115 159 202 238 291 353
#
# _framework density 18.797321
#
# number of rings (size 3 to 8) (size 9 to 14) (size 15 to 20)
#    0.000    1.833    4.167    2.000    0.000    2.667 
#    0.000    0.833    0.000    2.000    0.000    6.417 
#    0.000    0.000    0.000    0.000    0.000    0.000 
#
# Total GULP energy -133680.846370 kJ/mol
# GULP energy per Si atom -5570.035265 kJ/mol
# Density = 1.875454 g / cm^3
# Si number density = 18.797321 Si / 1000 Ang^3
#
#
#
# Elastic Constant Matrix: (Units=GPa)
#
#
# Indices 1 2 3 4 5 6 
#
# 1 156.5961 40.2663 40.1045 0.0000 -19.7778 0.0000
# 2 40.2663 62.9479 19.7467 0.0000 0.1882 0.0000
# 3 40.1045 19.7467 86.5067 0.0000 -2.3441 0.0000
# 4 0.0000 0.0000 0.0000 18.3562 0.0000 -7.1996
# 5 -19.7778 0.1882 -2.3441 0.0000 29.5250 0.0000
# 6 0.0000 0.0000 0.0000 -7.1996 0.0000 -15.3441
#
#
#
# Elastic Compliance Matrix: (Units=1/GPa)
#
#
# Indices 1 2 3 4 5 6 
#
# 1 0.009167 -0.004954 -0.002958 0.000000 0.005937 0.000000
# 2 -0.004954 0.019794 -0.002320 0.000000 -0.003629 0.000000
# 3 -0.002958 -0.002320 0.013436 0.000000 -0.000900 0.000000
# 4 0.000000 0.000000 0.000000 0.046010 0.000000 -0.021588
# 5 0.005937 -0.003629 -0.000900 0.000000 0.037799 0.000000
# 6 0.000000 0.000000 0.000000 -0.021588 0.000000 -0.055042
#
#
# Mechanical properties :
#
#
# Convention : Reuss Voigt Hill
#
# Bulk Modulus (GPa) = 45.59302 56.25399 50.92350
# Shear Modulus (GPa) = 50.53629 20.23630 35.38629
#
# Velocity S-wave (km/s) = 5.19068 3.28464 4.34351
# Velocity P-wave (km/s) = 7.76093 6.66159 7.23218
#
# Compressibility (1/GPa) = 0.02193318
#
# Stress axis : x y z
#
# Youngs Moduli (GPa) = 109.08539 50.52139 74.42464
#
# Poissons Ratio (x) = 0.25027 0.22016
# Poissons Ratio (y) = 0.54038 0.17267
# Poissons Ratio (z) = 0.32270 0.11721
#
# Static dielectric constant tensor:
#      x y z
#    x 1.708760 0.000000 -0.018740 
#    y 0.000000 1.668380 0.000000 
#    z -0.018740 0.000000 1.686980 
# 
# From -- ./inp_files/246422.got.cif
#   From: 2010.05.17/outbox.cif.g08.bks.cpg/sg12_124_cif.got.tgz:246422.got - 2010.06.03 13:09:07.
