data_PCOD9205170
_publ_section_title
;
Structure prediction by ZEFSAII (Michael W. Deem and Ramdas Pophale) SiO2 
 PCOD9205170
Probable space group: C 2/M
;
_chemical_formula_sum "Si O2"
_cell_formula_units_Z 34
_cell_length_a 21.137442
_cell_length_b 13.852853
_cell_length_c 9.168189
_cell_angle_alpha 90.000000
_cell_angle_beta 30.488696
_cell_angle_gamma 90.000000
_cell_volume 1362.067384
_symmetry_space_group_name_H-M "C 2/M"
_symmetry_group_IT_number 12
_symmetry_cell_setting 'monoclinic'
loop_
_space_group_symop_operation_xyz
x,y,z
-x,y,-z
-x,-y,-z
x,-y,z
1/2+x,1/2+y,z
1/2-x,1/2+y,-z
1/2-x,1/2-y,-z
1/2+x,1/2-y,z
loop_
_atom_site_type_symbol
_atom_site_label
_atom_site_fract_x
_atom_site_fract_y
_atom_site_fract_z
Si Si1 0.589734 0.297984 0.637140
Si Si2 0.500000 0.500000 0.500000
Si Si3 0.756135 0.894781 0.895422
Si Si4 0.644727 0.607260 0.820508
Si Si5 0.891059 0.389922 0.528343
O O1 0.707048 0.320525 0.301513
O O2 0.633698 0.313295 0.715789
O O3 0.533526 0.195992 0.697170
O O4 0.481809 0.378516 0.836174
O O5 0.387099 0.417954 0.715697
O O6 0.722327 0.000000 0.897119
O O7 0.652183 0.868304 0.220348
O O8 0.643466 0.500000 0.755624
O O9 0.765486 0.611731 0.679499
O O10 0.938172 0.500000 0.430383
#
# Coordination Sequence:
#
# PCOD9205170 Si02
#       5
#     8   2   8   8   8
#     4  11  19  32  54  80 103 137 177 219 260 315
#     4   8  16  28  52  82 106 120 168 216 268 294
#     4   9  17  29  52  78 106 128 166 217 266 303
#     4  10  21  35  54  78 105 135 177 226 264 302
#     4  10  21  35  51  76 110 139 173 214 266 314
#
# _framework density 24.962054999999999
#
# number of rings (size 3 to 8) (size 9 to 14) (size 15 to 20)
#    0.706    1.412    0.000    5.647    3.294    0.000 
#    0.000    2.353    0.000    4.235    0.000    9.059 
#    0.000    0.000    0.000    0.000    0.000    0.000 
#
# Total GULP energy -94684.055951 kJ/mol
# GULP energy per Si atom -5569.650350 kJ/mol
# Density = 2.490524 g / cm^3
# Si number density = 24.962055 Si / 1000 Ang^3
#
#
#
# Elastic Constant Matrix: (Units=GPa)
#
#
# Indices 1 2 3 4 5 6 
#
# 1 54.3019 1.2259 27.6624 0.0000 -4.5258 0.0000
# 2 1.2259 122.9412 49.1234 0.0000 25.7519 0.0000
# 3 27.6624 49.1234 65.3827 0.0000 11.0787 0.0000
# 4 0.0000 0.0000 0.0000 36.4066 0.0000 3.8509
# 5 -4.5258 25.7519 11.0787 0.0000 49.2380 0.0000
# 6 0.0000 0.0000 0.0000 3.8509 0.0000 15.9296
#
#
#
# Elastic Compliance Matrix: (Units=1/GPa)
#
#
# Indices 1 2 3 4 5 6 
#
# 1 0.026650 0.005411 -0.015882 0.000000 0.003193 0.000000
# 2 0.005411 0.013658 -0.011878 0.000000 -0.003973 0.000000
# 3 -0.015882 -0.011878 0.031327 0.000000 -0.002296 0.000000
# 4 0.000000 0.000000 0.000000 0.028188 0.000000 -0.006814
# 5 0.003193 -0.003973 -0.002296 0.000000 0.023198 0.000000
# 6 0.000000 0.000000 0.000000 -0.006814 0.000000 0.064424
#
#
# Mechanical properties :
#
#
# Convention : Reuss Voigt Hill
#
# Bulk Modulus (GPa) = 37.12153 44.29437 40.70795
# Shear Modulus (GPa) = 20.73639 31.28910 26.01275
#
# Velocity S-wave (km/s) = 2.88534 3.54427 3.23165
# Velocity P-wave (km/s) = 5.09939 5.87643 5.50164
#
# Compressibility (1/GPa) = 0.02693855
#
# Stress axis : x y z
#
# Youngs Moduli (GPa) = 37.52343 73.21507 31.92110
#
# Poissons Ratio (x) = -0.39619 0.50697
# Poissons Ratio (y) = -0.20305 0.37916
# Poissons Ratio (z) = 0.59594 0.86965
#
# Static dielectric constant tensor:
#      x y z
#    x 1.988280 0.000000 0.011580 
#    y 0.000000 2.036310 0.000000 
#    z 0.011580 0.000000 1.960640 
# 
# From -- ./inp_files/95544.got.cif
#   From: 2010.05.17/outbox.cif.g08.bks.cpg/sg12_48_cif.got.tgz:95544.got - 2010.06.03 13:09:07.
