data_PCOD9205689
_publ_section_title
;
Structure prediction by ZEFSAII (Michael W. Deem and Ramdas Pophale) SiO2 
 PCOD9205689
Probable space group: C 2/M
;
_chemical_formula_sum "Si O2"
_cell_formula_units_Z 52
_cell_length_a 9.911096
_cell_length_b 15.075881
_cell_length_c 25.546203
_cell_angle_alpha 90.000000
_cell_angle_beta 32.299147
_cell_angle_gamma 90.000000
_cell_volume 2039.615191
_symmetry_space_group_name_H-M "C 2/M"
_symmetry_group_IT_number 12
_symmetry_cell_setting 'monoclinic'
loop_
_space_group_symop_operation_xyz
x,y,z
-x,y,-z
-x,-y,-z
x,-y,z
1/2+x,1/2+y,z
1/2-x,1/2+y,-z
1/2-x,1/2-y,-z
1/2+x,1/2-y,z
loop_
_atom_site_type_symbol
_atom_site_label
_atom_site_fract_x
_atom_site_fract_y
_atom_site_fract_z
Si Si1 0.841048 0.100611 0.002615
Si Si2 0.313984 0.851859 0.357127
Si Si3 0.536299 0.500000 0.758052
Si Si4 0.304096 0.661610 0.901778
Si Si5 0.065531 0.655478 0.792507
Si Si6 0.349588 0.644511 0.366902
Si Si7 0.747235 0.643646 0.490346
O O1 0.560287 0.102172 0.118671
O O2 0.915228 0.000000 0.966740
O O3 0.871717 0.156573 0.941023
O O4 0.000000 0.132781 0.000000
O O5 0.476399 0.878314 0.253279
O O6 0.280147 0.744582 0.371692
O O7 0.402797 0.878607 0.386398
O O8 0.033479 0.885063 0.435277
O O9 0.407021 0.577326 0.837507
O O10 0.644597 0.577235 0.682272
O O11 0.441223 0.748102 0.834856
O O12 0.000000 0.663672 0.000000
O O13 0.361199 0.656545 0.707394
O O14 0.206442 0.610992 0.466398
O O15 0.750000 0.750000 0.500000
#
# Coordination Sequence:
#
# PCOD9205689 Si02
#       7
#     8   8   4   8   8   8   8
#     4  11  26  43  60  87 130 176 218 280 337 382
#     4   9  17  34  58  91 118 161 214 257 309 391
#     4  12  23  40  65  94 133 166 222 272 334 389
#     4  12  25  42  66  93 130 179 227 278 331 390
#     4  11  23  37  63  92 124 169 226 271 319 397
#     4  10  21  35  62  97 126 166 209 272 324 390
#     4   8  16  33  59  88 121 160 204 255 318 383
#
# _framework density 25.495004999999999
#
# number of rings (size 3 to 8) (size 9 to 14) (size 15 to 20)
#    0.000    1.692    2.308    2.077    5.385    0.000 
#    0.000    0.000    1.692    9.231    0.000    0.000 
#    0.000    0.000    0.000    0.000    0.000    0.000 
#
# Total GULP energy -144941.665036 kJ/mol
# GULP energy per Si atom -5574.679424 kJ/mol
# Density = 2.543698 g / cm^3
# Si number density = 25.495005 Si / 1000 Ang^3
#
#
#
# Elastic Constant Matrix: (Units=GPa)
#
#
# Indices 1 2 3 4 5 6 
#
# 1 130.1769 2.2740 57.2601 -0.0070 19.9803 -0.0017
# 2 2.2740 91.0937 15.8858 0.0200 6.9901 0.0108
# 3 57.2601 15.8858 125.2791 0.0715 45.1786 0.0439
# 4 -0.0070 0.0200 0.0715 22.6024 0.0149 8.7609
# 5 19.9803 6.9901 45.1786 0.0149 49.3771 -0.0048
# 6 -0.0017 0.0108 0.0439 8.7609 -0.0048 -13.5936
#
#
#
# Elastic Compliance Matrix: (Units=1/GPa)
#
#
# Indices 1 2 3 4 5 6 
#
# 1 0.009642 0.000537 -0.004538 0.000018 0.000175 -0.000004
# 2 0.000537 0.011262 -0.001523 -0.000005 -0.000418 0.000001
# 3 -0.004538 -0.001523 0.014192 -0.000045 -0.010934 0.000020
# 4 0.000018 -0.000005 -0.000045 0.035400 0.000026 0.022815
# 5 0.000175 -0.000418 -0.010934 0.000026 0.030245 -0.000029
# 6 -0.000004 0.000001 0.000020 0.022815 -0.000029 -0.058860
#
#
# Mechanical properties :
#
#
# Convention : Reuss Voigt Hill
#
# Bulk Modulus (GPa) = 41.58117 55.26552 48.42334
# Shear Modulus (GPa) = 82.04223 29.75249 55.89736
#
# Velocity S-wave (km/s) = 5.67887 3.41983 4.68748
# Velocity P-wave (km/s) = 7.70353 6.10883 6.95205
#
# Compressibility (1/GPa) = 0.02404935
#
# Stress axis : x y z
#
# Youngs Moduli (GPa) = 103.71556 88.79455 70.46049
#
# Poissons Ratio (x) = -0.04771 0.31974
# Poissons Ratio (y) = -0.05572 0.10729
# Poissons Ratio (z) = 0.47065 0.13521
#
# Static dielectric constant tensor:
#      x y z
#    x 2.041670 0.000010 -0.076580 
#    y 0.000010 1.951190 -0.000020 
#    z -0.076580 -0.000020 2.148250 
# 
# From -- ./inp_files/358683.got.cif
#   From: 2010.05.17/outbox.cif.g08.bks.cpg/sg12_180_cif.got.tgz:358683.got - 2010.06.03 13:09:07.
