data_PCOD9205181
_publ_section_title
;
Structure prediction by ZEFSAII (Michael W. Deem and Ramdas Pophale) SiO2 
 PCOD9205181
Probable space group: C 2/M
;
_chemical_formula_sum "Si O2"
_cell_formula_units_Z 52
_cell_length_a 8.156262
_cell_length_b 17.742581
_cell_length_c 27.490852
_cell_angle_alpha 90.000000
_cell_angle_beta 138.829843
_cell_angle_gamma 90.000000
_cell_volume 2618.896587
_symmetry_space_group_name_H-M "C 2/M"
_symmetry_group_IT_number 12
_symmetry_cell_setting 'monoclinic'
loop_
_space_group_symop_operation_xyz
x,y,z
-x,y,-z
-x,-y,-z
x,-y,z
1/2+x,1/2+y,z
1/2-x,1/2+y,-z
1/2-x,1/2-y,-z
1/2+x,1/2-y,z
loop_
_atom_site_type_symbol
_atom_site_label
_atom_site_fract_x
_atom_site_fract_y
_atom_site_fract_z
Si Si1 0.019633 0.918801 0.365751
Si Si2 0.000000 0.198897 0.000000
Si Si3 0.468586 0.199248 0.895955
Si Si4 0.882491 0.294634 0.420131
Si Si5 0.748624 0.417125 0.524250
Si Si6 0.062997 0.796926 0.208677
Si Si7 0.902076 0.327336 0.698656
O O1 0.137123 0.847315 0.365214
O O2 0.171103 0.920734 0.450307
O O3 0.733545 0.902355 0.313989
O O4 0.052725 0.000000 0.349166
O O5 0.266788 0.157276 0.053173
O O6 0.015372 0.252420 0.050855
O O7 0.458092 0.257550 0.848690
O O8 0.196680 0.160038 0.838016
O O9 0.799854 0.215552 0.380175
O O10 0.000000 0.286165 0.500000
O O11 0.077836 0.344200 0.432946
O O12 0.500000 0.410830 0.500000
O O13 0.862263 0.500000 0.561333
O O14 0.073685 0.729915 0.250581
O O15 0.330645 0.837453 0.266833
#
# Coordination Sequence:
#
# PCOD9205181 Si02
#       7
#     8   4   8   8   8   8   8
#     4  10  21  36  51  68  92 125 164 213 267 314
#     4   8  12  22  44  70  98 136 172 178 232 282
#     4   8  14  25  42  68 101 138 161 196 225 292
#     4  10  21  35  52  70  91 124 171 223 261 310
#     4   9  19  33  50  70  92 115 153 219 285 311
#     4   9  18  29  43  67 103 135 168 191 249 290
#     4  11  20  33  48  71  94 135 172 206 251 315
#
# _framework density 19.855691
#
# number of rings (size 3 to 8) (size 9 to 14) (size 15 to 20)
#    0.000    2.615    1.538    0.462    2.154    4.923 
#    0.000    0.000    0.000    0.000    0.000    0.000 
#    0.000    0.000    0.000  312.923    0.000    0.000 
#
# Total GULP energy -144849.667328 kJ/mol
# GULP energy per Si atom -5571.141051 kJ/mol
# Density = 1.981050 g / cm^3
# Si number density = 19.855691 Si / 1000 Ang^3
#
#
#
# Elastic Constant Matrix: (Units=GPa)
#
#
# Indices 1 2 3 4 5 6 
#
# 1 108.2906 15.4321 33.8611 0.0001 36.4914 0.0001
# 2 15.4321 43.2813 7.4863 0.0000 9.9699 0.0000
# 3 33.8611 7.4863 70.0131 -0.0001 14.1535 0.0001
# 4 0.0001 0.0000 -0.0001 -9.6093 0.0001 -14.6078
# 5 36.4914 9.9699 14.1535 0.0001 60.6303 0.0001
# 6 0.0001 0.0000 0.0001 -14.6078 0.0001 -4.0296
#
#
#
# Elastic Compliance Matrix: (Units=1/GPa)
#
#
# Indices 1 2 3 4 5 6 
#
# 1 0.013272 -0.002404 -0.004856 0.000000 -0.006459 0.000000
# 2 -0.002404 0.024682 -0.000995 0.000000 -0.002379 0.000000
# 3 -0.004856 -0.000995 0.016912 0.000000 -0.000862 0.000000
# 4 0.000000 0.000000 0.000000 0.023070 0.000000 -0.083633
# 5 -0.006459 -0.002379 -0.000862 0.000000 0.020973 0.000000
# 6 0.000000 0.000000 0.000000 -0.083633 0.000000 0.055016
#
#
# Mechanical properties :
#
#
# Convention : Reuss Voigt Hill
#
# Bulk Modulus (GPa) = 26.07236 37.23822 31.65529
# Shear Modulus (GPa) = 27.28928 20.38531 23.83729
#
# Velocity S-wave (km/s) = 3.71129 3.20765 3.46862
# Velocity P-wave (km/s) = 5.61465 5.70209 5.65854
#
# Compressibility (1/GPa) = 0.03835480
#
# Stress axis : x y z
#
# Youngs Moduli (GPa) = 75.34640 40.51506 59.12877
#
# Poissons Ratio (x) = 0.09742 0.28713
# Poissons Ratio (y) = 0.18116 0.05885
# Poissons Ratio (z) = 0.36589 0.04033
#
# Static dielectric constant tensor:
#      x y z
#    x 1.788000 0.000000 0.046910 
#    y 0.000000 1.658680 0.000000 
#    z 0.046910 0.000000 1.777350 
# 
# From -- ./inp_files/372744.got.cif
#   From: 2010.05.17/outbox.cif.g08.bks.cpg/sg12_187_cif.got.tgz:372744.got - 2010.06.03 13:09:07.
