data_PCOD9205940
_publ_section_title
;
Structure prediction by ZEFSAII (Michael W. Deem and Ramdas Pophale) SiO2 
 PCOD9205940
Probable space group: C 2/M
;
_chemical_formula_sum "Si O2"
_cell_formula_units_Z 42
_cell_length_a 20.947352
_cell_length_b 12.527711
_cell_length_c 21.054583
_cell_angle_alpha 90.000000
_cell_angle_beta 20.417507
_cell_angle_gamma 90.000000
_cell_volume 1927.510326
_symmetry_space_group_name_H-M "C 2/M"
_symmetry_group_IT_number 12
_symmetry_cell_setting 'monoclinic'
loop_
_space_group_symop_operation_xyz
x,y,z
-x,y,-z
-x,-y,-z
x,-y,z
1/2+x,1/2+y,z
1/2-x,1/2+y,-z
1/2-x,1/2-y,-z
1/2+x,1/2-y,z
loop_
_atom_site_type_symbol
_atom_site_label
_atom_site_fract_x
_atom_site_fract_y
_atom_site_fract_z
Si Si1 0.500000 0.000000 0.500000
Si Si2 0.208232 0.845988 0.810615
Si Si3 0.533419 0.289866 0.643930
Si Si4 0.748387 0.381136 0.918603
Si Si5 0.662597 0.621807 0.653270
Si Si6 0.341694 0.616964 0.700226
O O1 0.341784 0.906760 0.639113
O O2 0.279698 0.880534 0.813607
O O3 0.219894 0.718668 0.796560
O O4 0.000000 0.879833 0.000000
O O5 0.383834 0.210703 0.815817
O O6 0.621322 0.361837 0.616643
O O7 0.688176 0.211742 0.470740
O O8 0.433933 0.356627 0.682148
O O9 0.789431 0.500000 0.905669
O O10 0.533487 0.360853 0.130273
O O11 0.724145 0.500000 0.607195
O O12 0.500000 0.614569 0.500000
O O13 0.253069 0.500000 0.784678
#
# Coordination Sequence:
#
# PCOD9205940 Si02
#       6
#     2   8   8   8   8   8
#     4  12  22  40  58  90 128 168 198 270 302 376
#     4  11  24  39  62  91 125 166 211 252 317 370
#     4  10  21  38  60  85 118 159 200 253 310 363
#     4  10  21  36  54  87 118 152 198 253 306 368
#     4  10  21  37  61  87 117 156 201 256 306 369
#     4  10  22  41  63  88 123 167 209 256 306 366
#
# _framework density 21.789766
#
# number of rings (size 3 to 8) (size 9 to 14) (size 15 to 20)
#    0.000    1.714    1.905    2.000    2.667    0.381 
#    6.857    0.000    0.000    5.714    0.000    0.000 
#    0.000    0.000    0.000    0.000    0.000    0.000 
#
# Total GULP energy -117101.420587 kJ/mol
# GULP energy per Si atom -5576.258123 kJ/mol
# Density = 2.174017 g / cm^3
# Si number density = 21.789766 Si / 1000 Ang^3
#
#
#
# Elastic Constant Matrix: (Units=GPa)
#
#
# Indices 1 2 3 4 5 6 
#
# 1 37.7058 7.2079 -4.5571 0.0012 4.5968 0.0003
# 2 7.2079 168.4413 45.8596 -0.0026 -6.9044 -0.0001
# 3 -4.5571 45.8596 84.9537 -0.0044 -9.9376 0.0012
# 4 0.0012 -0.0026 -0.0044 39.7697 -0.0008 3.0155
# 5 4.5968 -6.9044 -9.9376 -0.0008 27.6593 0.0002
# 6 0.0003 -0.0001 0.0012 3.0155 0.0002 4.8899
#
#
#
# Elastic Compliance Matrix: (Units=1/GPa)
#
#
# Indices 1 2 3 4 5 6 
#
# 1 0.027659 -0.001908 0.002004 -0.000001 -0.004353 -0.000001
# 2 -0.001908 0.007096 -0.003850 0.000000 0.000705 0.000001
# 3 0.002004 -0.003850 0.014411 0.000002 0.003884 -0.000005
# 4 -0.000001 0.000000 0.000002 0.026378 0.000002 -0.016267
# 5 -0.004353 0.000705 0.003884 0.000002 0.038449 -0.000003
# 6 -0.000001 0.000001 -0.000005 -0.016267 -0.000003 0.214537
#
#
# Mechanical properties :
#
#
# Convention : Reuss Voigt Hill
#
# Bulk Modulus (GPa) = 24.00474 43.12462 33.56468
# Shear Modulus (GPa) = 14.28886 30.63646 22.46266
#
# Velocity S-wave (km/s) = 2.56356 3.75374 3.21422
# Velocity P-wave (km/s) = 4.45004 6.21463 5.40483
#
# Compressibility (1/GPa) = 0.04165844
#
# Stress axis : x y z
#
# Youngs Moduli (GPa) = 36.15499 140.93318 69.38991
#
# Poissons Ratio (x) = 0.26885 -0.13908
# Poissons Ratio (y) = 0.06897 0.26716
# Poissons Ratio (z) = -0.07246 0.54262
#
# Static dielectric constant tensor:
#      x y z
#    x 1.793570 0.000000 0.006540 
#    y 0.000000 1.825200 0.000010 
#    z 0.006540 0.000010 1.730620 
# 
# From -- ./inp_files/349265.got.cif
#   From: 2010.05.17/outbox.cif.g08.bks.cpg/sg12_175_cif.got.tgz:349265.got - 2010.06.03 13:09:07.
