data_PCOD9205134
_publ_section_title
;
Structure prediction by ZEFSAII (Michael W. Deem and Ramdas Pophale) SiO2 
 PCOD9205134
Probable space group: C 2/M
;
_chemical_formula_sum "Si O2"
_cell_formula_units_Z 48
_cell_length_a 14.870305
_cell_length_b 8.380844
_cell_length_c 16.968538
_cell_angle_alpha 90.000000
_cell_angle_beta 103.764568
_cell_angle_gamma 90.000000
_cell_volume 2053.984784
_symmetry_space_group_name_H-M "C 2/M"
_symmetry_group_IT_number 12
_symmetry_cell_setting 'monoclinic'
loop_
_space_group_symop_operation_xyz
x,y,z
-x,y,-z
-x,-y,-z
x,-y,z
1/2+x,1/2+y,z
1/2-x,1/2+y,-z
1/2-x,1/2-y,-z
1/2+x,1/2-y,z
loop_
_atom_site_type_symbol
_atom_site_label
_atom_site_fract_x
_atom_site_fract_y
_atom_site_fract_z
Si Si1 0.597091 0.808272 0.119473
Si Si2 0.212560 0.692189 0.815077
Si Si3 0.607224 0.805957 0.940104
Si Si4 0.839833 0.186168 0.617314
Si Si5 0.535607 0.185947 0.680946
Si Si6 0.641955 0.315829 0.566427
O O1 0.684906 0.746354 0.185217
O O2 0.492390 0.760671 0.118032
O O3 0.599914 0.000000 0.121582
O O4 0.609263 0.752631 0.030803
O O5 0.211800 0.500000 0.811878
O O6 0.187821 0.747538 0.898871
O O7 0.125343 0.749786 0.746192
O O8 0.609054 0.000000 0.942782
O O9 0.746566 0.281256 0.617766
O O10 0.855671 0.212346 0.526638
O O11 0.937191 0.233566 0.675723
O O12 0.819919 0.000000 0.626346
O O13 0.568745 0.209732 0.597865
O O14 0.524743 0.000000 0.697608
O O15 0.617028 0.500000 0.574986
#
# Coordination Sequence:
#
# PCOD9205134 Si02
#       6
#     8   8   8   8   8   8
#     4   9  17  32  56  79  98 132 179 220 260 311
#     4  10  21  35  50  74 109 142 171 212 265 314
#     4   8  16  33  54  75 102 135 173 216 263 315
#     4  10  21  38  60  84 108 137 178 226 273 324
#     4  11  23  36  52  78 113 151 185 220 266 319
#     4  10  21  38  60  83 107 139 179 225 275 322
#
# _framework density 23.369209000000001
#
# number of rings (size 3 to 8) (size 9 to 14) (size 15 to 20)
#    0.000    2.333    0.000    3.500    0.000    6.667 
#    0.000    4.167    0.000    0.000    0.000    0.000 
#    0.000    0.000    0.000    0.000    0.000    0.000 
#
# Total GULP energy -134137.435782 kJ/mol
# GULP energy per Si atom -5589.059824 kJ/mol
# Density = 2.331602 g / cm^3
# Si number density = 23.369209 Si / 1000 Ang^3
#
#
#
# Elastic Constant Matrix: (Units=GPa)
#
#
# Indices 1 2 3 4 5 6 
#
# 1 122.9360 13.8183 19.0782 0.0000 34.6499 0.0000
# 2 13.8183 -5.7235 7.8472 0.0000 -1.0918 0.0000
# 3 19.0782 7.8472 53.7870 0.0000 23.6658 0.0000
# 4 0.0000 0.0000 0.0000 16.9071 0.0000 11.6442
# 5 34.6499 -1.0918 23.6658 0.0000 42.8091 0.0000
# 6 0.0000 0.0000 0.0000 11.6442 0.0000 25.9468
#
#
#
# Elastic Compliance Matrix: (Units=1/GPa)
#
#
# Indices 1 2 3 4 5 6 
#
# 1 0.008081 0.015845 -0.003274 0.000000 -0.004326 0.000000
# 2 0.015845 -0.102159 0.021240 0.000000 -0.027173 0.000000
# 3 -0.003274 0.021240 0.020152 0.000000 -0.007948 0.000000
# 4 0.000000 0.000000 0.000000 0.085605 0.000000 -0.038417
# 5 -0.004326 -0.027173 -0.007948 0.000000 0.030562 0.000000
# 6 0.000000 0.000000 0.000000 -0.038417 0.000000 0.055781
#
#
# Mechanical properties :
#
#
# Convention : Reuss Voigt Hill
#
# Bulk Modulus (GPa) = -158.60439 28.05410 -65.27514
# Shear Modulus (GPa) = 176.68230 25.81634 101.24932
#
# Velocity S-wave (km/s) = 8.70453 3.32733 6.58939
# Velocity P-wave (km/s) = 5.74533 5.17613 5.46814
#
# Compressibility (1/GPa) = -0.00630500
#
# Stress axis : x y z
#
# Youngs Moduli (GPa) = 123.75028 -9.78870 49.62355
#
# Poissons Ratio (x) = 0.15511 0.16249
# Poissons Ratio (y) = -1.96088 -1.05398
# Poissons Ratio (z) = 0.40522 0.20791
#
# Static dielectric constant tensor:
#      x y z
#    x 1.839910 0.000000 -0.004860 
#    y 0.000000 1.798280 0.000000 
#    z -0.004860 0.000000 1.977440 
# 
# From -- ./inp_files/308311.got.cif
#   From: 2010.05.17/outbox.cif.g08.bks.cpg/sg12_155_cif.got.tgz:308311.got - 2010.06.03 13:09:07.
