data_PCOD9205713
_publ_section_title
;
Structure prediction by ZEFSAII (Michael W. Deem and Ramdas Pophale) SiO2 
 PCOD9205713
Probable space group: C 2/M
;
_chemical_formula_sum "Si O2"
_cell_formula_units_Z 40
_cell_length_a 16.746756
_cell_length_b 20.657485
_cell_length_c 5.442895
_cell_angle_alpha 90.000000
_cell_angle_beta 51.834056
_cell_angle_gamma 90.000000
_cell_volume 1480.418740
_symmetry_space_group_name_H-M "C 2/M"
_symmetry_group_IT_number 12
_symmetry_cell_setting 'monoclinic'
loop_
_space_group_symop_operation_xyz
x,y,z
-x,y,-z
-x,-y,-z
x,-y,z
1/2+x,1/2+y,z
1/2-x,1/2+y,-z
1/2-x,1/2-y,-z
1/2+x,1/2-y,z
loop_
_atom_site_type_symbol
_atom_site_label
_atom_site_fract_x
_atom_site_fract_y
_atom_site_fract_z
Si Si1 0.369302 0.246082 0.291821
Si Si2 0.813350 0.070932 0.825713
Si Si3 0.863678 0.669839 0.808687
Si Si4 0.845519 0.108531 0.272192
Si Si5 0.395989 0.923700 0.347555
O O1 0.250000 0.250000 0.500000
O O2 0.383665 0.219027 0.541893
O O3 0.392633 0.320359 0.195424
O O4 0.399996 0.202280 0.994904
O O5 0.875970 0.073287 0.460137
O O6 0.758307 0.000000 0.927627
O O7 0.750564 0.140492 0.940537
O O8 0.870950 0.075484 0.969975
O O9 0.906215 0.604689 0.601097
O O10 0.717352 0.103135 0.517427
O O11 0.385904 0.000000 0.356648
O O12 0.500000 0.908843 0.000000
#
# Coordination Sequence:
#
# PCOD9205713 Si02
#       5
#     8   8   8   8   8
#     4  12  19  32  53  73  90 117 168 227 268 306
#     4  11  19  29  45  66  93 124 157 195 241 297
#     4  11  20  33  51  72  94 124 172 216 260 301
#     4  11  21  33  50  70  93 125 174 216 256 297
#     4  10  21  36  51  71 104 146 186 215 241 289
#
# _framework density 27.019383000000001
#
# number of rings (size 3 to 8) (size 9 to 14) (size 15 to 20)
#    0.000    1.000    6.000    5.400    0.000    0.000 
#    0.000   11.000    0.000   26.400    0.000    0.000 
#    0.000    0.000    0.000    0.000    0.000  830.000 
#
# Total GULP energy -111391.049455 kJ/mol
# GULP energy per Si atom -5569.552473 kJ/mol
# Density = 2.695789 g / cm^3
# Si number density = 27.019383 Si / 1000 Ang^3
#
#
#
# Elastic Constant Matrix: (Units=GPa)
#
#
# Indices 1 2 3 4 5 6 
#
# 1 80.3901 53.0965 87.3473 0.0000 9.6699 0.0000
# 2 53.0965 234.0170 63.3979 0.0000 31.9865 0.0000
# 3 87.3473 63.3979 140.2900 0.0000 62.8380 0.0000
# 4 0.0000 0.0000 0.0000 37.0543 0.0000 15.2160
# 5 9.6699 31.9865 62.8380 0.0000 85.2815 0.0000
# 6 0.0000 0.0000 0.0000 15.2160 0.0000 -70.3554
#
#
#
# Elastic Compliance Matrix: (Units=1/GPa)
#
#
# Indices 1 2 3 4 5 6 
#
# 1 0.103579 -0.007813 -0.085096 0.000000 0.053887 0.000000
# 2 -0.007813 0.005464 0.004353 0.000000 -0.004371 0.000000
# 3 -0.085096 0.004353 0.081427 0.000000 -0.051982 0.000000
# 4 0.000000 0.000000 0.000000 0.024786 0.000000 0.005361
# 5 0.053887 -0.004371 -0.051982 0.000000 0.045557 0.000000
# 6 0.000000 0.000000 0.000000 0.005361 0.000000 -0.013054
#
#
# Mechanical properties :
#
#
# Convention : Reuss Voigt Hill
#
# Bulk Modulus (GPa) = 74.86629 95.82008 85.34318
# Shear Modulus (GPa) = 11.64626 27.11979 19.38302
#
# Velocity S-wave (km/s) = 2.07839 3.17158 2.68129
# Velocity P-wave (km/s) = 5.79035 6.99660 6.42186
#
# Compressibility (1/GPa) = 0.01335715
#
# Stress axis : x y z
#
# Youngs Moduli (GPa) = 9.65451 183.01454 12.28099
#
# Poissons Ratio (x) = 1.42992 1.04506
# Poissons Ratio (y) = 0.07543 -0.05346
# Poissons Ratio (z) = 0.82156 -0.79671
#
# Static dielectric constant tensor:
#      x y z
#    x 2.270890 0.000000 -0.150070 
#    y 0.000000 2.130480 0.000000 
#    z -0.150070 0.000000 2.345870 
# 
# From -- ./inp_files/21121.got.cif
#   From: 2010.05.17/outbox.cif.g08.bks.cpg/sg12_11_cif.got.tgz:21121.got - 2010.06.03 13:09:07.
