data_PCOD9205400
_publ_section_title
;
Structure prediction by ZEFSAII (Michael W. Deem and Ramdas Pophale) SiO2 
 PCOD9205400
Probable space group: C 2/M
;
_chemical_formula_sum "Si O2"
_cell_formula_units_Z 48
_cell_length_a 9.608410
_cell_length_b 22.023436
_cell_length_c 13.119829
_cell_angle_alpha 90.000000
_cell_angle_beta 107.588168
_cell_angle_gamma 90.000000
_cell_volume 2646.506708
_symmetry_space_group_name_H-M "C 2/M"
_symmetry_group_IT_number 12
_symmetry_cell_setting 'monoclinic'
loop_
_space_group_symop_operation_xyz
x,y,z
-x,y,-z
-x,-y,-z
x,-y,z
1/2+x,1/2+y,z
1/2-x,1/2+y,-z
1/2-x,1/2-y,-z
1/2+x,1/2-y,z
loop_
_atom_site_type_symbol
_atom_site_label
_atom_site_fract_x
_atom_site_fract_y
_atom_site_fract_z
Si Si1 0.372050 0.381197 0.777475
Si Si2 0.165564 0.500000 0.065141
Si Si3 0.052367 0.927331 0.627055
Si Si4 0.670244 0.117781 0.205603
Si Si5 0.349528 0.500000 0.904422
Si Si6 0.846300 0.813369 0.091709
Si Si7 0.144845 0.675629 0.853919
O O1 0.434785 0.397532 0.679308
O O2 0.332248 0.442473 0.827735
O O3 0.513213 0.354108 0.863982
O O4 0.237277 0.335621 0.770626
O O5 0.193692 0.559936 0.137107
O O6 0.240508 0.500000 0.973451
O O7 0.000000 0.500000 0.000000
O O8 0.000000 0.919599 0.500000
O O9 0.213196 0.897512 0.679599
O O10 0.060725 0.000000 0.650768
O O11 0.733737 0.174542 0.157932
O O12 0.499431 0.133224 0.183534
O O13 0.500000 0.500000 0.000000
O O14 0.897224 0.744138 0.121127
O O15 0.761901 0.834404 0.971353
#
# Coordination Sequence:
#
# PCOD9205400 Si02
#       7
#     8   4   8   8   4   8   8
#     4  11  21  35  57  84 112 148 195 236 282 338
#     4  12  22  32  50  83 124 151 170 222 296 349
#     4  10  21  42  63  80 108 148 199 247 301 357
#     4  11  21  36  56  83 116 153 194 233 289 343
#     4  12  20  30  50  79 110 139 180 226 274 335
#     4  10  21  35  55  82 122 166 191 215 268 343
#     4  11  21  35  55  86 122 157 193 228 268 339
#
# _framework density 18.137115999999999
#
# number of rings (size 3 to 8) (size 9 to 14) (size 15 to 20)
#    0.000    1.167    1.667    8.000    0.000    2.667 
#    0.000    0.833    0.000   18.000    0.000    0.000 
#    0.000    0.000    0.000    0.000    0.000    0.000 
#
# Total GULP energy -133715.034379 kJ/mol
# GULP energy per Si atom -5571.459766 kJ/mol
# Density = 1.809584 g / cm^3
# Si number density = 18.137116 Si / 1000 Ang^3
#
#
#
# Elastic Constant Matrix: (Units=GPa)
#
#
# Indices 1 2 3 4 5 6 
#
# 1 139.2033 30.3494 48.3769 0.0000 -10.9270 0.0000
# 2 30.3494 66.5600 33.7107 0.0000 -4.5259 0.0000
# 3 48.3769 33.7107 100.4098 0.0000 -3.0749 0.0000
# 4 0.0000 0.0000 0.0000 17.7207 0.0000 -0.1526
# 5 -10.9270 -4.5259 -3.0749 0.0000 9.0148 0.0000
# 6 0.0000 0.0000 0.0000 -0.1526 0.0000 24.5174
#
#
#
# Elastic Compliance Matrix: (Units=1/GPa)
#
#
# Indices 1 2 3 4 5 6 
#
# 1 0.009626 -0.001860 -0.003724 0.000000 0.009464 0.000000
# 2 -0.001860 0.018921 -0.005290 0.000000 0.005441 0.000000
# 3 -0.003724 -0.005290 0.013450 0.000000 -0.002581 0.000000
# 4 0.000000 0.000000 0.000000 0.056434 0.000000 0.000351
# 5 0.009464 0.005441 -0.002581 0.000000 0.124252 0.000000
# 6 0.000000 0.000000 0.000000 0.000351 0.000000 0.040790
#
#
# Mechanical properties :
#
#
# Convention : Reuss Voigt Hill
#
# Bulk Modulus (GPa) = 49.38021 59.00525 54.19273
# Shear Modulus (GPa) = 17.12508 23.16631 20.14569
#
# Velocity S-wave (km/s) = 3.07612 3.57779 3.33640
# Velocity P-wave (km/s) = 6.31679 7.04776 6.69226
#
# Compressibility (1/GPa) = 0.02025103
#
# Stress axis : x y z
#
# Youngs Moduli (GPa) = 103.88327 52.85100 74.34892
#
# Poissons Ratio (x) = 0.09829 0.27685
# Poissons Ratio (y) = 0.19320 0.39329
# Poissons Ratio (z) = 0.38682 0.27957
#
# Static dielectric constant tensor:
#      x y z
#    x 1.636780 0.000000 -0.024240 
#    y 0.000000 1.618830 0.000000 
#    z -0.024240 0.000000 1.514840 
# 
# From -- ./inp_files/122624.got.cif
#   From: 2010.05.17/outbox.cif.g08.bks.cpg/sg12_62_cif.got.tgz:122624.got - 2010.06.03 13:09:07.
