data_PCOD9205243
_publ_section_title
;
Structure prediction by ZEFSAII (Michael W. Deem and Ramdas Pophale) SiO2 
 PCOD9205243
Probable space group: C 2/M
;
_chemical_formula_sum "Si O2"
_cell_formula_units_Z 50
_cell_length_a 8.288721
_cell_length_b 26.367395
_cell_length_c 11.983337
_cell_angle_alpha 90.000000
_cell_angle_beta 113.277674
_cell_angle_gamma 90.000000
_cell_volume 2405.798053
_symmetry_space_group_name_H-M "C 2/M"
_symmetry_group_IT_number 12
_symmetry_cell_setting 'monoclinic'
loop_
_space_group_symop_operation_xyz
x,y,z
-x,y,-z
-x,-y,-z
x,-y,z
1/2+x,1/2+y,z
1/2-x,1/2+y,-z
1/2-x,1/2-y,-z
1/2+x,1/2-y,z
loop_
_atom_site_type_symbol
_atom_site_label
_atom_site_fract_x
_atom_site_fract_y
_atom_site_fract_z
Si Si1 0.799129 0.367671 0.931113
Si Si2 0.188816 0.804518 0.567784
Si Si3 0.926126 0.094191 0.329188
Si Si4 0.000000 0.000000 0.500000
Si Si5 0.913599 0.731155 0.825842
Si Si6 0.315394 0.131282 0.404337
Si Si7 0.756247 0.826873 0.855548
O O1 0.681045 0.400641 0.815371
O O2 0.826284 0.311391 0.882763
O O3 0.717260 0.362923 0.031855
O O4 0.000000 0.386891 0.000000
O O5 0.142788 0.857098 0.620135
O O6 0.310369 0.772782 0.681813
O O7 0.278239 0.821540 0.477535
O O8 0.000000 0.779418 0.500000
O O9 0.905410 0.044545 0.397234
O O10 0.135955 0.099083 0.365792
O O11 0.911098 0.789115 0.863348
O O12 0.107478 0.712015 0.856236
O O13 0.500000 0.108892 0.500000
O O14 0.320413 0.146676 0.276050
#
# Coordination Sequence:
#
# PCOD9205243 Si02
#       7
#     8   8   8   2   8   8   8
#     4   9  21  42  61  86 124 174 212 254 309 367
#     4   9  18  36  55  82 121 165 204 261 323 357
#     4  10  22  40  71  94 121 155 203 262 319 391
#     4  12  20  44  80 106 112 146 210 254 326 408
#     4  10  21  35  52  85 119 171 227 268 285 355
#     4  11  21  38  58  89 130 172 205 258 326 368
#     4  11  23  34  57  83 127 172 226 260 301 354
#
# _framework density 20.783123
#
# number of rings (size 3 to 8) (size 9 to 14) (size 15 to 20)
#    0.000    1.920    4.000    0.480    6.720    1.920 
#    0.000    0.800    0.000    1.920    0.000    0.000 
#    0.000    0.000    0.000    0.000    0.000    0.000 
#
# Total GULP energy -139391.780753 kJ/mol
# GULP energy per Si atom -5575.671230 kJ/mol
# Density = 2.073582 g / cm^3
# Si number density = 20.783123 Si / 1000 Ang^3
#
#
#
# Elastic Constant Matrix: (Units=GPa)
#
#
# Indices 1 2 3 4 5 6 
#
# 1 72.8960 19.6792 31.7169 0.0000 9.4480 0.0000
# 2 19.6792 57.8686 32.2690 0.0000 8.7395 0.0000
# 3 31.7169 32.2690 181.2809 0.0000 12.6629 0.0000
# 4 0.0000 0.0000 0.0000 26.2787 0.0000 7.6890
# 5 9.4480 8.7395 12.6629 0.0000 39.5293 0.0000
# 6 0.0000 0.0000 0.0000 7.6890 0.0000 -4.7305
#
#
#
# Elastic Compliance Matrix: (Units=1/GPa)
#
#
# Indices 1 2 3 4 5 6 
#
# 1 0.015930 -0.004002 -0.001914 0.000000 -0.002310 0.000000
# 2 -0.004002 0.020599 -0.002777 0.000000 -0.002708 0.000000
# 3 -0.001914 -0.002777 0.006414 0.000000 -0.000983 0.000000
# 4 0.000000 0.000000 0.000000 0.025789 0.000000 0.041917
# 5 -0.002310 -0.002708 -0.000983 0.000000 0.026763 0.000000
# 6 0.000000 0.000000 0.000000 0.041917 0.000000 -0.143261
#
#
# Mechanical properties :
#
#
# Convention : Reuss Voigt Hill
#
# Bulk Modulus (GPa) = 39.12578 53.26396 46.19487
# Shear Modulus (GPa) = -228.72255 27.44089 -100.64083
#
# Velocity S-wave (km/s) = -10.50195 3.63760 -6.96631
# Velocity P-wave (km/s) = 11.32201 6.58232 6.51387
#
# Compressibility (1/GPa) = 0.02555860
#
# Stress axis : x y z
#
# Youngs Moduli (GPa) = 62.77317 48.54589 155.90447
#
# Poissons Ratio (x) = 0.19426 0.29833
# Poissons Ratio (y) = 0.25119 0.43302
# Poissons Ratio (z) = 0.12012 0.13483
#
# Static dielectric constant tensor:
#      x y z
#    x 1.817790 0.000000 -0.018840 
#    y 0.000000 1.684330 0.000000 
#    z -0.018840 0.000000 1.815310 
# 
# From -- ./inp_files/123815.got.cif
#   From: 2010.05.17/outbox.cif.g08.bks.cpg/sg12_62_cif.got.tgz:123815.got - 2010.06.03 13:09:07.
