data_PCOD9205895
_publ_section_title
;
Structure prediction by ZEFSAII (Michael W. Deem and Ramdas Pophale) SiO2 
 PCOD9205895
Probable space group: C 2/M
;
_chemical_formula_sum "Si O2"
_cell_formula_units_Z 24
_cell_length_a 13.195370
_cell_length_b 5.262255
_cell_length_c 20.706079
_cell_angle_alpha 90.000000
_cell_angle_beta 72.360757
_cell_angle_gamma 90.000000
_cell_volume 1370.176893
_symmetry_space_group_name_H-M "C 2/M"
_symmetry_group_IT_number 12
_symmetry_cell_setting 'monoclinic'
loop_
_space_group_symop_operation_xyz
x,y,z
-x,y,-z
-x,-y,-z
x,-y,z
1/2+x,1/2+y,z
1/2-x,1/2+y,-z
1/2-x,1/2-y,-z
1/2+x,1/2-y,z
loop_
_atom_site_type_symbol
_atom_site_label
_atom_site_fract_x
_atom_site_fract_y
_atom_site_fract_z
Si Si1 0.182557 0.500000 0.246945
Si Si2 0.046514 0.500000 0.643985
Si Si3 0.512792 0.500000 0.420965
Si Si4 0.242062 0.000000 0.311811
Si Si5 0.873678 0.500000 0.020319
Si Si6 0.752632 0.000000 0.086989
O O1 0.233727 0.749731 0.269259
O O2 0.200583 0.500000 0.167235
O O3 0.058094 0.500000 0.290248
O O4 0.152290 0.500000 0.666014
O O5 0.038328 0.249974 0.601226
O O6 0.500000 0.500000 0.500000
O O7 0.637253 0.500000 0.377309
O O8 0.824098 0.249981 0.062705
O O9 0.834231 0.500000 0.953587
O O10 0.000000 0.500000 0.000000
#
# Coordination Sequence:
#
# PCOD9205895 Si02
#       6
#     4   4   4   4   4   4
#     4  10  21  36  54  80 108 140 181 222 266 318
#     4  10  21  37  55  79 110 142 179 223 267 316
#     4  10  21  36  56  82 110 142 181 222 266 318
#     4  10  21  37  55  79 112 142 179 225 265 316
#     4  10  21  38  56  80 110 140 177 222 268 318
#     4  10  21  36  56  80 108 140 179 222 266 320
#
# _framework density 17.515986999999999
#
# number of rings (size 3 to 8) (size 9 to 14) (size 15 to 20)
#    0.000    2.000    0.000    3.000    0.000    4.000 
#    0.000    0.000    0.000    0.000    0.000    0.000 
#    0.000    0.000    0.000    0.000    0.000    0.000 
#
# Total GULP energy -67033.302485 kJ/mol
# GULP energy per Si atom -5586.108540 kJ/mol
# Density = 1.747612 g / cm^3
# Si number density = 17.515987 Si / 1000 Ang^3
#
#
#
# Elastic Constant Matrix: (Units=GPa)
#
#
# Indices 1 2 3 4 5 6 
#
# 1 104.8169 56.1921 31.4755 -0.0002 9.7011 0.0000
# 2 56.1921 181.5209 72.1594 0.0002 7.7655 -0.0004
# 3 31.4755 72.1594 157.8351 -0.0001 13.8213 0.0000
# 4 -0.0002 0.0002 -0.0001 6.1825 0.0000 2.3575
# 5 9.7011 7.7655 13.8213 0.0000 7.8187 -0.0001
# 6 0.0000 -0.0004 0.0000 2.3575 -0.0001 1.4131
#
#
#
# Elastic Compliance Matrix: (Units=1/GPa)
#
#
# Indices 1 2 3 4 5 6 
#
# 1 0.012454 -0.003385 0.000145 0.000002 -0.012347 -0.000005
# 2 -0.003385 0.007667 -0.002995 -0.000003 0.001879 0.000007
# 3 0.000145 -0.002995 0.008792 0.000002 -0.012748 -0.000004
# 4 0.000002 -0.000003 0.000002 0.444570 -0.000009 -0.741684
# 5 -0.012347 0.001879 -0.012748 -0.000009 0.163889 0.000021
# 6 -0.000005 0.000007 -0.000004 -0.741684 0.000021 1.945021
#
#
# Mechanical properties :
#
#
# Convention : Reuss Voigt Hill
#
# Bulk Modulus (GPa) = 60.81038 84.86964 72.84001
# Shear Modulus (GPa) = 1.92282 22.03925 11.98104
#
# Velocity S-wave (km/s) = 1.04887 3.55101 2.61819
# Velocity P-wave (km/s) = 6.02157 8.08522 7.12847
#
# Compressibility (1/GPa) = 0.01644456
#
# Stress axis : x y z
#
# Youngs Moduli (GPa) = 80.29382 130.43050 113.73681
#
# Poissons Ratio (x) = 0.44148 -0.01650
# Poissons Ratio (y) = 0.27178 0.34061
# Poissons Ratio (z) = -0.01165 0.39060
#
# Static dielectric constant tensor:
#      x y z
#    x 1.554760 0.000000 -0.006740 
#    y 0.000000 1.590860 0.000000 
#    z -0.006740 0.000000 1.558860 
# 
# From -- ./inp_files/260535.got.cif
#   From: 2010.05.17/outbox.cif.g08.bks.cpg/sg12_131_cif.got.tgz:260535.got - 2010.06.03 13:09:07.
