data_PCOD9205813
_publ_section_title
;
Structure prediction by ZEFSAII (Michael W. Deem and Ramdas Pophale) SiO2 
 PCOD9205813
Probable space group: C 2/M
;
_chemical_formula_sum "Si O2"
_cell_formula_units_Z 56
_cell_length_a 14.441086
_cell_length_b 13.877307
_cell_length_c 27.992058
_cell_angle_alpha 90.000000
_cell_angle_beta 150.280155
_cell_angle_gamma 90.000000
_cell_volume 2781.063617
_symmetry_space_group_name_H-M "C 2/M"
_symmetry_group_IT_number 12
_symmetry_cell_setting 'monoclinic'
loop_
_space_group_symop_operation_xyz
x,y,z
-x,y,-z
-x,-y,-z
x,-y,z
1/2+x,1/2+y,z
1/2-x,1/2+y,-z
1/2-x,1/2-y,-z
1/2+x,1/2-y,z
loop_
_atom_site_type_symbol
_atom_site_label
_atom_site_fract_x
_atom_site_fract_y
_atom_site_fract_z
Si Si1 0.774120 0.786894 0.253228
Si Si2 0.192531 0.384883 0.115808
Si Si3 0.294912 0.883748 0.634396
Si Si4 0.808200 0.612414 0.208748
Si Si5 0.028540 0.884296 0.436122
Si Si6 0.615039 0.386069 0.975797
Si Si7 0.094703 0.773875 0.866100
O O1 0.696037 0.838284 0.170156
O O2 0.825131 0.678452 0.262416
O O3 0.955340 0.840244 0.354345
O O4 0.603975 0.776104 0.213810
O O5 0.213516 0.500000 0.129082
O O6 0.357380 0.336476 0.158806
O O7 0.000000 0.366687 0.000000
O O8 0.510127 0.858426 0.740249
O O9 0.137478 0.855742 0.601516
O O10 0.218577 0.853501 0.547836
O O11 0.288133 0.000000 0.631996
O O12 0.825494 0.500000 0.227235
O O13 0.594351 0.625130 0.096631
O O14 0.032077 0.000000 0.433282
O O15 0.664941 0.500000 0.000871
O O16 0.614026 0.347751 0.920339
O O17 0.755143 0.312232 0.063097
#
# Coordination Sequence:
#
# PCOD9205813 Si02
#       7
#     8   8   8   8   8   8   8
#     4  11  23  35  57  86 113 149 196 236 274 340
#     4  11  23  39  59  81 112 156 198 236 286 340
#     4   8  16  33  58  81 108 143 176 227 291 337
#     4   9  18  33  54  79 109 144 182 223 276 337
#     4   9  18  34  55  84 113 138 179 234 286 332
#     4   9  17  33  56  79 107 148 194 235 279 333
#     4  10  21  36  53  80 117 153 187 236 290 339
#
# _framework density 20.136181000000001
#
# number of rings (size 3 to 8) (size 9 to 14) (size 15 to 20)
#    0.000    2.429    0.000    4.286    2.000    3.429 
#    0.000    0.714    0.000    5.143    0.000    2.000 
#    0.000    0.571    0.000    0.000    0.000    0.000 
#
# Total GULP energy -156083.941751 kJ/mol
# GULP energy per Si atom -5574.426491 kJ/mol
# Density = 2.009035 g / cm^3
# Si number density = 20.136181 Si / 1000 Ang^3
#
#
#
# Elastic Constant Matrix: (Units=GPa)
#
#
# Indices 1 2 3 4 5 6 
#
# 1 81.0989 27.1819 30.4762 0.0000 12.0709 0.0001
# 2 27.1819 86.0079 34.9029 0.0000 2.8189 0.0001
# 3 30.4762 34.9029 73.7734 0.0000 1.2357 0.0001
# 4 0.0000 0.0000 0.0000 16.8280 0.0001 0.8576
# 5 12.0709 2.8189 1.2357 0.0001 33.7212 0.0000
# 6 0.0001 0.0001 0.0001 0.8576 0.0000 17.8014
#
#
#
# Elastic Compliance Matrix: (Units=1/GPa)
#
#
# Indices 1 2 3 4 5 6 
#
# 1 0.016008 -0.002769 -0.005214 0.000000 -0.005308 0.000000
# 2 -0.002769 0.014899 -0.005904 0.000000 -0.000038 0.000000
# 3 -0.005214 -0.005904 0.018474 0.000000 0.001683 0.000000
# 4 0.000000 0.000000 0.000000 0.059571 0.000000 -0.002870
# 5 -0.005308 -0.000038 0.001683 0.000000 0.031496 0.000000
# 6 0.000000 0.000000 0.000000 -0.002870 0.000000 0.056314
#
#
# Mechanical properties :
#
#
# Convention : Reuss Voigt Hill
#
# Bulk Modulus (GPa) = 46.28272 47.33358 46.80815
# Shear Modulus (GPa) = 21.57587 23.55806 22.56696
#
# Velocity S-wave (km/s) = 3.27693 3.42414 3.35134
# Velocity P-wave (km/s) = 6.11166 6.26025 6.18640
#
# Compressibility (1/GPa) = 0.02160634
#
# Stress axis : x y z
#
# Youngs Moduli (GPa) = 62.46798 67.11698 54.12970
#
# Poissons Ratio (x) = 0.18587 0.28223
# Poissons Ratio (y) = 0.17300 0.31960
# Poissons Ratio (z) = 0.32571 0.39628
#
# Static dielectric constant tensor:
#      x y z
#    x 1.766810 0.000000 -0.013030 
#    y 0.000000 1.694930 0.000000 
#    z -0.013030 0.000000 1.763110 
# 
# From -- ./inp_files/376393.got.cif
#   From: 2010.05.17/outbox.cif.g08.bks.cpg/sg12_189_cif.got.tgz:376393.got - 2010.06.03 13:09:07.
