data_PCOD9205568
_publ_section_title
;
Structure prediction by ZEFSAII (Michael W. Deem and Ramdas Pophale) SiO2 
 PCOD9205568
Probable space group: C 2/M
;
_chemical_formula_sum "Si O2"
_cell_formula_units_Z 56
_cell_length_a 11.724835
_cell_length_b 14.410818
_cell_length_c 19.354616
_cell_angle_alpha 90.000000
_cell_angle_beta 122.144163
_cell_angle_gamma 90.000000
_cell_volume 2768.953641
_symmetry_space_group_name_H-M "C 2/M"
_symmetry_group_IT_number 12
_symmetry_cell_setting 'monoclinic'
loop_
_space_group_symop_operation_xyz
x,y,z
-x,y,-z
-x,-y,-z
x,-y,z
1/2+x,1/2+y,z
1/2-x,1/2+y,-z
1/2-x,1/2-y,-z
1/2+x,1/2-y,z
loop_
_atom_site_type_symbol
_atom_site_label
_atom_site_fract_x
_atom_site_fract_y
_atom_site_fract_z
Si Si1 0.614617 0.691433 0.218208
Si Si2 0.339958 0.106078 0.096521
Si Si3 0.412057 0.168973 0.909341
Si Si4 0.834468 0.107801 0.081223
Si Si5 0.367788 0.611416 0.506327
Si Si6 0.876494 0.393313 0.264022
Si Si7 0.115854 0.267760 0.372628
O O1 0.645530 0.762733 0.166399
O O2 0.464545 0.657948 0.152358
O O3 0.727999 0.613162 0.247832
O O4 0.625215 0.736880 0.296259
O O5 0.476954 0.109815 0.096591
O O6 0.366741 0.142223 0.181423
O O7 0.299899 0.000000 0.094915
O O8 0.223096 0.146962 0.010246
O O9 0.289999 0.115963 0.906023
O O10 0.500000 0.213090 0.000000
O O11 0.867702 0.000000 0.082261
O O12 0.500000 0.619204 0.500000
O O13 0.345989 0.500000 0.511558
O O14 0.239560 0.663021 0.430157
O O15 0.387529 0.675402 0.580981
O O16 0.924447 0.500000 0.278914
O O17 0.979304 0.327060 0.336978
#
# Coordination Sequence:
#
# PCOD9205568 Si02
#       7
#     8   8   8   8   8   8   8
#     4  12  24  37  58  92 129 167 212 263 310 367
#     4   9  19  37  58  82 116 166 223 272 314 362
#     4  10  21  35  58  81 118 163 219 269 317 362
#     4  10  22  38  56  81 119 168 221 271 315 355
#     4  10  23  45  74 101 125 156 200 255 316 387
#     4  11  23  39  60  89 129 172 215 258 309 376
#     4  11  23  44  67  96 132 164 201 253 319 385
#
# _framework density 20.224246999999998
#
# number of rings (size 3 to 8) (size 9 to 14) (size 15 to 20)
#    0.000    1.571    1.429    3.000    2.000    4.000 
#    0.000    3.571    0.000    4.714    0.000    0.000 
#    0.000    0.000    0.000    0.000    0.000    0.000 
#
# Total GULP energy -156251.331356 kJ/mol
# GULP energy per Si atom -5580.404691 kJ/mol
# Density = 2.017822 g / cm^3
# Si number density = 20.224247 Si / 1000 Ang^3
#
#
#
# Elastic Constant Matrix: (Units=GPa)
#
#
# Indices 1 2 3 4 5 6 
#
# 1 73.4148 22.8494 23.7591 0.0000 20.7059 0.0000
# 2 22.8494 121.0897 55.9724 0.0000 4.8399 0.0000
# 3 23.7591 55.9724 113.7235 0.0000 13.7944 0.0000
# 4 0.0000 0.0000 0.0000 27.2371 0.0000 2.1647
# 5 20.7059 4.8399 13.7944 0.0000 27.0668 0.0000
# 6 0.0000 0.0000 0.0000 2.1647 0.0000 36.1972
#
#
#
# Elastic Compliance Matrix: (Units=1/GPa)
#
#
# Indices 1 2 3 4 5 6 
#
# 1 0.018430 -0.002471 -0.001042 0.000000 -0.013126 0.000000
# 2 -0.002471 0.011039 -0.005230 0.000000 0.002582 0.000000
# 3 -0.001042 -0.005230 0.012124 0.000000 -0.004447 0.000000
# 4 0.000000 0.000000 0.000000 0.036890 0.000000 -0.002206
# 5 -0.013126 0.002582 -0.004447 0.000000 0.048791 0.000000
# 6 0.000000 0.000000 0.000000 -0.002206 0.000000 0.027758
#
#
# Mechanical properties :
#
#
# Convention : Reuss Voigt Hill
#
# Bulk Modulus (GPa) = 41.48275 57.04330 49.26302
# Shear Modulus (GPa) = 27.69245 31.81002 29.75123
#
# Velocity S-wave (km/s) = 3.70438 3.97024 3.83961
# Velocity P-wave (km/s) = 6.23318 7.02023 6.63838
#
# Compressibility (1/GPa) = 0.02410640
#
# Stress axis : x y z
#
# Youngs Moduli (GPa) = 54.26077 90.58773 82.47793
#
# Poissons Ratio (x) = 0.22388 0.08593
# Poissons Ratio (y) = 0.13410 0.43136
# Poissons Ratio (z) = 0.05653 0.47378
#
# Static dielectric constant tensor:
#      x y z
#    x 1.706930 0.000000 0.007280 
#    y 0.000000 1.718530 0.000000 
#    z 0.007280 0.000000 1.711710 
# 
# From -- ./inp_files/263430.got.cif
#   From: 2010.05.17/outbox.cif.g08.bks.cpg/sg12_132_cif.got.tgz:263430.got - 2010.06.03 13:09:07.
