data_PCOD9205880
_publ_section_title
;
Structure prediction by ZEFSAII (Michael W. Deem and Ramdas Pophale) SiO2 
 PCOD9205880
Probable space group: C 2/M
;
_chemical_formula_sum "Si O2"
_cell_formula_units_Z 56
_cell_length_a 10.348026
_cell_length_b 8.541234
_cell_length_c 32.221660
_cell_angle_alpha 90.000000
_cell_angle_beta 75.886872
_cell_angle_gamma 90.000000
_cell_volume 2761.947783
_symmetry_space_group_name_H-M "C 2/M"
_symmetry_group_IT_number 12
_symmetry_cell_setting 'monoclinic'
loop_
_space_group_symop_operation_xyz
x,y,z
-x,y,-z
-x,-y,-z
x,-y,z
1/2+x,1/2+y,z
1/2-x,1/2+y,-z
1/2-x,1/2-y,-z
1/2+x,1/2-y,z
loop_
_atom_site_type_symbol
_atom_site_label
_atom_site_fract_x
_atom_site_fract_y
_atom_site_fract_z
Si Si1 0.563185 0.310985 0.688962
Si Si2 0.498035 0.687225 0.120584
Si Si3 0.704951 0.189439 0.169355
Si Si4 0.891881 0.312602 0.974458
Si Si5 0.007833 0.811254 0.546788
Si Si6 0.217596 0.311441 0.263899
Si Si7 0.227144 0.189012 0.593996
O O1 0.553312 0.500000 0.690235
O O2 0.650960 0.258839 0.721724
O O3 0.415860 0.242345 0.702533
O O4 0.645062 0.266143 0.641470
O O5 0.500834 0.500000 0.118831
O O6 0.581296 0.742838 0.153869
O O7 0.344001 0.736826 0.136858
O O8 0.565484 0.753256 0.073999
O O9 0.710358 0.241911 0.216796
O O10 0.697223 0.000000 0.169263
O O11 0.888413 0.500000 0.973857
O O12 0.750000 0.250000 0.000000
O O13 0.000000 0.260997 0.000000
O O14 0.874273 0.758343 0.580510
O O15 0.000000 0.753678 0.500000
O O16 0.139245 0.759145 0.561232
O O17 0.010489 0.000000 0.545941
O O18 0.220863 0.500000 0.263418
O O19 0.237229 0.000000 0.592747
#
# Coordination Sequence:
#
# PCOD9205880 Si02
#       7
#     8   8   8   8   8   8   8
#     4  10  21  37  56  81 112 143 182 231 278 330
#     4  11  23  39  61  87 116 152 190 231 281 331
#     4  10  22  39  58  83 115 148 185 230 277 329
#     4  11  24  41  62  89 119 152 192 235 280 333
#     4  10  21  36  54  79 110 143 183 229 275 329
#     4  10  21  37  57  82 111 145 185 227 275 331
#     4  10  21  36  55  80 109 143 183 227 277 332
#
# _framework density 20.275545000000001
#
# number of rings (size 3 to 8) (size 9 to 14) (size 15 to 20)
#    0.000    1.714    0.000    3.857    0.000    8.286 
#    0.000    0.000    0.000    0.000    0.000    0.000 
#    0.000    0.000    0.000    0.000    0.000    0.000 
#
# Total GULP energy -156566.724035 kJ/mol
# GULP energy per Si atom -5591.668716 kJ/mol
# Density = 2.022940 g / cm^3
# Si number density = 20.275545 Si / 1000 Ang^3
#
#
#
# Elastic Constant Matrix: (Units=GPa)
#
#
# Indices 1 2 3 4 5 6 
#
# 1 67.3324 3.2784 -30.0829 0.0000 1.7205 0.0000
# 2 3.2784 4.1954 1.5195 0.0000 3.4201 0.0000
# 3 -30.0829 1.5195 48.4020 0.0000 2.2076 0.0000
# 4 0.0000 0.0000 0.0000 12.1977 0.0000 -2.5175
# 5 1.7205 3.4201 2.2076 0.0000 42.6389 0.0000
# 6 0.0000 0.0000 0.0000 -2.5175 0.0000 16.5013
#
#
#
# Elastic Compliance Matrix: (Units=1/GPa)
#
#
# Indices 1 2 3 4 5 6 
#
# 1 0.022556 -0.023111 0.014737 0.000000 0.000181 0.000000
# 2 -0.023111 0.281162 -0.022257 0.000000 -0.020467 0.000000
# 3 0.014737 -0.022257 0.030536 0.000000 -0.000390 0.000000
# 4 0.000000 0.000000 0.000000 0.084648 0.000000 0.012914
# 5 0.000181 -0.020467 -0.000390 0.000000 0.025107 0.000000
# 6 0.000000 0.000000 0.000000 0.012914 0.000000 0.062572
#
#
# Mechanical properties :
#
#
# Convention : Reuss Voigt Hill
#
# Bulk Modulus (GPa) = 3.66312 7.70666 5.68489
# Shear Modulus (GPa) = 7.58907 23.94856 15.76882
#
# Velocity S-wave (km/s) = 1.93677 3.44052 2.79180
# Velocity P-wave (km/s) = 2.60999 4.42630 3.63347
#
# Compressibility (1/GPa) = 0.27299097
#
# Stress axis : x y z
#
# Youngs Moduli (GPa) = 44.33327 3.55667 32.74826
#
# Poissons Ratio (x) = 0.08220 -0.48260
# Poissons Ratio (y) = 1.02459 0.72889
# Poissons Ratio (z) = -0.65332 0.07916
#
# Static dielectric constant tensor:
#      x y z
#    x 1.676230 0.000000 0.020560 
#    y 0.000000 1.685840 0.000000 
#    z 0.020560 0.000000 1.714010 
# 
# From -- ./inp_files/373473.got.cif
#   From: 2010.05.17/outbox.cif.g08.bks.cpg/sg12_187_cif.got.tgz:373473.got - 2010.06.03 13:09:07.
