data_PCOD9205472
_publ_section_title
;
Structure prediction by ZEFSAII (Michael W. Deem and Ramdas Pophale) SiO2 
 PCOD9205472
Probable space group: C 2/M
;
_chemical_formula_sum "Si O2"
_cell_formula_units_Z 48
_cell_length_a 20.620609
_cell_length_b 7.927977
_cell_length_c 14.684271
_cell_angle_alpha 90.000000
_cell_angle_beta 79.771401
_cell_angle_gamma 90.000000
_cell_volume 2362.428223
_symmetry_space_group_name_H-M "C 2/M"
_symmetry_group_IT_number 12
_symmetry_cell_setting 'monoclinic'
loop_
_space_group_symop_operation_xyz
x,y,z
-x,y,-z
-x,-y,-z
x,-y,z
1/2+x,1/2+y,z
1/2-x,1/2+y,-z
1/2-x,1/2-y,-z
1/2+x,1/2-y,z
loop_
_atom_site_type_symbol
_atom_site_label
_atom_site_fract_x
_atom_site_fract_y
_atom_site_fract_z
Si Si1 0.971134 0.201342 0.276549
Si Si2 0.119265 0.202907 0.235248
Si Si3 0.438483 0.204263 0.079582
Si Si4 0.652845 0.297607 0.583595
Si Si5 0.673974 0.799065 0.024852
Si Si6 0.709975 0.295726 0.376615
O O1 0.948594 0.230488 0.178557
O O2 0.915298 0.269527 0.358460
O O3 0.045219 0.269160 0.269390
O O4 0.974575 0.000000 0.290526
O O5 0.142915 0.241828 0.127855
O O6 0.171156 0.264841 0.297522
O O7 0.116991 0.000000 0.244423
O O8 0.438141 0.000000 0.084372
O O9 0.500000 0.253557 0.000000
O O10 0.371682 0.263701 0.046828
O O11 0.647430 0.500000 0.578404
O O12 0.673471 0.235660 0.478084
O O13 0.714274 0.258293 0.634110
O O14 0.670147 0.000000 0.023296
O O15 0.750000 0.750000 0.000000
O O16 0.709343 0.500000 0.376992
#
# Coordination Sequence:
#
# PCOD9205472 Si02
#       6
#     8   8   8   8   8   8
#     4  10  21  35  56  84 111 142 183 228 271 319
#     4  10  21  37  56  82 112 145 184 225 273 324
#     4  10  21  39  58  78 108 146 183 220 270 326
#     4   9  19  36  56  82 110 141 182 225 273 324
#     4  11  24  40  58  81 111 146 183 227 274 325
#     4   9  19  36  57  79 110 146 180 223 272 326
#
# _framework density 20.318078
#
# number of rings (size 3 to 8) (size 9 to 14) (size 15 to 20)
#    0.000    2.167    1.667    0.500    2.333    3.667 
#    0.000    3.333    0.000    0.000    0.000    7.000 
#    0.000    0.000    0.000    0.000    0.000    0.000 
#
# Total GULP energy -134015.257730 kJ/mol
# GULP energy per Si atom -5583.969072 kJ/mol
# Density = 2.027183 g / cm^3
# Si number density = 20.318078 Si / 1000 Ang^3
#
#
#
# Elastic Constant Matrix: (Units=GPa)
#
#
# Indices 1 2 3 4 5 6 
#
# 1 101.6942 3.5869 2.7973 0.0000 -8.0251 0.0000
# 2 3.5869 16.9399 -2.4047 0.0000 -0.7669 0.0000
# 3 2.7973 -2.4047 17.8730 0.0000 2.1022 0.0000
# 4 0.0000 0.0000 0.0000 15.0321 0.0000 3.1427
# 5 -8.0251 -0.7669 2.1022 0.0000 43.7005 0.0000
# 6 0.0000 0.0000 0.0000 3.1427 0.0000 23.0078
#
#
#
# Elastic Compliance Matrix: (Units=1/GPa)
#
#
# Indices 1 2 3 4 5 6 
#
# 1 0.010127 -0.002359 -0.002128 0.000000 0.001921 0.000000
# 2 -0.002359 0.060751 0.008517 0.000000 0.000223 0.000000
# 3 -0.002128 0.008517 0.057785 0.000000 -0.003021 0.000000
# 4 0.000000 0.000000 0.000000 0.068480 0.000000 -0.009354
# 5 0.001921 0.000223 -0.003021 0.000000 0.023385 0.000000
# 6 0.000000 0.000000 0.000000 -0.009354 0.000000 0.044741
#
#
# Mechanical properties :
#
#
# Convention : Reuss Voigt Hill
#
# Bulk Modulus (GPa) = 7.31424 16.05181 11.68302
# Shear Modulus (GPa) = 16.51344 25.18326 20.84835
#
# Velocity S-wave (km/s) = 2.85396 3.52440 3.20675
# Velocity P-wave (km/s) = 3.80366 4.94766 4.41289
#
# Compressibility (1/GPa) = 0.13671965
#
# Stress axis : x y z
#
# Youngs Moduli (GPa) = 98.74853 16.46071 17.30567
#
# Poissons Ratio (x) = 0.03884 0.03683
# Poissons Ratio (y) = 0.23299 -0.14738
# Poissons Ratio (z) = 0.21017 -0.14019
#
# Static dielectric constant tensor:
#      x y z
#    x 1.722080 0.000000 0.003670 
#    y 0.000000 1.741710 0.000000 
#    z 0.003670 0.000000 1.687720 
# 
# From -- ./inp_files/221569.got.cif
#   From: 2010.05.17/outbox.cif.g08.bks.cpg/sg12_111_cif.got.tgz:221569.got - 2010.06.03 13:09:07.
