data_PCOD9205283
_publ_section_title
;
Structure prediction by ZEFSAII (Michael W. Deem and Ramdas Pophale) SiO2 
 PCOD9205283
Probable space group: C 2/M
;
_chemical_formula_sum "Si O2"
_cell_formula_units_Z 64
_cell_length_a 23.090980
_cell_length_b 8.865281
_cell_length_c 19.947536
_cell_angle_alpha 90.000000
_cell_angle_beta 58.278850
_cell_angle_gamma 90.000000
_cell_volume 3473.427414
_symmetry_space_group_name_H-M "C 2/M"
_symmetry_group_IT_number 12
_symmetry_cell_setting 'monoclinic'
loop_
_space_group_symop_operation_xyz
x,y,z
-x,y,-z
-x,-y,-z
x,-y,z
1/2+x,1/2+y,z
1/2-x,1/2+y,-z
1/2-x,1/2-y,-z
1/2+x,1/2-y,z
loop_
_atom_site_type_symbol
_atom_site_label
_atom_site_fract_x
_atom_site_fract_y
_atom_site_fract_z
Si Si1 0.594331 0.819555 0.233974
Si Si2 0.471154 0.318209 0.230369
Si Si3 0.953832 0.182404 0.090968
Si Si4 0.277086 0.677931 0.915801
Si Si5 0.181514 0.318467 0.461251
Si Si6 0.827404 0.682053 0.682005
Si Si7 0.195497 0.322254 0.829331
Si Si8 0.661852 0.318881 0.612080
O O1 0.524985 0.750624 0.248806
O O2 0.654572 0.759980 0.149741
O O3 0.617832 0.773862 0.294723
O O4 0.591005 0.000000 0.233773
O O5 0.475603 0.500000 0.230676
O O6 0.483369 0.272680 0.145775
O O7 0.395368 0.272906 0.300013
O O8 0.877465 0.245091 0.133287
O O9 0.950643 0.000000 0.091394
O O10 0.000000 0.232068 0.000000
O O11 0.290155 0.500000 0.916293
O O12 0.222932 0.696617 0.888616
O O13 0.250000 0.750000 0.000000
O O14 0.177901 0.500000 0.469297
O O15 0.154141 0.273898 0.404963
O O16 0.261531 0.273166 0.414784
O O17 0.147510 0.246488 0.547105
O O18 0.820873 0.500000 0.687527
O O19 0.754408 0.749558 0.747536
O O20 0.190481 0.500000 0.818116
O O21 0.661473 0.500000 0.608833
#
# Coordination Sequence:
#
# PCOD9205283 Si02
#       8
#     8   8   8   8   8   8   8   8
#     4  10  21  36  55  80 106 141 184 224 271 322
#     4  10  21  38  56  76 109 148 183 221 269 328
#     4  10  22  38  56  78 103 141 184 218 265 328
#     4  10  21  36  55  79 106 138 177 222 271 318
#     4   9  17  32  56  82 108 136 176 225 265 315
#     4   9  18  35  57  79 106 142 180 220 266 320
#     4  10  21  35  53  80 109 135 171 222 271 314
#     4   9  18  32  52  80 110 141 175 217 271 323
#
# _framework density 18.425605000000001
#
# number of rings (size 3 to 8) (size 9 to 14) (size 15 to 20)
#    0.000    2.375    0.000    1.875    1.750    5.750 
#    0.000    3.125    0.000    3.750    0.000    0.000 
#    0.000    0.000    0.000    0.000    0.000    0.000 
#
# Total GULP energy -178564.867813 kJ/mol
# GULP energy per Si atom -5580.152119 kJ/mol
# Density = 1.838367 g / cm^3
# Si number density = 18.425605 Si / 1000 Ang^3
#
#
#
# Elastic Constant Matrix: (Units=GPa)
#
#
# Indices 1 2 3 4 5 6 
#
# 1 58.4368 17.4717 29.2696 0.0000 -0.1604 0.0000
# 2 17.4717 9.8003 17.5450 -0.0003 6.0340 0.0002
# 3 29.2696 17.5450 99.0412 -0.0001 26.6002 0.0001
# 4 0.0000 -0.0003 -0.0001 26.4350 0.0001 -0.6264
# 5 -0.1604 6.0340 26.6002 0.0001 22.4831 -0.0001
# 6 0.0000 0.0002 0.0001 -0.6264 -0.0001 30.9926
#
#
#
# Elastic Compliance Matrix: (Units=1/GPa)
#
#
# Indices 1 2 3 4 5 6 
#
# 1 0.050028 -0.098696 -0.006612 -0.000001 0.034667 0.000001
# 2 -0.098696 0.346724 -0.010367 0.000004 -0.081492 -0.000002
# 3 -0.006612 -0.010367 0.019279 0.000000 -0.020074 0.000000
# 4 -0.000001 0.000004 0.000000 0.037847 -0.000001 0.000765
# 5 0.034667 -0.081492 -0.020074 -0.000001 0.090346 0.000001
# 6 0.000001 -0.000002 0.000000 0.000765 0.000001 0.032281
#
#
# Mechanical properties :
#
#
# Convention : Reuss Voigt Hill
#
# Bulk Modulus (GPa) = 5.41474 32.87233 19.14354
# Shear Modulus (GPa) = 5.75100 22.84827 14.29964
#
# Velocity S-wave (km/s) = 1.76861 3.52522 2.78883
# Velocity P-wave (km/s) = 2.66753 5.86932 4.55876
#
# Compressibility (1/GPa) = 0.18468097
#
# Stress axis : x y z
#
# Youngs Moduli (GPa) = 19.98890 2.88414 51.87073
#
# Poissons Ratio (x) = 0.28465 0.34295
# Poissons Ratio (y) = 1.97282 0.53776
# Poissons Ratio (z) = 0.13216 0.02990
#
# Static dielectric constant tensor:
#      x y z
#    x 1.634740 0.000000 0.026570 
#    y 0.000000 1.620620 0.000000 
#    z 0.026570 0.000000 1.631670 
# 
# From -- ./inp_files/319933.got.cif
#   From: 2010.05.17/outbox.cif.g08.bks.cpg/sg12_160_cif.got.tgz:319933.got - 2010.06.03 13:09:07.
