data_PCOD9205392
_publ_section_title
;
Structure prediction by ZEFSAII (Michael W. Deem and Ramdas Pophale) SiO2 
 PCOD9205392
Probable space group: C 2/M
;
_chemical_formula_sum "Si O2"
_cell_formula_units_Z 56
_cell_length_a 26.034675
_cell_length_b 9.487951
_cell_length_c 17.450120
_cell_angle_alpha 90.000000
_cell_angle_beta 140.078301
_cell_angle_gamma 90.000000
_cell_volume 2766.191271
_symmetry_space_group_name_H-M "C 2/M"
_symmetry_group_IT_number 12
_symmetry_cell_setting 'monoclinic'
loop_
_space_group_symop_operation_xyz
x,y,z
-x,y,-z
-x,-y,-z
x,-y,z
1/2+x,1/2+y,z
1/2-x,1/2+y,-z
1/2-x,1/2-y,-z
1/2+x,1/2-y,z
loop_
_atom_site_type_symbol
_atom_site_label
_atom_site_fract_x
_atom_site_fract_y
_atom_site_fract_z
Si Si1 0.234021 0.163675 0.220230
Si Si2 0.878339 0.838244 0.457331
Si Si3 0.470763 0.163419 0.336512
Si Si4 0.789064 0.335537 0.113446
Si Si5 0.480405 0.838190 0.786218
Si Si6 0.830662 0.161277 0.582713
Si Si7 0.081032 0.663993 0.044384
O O1 0.309762 0.248326 0.338342
O O2 0.238098 0.172673 0.132625
O O3 0.238658 0.000000 0.247909
O O4 0.152317 0.237018 0.152726
O O5 0.854929 0.839741 0.520767
O O6 0.963499 0.760355 0.548044
O O7 0.881194 0.000000 0.433950
O O8 0.379196 0.211964 0.237773
O O9 0.491682 0.166399 0.269753
O O10 0.476859 0.000000 0.369361
O O11 0.796190 0.500000 0.098914
O O12 0.750000 0.250000 0.000000
O O13 0.404637 0.737084 0.709391
O O14 0.553054 0.803132 0.925770
O O15 0.456359 0.000000 0.776523
O O16 0.750000 0.250000 0.500000
O O17 0.819502 0.000000 0.595230
O O18 0.106561 0.500000 0.077678
O O19 0.000000 0.679538 0.000000
#
# Coordination Sequence:
#
# PCOD9205392 Si02
#       7
#     8   8   8   8   8   8   8
#     4  11  24  40  59  87 122 156 194 243 295 350
#     4  10  22  39  58  83 117 155 196 241 291 349
#     4   9  18  36  60  84 114 152 194 239 291 347
#     4  10  22  39  62  91 121 156 197 242 292 348
#     4   9  18  34  56  81 109 145 188 234 286 341
#     4  10  21  35  55  81 110 146 189 238 287 340
#     4  10  22  39  59  83 115 155 197 243 293 348
#
# _framework density 20.244443
#
# number of rings (size 3 to 8) (size 9 to 14) (size 15 to 20)
#    0.000    2.143    0.000    2.143    2.000    6.000 
#    0.000    5.714    0.000    0.000    0.000    0.000 
#    0.000    0.000    0.000    0.000    0.000    0.000 
#
# Total GULP energy -156470.362784 kJ/mol
# GULP energy per Si atom -5588.227242 kJ/mol
# Density = 2.019837 g / cm^3
# Si number density = 20.244443 Si / 1000 Ang^3
#
#
#
# Elastic Constant Matrix: (Units=GPa)
#
#
# Indices 1 2 3 4 5 6 
#
# 1 41.8354 32.0820 20.6144 0.0000 23.0657 0.0000
# 2 32.0820 130.3057 81.9564 0.0000 24.8974 0.0000
# 3 20.6144 81.9564 110.3568 0.0000 20.9120 0.0000
# 4 0.0000 0.0000 0.0000 40.4714 0.0000 6.2090
# 5 23.0657 24.8974 20.9120 0.0000 34.8183 0.0000
# 6 0.0000 0.0000 0.0000 6.2090 0.0000 22.6295
#
#
#
# Elastic Compliance Matrix: (Units=1/GPa)
#
#
# Indices 1 2 3 4 5 6 
#
# 1 0.041177 -0.006774 0.001795 0.000000 -0.023512 0.000000
# 2 -0.006774 0.016130 -0.010583 0.000000 -0.000690 0.000000
# 3 0.001795 -0.010583 0.017352 0.000000 -0.004043 0.000000
# 4 0.000000 0.000000 0.000000 0.025795 0.000000 -0.007077
# 5 -0.023512 -0.000690 -0.004043 0.000000 0.047218 0.000000
# 6 0.000000 0.000000 0.000000 -0.007077 0.000000 0.046132
#
#
# Mechanical properties :
#
#
# Convention : Reuss Voigt Hill
#
# Bulk Modulus (GPa) = 22.97073 61.31151 42.14112
# Shear Modulus (GPa) = 20.88208 29.44018 25.16113
#
# Velocity S-wave (km/s) = 3.21518 3.81758 3.52926
# Velocity P-wave (km/s) = 5.01542 7.05572 6.12118
#
# Compressibility (1/GPa) = 0.04353366
#
# Stress axis : x y z
#
# Youngs Moduli (GPa) = 24.28542 61.99563 57.63114
#
# Poissons Ratio (x) = 0.41998 -0.10342
# Poissons Ratio (y) = 0.16452 0.60990
# Poissons Ratio (z) = -0.04358 0.65609
#
# Static dielectric constant tensor:
#      x y z
#    x 1.746490 0.000000 -0.025620 
#    y 0.000000 1.697030 0.000000 
#    z -0.025620 0.000000 1.696560 
# 
# From -- ./inp_files/292533.got.cif
#   From: 2010.05.17/outbox.cif.g08.bks.cpg/sg12_147_cif.got.tgz:292533.got - 2010.06.03 13:09:07.
