data_PCOD9205183
_publ_section_title
;
Structure prediction by ZEFSAII (Michael W. Deem and Ramdas Pophale) SiO2 
 PCOD9205183
Probable space group: C 2/M
;
_chemical_formula_sum "Si O2"
_cell_formula_units_Z 56
_cell_length_a 27.347370
_cell_length_b 7.689442
_cell_length_c 14.191773
_cell_angle_alpha 90.000000
_cell_angle_beta 118.814127
_cell_angle_gamma 90.000000
_cell_volume 2614.834973
_symmetry_space_group_name_H-M "C 2/M"
_symmetry_group_IT_number 12
_symmetry_cell_setting 'monoclinic'
loop_
_space_group_symop_operation_xyz
x,y,z
-x,y,-z
-x,-y,-z
x,-y,z
1/2+x,1/2+y,z
1/2-x,1/2+y,-z
1/2-x,1/2-y,-z
1/2+x,1/2-y,z
loop_
_atom_site_type_symbol
_atom_site_label
_atom_site_fract_x
_atom_site_fract_y
_atom_site_fract_z
Si Si1 0.019044 0.212918 0.165919
Si Si2 0.892257 0.201982 0.615935
Si Si3 0.819895 0.697169 0.172500
Si Si4 0.286963 0.793037 0.626775
Si Si5 0.414356 0.290503 0.959118
Si Si6 0.306607 0.794777 0.957029
Si Si7 0.680094 0.295440 0.622527
O O1 0.050657 0.276472 0.288498
O O2 0.956358 0.266771 0.081920
O O3 0.019109 0.000000 0.168030
O O4 0.056646 0.264862 0.110851
O O5 0.846305 0.209611 0.657608
O O6 0.862036 0.279591 0.495389
O O7 0.903337 0.000000 0.604550
O O8 0.839827 0.500000 0.192185
O O9 0.832301 0.771823 0.080369
O O10 0.839112 0.779045 0.288197
O O11 0.752328 0.704502 0.113145
O O12 0.250000 0.750000 0.500000
O O13 0.243897 0.729370 0.667114
O O14 0.296587 0.000000 0.644472
O O15 0.412824 0.500000 0.957277
O O16 0.352303 0.226081 0.919060
O O17 0.294133 0.000000 0.956067
O O18 0.685004 0.500000 0.604884
#
# Coordination Sequence:
#
# PCOD9205183 Si02
#       7
#     8   8   8   8   8   8   8
#     4   8  16  31  51  76 103 129 164 200 234 288
#     4   9  17  30  47  69  99 133 162 197 241 285
#     4  10  21  35  52  72  95 129 167 200 245 299
#     4   9  17  28  41  63  94 128 162 195 234 281
#     4   9  17  32  54  77  99 129 165 200 240 288
#     4  10  21  36  52  73 100 125 158 207 252 292
#     4   9  18  30  45  68  99 129 161 203 244 282
#
# _framework density 21.416264999999999
#
# number of rings (size 3 to 8) (size 9 to 14) (size 15 to 20)
#    0.000    2.857    0.000    3.000    2.000    4.571 
#    0.000    2.143    0.000    0.857    0.000    6.000 
#    0.000    0.000    0.000    0.000    0.000    0.000 
#
# Total GULP energy -156029.466466 kJ/mol
# GULP energy per Si atom -5572.480945 kJ/mol
# Density = 2.136752 g / cm^3
# Si number density = 21.416265 Si / 1000 Ang^3
#
#
#
# Elastic Constant Matrix: (Units=GPa)
#
#
# Indices 1 2 3 4 5 6 
#
# 1 28.5895 -4.7897 -6.3768 0.0000 2.1245 0.0000
# 2 -4.7897 37.4266 1.8266 0.0000 -2.7994 0.0000
# 3 -6.3768 1.8266 96.1408 0.0000 5.8628 0.0000
# 4 0.0000 0.0000 0.0000 9.8317 0.0000 -8.6208
# 5 2.1245 -2.7994 5.8628 0.0000 29.3933 0.0000
# 6 0.0000 0.0000 0.0000 -8.6208 0.0000 12.4831
#
#
#
# Elastic Compliance Matrix: (Units=1/GPa)
#
#
# Indices 1 2 3 4 5 6 
#
# 1 0.036465 0.004341 0.002502 0.000000 -0.002721 0.000000
# 2 0.004341 0.027471 -0.000379 0.000000 0.002378 0.000000
# 3 0.002502 -0.000379 0.010718 0.000000 -0.002355 0.000000
# 4 0.000000 0.000000 0.000000 0.257852 0.000000 0.178073
# 5 -0.002721 0.002378 -0.002355 0.000000 0.034914 0.000000
# 6 0.000000 0.000000 0.000000 0.178073 0.000000 0.203086
#
#
# Mechanical properties :
#
#
# Convention : Reuss Voigt Hill
#
# Bulk Modulus (GPa) = 11.41776 15.94190 13.67983
# Shear Modulus (GPa) = 8.52119 21.77474 15.14796
#
# Velocity S-wave (km/s) = 1.99687 3.19209 2.66242
# Velocity P-wave (km/s) = 3.26490 4.58758 3.98155
#
# Compressibility (1/GPa) = 0.08758285
#
# Stress axis : x y z
#
# Youngs Moduli (GPa) = 27.42323 36.40214 93.29948
#
# Poissons Ratio (x) = -0.15802 -0.23345
# Poissons Ratio (y) = -0.11905 0.03536
# Poissons Ratio (z) = -0.06862 0.01380
#
# Static dielectric constant tensor:
#      x y z
#    x 1.768810 0.000000 -0.009430 
#    y 0.000000 1.753060 0.000000 
#    z -0.009430 0.000000 1.847180 
# 
# From -- ./inp_files/244315.got.cif
#   From: 2010.05.17/outbox.cif.g08.bks.cpg/sg12_123_cif.got.tgz:244315.got - 2010.06.03 13:09:07.
