data_PCOD9205735
_publ_section_title
;
Structure prediction by ZEFSAII (Michael W. Deem and Ramdas Pophale) SiO2 
 PCOD9205735
Probable space group: C 2/M
;
_chemical_formula_sum "Si O2"
_cell_formula_units_Z 40
_cell_length_a 14.566064
_cell_length_b 14.235628
_cell_length_c 12.797767
_cell_angle_alpha 90.000000
_cell_angle_beta 139.954547
_cell_angle_gamma 90.000000
_cell_volume 1707.382406
_symmetry_space_group_name_H-M "C 2/M"
_symmetry_group_IT_number 12
_symmetry_cell_setting 'monoclinic'
loop_
_space_group_symop_operation_xyz
x,y,z
-x,y,-z
-x,-y,-z
x,-y,z
1/2+x,1/2+y,z
1/2-x,1/2+y,-z
1/2-x,1/2-y,-z
1/2+x,1/2-y,z
loop_
_atom_site_type_symbol
_atom_site_label
_atom_site_fract_x
_atom_site_fract_y
_atom_site_fract_z
Si Si1 0.865350 0.784584 0.182742
Si Si2 0.826454 0.891823 0.350545
Si Si3 0.357020 0.611599 0.605391
Si Si4 0.057666 0.397492 0.668049
Si Si5 0.855225 0.889620 0.829510
O O1 0.791079 0.822378 0.224578
O O2 0.972714 0.697102 0.297631
O O3 0.973361 0.866253 0.242109
O O4 0.750000 0.750000 0.000000
O O5 0.792687 0.856603 0.438200
O O6 0.000000 0.894590 0.500000
O O7 0.777107 0.000000 0.290988
O O8 0.337199 0.500000 0.580909
O O9 0.302546 0.645595 0.670457
O O10 0.018505 0.500000 0.678262
O O11 0.228552 0.390350 0.802060
O O12 0.000000 0.394462 0.500000
O O13 0.886290 0.000000 0.836192
O O14 0.000000 0.845534 0.000000
#
# Coordination Sequence:
#
# PCOD9205735 Si02
#       5
#     8   8   8   8   8
#     4  11  20  30  48  74 105 138 172 212 258 309
#     4   8  15  29  48  70  97 127 165 216 265 304
#     4   9  17  32  55  78  98 125 169 225 269 296
#     4  10  21  36  52  74 109 145 171 202 255 324
#     4   9  17  31  53  80 106 133 173 223 264 299
#
# _framework density 23.427674
#
# number of rings (size 3 to 8) (size 9 to 14) (size 15 to 20)
#    0.000    2.600    0.000    4.800    0.000    3.200 
#    0.000    4.000    0.000    0.000    0.000    1.400 
#    0.000   20.000    0.000    0.000    0.000    0.000 
#
# Total GULP energy -111533.535835 kJ/mol
# GULP energy per Si atom -5576.676792 kJ/mol
# Density = 2.337435 g / cm^3
# Si number density = 23.427674 Si / 1000 Ang^3
#
#
#
# Elastic Constant Matrix: (Units=GPa)
#
#
# Indices 1 2 3 4 5 6 
#
# 1 64.8783 6.9165 16.0421 0.0000 -20.5728 0.0000
# 2 6.9165 108.2747 40.7068 0.0000 -21.3848 0.0000
# 3 16.0421 40.7068 96.5158 0.0000 -21.7145 0.0000
# 4 0.0000 0.0000 0.0000 29.4944 0.0000 -7.9313
# 5 -20.5728 -21.3848 -21.7145 0.0000 41.2880 0.0000
# 6 0.0000 0.0000 0.0000 -7.9313 0.0000 11.1089
#
#
#
# Elastic Compliance Matrix: (Units=1/GPa)
#
#
# Indices 1 2 3 4 5 6 
#
# 1 0.018535 0.001182 -0.001547 0.000000 0.009034 0.000000
# 2 0.001182 0.011570 -0.004078 0.000000 0.004437 0.000000
# 3 -0.001547 -0.004078 0.013258 0.000000 0.004090 0.000000
# 4 0.000000 0.000000 0.000000 0.041961 0.000000 0.029958
# 5 0.009034 0.004437 0.004090 0.000000 0.033171 0.000000
# 6 0.000000 0.000000 0.000000 0.029958 0.000000 0.111406
#
#
# Mechanical properties :
#
#
# Convention : Reuss Voigt Hill
#
# Bulk Modulus (GPa) = 29.00494 44.11109 36.55802
# Shear Modulus (GPa) = 19.97780 30.11183 25.04481
#
# Velocity S-wave (km/s) = 2.92335 3.58901 3.27314
# Velocity P-wave (km/s) = 4.87874 6.00368 5.47020
#
# Compressibility (1/GPa) = 0.03447689
#
# Stress axis : x y z
#
# Youngs Moduli (GPa) = 53.95321 86.43302 75.42511
#
# Poissons Ratio (x) = -0.10214 0.11665
# Poissons Ratio (y) = -0.06376 0.30758
# Poissons Ratio (z) = 0.08344 0.35247
#
# Static dielectric constant tensor:
#      x y z
#    x 2.010230 0.000000 -0.024130 
#    y 0.000000 1.957600 0.000000 
#    z -0.024130 0.000000 1.898600 
# 
# From -- ./inp_files/156337.got.cif
#   From: 2010.05.17/outbox.cif.g08.bks.cpg/sg12_79_cif.got.tgz:156337.got - 2010.06.03 13:09:07.
