data_PCOD9205325
_publ_section_title
;
Structure prediction by ZEFSAII (Michael W. Deem and Ramdas Pophale) SiO2 
 PCOD9205325
Probable space group: C 2/M
;
_chemical_formula_sum "Si O2"
_cell_formula_units_Z 48
_cell_length_a 27.482442
_cell_length_b 7.432498
_cell_length_c 11.098004
_cell_angle_alpha 90.000000
_cell_angle_beta 118.877797
_cell_angle_gamma 90.000000
_cell_volume 1985.026978
_symmetry_space_group_name_H-M "C 2/M"
_symmetry_group_IT_number 12
_symmetry_cell_setting 'monoclinic'
loop_
_space_group_symop_operation_xyz
x,y,z
-x,y,-z
-x,-y,-z
x,-y,z
1/2+x,1/2+y,z
1/2-x,1/2+y,-z
1/2-x,1/2-y,-z
1/2+x,1/2-y,z
loop_
_atom_site_type_symbol
_atom_site_label
_atom_site_fract_x
_atom_site_fract_y
_atom_site_fract_z
Si Si1 0.736233 0.206676 0.657169
Si Si2 0.330091 0.717792 0.180744
Si Si3 0.369048 0.211863 0.600877
Si Si4 0.938393 0.712475 0.906836
Si Si5 0.562388 0.716800 0.557926
Si Si6 0.834283 0.782959 0.919950
O O1 0.705329 0.208756 0.750526
O O2 0.691473 0.287459 0.510770
O O3 0.795540 0.288022 0.764745
O O4 0.744988 0.000000 0.632353
O O5 0.325520 0.500000 0.180074
O O6 0.393999 0.767514 0.285959
O O7 0.315130 0.779625 0.028868
O O8 0.402871 0.290658 0.753184
O O9 0.408875 0.227959 0.532411
O O10 0.360159 0.000000 0.611635
O O11 0.945079 0.500000 0.889579
O O12 0.897929 0.735062 0.971842
O O13 0.000000 0.786871 0.000000
O O14 0.500000 0.784804 0.500000
O O15 0.560156 0.500000 0.554383
O O16 0.829941 0.000000 0.914412
#
# Coordination Sequence:
#
# PCOD9205325 Si02
#       6
#     8   8   8   8   8   8
#     4   9  18  34  55  80 107 134 169 213 260 309
#     4   9  18  32  50  78 111 137 167 209 256 308
#     4   9  19  36  54  73 102 136 171 215 258 300
#     4  10  23  40  54  73 103 139 179 219 256 302
#     4   9  18  31  50  76 104 135 170 209 254 304
#     4  10  21  35  54  80 107 137 173 212 257 309
#
# _framework density 24.181031000000001
#
# number of rings (size 3 to 8) (size 9 to 14) (size 15 to 20)
#    0.000    2.667    0.000    0.500    2.333    3.333 
#    0.000    0.000    0.000    0.000    0.000    0.000 
#    0.000    0.000    0.000    0.000    0.000    0.000 
#
# Total GULP energy -134099.283704 kJ/mol
# GULP energy per Si atom -5587.470154 kJ/mol
# Density = 2.412599 g / cm^3
# Si number density = 24.181031 Si / 1000 Ang^3
#
#
#
# Elastic Constant Matrix: (Units=GPa)
#
#
# Indices 1 2 3 4 5 6 
#
# 1 113.4257 3.4393 48.8198 0.0000 28.3827 0.0000
# 2 3.4393 84.4836 17.6002 0.0000 7.0851 0.0000
# 3 48.8198 17.6002 140.8615 0.0000 8.4234 0.0000
# 4 0.0000 0.0000 0.0000 -65.5490 0.0000 -105.4629
# 5 28.3827 7.0851 8.4234 0.0000 42.6401 0.0000
# 6 0.0000 0.0000 0.0000 -105.4629 0.0000 -120.5559
#
#
#
# Elastic Compliance Matrix: (Units=1/GPa)
#
#
# Indices 1 2 3 4 5 6 
#
# 1 0.012402 0.000961 -0.003962 0.000000 -0.007632 0.000000
# 2 0.000961 0.012356 -0.001736 0.000000 -0.002350 0.000000
# 3 -0.003962 -0.001736 0.008616 0.000000 0.001224 0.000000
# 4 0.000000 0.000000 0.000000 0.037438 0.000000 -0.032751
# 5 -0.007632 -0.002350 0.001224 0.000000 0.028681 0.000000
# 6 0.000000 0.000000 0.000000 -0.032751 0.000000 0.020356
#
#
# Mechanical properties :
#
#
# Convention : Reuss Voigt Hill
#
# Bulk Modulus (GPa) = 41.84231 53.16549 47.50390
# Shear Modulus (GPa) = 36.41862 -10.76553 12.82654
#
# Velocity S-wave (km/s) = 3.88504 -2.11228 2.30562
# Velocity P-wave (km/s) = 6.12095 4.01064 5.17452
#
# Compressibility (1/GPa) = 0.02389925
#
# Stress axis : x y z
#
# Youngs Moduli (GPa) = 80.62965 80.93056 116.06171
#
# Poissons Ratio (x) = -0.07774 0.45984
# Poissons Ratio (y) = -0.07745 0.20152
# Poissons Ratio (z) = 0.31946 0.14052
#
# Static dielectric constant tensor:
#      x y z
#    x 1.911530 0.000000 0.027740 
#    y 0.000000 1.884650 0.000000 
#    z 0.027740 0.000000 1.961770 
# 
# From -- ./inp_files/180247.got.cif
#   From: 2010.05.17/outbox.cif.g08.bks.cpg/sg12_91_cif.got.tgz:180247.got - 2010.06.03 13:09:07.
