data_PCOD9205897
_publ_section_title
;
Structure prediction by ZEFSAII (Michael W. Deem and Ramdas Pophale) SiO2 
 PCOD9205897
Probable space group: C 2/M
;
_chemical_formula_sum "Si O2"
_cell_formula_units_Z 48
_cell_length_a 10.343512
_cell_length_b 7.691487
_cell_length_c 27.037079
_cell_angle_alpha 90.000000
_cell_angle_beta 90.363282
_cell_angle_gamma 90.000000
_cell_volume 2150.945335
_symmetry_space_group_name_H-M "C 2/M"
_symmetry_group_IT_number 12
_symmetry_cell_setting 'monoclinic'
loop_
_space_group_symop_operation_xyz
x,y,z
-x,y,-z
-x,-y,-z
x,-y,z
1/2+x,1/2+y,z
1/2-x,1/2+y,-z
1/2-x,1/2-y,-z
1/2+x,1/2-y,z
loop_
_atom_site_type_symbol
_atom_site_label
_atom_site_fract_x
_atom_site_fract_y
_atom_site_fract_z
Si Si1 0.683595 0.788570 0.894322
Si Si2 0.779934 0.793328 0.788001
Si Si3 0.025279 0.789258 0.729429
Si Si4 0.250259 0.292885 0.442209
Si Si5 0.433258 0.294653 0.950754
Si Si6 0.493995 0.706574 0.382376
O O1 0.731122 0.725995 0.840765
O O2 0.540805 0.727366 0.908383
O O3 0.793259 0.727339 0.933647
O O4 0.681348 0.000000 0.894518
O O5 0.666277 0.762767 0.748444
O O6 0.914558 0.723974 0.766694
O O7 0.796716 0.000000 0.794629
O O8 0.999778 0.725449 0.673614
O O9 0.018675 0.000000 0.729511
O O10 0.253809 0.500000 0.438969
O O11 0.250000 0.250000 0.500000
O O12 0.374904 0.220777 0.413764
O O13 0.123275 0.232502 0.413568
O O14 0.414537 0.500000 0.959288
O O15 0.500000 0.217777 0.000000
O O16 0.473532 0.500000 0.377372
#
# Coordination Sequence:
#
# PCOD9205897 Si02
#       6
#     8   8   8   8   8   8
#     4  10  21  36  54  80 112 143 180 225 271 324
#     4  10  21  36  55  81 111 143 181 224 270 324
#     4  10  21  38  59  82 111 146 182 225 275 324
#     4  11  23  38  58  84 113 147 187 229 275 328
#     4  10  21  37  57  81 109 143 184 228 274 326
#     4  10  22  39  58  83 113 144 183 229 274 325
#
# _framework density 22.315769
#
# number of rings (size 3 to 8) (size 9 to 14) (size 15 to 20)
#    0.000    1.833    0.000    3.500    0.000    7.667 
#    0.000    0.000    0.000    0.000    0.000    0.000 
#    0.000    0.000    0.000    0.000    0.000    0.000 
#
# Total GULP energy -134191.785990 kJ/mol
# GULP energy per Si atom -5591.324416 kJ/mol
# Density = 2.226498 g / cm^3
# Si number density = 22.315769 Si / 1000 Ang^3
#
#
#
# Elastic Constant Matrix: (Units=GPa)
#
#
# Indices 1 2 3 4 5 6 
#
# 1 79.6267 -20.8436 -26.5528 0.0000 -4.9385 0.0000
# 2 -20.8436 36.6878 -8.2184 0.0000 -3.4662 0.0000
# 3 -26.5528 -8.2184 63.4704 0.0000 -2.8022 0.0000
# 4 0.0000 0.0000 0.0000 16.3074 0.0000 -4.0657
# 5 -4.9385 -3.4662 -2.8022 0.0000 43.9417 0.0000
# 6 0.0000 0.0000 0.0000 -4.0657 0.0000 12.4696
#
#
#
# Elastic Compliance Matrix: (Units=1/GPa)
#
#
# Indices 1 2 3 4 5 6 
#
# 1 0.019914 0.014004 0.010321 0.000000 0.004001 0.000000
# 2 0.014004 0.038185 0.011036 0.000000 0.005290 0.000000
# 3 0.010321 0.011036 0.021653 0.000000 0.003411 0.000000
# 4 0.000000 0.000000 0.000000 0.066748 0.000000 0.021763
# 5 0.004001 0.005290 0.003411 0.000000 0.023842 0.000000
# 6 0.000000 0.000000 0.000000 0.021763 0.000000 0.087291
#
#
# Mechanical properties :
#
#
# Convention : Reuss Voigt Hill
#
# Bulk Modulus (GPa) = 6.64561 7.61726 7.13143
# Shear Modulus (GPa) = 21.09101 30.23705 25.66403
#
# Velocity S-wave (km/s) = 3.07761 3.68498 3.39490
# Velocity P-wave (km/s) = 3.95138 4.63963 4.30927
#
# Compressibility (1/GPa) = 0.15047521
#
# Stress axis : x y z
#
# Youngs Moduli (GPa) = 50.21533 26.18817 46.18334
#
# Poissons Ratio (x) = -0.36674 -0.47666
# Poissons Ratio (y) = -0.70321 -0.50970
# Poissons Ratio (z) = -0.51827 -0.28902
#
# Static dielectric constant tensor:
#      x y z
#    x 1.761310 0.000000 -0.029770 
#    y 0.000000 1.852090 0.000000 
#    z -0.029770 0.000000 1.826330 
# 
# From -- ./inp_files/334658.got.cif
#   From: 2010.05.17/outbox.cif.g08.bks.cpg/sg12_168_cif.got.tgz:334658.got - 2010.06.03 13:09:07.
