data_PCOD9205744
_publ_section_title
;
Structure prediction by ZEFSAII (Michael W. Deem and Ramdas Pophale) SiO2 
 PCOD9205744
Probable space group: C 2/M
;
_chemical_formula_sum "Si O2"
_cell_formula_units_Z 64
_cell_length_a 28.567062
_cell_length_b 8.770892
_cell_length_c 14.594891
_cell_angle_alpha 90.000000
_cell_angle_beta 105.140369
_cell_angle_gamma 90.000000
_cell_volume 3529.941312
_symmetry_space_group_name_H-M "C 2/M"
_symmetry_group_IT_number 12
_symmetry_cell_setting 'monoclinic'
loop_
_space_group_symop_operation_xyz
x,y,z
-x,y,-z
-x,-y,-z
x,-y,z
1/2+x,1/2+y,z
1/2-x,1/2+y,-z
1/2-x,1/2-y,-z
1/2+x,1/2-y,z
loop_
_atom_site_type_symbol
_atom_site_label
_atom_site_fract_x
_atom_site_fract_y
_atom_site_fract_z
Si Si1 0.364538 0.817188 0.110680
Si Si2 0.875001 0.182002 0.726997
Si Si3 0.303780 0.316653 0.525092
Si Si4 0.163769 0.317183 0.109955
Si Si5 0.233491 0.816601 0.893587
Si Si6 0.431673 0.682535 0.285571
Si Si7 0.614705 0.181655 0.559270
Si Si8 0.956103 0.183478 0.627379
O O1 0.319013 0.755473 0.146948
O O2 0.412462 0.749262 0.180274
O O3 0.364710 0.000000 0.113611
O O4 0.355537 0.768316 0.000372
O O5 0.833085 0.225991 0.632810
O O6 0.865938 0.254434 0.820413
O O7 0.925566 0.220907 0.703191
O O8 0.873226 0.000000 0.735817
O O9 0.302585 0.500000 0.518394
O O10 0.250000 0.250000 0.500000
O O11 0.336372 0.251752 0.458909
O O12 0.161815 0.500000 0.109385
O O13 0.220990 0.274922 0.147407
O O14 0.229761 0.000000 0.895395
O O15 0.250000 0.750000 0.000000
O O16 0.427437 0.500000 0.283170
O O17 0.398881 0.751974 0.349169
O O18 0.487676 0.721881 0.333933
O O19 0.571175 0.233381 0.469253
O O20 0.618339 0.000000 0.564064
O O21 0.951784 0.000000 0.609867
#
# Coordination Sequence:
#
# PCOD9205744 Si02
#       8
#     8   8   8   8   8   8   8   8
#     4  10  21  36  52  77 111 140 177 227 271 320
#     4   9  19  35  56  79 104 138 180 222 262 315
#     4  10  21  38  57  82 116 149 183 224 269 316
#     4   9  19  34  53  77 106 141 178 218 264 317
#     4   9  17  31  50  73 102 137 176 215 260 312
#     4  11  22  37  58  80 106 142 179 223 279 328
#     4  11  22  36  57  84 111 142 180 220 268 328
#     4   9  20  39  58  79 107 138 178 226 273 324
#
# _framework density 18.130613
#
# number of rings (size 3 to 8) (size 9 to 14) (size 15 to 20)
#    0.000    2.250    0.000    4.500    0.000    9.000 
#    0.000    3.125    0.000    3.750    0.000    0.000 
#    0.000    0.000    0.000    0.000    0.000    0.000 
#
# Total GULP energy -178553.619840 kJ/mol
# GULP energy per Si atom -5579.800620 kJ/mol
# Density = 1.808935 g / cm^3
# Si number density = 18.130613 Si / 1000 Ang^3
#
#
#
# Elastic Constant Matrix: (Units=GPa)
#
#
# Indices 1 2 3 4 5 6 
#
# 1 111.1743 42.6473 62.4920 0.0000 3.6972 0.0000
# 2 42.6473 54.5381 31.5775 0.0000 2.7486 0.0000
# 3 62.4920 31.5775 78.0895 0.0000 -12.1059 0.0000
# 4 0.0000 0.0000 0.0000 29.5865 0.0000 0.2618
# 5 3.6972 2.7486 -12.1059 0.0000 28.7627 0.0000
# 6 0.0000 0.0000 0.0000 0.2618 0.0000 29.7047
#
#
#
# Elastic Compliance Matrix: (Units=1/GPa)
#
#
# Indices 1 2 3 4 5 6 
#
# 1 0.020061 -0.006876 -0.014518 0.000000 -0.008032 0.000000
# 2 -0.006876 0.027612 -0.006349 0.000000 -0.004427 0.000000
# 3 -0.014518 -0.006349 0.029286 0.000000 0.014799 0.000000
# 4 0.000000 0.000000 0.000000 0.033802 0.000000 -0.000298
# 5 -0.008032 -0.004427 0.014799 0.000000 0.042452 0.000000
# 6 0.000000 0.000000 0.000000 -0.000298 0.000000 0.033667
#
#
# Mechanical properties :
#
#
# Convention : Reuss Voigt Hill
#
# Bulk Modulus (GPa) = 46.57403 57.47063 52.02233
# Shear Modulus (GPa) = 20.03813 24.74979 22.39396
#
# Velocity S-wave (km/s) = 3.32808 3.69871 3.51828
# Velocity P-wave (km/s) = 6.36490 7.07160 6.72754
#
# Compressibility (1/GPa) = 0.02147119
#
# Stress axis : x y z
#
# Youngs Moduli (GPa) = 49.84896 36.21617 34.14574
#
# Poissons Ratio (x) = 0.24902 0.49574
# Poissons Ratio (y) = 0.34275 0.21681
# Poissons Ratio (z) = 0.72373 0.22995
#
# Static dielectric constant tensor:
#      x y z
#    x 1.621510 0.000000 -0.008390 
#    y 0.000000 1.596300 0.000000 
#    z -0.008390 0.000000 1.584960 
# 
# From -- ./inp_files/244254.got.cif
#   From: 2010.05.17/outbox.cif.g08.bks.cpg/sg12_123_cif.got.tgz:244254.got - 2010.06.03 13:09:07.
