data_PCOD9205128
_publ_section_title
;
Structure prediction by ZEFSAII (Michael W. Deem and Ramdas Pophale) SiO2 
 PCOD9205128
Probable space group: C 2/M
;
_chemical_formula_sum "Si O2"
_cell_formula_units_Z 56
_cell_length_a 16.301804
_cell_length_b 7.605114
_cell_length_c 27.348127
_cell_angle_alpha 90.000000
_cell_angle_beta 141.257175
_cell_angle_gamma 90.000000
_cell_volume 2121.887967
_symmetry_space_group_name_H-M "C 2/M"
_symmetry_group_IT_number 12
_symmetry_cell_setting 'monoclinic'
loop_
_space_group_symop_operation_xyz
x,y,z
-x,y,-z
-x,-y,-z
x,-y,z
1/2+x,1/2+y,z
1/2-x,1/2+y,-z
1/2-x,1/2-y,-z
1/2+x,1/2-y,z
loop_
_atom_site_type_symbol
_atom_site_label
_atom_site_fract_x
_atom_site_fract_y
_atom_site_fract_z
Si Si1 0.745332 0.788344 0.165543
Si Si2 0.315719 0.705785 0.408270
Si Si3 0.470198 0.286683 0.685129
Si Si4 0.545850 0.295353 0.875549
Si Si5 0.272734 0.202440 0.733264
Si Si6 0.332421 0.706084 0.972095
Si Si7 0.104566 0.210339 0.452941
O O1 0.896801 0.737293 0.225848
O O2 0.724449 0.721006 0.210826
O O3 0.652367 0.728273 0.078632
O O4 0.737818 0.000000 0.162513
O O5 0.350259 0.500000 0.419120
O O6 0.307041 0.781338 0.349398
O O7 0.398324 0.779544 0.492715
O O8 0.165168 0.714269 0.357217
O O9 0.459212 0.500000 0.681533
O O10 0.483686 0.233353 0.633957
O O11 0.509748 0.500000 0.858666
O O12 0.427578 0.202317 0.792972
O O13 0.689369 0.281049 0.918762
O O14 0.566222 0.222298 0.940475
O O15 0.227730 0.000000 0.717257
O O16 0.327403 0.500000 0.980243
O O17 0.250000 0.250000 0.500000
O O18 0.091461 0.000000 0.450778
#
# Coordination Sequence:
#
# PCOD9205128 Si02
#       7
#     8   8   8   8   8   8   8
#     4  10  21  35  50  72 104 138 170 205 247 295
#     4   9  17  30  49  72  97 127 165 207 249 293
#     4   9  17  30  49  72  97 127 165 207 249 293
#     4  10  21  37  57  79 101 127 163 206 250 298
#     4  10  21  35  50  72 104 138 170 205 247 295
#     4  10  21  37  57  79 101 127 163 206 250 298
#     4   8  14  26  45  69  95 123 159 204 249 290
#
# _framework density 26.391590000000001
#
# number of rings (size 3 to 8) (size 9 to 14) (size 15 to 20)
#    0.000    2.571    0.000    1.714    0.000    6.286 
#    0.000    3.571    0.000    4.286    0.000    0.000 
#    0.000   13.714    0.000    0.000    0.000    0.000 
#
# Total GULP energy -156501.980051 kJ/mol
# GULP energy per Si atom -5589.356430 kJ/mol
# Density = 2.633152 g / cm^3
# Si number density = 26.391590 Si / 1000 Ang^3
#
#
#
# Elastic Constant Matrix: (Units=GPa)
#
#
# Indices 1 2 3 4 5 6 
#
# 1 99.2795 0.5995 41.5920 0.0000 -26.4374 0.0000
# 2 0.5995 72.2265 6.5799 0.0000 2.0166 0.0000
# 3 41.5920 6.5799 218.7162 0.0000 -36.3034 0.0000
# 4 0.0000 0.0000 0.0000 8.5928 0.0000 -2.4610
# 5 -26.4374 2.0166 -36.3034 0.0000 62.6523 0.0000
# 6 0.0000 0.0000 0.0000 -2.4610 0.0000 6.4331
#
#
#
# Elastic Compliance Matrix: (Units=1/GPa)
#
#
# Indices 1 2 3 4 5 6 
#
# 1 0.011816 -0.000069 -0.001568 0.000000 0.004080 0.000000
# 2 -0.000069 0.013917 -0.000536 0.000000 -0.000788 0.000000
# 3 -0.001568 -0.000536 0.005288 0.000000 0.002420 0.000000
# 4 0.000000 0.000000 0.000000 0.130696 0.000000 0.049999
# 5 0.004080 -0.000788 0.002420 0.000000 0.019110 0.000000
# 6 0.000000 0.000000 0.000000 0.049999 0.000000 0.174574
#
#
# Mechanical properties :
#
#
# Convention : Reuss Voigt Hill
#
# Bulk Modulus (GPa) = 37.48880 54.19611 45.84245
# Shear Modulus (GPa) = 13.56339 38.29901 25.93120
#
# Velocity S-wave (km/s) = 2.26946 3.81357 3.13797
# Velocity P-wave (km/s) = 4.59379 6.32227 5.52603
#
# Compressibility (1/GPa) = 0.02667463
#
# Stress axis : x y z
#
# Youngs Moduli (GPa) = 84.62933 71.85582 189.10546
#
# Poissons Ratio (x) = 0.00497 0.29647
# Poissons Ratio (y) = 0.00585 0.10142
# Poissons Ratio (z) = 0.13268 0.03854
#
# Static dielectric constant tensor:
#      x y z
#    x 2.163930 0.000000 -0.043010 
#    y 0.000000 2.038750 0.000000 
#    z -0.043010 0.000000 2.066820 
# 
# From -- ./inp_files/332856.got.cif
#   From: 2010.05.17/outbox.cif.g08.bks.cpg/sg12_167_cif.got.tgz:332856.got - 2010.06.03 13:09:07.
