data_PCOD9205994
_publ_section_title
;
Structure prediction by ZEFSAII (Michael W. Deem and Ramdas Pophale) SiO2 
 PCOD9205994
Probable space group: C 2/M
;
_chemical_formula_sum "Si O2"
_cell_formula_units_Z 42
_cell_length_a 10.399194
_cell_length_b 7.499174
_cell_length_c 27.846416
_cell_angle_alpha 90.000000
_cell_angle_beta 56.690551
_cell_angle_gamma 90.000000
_cell_volume 1814.853419
_symmetry_space_group_name_H-M "C 2/M"
_symmetry_group_IT_number 12
_symmetry_cell_setting 'monoclinic'
loop_
_space_group_symop_operation_xyz
x,y,z
-x,y,-z
-x,-y,-z
x,-y,z
1/2+x,1/2+y,z
1/2-x,1/2+y,-z
1/2-x,1/2-y,-z
1/2+x,1/2-y,z
loop_
_atom_site_type_symbol
_atom_site_label
_atom_site_fract_x
_atom_site_fract_y
_atom_site_fract_z
Si Si1 0.235857 0.784612 0.231243
Si Si2 0.826129 0.213671 0.035535
Si Si3 0.079722 0.785110 0.361797
Si Si4 0.500000 0.000000 0.500000
Si Si5 0.777718 0.205433 0.565600
Si Si6 0.417914 0.211264 0.837577
O O1 0.410501 0.717421 0.189067
O O2 0.132830 0.735644 0.206861
O O3 0.163572 0.721905 0.296217
O O4 0.241256 0.000000 0.232421
O O5 0.714014 0.284692 0.100235
O O6 0.836790 0.000000 0.040143
O O7 0.750000 0.250000 0.000000
O O8 0.000000 0.284581 0.000000
O O9 0.905199 0.720891 0.399010
O O10 0.170280 0.732662 0.391271
O O11 0.077623 0.000000 0.361276
O O12 0.628619 0.156885 0.485800
O O13 0.822173 0.000000 0.549237
O O14 0.426514 0.000000 0.845450
#
# Coordination Sequence:
#
# PCOD9205994 Si02
#       6
#     8   8   8   2   8   8
#     4  10  21  37  61  88 120 155 198 257 305 368
#     4  10  21  36  55  80 117 161 205 256 308 369
#     4  10  22  43  64  94 128 162 210 260 318 383
#     4  12  26  48  68 100 136 168 218 266 302 382
#     4  11  25  45  69  97 131 173 210 263 319 376
#     4  10  21  37  55  87 121 155 205 257 309 367
#
# _framework density 23.142365999999999
#
# number of rings (size 3 to 8) (size 9 to 14) (size 15 to 20)
#    0.000    1.714    0.952    2.571    1.333    4.952 
#    0.000    0.000    0.000    0.000    0.000    0.000 
#    0.000    0.000    0.000    0.000    0.000    0.000 
#
# Total GULP energy -117310.733583 kJ/mol
# GULP energy per Si atom -5586.225409 kJ/mol
# Density = 2.308969 g / cm^3
# Si number density = 23.142366 Si / 1000 Ang^3
#
#
#
# Elastic Constant Matrix: (Units=GPa)
#
#
# Indices 1 2 3 4 5 6 
#
# 1 90.8209 -13.3805 1.6082 0.0000 -8.3844 0.0000
# 2 -13.3805 84.7215 1.6639 0.0000 -14.4622 0.0000
# 3 1.6082 1.6639 90.9835 0.0000 -6.0917 0.0000
# 4 0.0000 0.0000 0.0000 0.4771 0.0000 3.7223
# 5 -8.3844 -14.4622 -6.0917 0.0000 46.2212 0.0000
# 6 0.0000 0.0000 0.0000 3.7223 0.0000 -2.6001
#
#
#
# Elastic Compliance Matrix: (Units=1/GPa)
#
#
# Indices 1 2 3 4 5 6 
#
# 1 0.011614 0.002317 -0.000059 0.000000 0.002824 0.000000
# 2 0.002317 0.012932 0.000022 0.000000 0.004470 0.000000
# 3 -0.000059 0.000022 0.011089 0.000000 0.001458 0.000000
# 4 0.000000 0.000000 0.000000 0.172234 0.000000 0.246573
# 5 0.002824 0.004470 0.001458 0.000000 0.023738 0.000000
# 6 0.000000 0.000000 0.000000 0.246573 0.000000 -0.031603
#
#
# Mechanical properties :
#
#
# Convention : Reuss Voigt Hill
#
# Bulk Modulus (GPa) = 24.87784 27.36767 26.12275
# Shear Modulus (GPa) = 23.94167 27.26193 25.60180
#
# Velocity S-wave (km/s) = 3.21991 3.43594 3.32968
# Velocity P-wave (km/s) = 4.95954 5.25284 5.10830
#
# Compressibility (1/GPa) = 0.04019642
#
# Stress axis : x y z
#
# Youngs Moduli (GPa) = 86.10396 77.32801 90.17752
#
# Poissons Ratio (x) = -0.17921 0.00528
# Poissons Ratio (y) = -0.19954 -0.00197
# Poissons Ratio (z) = 0.00504 -0.00169
#
# Static dielectric constant tensor:
#      x y z
#    x 1.820950 0.000000 0.008110 
#    y 0.000000 1.842940 0.000000 
#    z 0.008110 0.000000 1.894280 
# 
# From -- ./inp_files/371814.got.cif
#   From: 2010.05.17/outbox.cif.g08.bks.cpg/sg12_186_cif.got.tgz:371814.got - 2010.06.03 13:09:07.
