data_PCOD9205519
_publ_section_title
;
Structure prediction by ZEFSAII (Michael W. Deem and Ramdas Pophale) SiO2 
 PCOD9205519
Probable space group: C 2/M
;
_chemical_formula_sum "Si O2"
_cell_formula_units_Z 44
_cell_length_a 10.987444
_cell_length_b 22.091023
_cell_length_c 14.740398
_cell_angle_alpha 90.000000
_cell_angle_beta 134.661300
_cell_angle_gamma 90.000000
_cell_volume 2544.830722
_symmetry_space_group_name_H-M "C 2/M"
_symmetry_group_IT_number 12
_symmetry_cell_setting 'monoclinic'
loop_
_space_group_symop_operation_xyz
x,y,z
-x,y,-z
-x,-y,-z
x,-y,z
1/2+x,1/2+y,z
1/2-x,1/2+y,-z
1/2-x,1/2-y,-z
1/2+x,1/2-y,z
loop_
_atom_site_type_symbol
_atom_site_label
_atom_site_fract_x
_atom_site_fract_y
_atom_site_fract_z
Si Si1 0.849996 0.930590 0.997632
Si Si2 0.603714 0.373829 0.267146
Si Si3 0.395031 0.869665 0.266306
Si Si4 0.500000 0.657871 0.500000
Si Si5 0.056316 0.761706 0.363416
Si Si6 0.254733 0.429590 0.474191
O O1 0.938327 0.901970 0.131938
O O2 0.797248 0.000000 0.985755
O O3 0.698377 0.891995 0.873786
O O4 0.000000 0.931544 0.000000
O O5 0.757707 0.373272 0.275568
O O6 0.567709 0.306347 0.284165
O O7 0.662068 0.411998 0.385472
O O8 0.466268 0.801654 0.297669
O O9 0.555322 0.912663 0.372017
O O10 0.536322 0.701301 0.604331
O O11 0.654408 0.614241 0.551115
O O12 0.250000 0.750000 0.500000
O O13 0.280561 0.500000 0.467883
#
# Coordination Sequence:
#
# PCOD9205519 Si02
#       6
#     8   8   8   4   8   8
#     4   9  19  36  54  78 114 145 176 227 287 333
#     4  10  21  35  57  83 110 148 180 233 281 328
#     4  11  21  34  57  85 110 146 184 233 282 326
#     4  10  21  36  54  78 113 152 174 236 278 324
#     4  11  20  35  57  82 113 144 188 230 277 325
#     4  11  22  35  56  84 110 147 190 228 275 334
#
# _framework density 17.289953000000001
#
# number of rings (size 3 to 8) (size 9 to 14) (size 15 to 20)
#    0.000    1.636    3.636    3.000    0.000    3.636 
#    0.000    0.000    0.000    3.273    0.000   11.455 
#    0.000    0.000    0.000    0.000    0.000    0.000 
#
# Total GULP energy -122794.526927 kJ/mol
# GULP energy per Si atom -5581.569406 kJ/mol
# Density = 1.725060 g / cm^3
# Si number density = 17.289953 Si / 1000 Ang^3
#
#
#
# Elastic Constant Matrix: (Units=GPa)
#
#
# Indices 1 2 3 4 5 6 
#
# 1 61.2843 31.4450 38.8816 0.0000 -3.4544 0.0000
# 2 31.4450 151.0586 74.9953 0.0000 8.9356 0.0000
# 3 38.8816 74.9953 141.4460 0.0000 0.1255 0.0000
# 4 0.0000 0.0000 0.0000 22.9887 0.0000 -4.3081
# 5 -3.4544 8.9356 0.1255 0.0000 10.9121 0.0000
# 6 0.0000 0.0000 0.0000 -4.3081 0.0000 20.9569
#
#
#
# Elastic Compliance Matrix: (Units=1/GPa)
#
#
# Indices 1 2 3 4 5 6 
#
# 1 0.020970 -0.002753 -0.004313 0.000000 0.008942 0.000000
# 2 -0.002753 0.009969 -0.004521 0.000000 -0.008983 0.000000
# 3 -0.004313 -0.004521 0.010650 0.000000 0.002214 0.000000
# 4 0.000000 0.000000 0.000000 0.045243 0.000000 0.009301
# 5 0.008942 -0.008983 0.002214 0.000000 0.101802 0.000000
# 6 0.000000 0.000000 0.000000 0.009301 0.000000 0.049629
#
#
# Mechanical properties :
#
#
# Convention : Reuss Voigt Hill
#
# Bulk Modulus (GPa) = 54.29982 71.60362 62.95172
# Shear Modulus (GPa) = 18.68640 24.86936 21.77788
#
# Velocity S-wave (km/s) = 3.29107 3.79670 3.55289
# Velocity P-wave (km/s) = 6.77607 7.79251 7.30200
#
# Compressibility (1/GPa) = 0.01841627
#
# Stress axis : x y z
#
# Youngs Moduli (GPa) = 47.68665 100.31315 93.89444
#
# Poissons Ratio (x) = 0.27618 0.40493
# Poissons Ratio (y) = 0.13129 0.42447
# Poissons Ratio (z) = 0.20565 0.45349
#
# Static dielectric constant tensor:
#      x y z
#    x 1.592680 0.000000 0.001000 
#    y 0.000000 1.585620 0.000000 
#    z 0.001000 0.000000 1.566040 
# 
# From -- ./inp_files/207552.got.cif
#   From: 2010.05.17/outbox.cif.g08.bks.cpg/sg12_104_cif.got.tgz:207552.got - 2010.06.03 13:09:07.
