data_PCOD9205096
_publ_section_title
;
Structure prediction by ZEFSAII (Michael W. Deem and Ramdas Pophale) SiO2 
 PCOD9205096
Probable space group: C 2/M
;
_chemical_formula_sum "Si O2"
_cell_formula_units_Z 56
_cell_length_a 20.147558
_cell_length_b 7.473509
_cell_length_c 25.345477
_cell_angle_alpha 90.000000
_cell_angle_beta 45.383668
_cell_angle_gamma 90.000000
_cell_volume 2716.571958
_symmetry_space_group_name_H-M "C 2/M"
_symmetry_group_IT_number 12
_symmetry_cell_setting 'monoclinic'
loop_
_space_group_symop_operation_xyz
x,y,z
-x,y,-z
-x,-y,-z
x,-y,z
1/2+x,1/2+y,z
1/2-x,1/2+y,-z
1/2-x,1/2-y,-z
1/2+x,1/2-y,z
loop_
_atom_site_type_symbol
_atom_site_label
_atom_site_fract_x
_atom_site_fract_y
_atom_site_fract_z
Si Si1 0.232746 0.713049 0.448195
Si Si2 0.931393 0.780593 0.702477
Si Si3 0.943743 0.285080 0.156330
Si Si4 0.717531 0.780649 0.833126
Si Si5 0.915403 0.705974 0.004586
Si Si6 0.523360 0.705318 0.543185
Si Si7 0.576994 0.713540 0.709146
O O1 0.224842 0.500000 0.444895
O O2 0.250000 0.750000 0.500000
O O3 0.134176 0.794308 0.487795
O O4 0.321742 0.781331 0.365856
O O5 0.823990 0.725090 0.767035
O O6 0.976816 0.718844 0.622029
O O7 0.996015 0.720637 0.715125
O O8 0.932576 0.000000 0.702159
O O9 0.945732 0.500000 0.148898
O O10 0.851356 0.224249 0.176046
O O11 0.940798 0.246589 0.219574
O O12 0.035919 0.214856 0.074445
O O13 0.715936 0.000000 0.834725
O O14 0.670836 0.717856 0.914215
O O15 0.890364 0.500000 0.006373
O O16 0.000000 0.703420 0.000000
O O17 0.500000 0.790536 0.500000
O O18 0.488746 0.500000 0.560231
O O19 0.580357 0.500000 0.699651
#
# Coordination Sequence:
#
# PCOD9205096 Si02
#       7
#     8   8   8   8   8   8   8
#     4  11  22  38  57  75 102 139 177 214 258 310
#     4   9  17  32  48  69 101 134 166 200 247 300
#     4   9  17  29  51  79 100 122 165 213 246 289
#     4   8  14  26  50  76  97 127 166 208 250 288
#     4   7  11  23  43  72 102 123 154 206 253 285
#     4  10  21  36  56  80 106 133 171 219 257 305
#     4  10  21  35  49  69 103 136 163 200 248 306
#
# _framework density 20.614215999999999
#
# number of rings (size 3 to 8) (size 9 to 14) (size 15 to 20)
#    0.000    2.857    1.429    2.143    2.000    1.429 
#    0.000    0.714    0.000    4.714    0.000    0.000 
#    0.000    0.000    0.000    0.000    0.000    0.000 
#
# Total GULP energy -156150.318108 kJ/mol
# GULP energy per Si atom -5576.797075 kJ/mol
# Density = 2.056730 g / cm^3
# Si number density = 20.614216 Si / 1000 Ang^3
#
#
#
# Elastic Constant Matrix: (Units=GPa)
#
#
# Indices 1 2 3 4 5 6 
#
# 1 130.3285 -8.1876 127.9792 0.0034 -2.3685 0.0043
# 2 -8.1876 57.7606 4.3153 0.0025 -5.7230 0.0132
# 3 127.9792 4.3153 227.6777 -0.0012 12.7130 0.0019
# 4 0.0034 0.0025 -0.0012 12.8944 0.0005 3.9911
# 5 -2.3685 -5.7230 12.7130 0.0005 32.6382 0.0003
# 6 0.0043 0.0132 0.0019 3.9911 0.0003 14.9505
#
#
#
# Elastic Compliance Matrix: (Units=1/GPa)
#
#
# Indices 1 2 3 4 5 6 
#
# 1 0.018925 0.004145 -0.011074 -0.000005 0.006414 -0.000007
# 2 0.004145 0.018587 -0.002945 0.000000 0.004707 -0.000017
# 3 -0.011074 -0.002945 0.010986 0.000004 -0.005599 0.000004
# 4 -0.000005 0.000000 0.000004 0.084539 -0.000003 -0.022568
# 5 0.006414 0.004707 -0.005599 -0.000003 0.034111 -0.000005
# 6 -0.000007 -0.000017 0.000004 -0.022568 -0.000005 0.072912
#
#
# Mechanical properties :
#
#
# Convention : Reuss Voigt Hill
#
# Bulk Modulus (GPa) = 34.78418 73.77561 54.27990
# Shear Modulus (GPa) = 18.56044 31.54061 25.05052
#
# Velocity S-wave (km/s) = 3.00387 3.91582 3.48976
# Velocity P-wave (km/s) = 5.37973 7.50408 6.52889
#
# Compressibility (1/GPa) = 0.02874870
#
# Stress axis : x y z
#
# Youngs Moduli (GPa) = 52.84110 53.80128 91.02801
#
# Poissons Ratio (x) = -0.22303 1.00808
# Poissons Ratio (y) = -0.21905 0.26811
# Poissons Ratio (z) = 0.58518 0.15846
#
# Static dielectric constant tensor:
#      x y z
#    x 1.699530 -0.000010 -0.005050 
#    y -0.000010 1.828280 0.000000 
#    z -0.005050 0.000000 1.748860 
# 
# From -- ./inp_files/342251.got.cif
#   From: 2010.05.17/outbox.cif.g08.bks.cpg/sg12_172_cif.got.tgz:342251.got - 2010.06.03 13:09:07.
