data_PCOD9205738
_publ_section_title
;
Structure prediction by ZEFSAII (Michael W. Deem and Ramdas Pophale) SiO2 
 PCOD9205738
Probable space group: C 2/M
;
_chemical_formula_sum "Si O2"
_cell_formula_units_Z 48
_cell_length_a 22.558513
_cell_length_b 13.882623
_cell_length_c 12.635041
_cell_angle_alpha 90.000000
_cell_angle_beta 34.694663
_cell_angle_gamma 90.000000
_cell_volume 2252.297675
_symmetry_space_group_name_H-M "C 2/M"
_symmetry_group_IT_number 12
_symmetry_cell_setting 'monoclinic'
loop_
_space_group_symop_operation_xyz
x,y,z
-x,y,-z
-x,-y,-z
x,-y,z
1/2+x,1/2+y,z
1/2-x,1/2+y,-z
1/2-x,1/2-y,-z
1/2+x,1/2-y,z
loop_
_atom_site_type_symbol
_atom_site_label
_atom_site_fract_x
_atom_site_fract_y
_atom_site_fract_z
Si Si1 0.073845 0.727812 0.296836
Si Si2 0.516225 0.111384 0.762528
Si Si3 0.721358 0.694125 0.913448
Si Si4 0.286512 0.110750 0.181280
Si Si5 0.273729 0.883070 0.437993
Si Si6 0.617741 0.383485 0.850753
O O1 0.166368 0.659852 0.209555
O O2 0.000000 0.762626 0.500000
O O3 0.005363 0.669403 0.312435
O O4 0.134947 0.804119 0.132548
O O5 0.614005 0.148186 0.684623
O O6 0.535729 0.000000 0.705794
O O7 0.412161 0.113447 0.986603
O O8 0.747436 0.806247 0.848178
O O9 0.670515 0.651041 0.882561
O O10 0.253034 0.142076 0.347329
O O11 0.254451 0.000000 0.206693
O O12 0.188724 0.853182 0.647823
O O13 0.275884 0.000000 0.433139
O O14 0.616249 0.500000 0.856803
O O15 0.500000 0.350422 0.000000
#
# Coordination Sequence:
#
# PCOD9205738 Si02
#       6
#     8   8   8   8   8   8
#     4  10  21  36  52  75 106 137 178 224 259 305
#     4   9  17  30  52  81 109 136 166 209 267 319
#     4  10  22  37  55  78 104 140 179 216 262 308
#     4   9  18  33  54  81 111 136 164 210 265 319
#     4   9  17  31  53  81 109 136 169 210 261 318
#     4  10  22  38  54  76 107 142 180 217 253 303
#
# _framework density 21.31157
#
# number of rings (size 3 to 8) (size 9 to 14) (size 15 to 20)
#    0.000    2.500    0.000    1.500    0.000    7.667 
#    0.000    2.500    0.000    1.000    0.000    0.000 
#    0.000    0.000    0.000    0.000    0.000    0.000 
#
# Total GULP energy -133934.366930 kJ/mol
# GULP energy per Si atom -5580.598622 kJ/mol
# Density = 2.126306 g / cm^3
# Si number density = 21.311570 Si / 1000 Ang^3
#
#
#
# Elastic Constant Matrix: (Units=GPa)
#
#
# Indices 1 2 3 4 5 6 
#
# 1 68.8008 7.6546 17.7635 0.0000 21.9212 0.0000
# 2 7.6546 53.3682 -2.3987 0.0000 8.9213 0.0000
# 3 17.7635 -2.3987 103.9829 0.0000 42.6031 0.0000
# 4 0.0000 0.0000 0.0000 10.3960 0.0000 2.5231
# 5 21.9212 8.9213 42.6031 0.0000 31.8933 0.0000
# 6 0.0000 0.0000 0.0000 2.5231 0.0000 14.6550
#
#
#
# Elastic Compliance Matrix: (Units=1/GPa)
#
#
# Indices 1 2 3 4 5 6 
#
# 1 0.019673 0.000837 0.005069 0.000000 -0.020527 0.000000
# 2 0.000837 0.021532 0.006753 0.000000 -0.015619 0.000000
# 3 0.005069 0.006753 0.024537 0.000000 -0.038149 0.000000
# 4 0.000000 0.000000 0.000000 0.100385 0.000000 -0.017283
# 5 -0.020527 -0.015619 -0.038149 0.000000 0.100792 0.000000
# 6 0.000000 0.000000 0.000000 -0.017283 0.000000 0.071211
#
#
# Mechanical properties :
#
#
# Convention : Reuss Voigt Hill
#
# Bulk Modulus (GPa) = 10.98170 30.24344 20.61257
# Shear Modulus (GPa) = 14.57019 24.93105 19.75062
#
# Velocity S-wave (km/s) = 2.61755 3.42400 3.04757
# Velocity P-wave (km/s) = 3.78148 5.46384 4.69857
#
# Compressibility (1/GPa) = 0.09106060
#
# Stress axis : x y z
#
# Youngs Moduli (GPa) = 50.83094 46.44217 40.75449
#
# Poissons Ratio (x) = -0.03889 -0.20657
# Poissons Ratio (y) = -0.04257 -0.27522
# Poissons Ratio (z) = -0.25764 -0.31363
#
# Static dielectric constant tensor:
#      x y z
#    x 1.766490 0.000000 -0.014820 
#    y 0.000000 1.811980 0.000000 
#    z -0.014820 0.000000 1.776730 
# 
# From -- ./inp_files/143196.got.cif
#   From: 2010.05.17/outbox.cif.g08.bks.cpg/sg12_72_cif.got.tgz:143196.got - 2010.06.03 13:09:07.
