data_PCOD9205291
_publ_section_title
;
Structure prediction by ZEFSAII (Michael W. Deem and Ramdas Pophale) SiO2 
 PCOD9205291
Probable space group: C 2/M
;
_chemical_formula_sum "Si O2"
_cell_formula_units_Z 40
_cell_length_a 31.254803
_cell_length_b 13.292717
_cell_length_c 5.008397
_cell_angle_alpha 90.000000
_cell_angle_beta 66.055607
_cell_angle_gamma 90.000000
_cell_volume 1901.721209
_symmetry_space_group_name_H-M "C 2/M"
_symmetry_group_IT_number 12
_symmetry_cell_setting 'monoclinic'
loop_
_space_group_symop_operation_xyz
x,y,z
-x,y,-z
-x,-y,-z
x,-y,z
1/2+x,1/2+y,z
1/2-x,1/2+y,-z
1/2-x,1/2-y,-z
1/2+x,1/2-y,z
loop_
_atom_site_type_symbol
_atom_site_label
_atom_site_fract_x
_atom_site_fract_y
_atom_site_fract_z
Si Si1 0.277925 0.617861 0.482713
Si Si2 0.924279 0.384749 0.142127
Si Si3 0.950577 0.266723 0.596174
Si Si4 0.714847 0.118252 0.147107
Si Si5 0.853406 0.261335 0.045479
O O1 0.288367 0.500000 0.419894
O O2 0.258384 0.631451 0.829987
O O3 0.321874 0.682886 0.281854
O O4 0.235356 0.641879 0.386070
O O5 0.926915 0.500000 0.213782
O O6 0.941614 0.311086 0.328335
O O7 0.871944 0.351533 0.188905
O O8 0.953090 0.359772 0.800778
O O9 0.000000 0.211448 0.500000
O O10 0.902361 0.214711 0.813520
O O11 0.674577 0.187415 0.126127
O O12 0.701220 0.000000 0.172125
#
# Coordination Sequence:
#
# PCOD9205291 Si02
#       5
#     8   8   8   8   8
#     4  10  22  37  56  79 109 143 183 224 265 315
#     4  10  22  35  53  79 109 144 178 214 263 318
#     4  10  23  37  54  80 110 145 178 218 263 320
#     4  10  21  35  53  81 111 143 178 218 264 321
#     4  10  23  35  58  79 111 144 182 218 271 310
#
# _framework density 21.033577999999999
#
# number of rings (size 3 to 8) (size 9 to 14) (size 15 to 20)
#    1.200    0.800    0.000    3.000    5.600    2.400 
#    0.000    0.000    0.000    0.600    0.000    1.400 
#    0.000    0.000    0.000    0.000    0.000    0.000 
#
# Total GULP energy -111700.527626 kJ/mol
# GULP energy per Si atom -5585.026381 kJ/mol
# Density = 2.098570 g / cm^3
# Si number density = 21.033578 Si / 1000 Ang^3
#
#
#
# Elastic Constant Matrix: (Units=GPa)
#
#
# Indices 1 2 3 4 5 6 
#
# 1 85.1276 8.1301 37.2216 0.0000 -12.9510 0.0000
# 2 8.1301 41.3223 13.0137 0.0000 -14.0069 0.0000
# 3 37.2216 13.0137 70.2998 0.0000 -2.2201 0.0000
# 4 0.0000 0.0000 0.0000 18.2843 0.0000 2.9069
# 5 -12.9510 -14.0069 -2.2201 0.0000 55.0001 0.0000
# 6 0.0000 0.0000 0.0000 2.9069 0.0000 13.0275
#
#
#
# Elastic Compliance Matrix: (Units=1/GPa)
#
#
# Indices 1 2 3 4 5 6 
#
# 1 0.015919 0.000750 -0.008454 0.000000 0.003598 0.000000
# 2 0.000750 0.028166 -0.005386 0.000000 0.007132 0.000000
# 3 -0.008454 -0.005386 0.019617 0.000000 -0.002570 0.000000
# 4 0.000000 0.000000 0.000000 0.056703 0.000000 -0.012653
# 5 0.003598 0.007132 -0.002570 0.000000 0.020742 0.000000
# 6 0.000000 0.000000 0.000000 -0.012653 0.000000 0.079584
#
#
# Mechanical properties :
#
#
# Convention : Reuss Voigt Hill
#
# Bulk Modulus (GPa) = 26.65060 34.83116 30.74088
# Shear Modulus (GPa) = 19.27385 26.48801 22.88093
#
# Velocity S-wave (km/s) = 3.03039 3.55254 3.30180
# Velocity P-wave (km/s) = 4.99423 5.78127 5.40211
#
# Compressibility (1/GPa) = 0.03752261
#
# Stress axis : x y z
#
# Youngs Moduli (GPa) = 62.81663 35.50343 50.97669
#
# Poissons Ratio (x) = -0.02663 0.43096
# Poissons Ratio (y) = -0.04712 0.27456
# Poissons Ratio (z) = 0.53105 0.19122
#
# Static dielectric constant tensor:
#      x y z
#    x 1.792370 0.000000 -0.043280 
#    y 0.000000 1.737480 0.000000 
#    z -0.043280 0.000000 1.827310 
# 
# From -- ./inp_files/24126.got.cif
#   From: 2010.05.17/outbox.cif.g08.bks.cpg/sg12_13_cif.got.tgz:24126.got - 2010.06.03 13:09:07.
