data_PCOD9205065
_publ_section_title
;
Structure prediction by ZEFSAII (Michael W. Deem and Ramdas Pophale) SiO2 
 PCOD9205065
Probable space group: C 2/M
;
_chemical_formula_sum "Si O2"
_cell_formula_units_Z 48
_cell_length_a 21.650148
_cell_length_b 24.401549
_cell_length_c 5.381135
_cell_angle_alpha 90.000000
_cell_angle_beta 117.554467
_cell_angle_gamma 90.000000
_cell_volume 2520.379335
_symmetry_space_group_name_H-M "C 2/M"
_symmetry_group_IT_number 12
_symmetry_cell_setting 'monoclinic'
loop_
_space_group_symop_operation_xyz
x,y,z
-x,y,-z
-x,-y,-z
x,-y,z
1/2+x,1/2+y,z
1/2-x,1/2+y,-z
1/2-x,1/2-y,-z
1/2+x,1/2-y,z
loop_
_atom_site_type_symbol
_atom_site_label
_atom_site_fract_x
_atom_site_fract_y
_atom_site_fract_z
Si Si1 0.957522 0.135664 0.179876
Si Si2 0.176161 0.937628 0.166061
Si Si3 0.925536 0.247302 0.961892
Si Si4 0.684095 0.176062 0.973208
Si Si5 0.190770 0.762289 0.590971
Si Si6 0.733850 0.062657 0.172170
O O1 0.000000 0.115844 0.500000
O O2 0.888068 0.101690 0.002352
O O3 0.938498 0.199643 0.184950
O O4 0.000000 0.133410 0.000000
O O5 0.222290 0.923292 0.495778
O O6 0.151523 0.000000 0.164196
O O7 0.220522 0.937474 0.994644
O O8 0.873478 0.293227 0.966462
O O9 0.879817 0.217388 0.663089
O O10 0.000000 0.266690 0.000000
O O11 0.765810 0.194610 0.163581
O O12 0.680488 0.111984 0.019691
O O13 0.671961 0.204775 0.686175
O O14 0.250000 0.750000 0.500000
O O15 0.707425 0.000000 0.156648
#
# Coordination Sequence:
#
# PCOD9205065 Si02
#       6
#     8   8   8   8   8   8
#     4  11  24  37  54  81 117 159 197 239 281 346
#     4  10  22  39  59  83 114 153 197 248 293 341
#     4  10  23  36  54  81 121 153 194 237 293 354
#     4  10  21  34  61  83 114 156 190 243 299 350
#     4   9  20  35  54  89 111 150 193 241 288 358
#     4  10  22  38  60  88 114 144 194 250 299 346
#
# _framework density 19.044751000000002
#
# number of rings (size 3 to 8) (size 9 to 14) (size 15 to 20)
#    0.000    2.000    0.000    2.000   16.333    0.667 
#    0.000    0.000    0.000    0.500    0.000    1.167 
#    0.000    0.000    0.000    0.000    0.000    0.000 
#
# Total GULP energy -133719.923520 kJ/mol
# GULP energy per Si atom -5571.663480 kJ/mol
# Density = 1.900140 g / cm^3
# Si number density = 19.044751 Si / 1000 Ang^3
#
#
#
# Elastic Constant Matrix: (Units=GPa)
#
#
# Indices 1 2 3 4 5 6 
#
# 1 89.7078 35.6231 24.3977 0.0000 6.2616 0.0000
# 2 35.6231 99.7478 9.4434 0.0000 3.4611 0.0000
# 3 24.3977 9.4434 85.6267 0.0000 -10.5908 0.0000
# 4 0.0000 0.0000 0.0000 26.5037 0.0000 5.2486
# 5 6.2616 3.4611 -10.5908 0.0000 26.7937 0.0000
# 6 0.0000 0.0000 0.0000 5.2486 0.0000 11.8227
#
#
#
# Elastic Compliance Matrix: (Units=1/GPa)
#
#
# Indices 1 2 3 4 5 6 
#
# 1 0.014409 -0.004601 -0.004144 0.000000 -0.004411 0.000000
# 2 -0.004601 0.011687 -0.000033 0.000000 -0.000448 0.000000
# 3 -0.004144 -0.000033 0.013651 0.000000 0.006368 0.000000
# 4 0.000000 0.000000 0.000000 0.041367 0.000000 -0.018365
# 5 -0.004411 -0.000448 0.006368 0.000000 0.040928 0.000000
# 6 0.000000 0.000000 0.000000 -0.018365 0.000000 0.092736
#
#
# Mechanical properties :
#
#
# Convention : Reuss Voigt Hill
#
# Bulk Modulus (GPa) = 45.06310 46.00121 45.53215
# Shear Modulus (GPa) = 20.85673 26.73189 23.79431
#
# Velocity S-wave (km/s) = 3.31288 3.75058 3.53851
# Velocity P-wave (km/s) = 6.19247 6.55458 6.37609
#
# Compressibility (1/GPa) = 0.02219111
#
# Stress axis : x y z
#
# Youngs Moduli (GPa) = 69.40075 85.56515 73.25654
#
# Poissons Ratio (x) = 0.39365 0.30356
# Poissons Ratio (y) = 0.31928 0.00245
# Poissons Ratio (z) = 0.28758 0.00286
#
# Static dielectric constant tensor:
#      x y z
#    x 1.656240 0.000000 -0.036410 
#    y 0.000000 1.720650 0.000000 
#    z -0.036410 0.000000 1.765280 
# 
# From -- ./inp_files/16678.got.cif
#   From: 2010.05.17/outbox.cif.g08.bks.cpg/sg12_9_cif.got.tgz:16678.got - 2010.06.03 13:09:07.
