data_PCOD9205268
_publ_section_title
;
Structure prediction by ZEFSAII (Michael W. Deem and Ramdas Pophale) SiO2 
 PCOD9205268
Probable space group: C 2/M
;
_chemical_formula_sum "Si O2"
_cell_formula_units_Z 56
_cell_length_a 16.672439
_cell_length_b 8.946668
_cell_length_c 18.258739
_cell_angle_alpha 90.000000
_cell_angle_beta 67.501404
_cell_angle_gamma 90.000000
_cell_volume 2516.233808
_symmetry_space_group_name_H-M "C 2/M"
_symmetry_group_IT_number 12
_symmetry_cell_setting 'monoclinic'
loop_
_space_group_symop_operation_xyz
x,y,z
-x,y,-z
-x,-y,-z
x,-y,z
1/2+x,1/2+y,z
1/2-x,1/2+y,-z
1/2-x,1/2-y,-z
1/2+x,1/2-y,z
loop_
_atom_site_type_symbol
_atom_site_label
_atom_site_fract_x
_atom_site_fract_y
_atom_site_fract_z
Si Si1 0.258052 0.822781 0.184838
Si Si2 0.901302 0.821435 0.048281
Si Si3 0.398854 0.680054 0.662215
Si Si4 0.158278 0.826926 0.619772
Si Si5 0.016734 0.677711 0.748681
Si Si6 0.365601 0.825863 0.525258
Si Si7 0.380233 0.678304 0.894316
O O1 0.198546 0.781111 0.274830
O O2 0.194571 0.787886 0.137973
O O3 0.271717 0.000000 0.183044
O O4 0.348273 0.746522 0.133690
O O5 0.857048 0.783979 0.985581
O O6 0.902156 0.000000 0.057256
O O7 0.000000 0.771817 0.000000
O O8 0.407076 0.500000 0.659295
O O9 0.462553 0.751267 0.699800
O O10 0.411590 0.748483 0.577826
O O11 0.262200 0.818436 0.578905
O O12 0.124351 0.760014 0.554609
O O13 0.114023 0.734395 0.700287
O O14 0.133140 0.000000 0.635433
O O15 0.013198 0.500000 0.748100
O O16 0.967103 0.739658 0.836839
O O17 0.389676 0.000000 0.509214
O O18 0.396544 0.500000 0.885268
#
# Coordination Sequence:
#
# PCOD9205268 Si02
#       7
#     8   8   8   8   8   8   8
#     4   9  19  35  55  77 103 139 179 219 264 320
#     4  10  21  35  53  79 109 140 176 220 268 320
#     4  10  21  38  58  82 113 145 179 223 279 331
#     4  10  21  38  58  80 112 150 182 221 276 327
#     4  11  22  36  57  84 110 140 186 233 270 320
#     4  10  21  37  58  84 111 143 186 228 267 322
#     4   9  19  37  56  76 106 142 179 219 272 329
#
# _framework density 22.255485
#
# number of rings (size 3 to 8) (size 9 to 14) (size 15 to 20)
#    0.000    2.143    0.000    3.857    0.000    7.143 
#    0.000    7.143    0.000    0.000    0.000    0.000 
#    0.000    0.000    0.000    0.000    0.000    0.000 
#
# Total GULP energy -156576.215849 kJ/mol
# GULP energy per Si atom -5592.007709 kJ/mol
# Density = 2.220483 g / cm^3
# Si number density = 22.255485 Si / 1000 Ang^3
#
#
#
# Elastic Constant Matrix: (Units=GPa)
#
#
# Indices 1 2 3 4 5 6 
#
# 1 43.1774 17.2116 13.8415 0.0000 -6.6780 0.0000
# 2 17.2116 31.0252 27.0969 0.0000 -1.8632 0.0000
# 3 13.8415 27.0969 99.1177 0.0000 -13.5491 0.0000
# 4 0.0000 0.0000 0.0000 30.7159 0.0000 -10.2815
# 5 -6.6780 -1.8632 -13.5491 0.0000 41.2083 0.0000
# 6 0.0000 0.0000 0.0000 -10.2815 0.0000 21.3112
#
#
#
# Elastic Compliance Matrix: (Units=1/GPa)
#
#
# Indices 1 2 3 4 5 6 
#
# 1 0.030541 -0.017718 0.001200 0.000000 0.004543 0.000000
# 2 -0.017718 0.052775 -0.012585 0.000000 -0.004623 0.000000
# 3 0.001200 -0.012585 0.013937 0.000000 0.004208 0.000000
# 4 0.000000 0.000000 0.000000 0.038827 0.000000 0.018732
# 5 0.004543 -0.004623 0.004208 0.000000 0.026178 0.000000
# 6 0.000000 0.000000 0.000000 0.018732 0.000000 0.055961
#
#
# Mechanical properties :
#
#
# Convention : Reuss Voigt Hill
#
# Bulk Modulus (GPa) = 25.61063 32.18004 28.89533
# Shear Modulus (GPa) = 17.27463 26.32512 21.79987
#
# Velocity S-wave (km/s) = 2.78905 3.44300 3.13314
# Velocity P-wave (km/s) = 4.68020 5.50422 5.10885
#
# Compressibility (1/GPa) = 0.03904629
#
# Stress axis : x y z
#
# Youngs Moduli (GPa) = 32.74277 18.94819 71.74989
#
# Poissons Ratio (x) = 0.33573 -0.08608
# Poissons Ratio (y) = 0.58014 0.90301
# Poissons Ratio (z) = -0.03928 0.23847
#
# Static dielectric constant tensor:
#      x y z
#    x 1.893070 0.000000 -0.021340 
#    y 0.000000 1.736770 0.000000 
#    z -0.021340 0.000000 1.789200 
# 
# From -- ./inp_files/313733.got.cif
#   From: 2010.05.17/outbox.cif.g08.bks.cpg/sg12_157_cif.got.tgz:313733.got - 2010.06.03 13:09:07.
