data_PCOD9205477
_publ_section_title
;
Structure prediction by ZEFSAII (Michael W. Deem and Ramdas Pophale) SiO2 
 PCOD9205477
Probable space group: C 2/M
;
_chemical_formula_sum "Si O2"
_cell_formula_units_Z 44
_cell_length_a 27.476610
_cell_length_b 10.123846
_cell_length_c 7.581312
_cell_angle_alpha 90.000000
_cell_angle_beta 76.034234
_cell_angle_gamma 90.000000
_cell_volume 2046.547286
_symmetry_space_group_name_H-M "C 2/M"
_symmetry_group_IT_number 12
_symmetry_cell_setting 'monoclinic'
loop_
_space_group_symop_operation_xyz
x,y,z
-x,y,-z
-x,-y,-z
x,-y,z
1/2+x,1/2+y,z
1/2-x,1/2+y,-z
1/2-x,1/2-y,-z
1/2+x,1/2-y,z
loop_
_atom_site_type_symbol
_atom_site_label
_atom_site_fract_x
_atom_site_fract_y
_atom_site_fract_z
Si Si1 0.726984 0.651497 0.297438
Si Si2 0.675759 0.846845 0.613779
Si Si3 0.000000 0.256226 0.000000
Si Si4 0.044933 0.652413 0.324827
Si Si5 0.368576 0.353042 0.826503
Si Si6 0.600052 0.643563 0.795699
O O1 0.719001 0.500000 0.374356
O O2 0.705895 0.767001 0.439409
O O3 0.787185 0.663024 0.247529
O O4 0.690431 0.662999 0.162740
O O5 0.624804 0.767532 0.680345
O O6 0.668084 0.000000 0.580870
O O7 0.958488 0.166069 0.128988
O O8 0.025064 0.335894 0.139397
O O9 0.058062 0.500000 0.349873
O O10 0.093780 0.746124 0.290404
O O11 0.000000 0.689654 0.500000
O O12 0.382926 0.500000 0.748820
O O13 0.377784 0.353029 0.026440
O O14 0.611443 0.500000 0.706678
#
# Coordination Sequence:
#
# PCOD9205477 Si02
#       6
#     8   8   4   8   8   8
#     4   9  19  38  58  81 114 150 190 235 278 338
#     4  10  21  35  56  85 115 149 189 231 287 343
#     4  10  22  40  60  82 118 158 196 244 286 346
#     4  10  22  38  57  85 117 152 193 241 296 349
#     4   9  20  38  58  81 110 147 191 236 280 340
#     4  10  21  38  59  83 112 148 192 237 287 342
#
# _framework density 21.499625000000002
#
# number of rings (size 3 to 8) (size 9 to 14) (size 15 to 20)
#    0.000    2.364    0.000    1.091    2.545    6.909 
#    0.000    0.000    0.000    0.000    0.000    0.000 
#    0.000    0.000    0.000    0.000    0.000    0.000 
#
# Total GULP energy -122649.951800 kJ/mol
# GULP energy per Si atom -5574.997809 kJ/mol
# Density = 2.145069 g / cm^3
# Si number density = 21.499625 Si / 1000 Ang^3
#
#
#
# Elastic Constant Matrix: (Units=GPa)
#
#
# Indices 1 2 3 4 5 6 
#
# 1 63.5053 25.9162 -6.0446 0.0000 5.7756 0.0000
# 2 25.9162 144.2099 19.3507 0.0000 -12.7304 0.0000
# 3 -6.0446 19.3507 33.0446 0.0000 2.6586 0.0000
# 4 0.0000 0.0000 0.0000 29.2387 0.0000 34.8716
# 5 5.7756 -12.7304 2.6586 0.0000 30.7410 0.0000
# 6 0.0000 0.0000 0.0000 34.8716 0.0000 187.8101
#
#
#
# Elastic Compliance Matrix: (Units=1/GPa)
#
#
# Indices 1 2 3 4 5 6 
#
# 1 0.018938 -0.004860 0.006806 0.000000 -0.006159 0.000000
# 2 -0.004860 0.009172 -0.006686 0.000000 0.005290 0.000000
# 3 0.006806 -0.006686 0.035998 0.000000 -0.007161 0.000000
# 4 0.000000 0.000000 0.000000 0.043929 0.000000 -0.008157
# 5 -0.006159 0.005290 -0.007161 0.000000 0.036497 0.000000
# 6 0.000000 0.000000 0.000000 -0.008157 0.000000 0.006839
#
#
# Mechanical properties :
#
#
# Convention : Reuss Voigt Hill
#
# Bulk Modulus (GPa) = 18.30556 35.46717 26.88637
# Shear Modulus (GPa) = 27.92314 62.99379 45.45847
#
# Velocity S-wave (km/s) = 3.60776 5.41882 4.60323
# Velocity P-wave (km/s) = 5.08797 7.46216 6.38636
#
# Compressibility (1/GPa) = 0.05462821
#
# Stress axis : x y z
#
# Youngs Moduli (GPa) = 52.80328 109.02906 27.77915
#
# Poissons Ratio (x) = 0.52993 -0.18906
# Poissons Ratio (y) = 0.25665 0.18572
# Poissons Ratio (z) = -0.35938 0.72893
#
# Static dielectric constant tensor:
#      x y z
#    x 1.819540 0.000000 0.029950 
#    y 0.000000 1.772320 0.000000 
#    z 0.029950 0.000000 1.794330 
# 
# From -- ./inp_files/108038.got.cif
#   From: 2010.05.17/outbox.cif.g08.bks.cpg/sg12_55_cif.got.tgz:108038.got - 2010.06.03 13:09:07.
