data_PCOD9205998
_publ_section_title
;
Structure prediction by ZEFSAII (Michael W. Deem and Ramdas Pophale) SiO2 
 PCOD9205998
Probable space group: C 2/M
;
_chemical_formula_sum "Si O2"
_cell_formula_units_Z 48
_cell_length_a 9.811837
_cell_length_b 7.403189
_cell_length_c 25.687344
_cell_angle_alpha 90.000000
_cell_angle_beta 99.949426
_cell_angle_gamma 90.000000
_cell_volume 1837.838063
_symmetry_space_group_name_H-M "C 2/M"
_symmetry_group_IT_number 12
_symmetry_cell_setting 'monoclinic'
loop_
_space_group_symop_operation_xyz
x,y,z
-x,y,-z
-x,-y,-z
x,-y,z
1/2+x,1/2+y,z
1/2-x,1/2+y,-z
1/2-x,1/2-y,-z
1/2+x,1/2-y,z
loop_
_atom_site_type_symbol
_atom_site_label
_atom_site_fract_x
_atom_site_fract_y
_atom_site_fract_z
Si Si1 0.778215 0.290949 0.213600
Si Si2 0.441060 0.719420 0.722765
Si Si3 0.463896 0.219029 0.555915
Si Si4 0.110010 0.790917 0.047205
Si Si5 0.887785 0.280626 0.111173
Si Si6 0.240622 0.708880 0.619725
O O1 0.749210 0.500000 0.200668
O O2 0.640381 0.215860 0.230763
O O3 0.842184 0.213490 0.164956
O O4 0.652093 0.214044 0.331325
O O5 0.443483 0.500000 0.722369
O O6 0.588208 0.714034 0.601597
O O7 0.598580 0.781012 0.735944
O O8 0.500000 0.277096 0.500000
O O9 0.319240 0.282141 0.569636
O O10 0.536598 0.000000 0.443679
O O11 0.033038 0.782322 0.097932
O O12 0.263985 0.718216 0.064472
O O13 0.126512 0.000000 0.033879
O O14 0.000000 0.706235 0.000000
O O15 0.891459 0.500000 0.111824
O O16 0.222083 0.500000 0.632911
#
# Coordination Sequence:
#
# PCOD9205998 Si02
#       6
#     8   8   8   8   8   8
#     4  10  21  37  56  79 109 143 179 221 267 316
#     4  10  21  37  56  79 109 143 179 221 267 316
#     4  10  21  37  57  81 109 142 179 219 266 319
#     4  10  21  37  57  81 109 142 179 219 266 319
#     4  10  21  36  55  81 110 141 179 221 266 316
#     4  10  21  36  55  81 110 141 179 221 266 316
#
# _framework density 26.117643000000001
#
# number of rings (size 3 to 8) (size 9 to 14) (size 15 to 20)
#    0.000    2.000    0.000    3.000    0.000    6.667 
#    0.000    0.000    0.000    0.000    0.000    0.000 
#    0.000    0.000    0.000    0.000    0.000    0.000 
#
# Total GULP energy -134355.150034 kJ/mol
# GULP energy per Si atom -5598.131251 kJ/mol
# Density = 2.605820 g / cm^3
# Si number density = 26.117643 Si / 1000 Ang^3
#
#
#
# Elastic Constant Matrix: (Units=GPa)
#
#
# Indices 1 2 3 4 5 6 
#
# 1 120.9277 -6.5971 -7.3624 0.0000 -8.1320 0.0000
# 2 -6.5971 103.9805 -0.5048 0.0000 3.6904 0.0000
# 3 -7.3624 -0.5048 75.8903 0.0000 -5.7254 0.0000
# 4 0.0000 0.0000 0.0000 14.9050 0.0000 -1.4165
# 5 -8.1320 3.6904 -5.7254 0.0000 50.5521 0.0000
# 6 0.0000 0.0000 0.0000 -1.4165 0.0000 7.8151
#
#
#
# Elastic Compliance Matrix: (Units=1/GPa)
#
#
# Indices 1 2 3 4 5 6 
#
# 1 0.008449 0.000490 0.000931 0.000000 0.001429 0.000000
# 2 0.000490 0.009671 0.000065 0.000000 -0.000620 0.000000
# 3 0.000931 0.000065 0.013393 0.000000 0.001662 0.000000
# 4 0.000000 0.000000 0.000000 0.068268 0.000000 0.012374
# 5 0.001429 -0.000620 0.001662 0.000000 0.020245 0.000000
# 6 0.000000 0.000000 0.000000 0.012374 0.000000 0.130201
#
#
# Mechanical properties :
#
#
# Convention : Reuss Voigt Hill
#
# Bulk Modulus (GPa) = 28.99915 30.20775 29.60345
# Shear Modulus (GPa) = 19.32377 35.67196 27.49786
#
# Velocity S-wave (km/s) = 2.72301 3.69971 3.24828
# Velocity P-wave (km/s) = 4.58408 5.46275 5.04259
#
# Compressibility (1/GPa) = 0.03448377
#
# Stress axis : x y z
#
# Youngs Moduli (GPa) = 118.35896 103.40639 74.66583
#
# Poissons Ratio (x) = -0.05065 -0.06949
# Poissons Ratio (y) = -0.05798 -0.00486
# Poissons Ratio (z) = -0.11016 -0.00673
#
# Static dielectric constant tensor:
#      x y z
#    x 1.961370 0.000000 0.053480 
#    y 0.000000 1.980280 0.000000 
#    z 0.053480 0.000000 2.122900 
# 
# From -- ./inp_files/334773.got.cif
#   From: 2010.05.17/outbox.cif.g08.bks.cpg/sg12_168_cif.got.tgz:334773.got - 2010.06.03 13:09:07.
