data_PCOD9205565
_publ_section_title
;
Structure prediction by ZEFSAII (Michael W. Deem and Ramdas Pophale) SiO2 
 PCOD9205565
Probable space group: C 2/M
;
_chemical_formula_sum "Si O2"
_cell_formula_units_Z 34
_cell_length_a 13.587643
_cell_length_b 7.788800
_cell_length_c 23.332040
_cell_angle_alpha 90.000000
_cell_angle_beta 38.287243
_cell_angle_gamma 90.000000
_cell_volume 1529.966088
_symmetry_space_group_name_H-M "C 2/M"
_symmetry_group_IT_number 12
_symmetry_cell_setting 'monoclinic'
loop_
_space_group_symop_operation_xyz
x,y,z
-x,y,-z
-x,-y,-z
x,-y,z
1/2+x,1/2+y,z
1/2-x,1/2+y,-z
1/2-x,1/2-y,-z
1/2+x,1/2-y,z
loop_
_atom_site_type_symbol
_atom_site_label
_atom_site_fract_x
_atom_site_fract_y
_atom_site_fract_z
Si Si1 0.614456 0.802381 0.641399
Si Si2 0.946660 0.303401 0.202062
Si Si3 0.249643 0.000000 0.918211
Si Si4 0.500000 0.000000 0.500000
Si Si5 0.405721 0.500000 0.133953
Si Si6 0.481303 0.686097 0.431962
O O1 0.597769 0.741624 0.713750
O O2 0.519645 0.702531 0.635981
O O3 0.796519 0.801753 0.536534
O O4 0.562173 0.000000 0.664510
O O5 0.883930 0.500000 0.222158
O O6 0.137237 0.338626 0.117278
O O7 0.891802 0.169332 0.179770
O O8 0.208148 0.000000 0.869494
O O9 0.085183 0.000000 0.026866
O O10 0.552132 0.849675 0.430205
O O11 0.544917 0.500000 0.419815
#
# Coordination Sequence:
#
# PCOD9205565 Si02
#       6
#     8   8   4   2   4   8
#     4   9  18  39  58  80 113 154 196 243 293 355
#     4   9  21  39  61  90 124 161 200 252 306 362
#     4   9  22  41  62  96 125 153 212 248 300 388
#     4  12  22  36  52  90 108 154 200 252 288 334
#     4  11  20  41  66  92 125 161 198 256 310 366
#     4  10  21  35  58  80 114 155 197 236 295 359
#
# _framework density 22.222715000000001
#
# number of rings (size 3 to 8) (size 9 to 14) (size 15 to 20)
#    0.706    1.647    1.176    1.059    3.294    0.000 
#   10.588    1.176    0.000    0.000    0.000    0.000 
#    0.000    0.000    0.000    0.000    0.000    0.000 
#
# Total GULP energy -94650.109129 kJ/mol
# GULP energy per Si atom -5567.653478 kJ/mol
# Density = 2.217213 g / cm^3
# Si number density = 22.222715 Si / 1000 Ang^3
#
#
#
# Elastic Constant Matrix: (Units=GPa)
#
#
# Indices 1 2 3 4 5 6 
#
# 1 57.2557 53.9784 21.6896 0.0000 12.8311 0.0001
# 2 53.9784 155.7969 26.6056 0.0000 37.8511 0.0001
# 3 21.6896 26.6056 100.5634 0.0000 21.9543 0.0000
# 4 0.0000 0.0000 0.0000 19.8719 0.0000 22.3988
# 5 12.8311 37.8511 21.9543 0.0000 56.3687 0.0000
# 6 0.0001 0.0001 0.0000 22.3988 0.0000 4.7064
#
#
#
# Elastic Compliance Matrix: (Units=1/GPa)
#
#
# Indices 1 2 3 4 5 6 
#
# 1 0.027162 -0.009109 -0.003753 0.000000 0.001395 0.000000
# 2 -0.009109 0.010816 0.000258 0.000000 -0.005290 0.000000
# 3 -0.003753 0.000258 0.011516 0.000000 -0.003804 0.000000
# 4 0.000000 0.000000 0.000000 -0.011530 0.000000 0.054875
# 5 0.001395 -0.005290 -0.003804 0.000000 0.022456 0.000000
# 6 0.000000 0.000000 0.000000 0.054875 0.000000 -0.048684
#
#
# Mechanical properties :
#
#
# Convention : Reuss Voigt Hill
#
# Bulk Modulus (GPa) = 41.17708 57.57370 49.37539
# Shear Modulus (GPa) = 111.01748 30.27889 70.64818
#
# Velocity S-wave (km/s) = 7.07568 3.69524 5.64447
# Velocity P-wave (km/s) = 9.23705 6.64607 8.04653
#
# Compressibility (1/GPa) = 0.02428535
#
# Stress axis : x y z
#
# Youngs Moduli (GPa) = 36.81625 92.45934 86.83829
#
# Poissons Ratio (x) = 0.84219 0.32591
# Poissons Ratio (y) = 0.33535 -0.02240
# Poissons Ratio (z) = 0.13817 -0.02385
#
# Static dielectric constant tensor:
#      x y z
#    x 1.861670 0.000000 -0.033830 
#    y 0.000000 1.822840 0.000000 
#    z -0.033830 0.000000 1.842310 
# 
# From -- ./inp_files/266917.got.cif
#   From: 2010.05.17/outbox.cif.g08.bks.cpg/sg12_134_cif.got.tgz:266917.got - 2010.06.03 13:09:07.
