data_PCOD9205935
_publ_section_title
;
Structure prediction by ZEFSAII (Michael W. Deem and Ramdas Pophale) SiO2 
 PCOD9205935
Probable space group: C 2/M
;
_chemical_formula_sum "Si O2"
_cell_formula_units_Z 40
_cell_length_a 15.618781
_cell_length_b 18.437928
_cell_length_c 8.220038
_cell_angle_alpha 90.000000
_cell_angle_beta 129.482667
_cell_angle_gamma 90.000000
_cell_volume 1827.037243
_symmetry_space_group_name_H-M "C 2/M"
_symmetry_group_IT_number 12
_symmetry_cell_setting 'monoclinic'
loop_
_space_group_symop_operation_xyz
x,y,z
-x,y,-z
-x,-y,-z
x,-y,z
1/2+x,1/2+y,z
1/2-x,1/2+y,-z
1/2-x,1/2-y,-z
1/2+x,1/2-y,z
loop_
_atom_site_type_symbol
_atom_site_label
_atom_site_fract_x
_atom_site_fract_y
_atom_site_fract_z
Si Si1 0.374484 0.878928 0.794862
Si Si2 0.333129 0.273584 0.850526
Si Si3 0.399229 0.263911 0.270589
Si Si4 0.813568 0.920274 0.645405
Si Si5 0.660644 0.420054 0.694418
O O1 0.345784 0.793375 0.743672
O O2 0.317216 0.913518 0.565664
O O3 0.293703 0.908561 0.841173
O O4 0.500000 0.892097 0.000000
O O5 0.212133 0.270109 0.788541
O O6 0.349402 0.352010 0.794250
O O7 0.412873 0.251911 0.096229
O O8 0.500000 0.237978 0.500000
O O9 0.386615 0.350879 0.273379
O O10 0.870593 0.915880 0.535466
O O11 0.834269 0.000000 0.740701
O O12 0.633369 0.500000 0.723564
#
# Coordination Sequence:
#
# PCOD9205935 Si02
#       5
#     8   8   8   8   8
#     4   9  18  31  59  84 104 140 179 227 273 319
#     4  10  21  36  54  84 107 141 183 227 265 320
#     4  10  22  35  55  77 109 147 184 220 266 320
#     4   9  19  35  56  78 110 140 174 226 275 318
#     4   8  18  34  51  77 111 140 174 222 265 317
#
# _framework density 21.893369
#
# number of rings (size 3 to 8) (size 9 to 14) (size 15 to 20)
#    1.200    1.600    0.000    0.600    2.800    2.800 
#    0.000    0.000    0.000    3.600    0.000    0.000 
#    0.000    0.000    0.000    0.000    0.000    0.000 
#
# Total GULP energy -111476.215399 kJ/mol
# GULP energy per Si atom -5573.810770 kJ/mol
# Density = 2.184354 g / cm^3
# Si number density = 21.893369 Si / 1000 Ang^3
#
#
#
# Elastic Constant Matrix: (Units=GPa)
#
#
# Indices 1 2 3 4 5 6 
#
# 1 27.9688 5.1050 0.8627 0.0000 11.3660 0.0000
# 2 5.1050 127.8177 -11.5950 0.0000 -22.1043 0.0000
# 3 0.8627 -11.5950 61.7000 0.0000 7.7753 0.0000
# 4 0.0000 0.0000 0.0000 -20.1930 0.0000 4.7150
# 5 11.3660 -22.1043 7.7753 0.0000 24.2899 0.0000
# 6 0.0000 0.0000 0.0000 4.7150 0.0000 7.2116
#
#
#
# Elastic Compliance Matrix: (Units=1/GPa)
#
#
# Indices 1 2 3 4 5 6 
#
# 1 0.049121 -0.006971 0.001771 0.000000 -0.029896 0.000000
# 2 -0.006971 0.010304 0.000460 0.000000 0.012492 0.000000
# 3 0.001771 0.000460 0.017007 0.000000 -0.005854 0.000000
# 4 0.000000 0.000000 0.000000 -0.042963 0.000000 0.028090
# 5 -0.029896 0.012492 -0.005854 0.000000 0.068401 0.000000
# 6 0.000000 0.000000 0.000000 0.028090 0.000000 0.120299
#
#
# Mechanical properties :
#
#
# Convention : Reuss Voigt Hill
#
# Bulk Modulus (GPa) = 14.93659 22.91467 18.92563
# Shear Modulus (GPa) = 19.68751 17.13596 18.41174
#
# Velocity S-wave (km/s) = 3.00199 2.80071 2.90310
# Velocity P-wave (km/s) = 4.34203 4.57689 4.46100
#
# Compressibility (1/GPa) = 0.06694969
#
# Stress axis : x y z
#
# Youngs Moduli (GPa) = 20.35777 97.04878 58.79998
#
# Poissons Ratio (x) = 0.67657 -0.10411
# Poissons Ratio (y) = 0.14192 -0.02703
# Poissons Ratio (z) = -0.03604 -0.04461
#
# Static dielectric constant tensor:
#      x y z
#    x 1.822300 0.000000 0.036430 
#    y 0.000000 1.787560 0.000000 
#    z 0.036430 0.000000 1.871730 
# 
# From -- ./inp_files/77760.got.cif
#   From: 2010.05.17/outbox.cif.g08.bks.cpg/sg12_39_cif.got.tgz:77760.got - 2010.06.03 13:09:07.
