data_PCOD9205142
_publ_section_title
;
Structure prediction by ZEFSAII (Michael W. Deem and Ramdas Pophale) SiO2 
 PCOD9205142
Probable space group: C 2/M
;
_chemical_formula_sum "Si O2"
_cell_formula_units_Z 56
_cell_length_a 15.814430
_cell_length_b 9.753653
_cell_length_c 18.623032
_cell_angle_alpha 90.000000
_cell_angle_beta 118.839510
_cell_angle_gamma 90.000000
_cell_volume 2516.300944
_symmetry_space_group_name_H-M "C 2/M"
_symmetry_group_IT_number 12
_symmetry_cell_setting 'monoclinic'
loop_
_space_group_symop_operation_xyz
x,y,z
-x,y,-z
-x,-y,-z
x,-y,z
1/2+x,1/2+y,z
1/2-x,1/2+y,-z
1/2-x,1/2-y,-z
1/2+x,1/2-y,z
loop_
_atom_site_type_symbol
_atom_site_label
_atom_site_fract_x
_atom_site_fract_y
_atom_site_fract_z
Si Si1 0.156275 0.656894 0.529833
Si Si2 0.964934 0.656470 0.369757
Si Si3 0.658325 0.346003 0.113163
Si Si4 0.031263 0.840169 0.205260
Si Si5 0.154811 0.160175 0.953346
Si Si6 0.811558 0.156287 0.241435
Si Si7 0.811479 0.342302 0.659938
O O1 0.190787 0.500000 0.534258
O O2 0.074759 0.688938 0.437158
O O3 0.242743 0.762839 0.576187
O O4 0.096133 0.657299 0.580469
O O5 0.959911 0.500000 0.340435
O O6 0.910231 0.763662 0.297446
O O7 0.701052 0.500000 0.133151
O O8 0.587830 0.335881 0.151939
O O9 0.742374 0.236057 0.158921
O O10 0.610515 0.330791 0.015806
O O11 0.091819 0.741248 0.281639
O O12 0.923135 0.798850 0.138378
O O13 0.033991 0.000000 0.229911
O O14 0.178091 0.000000 0.950994
O O15 0.250000 0.250000 0.000000
O O16 0.751125 0.156162 0.291641
O O17 0.828399 0.000000 0.227613
O O18 0.829407 0.500000 0.647819
#
# Coordination Sequence:
#
# PCOD9205142 Si02
#       7
#     8   8   8   8   8   8   8
#     4   8  13  21  33  50  76 113 152 184 217 261
#     4   8  13  21  33  50  76 113 152 184 217 261
#     4   9  17  31  50  68  88 118 156 191 222 265
#     4   9  17  31  50  68  88 118 156 191 222 265
#     4  10  21  35  51  71  93 118 148 186 232 276
#     4   9  16  24  36  58  86 114 146 185 228 268
#     4   9  16  24  36  58  86 114 146 185 228 268
#
# _framework density 22.254888999999999
#
# number of rings (size 3 to 8) (size 9 to 14) (size 15 to 20)
#    0.000    3.143    0.000    2.143    0.000    6.857 
#    0.000    2.857    0.000    4.286    0.000    0.000 
#    0.000    1.143    0.000    3.714    0.000    7.429 
#
# Total GULP energy -156518.233213 kJ/mol
# GULP energy per Si atom -5589.936900 kJ/mol
# Density = 2.220424 g / cm^3
# Si number density = 22.254889 Si / 1000 Ang^3
#
#
#
# Elastic Constant Matrix: (Units=GPa)
#
#
# Indices 1 2 3 4 5 6 
#
# 1 89.2506 43.6612 36.0061 0.0000 15.5040 0.0000
# 2 43.6612 160.9572 124.5392 0.0000 43.9130 0.0000
# 3 36.0061 124.5392 178.0059 0.0000 30.9364 0.0000
# 4 0.0000 0.0000 0.0000 30.0428 0.0000 10.3703
# 5 15.5040 43.9130 30.9364 0.0000 51.1988 0.0000
# 6 0.0000 0.0000 0.0000 10.3703 0.0000 15.3161
#
#
#
# Elastic Compliance Matrix: (Units=1/GPa)
#
#
# Indices 1 2 3 4 5 6 
#
# 1 0.012987 -0.002881 -0.000399 0.000000 -0.001220 0.000000
# 2 -0.002881 0.016511 -0.009676 0.000000 -0.007443 0.000000
# 3 -0.000399 -0.009676 0.012296 0.000000 0.000990 0.000000
# 4 0.000000 0.000000 0.000000 0.043438 0.000000 -0.029411
# 5 -0.001220 -0.007443 0.000990 0.000000 0.025687 0.000000
# 6 0.000000 0.000000 0.000000 -0.029411 0.000000 0.085204
#
#
# Mechanical properties :
#
#
# Convention : Reuss Voigt Hill
#
# Bulk Modulus (GPa) = 62.96233 92.95853 77.96043
# Shear Modulus (GPa) = 21.99452 34.24535 28.11993
#
# Velocity S-wave (km/s) = 3.14714 3.92698 3.55849
# Velocity P-wave (km/s) = 6.44661 7.90077 7.21044
#
# Compressibility (1/GPa) = 0.01588251
#
# Stress axis : x y z
#
# Youngs Moduli (GPa) = 77.00114 60.56424 81.32778
#
# Poissons Ratio (x) = 0.17449 0.03246
# Poissons Ratio (y) = 0.22184 0.78690
# Poissons Ratio (z) = 0.03074 0.58600
#
# Static dielectric constant tensor:
#      x y z
#    x 1.891380 0.000000 -0.049520 
#    y 0.000000 1.750900 0.000000 
#    z -0.049520 0.000000 1.771870 
# 
# From -- ./inp_files/301400.got.cif
#   From: 2010.05.17/outbox.cif.g08.bks.cpg/sg12_151_cif.got.tgz:301400.got - 2010.06.03 13:09:07.
