data_PCOD9205320
_publ_section_title
;
Structure prediction by ZEFSAII (Michael W. Deem and Ramdas Pophale) SiO2 
 PCOD9205320
Probable space group: C 2/M
;
_chemical_formula_sum "Si O2"
_cell_formula_units_Z 64
_cell_length_a 15.457648
_cell_length_b 16.465169
_cell_length_c 30.395385
_cell_angle_alpha 90.000000
_cell_angle_beta 159.213002
_cell_angle_gamma 90.000000
_cell_volume 2745.471310
_symmetry_space_group_name_H-M "C 2/M"
_symmetry_group_IT_number 12
_symmetry_cell_setting 'monoclinic'
loop_
_space_group_symop_operation_xyz
x,y,z
-x,y,-z
-x,-y,-z
x,-y,z
1/2+x,1/2+y,z
1/2-x,1/2+y,-z
1/2-x,1/2-y,-z
1/2+x,1/2-y,z
loop_
_atom_site_type_symbol
_atom_site_label
_atom_site_fract_x
_atom_site_fract_y
_atom_site_fract_z
Si Si1 0.671486 0.232976 0.543451
Si Si2 0.398748 0.591349 0.501993
Si Si3 0.483997 0.406497 0.662535
Si Si4 0.773519 0.127653 0.128055
Si Si5 0.963855 0.597065 0.832073
Si Si6 0.401370 0.804059 0.190383
Si Si7 0.071531 0.095305 0.892155
Si Si8 0.314147 0.092302 0.225031
O O1 0.500000 0.196354 0.500000
O O2 0.553056 0.312547 0.463967
O O3 0.887747 0.270286 0.676615
O O4 0.777007 0.162884 0.562332
O O5 0.500000 0.589222 0.500000
O O6 0.478677 0.500000 0.556741
O O7 0.106175 0.589539 0.369145
O O8 0.397292 0.500000 0.617183
O O9 0.600700 0.394884 0.766444
O O10 0.704083 0.392504 0.732751
O O11 0.927944 0.100469 0.159729
O O12 0.759404 0.223442 0.111061
O O13 0.500000 0.094264 0.000000
O O14 0.993560 0.500000 0.838321
O O15 0.995462 0.645208 0.801477
O O16 0.178570 0.626968 0.967025
O O17 0.248441 0.860364 0.149882
O O18 0.833671 0.128200 0.804031
O O19 0.078998 0.000000 0.904369
O O20 0.241069 0.000000 0.183072
#
# Coordination Sequence:
#
# PCOD9205320 Si02
#       8
#     8   8   8   8   8   8   8   8
#     4   9  19  37  58  84 113 146 191 241 295 347
#     4   8  14  28  53  80 108 144 180 221 280 341
#     4  10  21  38  60  83 111 153 201 244 286 337
#     4  11  22  35  54  80 113 150 192 238 283 338
#     4  10  21  37  56  80 113 154 198 235 279 343
#     4  10  22  34  53  83 114 146 183 228 291 348
#     4  10  21  35  54  78 108 152 194 232 281 329
#     4   9  18  33  52  77 110 145 185 231 278 337
#
# _framework density 23.311116999999999
#
# number of rings (size 3 to 8) (size 9 to 14) (size 15 to 20)
#    0.000    2.375    1.250    0.750    1.750    4.750 
#    0.000    2.500    0.000    4.500    0.000   29.750 
#    0.000    0.000    0.000    0.000    0.000    0.000 
#
# Total GULP energy -178399.519713 kJ/mol
# GULP energy per Si atom -5574.984991 kJ/mol
# Density = 2.325806 g / cm^3
# Si number density = 23.311117 Si / 1000 Ang^3
#
#
#
# Elastic Constant Matrix: (Units=GPa)
#
#
# Indices 1 2 3 4 5 6 
#
# 1 157.9321 53.4772 35.0903 -0.0117 30.7121 -0.0242
# 2 53.4772 111.9586 14.2173 -0.0559 24.8295 -0.0759
# 3 35.0903 14.2173 48.8388 -0.0226 19.0094 -0.1153
# 4 -0.0117 -0.0559 -0.0226 -16.5626 -0.0133 -39.2164
# 5 30.7121 24.8295 19.0094 -0.0133 41.5613 0.0038
# 6 -0.0242 -0.0759 -0.1153 -39.2164 0.0038 -17.9349
#
#
#
# Elastic Compliance Matrix: (Units=1/GPa)
#
#
# Indices 1 2 3 4 5 6 
#
# 1 0.008886 -0.003083 -0.004438 0.000013 -0.002694 0.000000
# 2 -0.003083 0.011387 0.000805 -0.000020 -0.004893 -0.000005
# 3 -0.004438 0.000805 0.027179 -0.000092 -0.009632 0.000027
# 4 0.000013 -0.000020 -0.000092 0.014454 0.000052 -0.031604
# 5 -0.002694 -0.004893 -0.009632 0.000052 0.033381 -0.000020
# 6 0.000000 -0.000005 0.000027 -0.031604 -0.000020 0.013348
#
#
# Mechanical properties :
#
#
# Convention : Reuss Voigt Hill
#
# Bulk Modulus (GPa) = 29.39509 58.25545 43.82527
# Shear Modulus (GPa) = 37.47904 15.80907 26.64406
#
# Velocity S-wave (km/s) = 4.01406 2.60701 3.38446
# Velocity P-wave (km/s) = 5.84130 5.84009 5.84070
#
# Compressibility (1/GPa) = 0.03401928
#
# Stress axis : x y z
#
# Youngs Moduli (GPa) = 112.53772 87.81587 36.79267
#
# Poissons Ratio (x) = 0.27076 0.16329
# Poissons Ratio (y) = 0.34698 -0.02961
# Poissons Ratio (z) = 0.49946 -0.07066
#
# Static dielectric constant tensor:
#      x y z
#    x 1.911710 0.000010 0.030480 
#    y 0.000010 1.934770 -0.000010 
#    z 0.030480 -0.000010 1.956740 
# 
# From -- ./inp_files/374494.got.cif
#   From: 2010.05.17/outbox.cif.g08.bks.cpg/sg12_188_cif.got.tgz:374494.got - 2010.06.03 13:09:07.
