data_PCOD9205589
_publ_section_title
;
Structure prediction by ZEFSAII (Michael W. Deem and Ramdas Pophale) SiO2 
 PCOD9205589
Probable space group: C 2/M
;
_chemical_formula_sum "Si O2"
_cell_formula_units_Z 56
_cell_length_a 30.665425
_cell_length_b 11.985226
_cell_length_c 8.544711
_cell_angle_alpha 90.000000
_cell_angle_beta 59.830528
_cell_angle_gamma 90.000000
_cell_volume 2715.057553
_symmetry_space_group_name_H-M "C 2/M"
_symmetry_group_IT_number 12
_symmetry_cell_setting 'monoclinic'
loop_
_space_group_symop_operation_xyz
x,y,z
-x,y,-z
-x,-y,-z
x,-y,z
1/2+x,1/2+y,z
1/2-x,1/2+y,-z
1/2-x,1/2-y,-z
1/2+x,1/2-y,z
loop_
_atom_site_type_symbol
_atom_site_label
_atom_site_fract_x
_atom_site_fract_y
_atom_site_fract_z
Si Si1 0.880311 0.285451 0.725448
Si Si2 0.066014 0.631031 0.689083
Si Si3 0.686537 0.630674 0.344431
Si Si4 0.354776 0.272252 0.267653
Si Si5 0.802117 0.627857 0.099371
Si Si6 0.587820 0.500000 0.856356
Si Si7 0.019100 0.755378 0.301333
Si Si8 0.508070 0.500000 0.742425
O O1 0.905984 0.344530 0.528760
O O2 0.855080 0.173934 0.701998
O O3 0.921300 0.257500 0.786180
O O4 0.835922 0.355829 0.884460
O O5 0.062046 0.500000 0.721707
O O6 0.100161 0.691761 0.756202
O O7 0.010985 0.688597 0.776463
O O8 0.679954 0.500000 0.389400
O O9 0.678478 0.698999 0.519012
O O10 0.742905 0.647996 0.179006
O O11 0.322690 0.212851 0.192217
O O12 0.379912 0.389493 0.174835
O O13 0.807533 0.500000 0.145663
O O14 0.562349 0.500000 0.729454
O O15 0.538663 0.500000 0.053165
O O16 0.999603 0.882514 0.329209
O O17 0.000000 0.706191 0.500000
#
# Coordination Sequence:
#
# PCOD9205589 Si02
#       8
#     8   8   8   8   8   4   8   4
#     4  10  22  38  61  87 121 155 195 245 300 348
#     4  10  21  38  60  87 117 158 201 235 285 359
#     4  10  22  40  63  87 118 155 200 251 298 351
#     4  11  21  40  62  88 117 158 198 245 295 353
#     4  11  23  40  61  88 121 156 197 249 300 351
#     4  11  22  36  62  80 124 154 188 244 297 349
#     4  10  21  35  58  87 116 154 192 240 287 354
#     4  11  21  36  54  88 121 149 190 236 298 348
#
# _framework density 20.625713000000001
#
# number of rings (size 3 to 8) (size 9 to 14) (size 15 to 20)
#    0.000    1.571    2.143    2.786    1.000    3.143 
#    1.286    0.000    3.143    2.571    0.000    0.000 
#    0.000    0.000    0.000    0.000    0.000    0.000 
#
# Total GULP energy -156399.890914 kJ/mol
# GULP energy per Si atom -5585.710390 kJ/mol
# Density = 2.057877 g / cm^3
# Si number density = 20.625713 Si / 1000 Ang^3
#
#
#
# Elastic Constant Matrix: (Units=GPa)
#
#
# Indices 1 2 3 4 5 6 
#
# 1 68.1115 37.0301 17.2409 0.0000 -14.2527 0.0000
# 2 37.0301 121.4695 -4.2673 0.0000 3.1217 0.0000
# 3 17.2409 -4.2673 44.1264 0.0000 -7.7403 0.0000
# 4 0.0000 0.0000 0.0000 29.4791 0.0000 -13.6512
# 5 -14.2527 3.1217 -7.7403 0.0000 19.1113 0.0000
# 6 0.0000 0.0000 0.0000 -13.6512 0.0000 52.7397
#
#
#
# Elastic Compliance Matrix: (Units=1/GPa)
#
#
# Indices 1 2 3 4 5 6 
#
# 1 0.024456 -0.008142 -0.007439 0.000000 0.016556 0.000000
# 2 -0.008142 0.010993 0.003083 0.000000 -0.006619 0.000000
# 3 -0.007439 0.003083 0.026702 0.000000 0.004764 0.000000
# 4 0.000000 0.000000 0.000000 0.038542 0.000000 0.009976
# 5 0.016556 -0.006619 0.004764 0.000000 0.067682 0.000000
# 6 0.000000 0.000000 0.000000 0.009976 0.000000 0.021543
#
#
# Mechanical properties :
#
#
# Convention : Reuss Voigt Hill
#
# Bulk Modulus (GPa) = 26.91336 37.07943 31.99639
# Shear Modulus (GPa) = 21.99742 32.51292 27.25517
#
# Velocity S-wave (km/s) = 3.26928 3.97461 3.63907
# Velocity P-wave (km/s) = 5.22759 6.25137 5.76226
#
# Compressibility (1/GPa) = 0.03715626
#
# Stress axis : x y z
#
# Youngs Moduli (GPa) = 40.89020 90.96621 37.44988
#
# Poissons Ratio (x) = 0.74066 0.27858
# Poissons Ratio (y) = 0.33293 -0.11547
# Poissons Ratio (z) = 0.30417 -0.28048
#
# Static dielectric constant tensor:
#      x y z
#    x 1.732970 0.000000 -0.012150 
#    y 0.000000 1.697960 0.000000 
#    z -0.012150 0.000000 1.782310 
# 
# From -- ./inp_files/110393.got.cif
#   From: 2010.05.17/outbox.cif.g08.bks.cpg/sg12_56_cif.got.tgz:110393.got - 2010.06.03 13:09:07.
