data_PCOD9205221
_publ_section_title
;
Structure prediction by ZEFSAII (Michael W. Deem and Ramdas Pophale) SiO2 
 PCOD9205221
Probable space group: C 2/M
;
_chemical_formula_sum "Si O2"
_cell_formula_units_Z 56
_cell_length_a 23.462030
_cell_length_b 14.208800
_cell_length_c 15.433680
_cell_angle_alpha 90.000000
_cell_angle_beta 32.552009
_cell_angle_gamma 90.000000
_cell_volume 2768.389459
_symmetry_space_group_name_H-M "C 2/M"
_symmetry_group_IT_number 12
_symmetry_cell_setting 'monoclinic'
loop_
_space_group_symop_operation_xyz
x,y,z
-x,y,-z
-x,-y,-z
x,-y,z
1/2+x,1/2+y,z
1/2-x,1/2+y,-z
1/2-x,1/2-y,-z
1/2+x,1/2-y,z
loop_
_atom_site_type_symbol
_atom_site_label
_atom_site_fract_x
_atom_site_fract_y
_atom_site_fract_z
Si Si1 0.406696 0.389505 0.876261
Si Si2 0.336526 0.206581 0.241067
Si Si3 0.456277 0.887512 0.250550
Si Si4 0.664611 0.202611 0.949929
Si Si5 0.854241 0.895952 0.439020
Si Si6 0.109169 0.889374 0.311796
Si Si7 0.254424 0.897471 0.608388
O O1 0.388849 0.500000 0.922759
O O2 0.529568 0.363497 0.734893
O O3 0.397466 0.381891 0.784099
O O4 0.340626 0.311117 0.012374
O O5 0.404893 0.168905 0.234353
O O6 0.374056 0.180047 0.098293
O O7 0.218199 0.166661 0.407878
O O8 0.318530 0.318009 0.258477
O O9 0.376888 0.872200 0.433585
O O10 0.454241 0.000000 0.234175
O O11 0.574786 0.853076 0.119047
O O12 0.784137 0.165921 0.801492
O O13 0.789923 0.903445 0.432630
O O14 0.865985 0.000000 0.463568
O O15 0.000000 0.859009 0.500000
O O16 0.123169 0.000000 0.315507
O O17 0.245978 0.000000 0.660638
#
# Coordination Sequence:
#
# PCOD9205221 Si02
#       7
#     8   8   8   8   8   8   8
#     4  10  21  38  57  78 107 138 172 216 262 311
#     4  11  20  31  51  78 110 145 178 211 252 310
#     4  10  21  35  52  78 111 143 176 218 265 306
#     4  12  23  34  54  81 110 141 169 210 268 320
#     4   9  17  32  55  77 101 139 181 219 257 297
#     4  10  22  40  61  82 101 128 173 224 268 312
#     4   9  18  33  52  75 106 144 184 218 247 297
#
# _framework density 20.228366999999999
#
# number of rings (size 3 to 8) (size 9 to 14) (size 15 to 20)
#    0.000    1.857    0.000    6.857    0.000    4.571 
#    0.000    0.000    0.000    4.714    0.000    0.000 
#    0.000    0.000    0.000    0.000    0.000    0.000 
#
# Total GULP energy -156085.569624 kJ/mol
# GULP energy per Si atom -5574.484629 kJ/mol
# Density = 2.018233 g / cm^3
# Si number density = 20.228367 Si / 1000 Ang^3
#
#
#
# Elastic Constant Matrix: (Units=GPa)
#
#
# Indices 1 2 3 4 5 6 
#
# 1 26.2538 7.2692 20.1515 0.0000 -12.5427 0.0000
# 2 7.2692 81.9580 40.7288 0.0000 -20.0863 0.0000
# 3 20.1515 40.7288 71.3529 0.0000 -37.4868 0.0000
# 4 0.0000 0.0000 0.0000 8.7502 0.0000 -11.1266
# 5 -12.5427 -20.0863 -37.4868 0.0000 28.9169 0.0000
# 6 0.0000 0.0000 0.0000 -11.1266 0.0000 17.0242
#
#
#
# Elastic Compliance Matrix: (Units=1/GPa)
#
#
# Indices 1 2 3 4 5 6 
#
# 1 0.050300 0.003400 -0.010797 0.000000 0.010183 0.000000
# 2 0.003400 0.017317 -0.011760 0.000000 -0.001742 0.000000
# 3 -0.010797 -0.011760 0.053381 0.000000 0.056350 0.000000
# 4 0.000000 0.000000 0.000000 0.676554 0.000000 0.442180
# 5 0.010183 -0.001742 0.056350 0.000000 0.110839 0.000000
# 6 0.000000 0.000000 0.000000 0.442180 0.000000 0.347739
#
#
# Mechanical properties :
#
#
# Convention : Reuss Voigt Hill
#
# Bulk Modulus (GPa) = 12.09408 35.09593 23.59501
# Shear Modulus (GPa) = 3.78213 18.36594 11.07404
#
# Velocity S-wave (km/s) = 1.36886 3.01646 2.34231
# Velocity P-wave (km/s) = 2.91378 5.43319 4.35945
#
# Compressibility (1/GPa) = 0.08268508
#
# Stress axis : x y z
#
# Youngs Moduli (GPa) = 19.88058 57.74670 18.73317
#
# Poissons Ratio (x) = -0.19631 0.20225
# Poissons Ratio (y) = -0.06759 0.22030
# Poissons Ratio (z) = 0.21464 0.67909
#
# Static dielectric constant tensor:
#      x y z
#    x 1.727910 0.000000 -0.018620 
#    y 0.000000 1.811270 0.000000 
#    z -0.018620 0.000000 1.728960 
# 
# From -- ./inp_files/240881.got.cif
#   From: 2010.05.17/outbox.cif.g08.bks.cpg/sg12_121_cif.got.tgz:240881.got - 2010.06.03 13:09:07.
