data_PCOD9205961
_publ_section_title
;
Structure prediction by ZEFSAII (Michael W. Deem and Ramdas Pophale) SiO2 
 PCOD9205961
Probable space group: C 2/M
;
_chemical_formula_sum "Si O2"
_cell_formula_units_Z 40
_cell_length_a 5.329608
_cell_length_b 18.651470
_cell_length_c 20.693854
_cell_angle_alpha 90.000000
_cell_angle_beta 64.797613
_cell_angle_gamma 90.000000
_cell_volume 1861.258852
_symmetry_space_group_name_H-M "C 2/M"
_symmetry_group_IT_number 12
_symmetry_cell_setting 'monoclinic'
loop_
_space_group_symop_operation_xyz
x,y,z
-x,y,-z
-x,-y,-z
x,-y,z
1/2+x,1/2+y,z
1/2-x,1/2+y,-z
1/2-x,1/2-y,-z
1/2+x,1/2-y,z
loop_
_atom_site_type_symbol
_atom_site_label
_atom_site_fract_x
_atom_site_fract_y
_atom_site_fract_z
Si Si1 0.847733 0.412215 0.205535
Si Si2 0.317354 0.912604 0.958804
Si Si3 0.720489 0.913905 0.281261
Si Si4 0.266118 0.417127 0.426444
Si Si5 0.887498 0.215786 0.584403
O O1 0.835327 0.500000 0.208384
O O2 0.531742 0.386964 0.232820
O O3 0.036929 0.391594 0.124065
O O4 0.991075 0.386880 0.256264
O O5 0.313491 0.000000 0.959577
O O6 0.500000 0.889801 0.000000
O O7 0.000000 0.888562 0.000000
O O8 0.678687 0.905564 0.362121
O O9 0.725653 0.000000 0.270134
O O10 0.654482 0.500000 0.573469
O O11 0.521029 0.365843 0.415095
O O12 0.000000 0.401418 0.500000
O O13 0.570687 0.239759 0.615636
O O14 0.000000 0.233973 0.500000
#
# Coordination Sequence:
#
# PCOD9205961 Si02
#       5
#     8   8   8   8   8
#     4   9  16  27  40  56  84 119 154 194 242 296
#     4   9  15  22  35  55  77 107 152 197 229 271
#     4   9  18  30  43  61  88 122 157 198 251 300
#     4  10  21  36  55  79 104 133 178 230 266 299
#     4  10  21  38  57  76 101 133 168 212 270 327
#
# _framework density 21.490831
#
# number of rings (size 3 to 8) (size 9 to 14) (size 15 to 20)
#    0.000    2.600    0.000    3.000    0.000    8.400 
#    0.000    7.000    0.000    0.600    0.000    0.000 
#    0.000    0.000    0.000    0.000    0.000   70.000 
#
# Total GULP energy -111734.417434 kJ/mol
# GULP energy per Si atom -5586.720872 kJ/mol
# Density = 2.144192 g / cm^3
# Si number density = 21.490831 Si / 1000 Ang^3
#
#
#
# Elastic Constant Matrix: (Units=GPa)
#
#
# Indices 1 2 3 4 5 6 
#
# 1 147.5589 33.4241 39.5078 0.0000 11.2036 0.0000
# 2 33.4241 73.3075 10.6684 0.0000 2.8617 0.0000
# 3 39.5078 10.6684 95.5377 0.0000 -5.0215 0.0000
# 4 0.0000 0.0000 0.0000 0.0626 0.0000 5.7494
# 5 11.2036 2.8617 -5.0215 0.0000 33.3607 0.0000
# 6 0.0000 0.0000 0.0000 5.7494 0.0000 20.5387
#
#
#
# Elastic Compliance Matrix: (Units=1/GPa)
#
#
# Indices 1 2 3 4 5 6 
#
# 1 0.008677 -0.003342 -0.003380 0.000000 -0.003136 0.000000
# 2 -0.003342 0.015222 -0.000330 0.000000 -0.000233 0.000000
# 3 -0.003380 -0.000330 0.012058 0.000000 0.002978 0.000000
# 4 0.000000 0.000000 0.000000 -0.646482 0.000000 0.180970
# 5 -0.003136 -0.000233 0.002978 0.000000 0.031497 0.000000
# 6 0.000000 0.000000 0.000000 0.180970 0.000000 -0.001971
#
#
# Mechanical properties :
#
#
# Convention : Reuss Voigt Hill
#
# Bulk Modulus (GPa) = 45.75925 53.73383 49.74654
# Shear Modulus (GPa) = -8.93479 26.31267 8.68894
#
# Velocity S-wave (km/s) = -2.04120 3.50289 2.01293
# Velocity P-wave (km/s) = 3.97282 6.43566 5.34795
#
# Compressibility (1/GPa) = 0.02185350
#
# Stress axis : x y z
#
# Youngs Moduli (GPa) = 115.24743 65.69424 82.93145
#
# Poissons Ratio (x) = 0.21955 0.28030
# Poissons Ratio (y) = 0.38515 0.02737
# Poissons Ratio (z) = 0.38952 0.02168
#
# Static dielectric constant tensor:
#      x y z
#    x 1.805520 0.000000 -0.013850 
#    y 0.000000 1.799760 0.000000 
#    z -0.013850 0.000000 1.773500 
# 
# From -- ./inp_files/252795.got.cif
#   From: 2010.05.17/outbox.cif.g08.bks.cpg/sg12_127_cif.got.tgz:252795.got - 2010.06.03 13:09:07.
