data_PCOD9205573
_publ_section_title
;
Structure prediction by ZEFSAII (Michael W. Deem and Ramdas Pophale) SiO2 
 PCOD9205573
Probable space group: C 2/M
;
_chemical_formula_sum "Si O2"
_cell_formula_units_Z 56
_cell_length_a 29.880275
_cell_length_b 18.884893
_cell_length_c 9.056501
_cell_angle_alpha 90.000000
_cell_angle_beta 141.194429
_cell_angle_gamma 90.000000
_cell_volume 3202.617743
_symmetry_space_group_name_H-M "C 2/M"
_symmetry_group_IT_number 12
_symmetry_cell_setting 'monoclinic'
loop_
_space_group_symop_operation_xyz
x,y,z
-x,y,-z
-x,-y,-z
x,-y,z
1/2+x,1/2+y,z
1/2-x,1/2+y,-z
1/2-x,1/2-y,-z
1/2+x,1/2-y,z
loop_
_atom_site_type_symbol
_atom_site_label
_atom_site_fract_x
_atom_site_fract_y
_atom_site_fract_z
Si Si1 0.711187 0.809852 0.997655
Si Si2 0.300889 0.705108 0.522776
Si Si3 0.584263 0.423182 0.688598
Si Si4 0.428400 0.729920 0.411775
Si Si5 0.318771 0.915854 0.339241
Si Si6 0.427578 0.197984 0.722638
Si Si7 0.312313 0.419195 0.774230
O O1 0.632575 0.777029 0.822945
O O2 0.702882 0.878085 0.870597
O O3 0.750000 0.750000 0.000000
O O4 0.756236 0.816391 0.262308
O O5 0.250000 0.750000 0.500000
O O6 0.368734 0.752918 0.652859
O O7 0.321601 0.635682 0.667413
O O8 0.500000 0.426149 0.500000
O O9 0.607489 0.500000 0.685466
O O10 0.599311 0.350919 0.640711
O O11 0.622222 0.415383 0.943767
O O12 0.500000 0.728518 0.500000
O O13 0.443259 0.763371 0.608346
O O14 0.388268 0.875414 0.579498
O O15 0.256338 0.902885 0.299182
O O16 0.327528 0.000000 0.344860
O O17 0.500000 0.189172 0.000000
O O18 0.305262 0.500000 0.703246
#
# Coordination Sequence:
#
# PCOD9205573 Si02
#       7
#     8   8   8   8   8   8   8
#     4  11  20  38  59  87 116 151 202 244 295 350
#     4  12  22  37  63  86 122 158 196 252 300 355
#     4   9  18  32  53  78 111 154 197 234 285 351
#     4  10  21  35  58  84 113 149 199 246 289 348
#     4  10  21  41  64  87 119 158 203 252 301 359
#     4  11  25  39  58  92 120 156 203 248 305 360
#     4  10  21  36  58  88 118 154 200 244 306 370
#
# _framework density 17.485696999999998
#
# number of rings (size 3 to 8) (size 9 to 14) (size 15 to 20)
#    0.000    1.571    4.286    1.714    6.000    0.857 
#    0.000    0.714    0.000    7.714    0.000    0.000 
#    0.000    0.000    0.000    0.000    0.000    0.000 
#
# Total GULP energy -156242.298266 kJ/mol
# GULP energy per Si atom -5580.082081 kJ/mol
# Density = 1.744590 g / cm^3
# Si number density = 17.485697 Si / 1000 Ang^3
#
#
#
# Elastic Constant Matrix: (Units=GPa)
#
#
# Indices 1 2 3 4 5 6 
#
# 1 80.0626 47.4364 43.4707 0.0000 4.2918 0.0000
# 2 47.4364 137.4180 64.6149 0.0000 -7.9998 0.0000
# 3 43.4707 64.6149 150.5659 0.0000 -2.7037 0.0000
# 4 0.0000 0.0000 0.0000 48.1458 0.0000 19.0290
# 5 4.2918 -7.9998 -2.7037 0.0000 19.0188 0.0000
# 6 0.0000 0.0000 0.0000 19.0290 0.0000 56.1372
#
#
#
# Elastic Compliance Matrix: (Units=1/GPa)
#
#
# Indices 1 2 3 4 5 6 
#
# 1 0.017416 -0.004972 -0.003010 0.000000 -0.006450 0.000000
# 2 -0.004972 0.010746 -0.003083 0.000000 0.005204 0.000000
# 3 -0.003010 -0.003083 0.008845 0.000000 0.000640 0.000000
# 4 0.000000 0.000000 0.000000 0.023983 0.000000 -0.008130
# 5 -0.006450 0.005204 0.000640 0.000000 0.056315 0.000000
# 6 0.000000 0.000000 0.000000 -0.008130 0.000000 0.020569
#
#
# Mechanical properties :
#
#
# Convention : Reuss Voigt Hill
#
# Bulk Modulus (GPa) = 67.21696 75.45451 71.33574
# Shear Modulus (GPa) = 30.30964 38.82866 34.56915
#
# Velocity S-wave (km/s) = 4.16792 4.71743 4.45117
# Velocity P-wave (km/s) = 7.85409 8.53921 8.20380
#
# Compressibility (1/GPa) = 0.01487720
#
# Stress axis : x y z
#
# Youngs Moduli (GPa) = 57.41717 93.05970 113.05625
#
# Poissons Ratio (x) = 0.46270 0.34035
# Poissons Ratio (y) = 0.28548 0.34851
# Poissons Ratio (z) = 0.17285 0.28686
#
# Static dielectric constant tensor:
#      x y z
#    x 1.585420 0.000000 0.023390 
#    y 0.000000 1.622060 0.000000 
#    z 0.023390 0.000000 1.601040 
# 
# From -- ./inp_files/75895.got.cif
#   From: 2010.05.17/outbox.cif.g08.bks.cpg/sg12_38_cif.got.tgz:75895.got - 2010.06.03 13:09:07.
