data_PCOD9205136
_publ_section_title
;
Structure prediction by ZEFSAII (Michael W. Deem and Ramdas Pophale) SiO2 
 PCOD9205136
Probable space group: C 2/M
;
_chemical_formula_sum "Si O2"
_cell_formula_units_Z 64
_cell_length_a 9.355421
_cell_length_b 28.168689
_cell_length_c 13.463475
_cell_angle_alpha 90.000000
_cell_angle_beta 103.504221
_cell_angle_gamma 90.000000
_cell_volume 3449.935474
_symmetry_space_group_name_H-M "C 2/M"
_symmetry_group_IT_number 12
_symmetry_cell_setting 'monoclinic'
loop_
_space_group_symop_operation_xyz
x,y,z
-x,y,-z
-x,-y,-z
x,-y,z
1/2+x,1/2+y,z
1/2-x,1/2+y,-z
1/2-x,1/2-y,-z
1/2+x,1/2-y,z
loop_
_atom_site_type_symbol
_atom_site_label
_atom_site_fract_x
_atom_site_fract_y
_atom_site_fract_z
Si Si1 0.161375 0.302603 0.393188
Si Si2 0.352108 0.445515 0.913337
Si Si3 0.666660 0.053908 0.060116
Si Si4 0.355912 0.943969 0.723592
Si Si5 0.883554 0.886968 0.390947
Si Si6 0.401041 0.943189 0.388956
Si Si7 0.817499 0.706704 0.364353
Si Si8 0.360519 0.616445 0.717482
O O1 0.252657 0.348544 0.374742
O O2 0.179990 0.302959 0.516208
O O3 0.243721 0.258663 0.353030
O O4 0.985011 0.297776 0.351879
O O5 0.306866 0.500000 0.876302
O O6 0.368566 0.411947 0.821697
O O7 0.500000 0.449272 0.000000
O O8 0.242935 0.423691 0.977213
O O9 0.671734 0.075884 0.170430
O O10 0.731351 0.000000 0.078065
O O11 0.500000 0.049597 0.000000
O O12 0.211529 0.934875 0.634132
O O13 0.503149 0.927420 0.691294
O O14 0.378598 0.000000 0.740108
O O15 0.000000 0.883699 0.500000
O O16 0.983073 0.880401 0.309957
O O17 0.500000 0.931526 0.500000
O O18 0.248984 0.915817 0.366853
O O19 0.380296 0.000000 0.383252
O O20 0.716108 0.667806 0.294320
#
# Coordination Sequence:
#
# PCOD9205136 Si02
#       8
#     8   8   8   8   8   8   8   8
#     4  10  21  38  57  83 114 146 182 230 277 341
#     4  10  21  37  55  79 113 152 197 249 295 334
#     4   9  17  32  54  76  98 133 185 243 292 329
#     4  10  21  36  53  76 110 151 195 242 286 336
#     4  12  23  35  51  79 115 151 190 226 272 338
#     4  10  21  35  50  74 113 158 196 232 282 344
#     4  10  21  36  61  83 111 144 183 231 285 336
#     4  12  22  33  56  83 110 151 192 235 288 346
#
# _framework density 18.551072000000001
#
# number of rings (size 3 to 8) (size 9 to 14) (size 15 to 20)
#    0.000    1.625    1.250    4.125    3.500    4.250 
#    0.000    0.000    0.000    0.000    0.000    8.750 
#    0.000    0.000    0.000    0.250    0.000    0.000 
#
# Total GULP energy -178433.412752 kJ/mol
# GULP energy per Si atom -5576.044148 kJ/mol
# Density = 1.850885 g / cm^3
# Si number density = 18.551072 Si / 1000 Ang^3
#
#
#
# Elastic Constant Matrix: (Units=GPa)
#
#
# Indices 1 2 3 4 5 6 
#
# 1 106.1774 12.5227 23.5390 0.0000 -18.4906 0.0000
# 2 12.5227 34.9819 34.0699 0.0000 -3.0735 0.0000
# 3 23.5390 34.0699 71.6990 0.0000 -15.0162 0.0000
# 4 0.0000 0.0000 0.0000 23.3347 0.0000 1.3855
# 5 -18.4906 -3.0735 -15.0162 0.0000 31.9697 0.0000
# 6 0.0000 0.0000 0.0000 1.3855 0.0000 12.3730
#
#
#
# Elastic Compliance Matrix: (Units=1/GPa)
#
#
# Indices 1 2 3 4 5 6 
#
# 1 0.010930 -0.001949 -0.001528 0.000000 0.005417 0.000000
# 2 -0.001949 0.055232 -0.027427 0.000000 -0.008700 0.000000
# 3 -0.001528 -0.027427 0.029662 0.000000 0.010412 0.000000
# 4 0.000000 0.000000 0.000000 0.043142 0.000000 -0.004831
# 5 0.005417 -0.008700 0.010412 0.000000 0.038467 0.000000
# 6 0.000000 0.000000 0.000000 -0.004831 0.000000 0.081362
#
#
# Mechanical properties :
#
#
# Convention : Reuss Voigt Hill
#
# Bulk Modulus (GPa) = 29.39769 39.23572 34.31670
# Shear Modulus (GPa) = 15.06293 23.05058 19.05676
#
# Velocity S-wave (km/s) = 2.85260 3.52880 3.20857
# Velocity P-wave (km/s) = 5.17021 6.14811 5.68024
#
# Compressibility (1/GPa) = 0.03401628
#
# Stress axis : x y z
#
# Youngs Moduli (GPa) = 91.49065 18.10557 33.71285
#
# Poissons Ratio (x) = 0.03528 0.05151
# Poissons Ratio (y) = 0.17829 0.92465
# Poissons Ratio (z) = 0.13979 0.49659
#
# Static dielectric constant tensor:
#      x y z
#    x 1.622480 0.000000 -0.019910 
#    y 0.000000 1.667220 0.000000 
#    z -0.019910 0.000000 1.666100 
# 
# From -- ./inp_files/125749.got.cif
#   From: 2010.05.17/outbox.cif.g08.bks.cpg/sg12_63_cif.got.tgz:125749.got - 2010.06.03 13:09:07.
