data_PCOD9205972
_publ_section_title
;
Structure prediction by ZEFSAII (Michael W. Deem and Ramdas Pophale) SiO2 
 PCOD9205972
Probable space group: C 2/M
;
_chemical_formula_sum "Si O2"
_cell_formula_units_Z 44
_cell_length_a 16.466653
_cell_length_b 24.249785
_cell_length_c 6.714737
_cell_angle_alpha 90.000000
_cell_angle_beta 59.081489
_cell_angle_gamma 90.000000
_cell_volume 2300.267631
_symmetry_space_group_name_H-M "C 2/M"
_symmetry_group_IT_number 12
_symmetry_cell_setting 'monoclinic'
loop_
_space_group_symop_operation_xyz
x,y,z
-x,y,-z
-x,-y,-z
x,-y,z
1/2+x,1/2+y,z
1/2-x,1/2+y,-z
1/2-x,1/2-y,-z
1/2+x,1/2-y,z
loop_
_atom_site_type_symbol
_atom_site_label
_atom_site_fract_x
_atom_site_fract_y
_atom_site_fract_z
Si Si1 0.000000 0.811257 0.000000
Si Si2 0.388696 0.145753 0.582967
Si Si3 0.905739 0.869384 0.743021
Si Si4 0.773495 0.561871 0.998020
Si Si5 0.397057 0.939579 0.229823
Si Si6 0.900570 0.767468 0.504376
O O1 0.929822 0.777497 0.237037
O O2 0.060939 0.846088 0.083884
O O3 0.500000 0.146591 0.500000
O O4 0.330646 0.109297 0.811267
O O5 0.381413 0.111605 0.390482
O O6 0.353386 0.208443 0.599877
O O7 0.856567 0.820866 0.669568
O O8 0.000000 0.884435 0.500000
O O9 0.834558 0.919252 0.858997
O O10 0.784378 0.500000 0.899631
O O11 0.818182 0.560147 0.160315
O O12 0.396500 0.000000 0.333141
O O13 0.500000 0.934608 0.000000
O O14 0.000000 0.764249 0.500000
#
# Coordination Sequence:
#
# PCOD9205972 Si02
#       6
#     4   8   8   8   8   8
#     4   8  16  36  61  80 109 148 182 230 290 336
#     4  11  21  34  57  86 116 151 188 231 275 337
#     4   9  20  40  60  83 113 146 189 239 286 333
#     4  11  24  39  57  83 116 152 192 235 280 333
#     4  10  21  36  55  79 114 157 191 225 272 328
#     4   8  18  33  57  86 113 146 185 230 282 340
#
# _framework density 19.128209999999999
#
# number of rings (size 3 to 8) (size 9 to 14) (size 15 to 20)
#    0.000    2.727    1.818    0.545    1.273    6.182 
#    0.000    2.273    0.000    0.000    0.000    0.000 
#    0.000    0.000    0.000    0.000    0.000    0.000 
#
# Total GULP energy -122549.550122 kJ/mol
# GULP energy per Si atom -5570.434096 kJ/mol
# Density = 1.908467 g / cm^3
# Si number density = 19.128210 Si / 1000 Ang^3
#
#
#
# Elastic Constant Matrix: (Units=GPa)
#
#
# Indices 1 2 3 4 5 6 
#
# 1 51.1686 22.1822 28.2359 0.0000 0.8617 0.0000
# 2 22.1822 47.2005 14.7188 0.0000 4.0186 0.0000
# 3 28.2359 14.7188 74.9505 0.0000 17.4974 0.0000
# 4 0.0000 0.0000 0.0000 84.6993 0.0000 56.8418
# 5 0.8617 4.0186 17.4974 0.0000 23.1017 0.0000
# 6 0.0000 0.0000 0.0000 56.8418 0.0000 105.0006
#
#
#
# Elastic Compliance Matrix: (Units=1/GPa)
#
#
# Indices 1 2 3 4 5 6 
#
# 1 0.030842 -0.011707 -0.011573 0.000000 0.009652 0.000000
# 2 -0.011707 0.027021 0.000121 0.000000 -0.004355 0.000000
# 3 -0.011573 0.000121 0.021359 0.000000 -0.015767 0.000000
# 4 0.000000 0.000000 0.000000 0.018543 0.000000 -0.010038
# 5 0.009652 -0.004355 -0.015767 0.000000 0.055626 0.000000
# 6 0.000000 0.000000 0.000000 -0.010038 0.000000 0.014958
#
#
# Mechanical properties :
#
#
# Convention : Reuss Voigt Hill
#
# Bulk Modulus (GPa) = 30.39228 33.73262 32.06245
# Shear Modulus (GPa) = 22.15940 49.77250 35.96595
#
# Velocity S-wave (km/s) = 3.40732 5.10656 4.34090
# Velocity P-wave (km/s) = 5.60384 7.24172 6.47478
#
# Compressibility (1/GPa) = 0.03290310
#
# Stress axis : x y z
#
# Youngs Moduli (GPa) = 32.42292 37.00784 46.81815
#
# Poissons Ratio (x) = 0.43326 0.54184
# Poissons Ratio (y) = 0.37959 -0.00565
# Poissons Ratio (z) = 0.37524 -0.00447
#
# Static dielectric constant tensor:
#      x y z
#    x 1.659960 0.000000 -0.022250 
#    y 0.000000 1.710110 0.000000 
#    z -0.022250 0.000000 1.687940 
# 
# From -- ./inp_files/16809.got.cif
#   From: 2010.05.17/outbox.cif.g08.bks.cpg/sg12_9_cif.got.tgz:16809.got - 2010.06.03 13:09:07.
