data_PCOD9205737
_publ_section_title
;
Structure prediction by ZEFSAII (Michael W. Deem and Ramdas Pophale) SiO2 
 PCOD9205737
Probable space group: C 2/M
;
_chemical_formula_sum "Si O2"
_cell_formula_units_Z 48
_cell_length_a 8.942823
_cell_length_b 18.366195
_cell_length_c 21.921192
_cell_angle_alpha 90.000000
_cell_angle_beta 133.366482
_cell_angle_gamma 90.000000
_cell_volume 2617.449792
_symmetry_space_group_name_H-M "C 2/M"
_symmetry_group_IT_number 12
_symmetry_cell_setting 'monoclinic'
loop_
_space_group_symop_operation_xyz
x,y,z
-x,y,-z
-x,-y,-z
x,-y,z
1/2+x,1/2+y,z
1/2-x,1/2+y,-z
1/2-x,1/2-y,-z
1/2+x,1/2-y,z
loop_
_atom_site_type_symbol
_atom_site_label
_atom_site_fract_x
_atom_site_fract_y
_atom_site_fract_z
Si Si1 0.382882 0.585700 0.278949
Si Si2 0.523133 0.715366 0.939923
Si Si3 0.707075 0.085927 0.527922
Si Si4 0.621284 0.319239 0.834925
Si Si5 0.254269 0.724301 0.312145
Si Si6 0.175498 0.301243 0.424417
O O1 0.333164 0.500000 0.273182
O O2 0.603644 0.599781 0.373561
O O3 0.379708 0.608857 0.207177
O O4 0.248604 0.647683 0.274791
O O5 0.532205 0.670986 0.878812
O O6 0.342834 0.777443 0.891564
O O7 0.500000 0.677476 0.000000
O O8 0.750000 0.750000 0.000000
O O9 0.500000 0.116820 0.500000
O O10 0.716643 0.120026 0.463948
O O11 0.688663 0.000000 0.517282
O O12 0.457779 0.265082 0.758472
O O13 0.288528 0.708855 0.392750
O O14 0.440214 0.777766 0.345603
O O15 0.250000 0.250000 0.500000
#
# Coordination Sequence:
#
# PCOD9205737 Si02
#       6
#     8   8   8   8   8   8
#     4  11  23  37  56  85 119 159 197 239 296 347
#     4   9  19  33  61  97 115 140 184 235 282 343
#     4  10  21  36  52  74 112 156 201 250 298 340
#     4  11  18  37  59  87 120 148 187 237 281 346
#     4  12  22  35  56  85 111 153 200 246 286 341
#     4  12  21  33  53  78 109 148 205 252 289 331
#
# _framework density 18.338460999999999
#
# number of rings (size 3 to 8) (size 9 to 14) (size 15 to 20)
#    0.000    1.167    5.000    2.500    0.000    0.667 
#    0.000    1.667    0.000    8.000    0.000    0.000 
#    0.000    0.000    0.000    0.000    0.000    0.000 
#
# Total GULP energy -133702.291008 kJ/mol
# GULP energy per Si atom -5570.928792 kJ/mol
# Density = 1.829672 g / cm^3
# Si number density = 18.338461 Si / 1000 Ang^3
#
#
#
# Elastic Constant Matrix: (Units=GPa)
#
#
# Indices 1 2 3 4 5 6 
#
# 1 76.5315 6.4826 28.9248 0.0000 -17.3876 0.0000
# 2 6.4826 54.7375 21.7964 0.0000 -0.9466 0.0000
# 3 28.9248 21.7964 71.9629 0.0000 -14.6212 0.0000
# 4 0.0000 0.0000 0.0000 16.1093 0.0000 -7.0285
# 5 -17.3876 -0.9466 -14.6212 0.0000 57.8446 0.0000
# 6 0.0000 0.0000 0.0000 -7.0285 0.0000 18.9559
#
#
#
# Elastic Compliance Matrix: (Units=1/GPa)
#
#
# Indices 1 2 3 4 5 6 
#
# 1 0.016015 0.000517 -0.005918 0.000000 0.003327 0.000000
# 2 0.000517 0.020887 -0.006782 0.000000 -0.001217 0.000000
# 3 -0.005918 -0.006782 0.018916 0.000000 0.002892 0.000000
# 4 0.000000 0.000000 0.000000 0.074056 0.000000 0.027458
# 5 0.003327 -0.001217 0.002892 0.000000 0.018999 0.000000
# 6 0.000000 0.000000 0.000000 0.027458 0.000000 0.062935
#
#
# Mechanical properties :
#
#
# Convention : Reuss Voigt Hill
#
# Bulk Modulus (GPa) = 31.79226 35.29329 33.54277
# Shear Modulus (GPa) = 20.27108 28.31717 24.29412
#
# Velocity S-wave (km/s) = 3.32834 3.93382 3.64368
# Velocity P-wave (km/s) = 5.66961 6.31827 6.00271
#
# Compressibility (1/GPa) = 0.03145420
#
# Stress axis : x y z
#
# Youngs Moduli (GPa) = 62.44086 47.87646 52.86470
#
# Poissons Ratio (x) = -0.02477 0.31285
# Poissons Ratio (y) = -0.03230 0.35850
# Poissons Ratio (z) = 0.36952 0.32468
#
# Static dielectric constant tensor:
#      x y z
#    x 1.732130 0.000000 -0.019740 
#    y 0.000000 1.680890 0.000000 
#    z -0.019740 0.000000 1.679400 
# 
# From -- ./inp_files/196505.got.cif
#   From: 2010.05.17/outbox.cif.g08.bks.cpg/sg12_99_cif.got.tgz:196505.got - 2010.06.03 13:09:07.
