data_PCOD9205574
_publ_section_title
;
Structure prediction by ZEFSAII (Michael W. Deem and Ramdas Pophale) SiO2 
 PCOD9205574
Probable space group: C 2/M
;
_chemical_formula_sum "Si O2"
_cell_formula_units_Z 56
_cell_length_a 11.668765
_cell_length_b 19.497692
_cell_length_c 26.694489
_cell_angle_alpha 90.000000
_cell_angle_beta 31.507659
_cell_angle_gamma 90.000000
_cell_volume 3174.019090
_symmetry_space_group_name_H-M "C 2/M"
_symmetry_group_IT_number 12
_symmetry_cell_setting 'monoclinic'
loop_
_space_group_symop_operation_xyz
x,y,z
-x,y,-z
-x,-y,-z
x,-y,z
1/2+x,1/2+y,z
1/2-x,1/2+y,-z
1/2-x,1/2-y,-z
1/2+x,1/2-y,z
loop_
_atom_site_type_symbol
_atom_site_label
_atom_site_fract_x
_atom_site_fract_y
_atom_site_fract_z
Si Si1 0.866788 0.577739 0.438339
Si Si2 0.418955 0.574372 0.087513
Si Si3 0.948015 0.171207 0.615249
Si Si4 0.966230 0.772952 0.950912
Si Si5 0.876715 0.681349 0.597918
Si Si6 0.455098 0.117927 0.296412
Si Si7 0.091987 0.773379 0.260037
O O1 0.852623 0.500000 0.462341
O O2 0.660449 0.624195 0.530913
O O3 0.884004 0.577483 0.372011
O O4 0.071461 0.619748 0.384000
O O5 0.479508 0.500000 0.087813
O O6 0.511716 0.646551 0.072286
O O7 0.157794 0.584038 0.191865
O O8 0.500000 0.571807 0.000000
O O9 0.976148 0.245254 0.578126
O O10 0.748534 0.131845 0.663619
O O11 0.892624 0.189884 0.692614
O O12 0.174156 0.729293 0.853996
O O13 0.000000 0.770449 0.000000
O O14 0.750000 0.750000 0.000000
O O15 0.616807 0.693180 0.689713
O O16 0.000000 0.665112 0.500000
O O17 0.527329 0.193296 0.289107
#
# Coordination Sequence:
#
# PCOD9205574 Si02
#       7
#     8   8   8   8   8   8   8
#     4  12  24  37  55  84 121 158 196 243 296 354
#     4   9  19  36  57  84 118 156 193 238 301 367
#     4  11  21  37  60  84 115 152 200 246 292 349
#     4  10  23  38  63  95 124 152 200 260 308 356
#     4  11  21  38  59  80 111 156 204 243 283 351
#     4  10  21  35  58  84 115 149 195 248 295 348
#     4  10  21  36  62  85 114 153 200 245 294 351
#
# _framework density 17.643246000000001
#
# number of rings (size 3 to 8) (size 9 to 14) (size 15 to 20)
#    0.000    1.571    2.857    3.000    8.000    2.000 
#    0.000    0.000    0.000    1.286    0.000    0.000 
#    0.000    0.000    0.000    0.000    0.000    0.000 
#
# Total GULP energy -156017.151493 kJ/mol
# GULP energy per Si atom -5572.041125 kJ/mol
# Density = 1.760309 g / cm^3
# Si number density = 17.643246 Si / 1000 Ang^3
#
#
#
# Elastic Constant Matrix: (Units=GPa)
#
#
# Indices 1 2 3 4 5 6 
#
# 1 98.3140 61.4936 47.4853 -0.0135 -8.8421 0.0022
# 2 61.4936 92.5881 36.1838 0.0195 -11.9352 -0.0021
# 3 47.4853 36.1838 104.2844 -0.0646 -1.8371 0.0033
# 4 -0.0135 0.0195 -0.0646 46.8016 0.0222 -2.5256
# 5 -8.8421 -11.9352 -1.8371 0.0222 25.6854 -0.0058
# 6 0.0022 -0.0021 0.0033 -2.5256 -0.0058 16.0866
#
#
#
# Elastic Compliance Matrix: (Units=1/GPa)
#
#
# Indices 1 2 3 4 5 6 
#
# 1 0.019510 -0.010785 -0.005118 0.000002 0.001339 -0.000002
# 2 -0.010785 0.019285 -0.001690 -0.000016 0.005128 0.000004
# 3 -0.005118 -0.001690 0.012477 0.000017 -0.001655 0.000000
# 4 0.000002 -0.000016 0.000017 0.021549 -0.000023 0.003383
# 5 0.001339 0.005128 -0.001655 -0.000023 0.041658 0.000012
# 6 -0.000002 0.000004 0.000000 0.003383 0.000012 0.062695
#
#
# Mechanical properties :
#
#
# Convention : Reuss Voigt Hill
#
# Bulk Modulus (GPa) = 62.16812 65.05686 63.61249
# Shear Modulus (GPa) = 22.96516 27.71631 25.34073
#
# Velocity S-wave (km/s) = 3.61174 3.96780 3.79395
# Velocity P-wave (km/s) = 7.25986 7.61215 7.43809
#
# Compressibility (1/GPa) = 0.01608542
#
# Stress axis : x y z
#
# Youngs Moduli (GPa) = 51.25689 51.85393 80.14815
#
# Poissons Ratio (x) = 0.55924 0.41019
# Poissons Ratio (y) = 0.55280 0.13547
# Poissons Ratio (z) = 0.26233 0.08764
#
# Static dielectric constant tensor:
#      x y z
#    x 2.121980 -0.000100 0.160370 
#    y -0.000100 1.602980 -0.000020 
#    z 0.160370 -0.000020 1.657700 
# 
# From -- ./inp_files/358893.got.cif
#   From: 2010.05.17/outbox.cif.g08.bks.cpg/sg12_180_cif.got.tgz:358893.got - 2010.06.03 13:09:07.
