data_PCOD9205676
_publ_section_title
;
Structure prediction by ZEFSAII (Michael W. Deem and Ramdas Pophale) SiO2 
 PCOD9205676
Probable space group: C 2/M
;
_chemical_formula_sum "Si O2"
_cell_formula_units_Z 48
_cell_length_a 9.892638
_cell_length_b 25.472567
_cell_length_c 12.576059
_cell_angle_alpha 90.000000
_cell_angle_beta 135.821184
_cell_angle_gamma 90.000000
_cell_volume 2208.512471
_symmetry_space_group_name_H-M "C 2/M"
_symmetry_group_IT_number 12
_symmetry_cell_setting 'monoclinic'
loop_
_space_group_symop_operation_xyz
x,y,z
-x,y,-z
-x,-y,-z
x,-y,z
1/2+x,1/2+y,z
1/2-x,1/2+y,-z
1/2-x,1/2-y,-z
1/2+x,1/2-y,z
loop_
_atom_site_type_symbol
_atom_site_label
_atom_site_fract_x
_atom_site_fract_y
_atom_site_fract_z
Si Si1 0.678226 0.342302 0.179124
Si Si2 0.105381 0.701441 0.891284
Si Si3 0.025989 0.940116 0.840017
Si Si4 0.775963 0.746495 0.389502
Si Si5 0.159722 0.063234 0.674005
Si Si6 0.430739 0.091778 0.072017
O O1 0.618092 0.400061 0.184032
O O2 0.720421 0.310087 0.309591
O O3 0.500000 0.325599 0.000000
O O4 0.147825 0.325757 0.800831
O O5 0.883036 0.719023 0.762974
O O6 0.134573 0.651831 0.984281
O O7 0.250000 0.750000 0.000000
O O8 0.078419 0.925156 0.746987
O O9 0.959156 0.000000 0.805817
O O10 0.242273 0.935533 0.013479
O O11 0.750000 0.750000 0.500000
O O12 0.000000 0.759739 0.500000
O O13 0.363869 0.088830 0.754645
O O14 0.000000 0.079610 0.500000
O O15 0.184433 0.000000 0.683564
O O16 0.500000 0.066167 0.000000
#
# Coordination Sequence:
#
# PCOD9205676 Si02
#       6
#     8   8   8   8   8   8
#     4  12  24  45  69  97 133 181 228 277 341 416
#     4  12  25  42  67  96 135 180 223 276 344 410
#     4  10  21  40  67  98 133 173 221 281 340 400
#     4  12  27  45  69 100 135 178 225 287 343 401
#     4   9  19  38  62  91 130 172 217 274 337 401
#     4  10  21  35  61  95 125 166 223 281 328 397
#
# _framework density 21.734086000000001
#
# number of rings (size 3 to 8) (size 9 to 14) (size 15 to 20)
#    0.000    1.167    5.000    0.500    2.333    7.000 
#    0.000    0.000    0.000    0.500    0.000    0.000 
#    0.000    0.000    0.000    0.000    0.000    0.000 
#
# Total GULP energy -133767.696142 kJ/mol
# GULP energy per Si atom -5573.654006 kJ/mol
# Density = 2.168462 g / cm^3
# Si number density = 21.734086 Si / 1000 Ang^3
#
#
#
# Elastic Constant Matrix: (Units=GPa)
#
#
# Indices 1 2 3 4 5 6 
#
# 1 106.5503 55.8709 27.1039 0.0000 -2.1473 0.0000
# 2 55.8709 106.4454 35.4693 0.0000 11.4572 0.0000
# 3 27.1039 35.4693 113.2556 0.0000 14.3762 0.0000
# 4 0.0000 0.0000 0.0000 25.5752 0.0000 -2.0491
# 5 -2.1473 11.4572 14.3762 0.0000 37.7241 0.0000
# 6 0.0000 0.0000 0.0000 -2.0491 0.0000 30.9094
#
#
#
# Elastic Compliance Matrix: (Units=1/GPa)
#
#
# Indices 1 2 3 4 5 6 
#
# 1 0.013476 -0.006949 -0.001486 0.000000 0.003444 0.000000
# 2 -0.006949 0.014223 -0.002304 0.000000 -0.003837 0.000000
# 3 -0.001486 -0.002304 0.010328 0.000000 -0.003321 0.000000
# 4 0.000000 0.000000 0.000000 0.039309 0.000000 0.002606
# 5 0.003444 -0.003837 -0.003321 0.000000 0.029135 0.000000
# 6 0.000000 0.000000 0.000000 0.002606 0.000000 0.032525
#
#
# Mechanical properties :
#
#
# Convention : Reuss Voigt Hill
#
# Bulk Modulus (GPa) = 60.42629 62.57105 61.49867
# Shear Modulus (GPa) = 30.12196 32.69555 31.40876
#
# Velocity S-wave (km/s) = 3.72685 3.88280 3.80562
# Velocity P-wave (km/s) = 6.81044 6.99667 6.90418
#
# Compressibility (1/GPa) = 0.01654909
#
# Stress axis : x y z
#
# Youngs Moduli (GPa) = 74.20360 70.31034 96.82089
#
# Poissons Ratio (x) = 0.48859 0.14387
# Poissons Ratio (y) = 0.51564 0.22309
# Poissons Ratio (z) = 0.11027 0.16201
#
# Static dielectric constant tensor:
#      x y z
#    x 1.892680 0.000000 -0.008500 
#    y 0.000000 1.834030 0.000000 
#    z -0.008500 0.000000 1.860740 
# 
# From -- ./inp_files/209469.got.cif
#   From: 2010.05.17/outbox.cif.g08.bks.cpg/sg12_105_cif.got.tgz:209469.got - 2010.06.03 13:09:07.
