data_PCOD9205427
_publ_section_title
;
Structure prediction by ZEFSAII (Michael W. Deem and Ramdas Pophale) SiO2 
 PCOD9205427
Probable space group: C 2/M
;
_chemical_formula_sum "Si O2"
_cell_formula_units_Z 44
_cell_length_a 12.940434
_cell_length_b 9.846881
_cell_length_c 19.232015
_cell_angle_alpha 90.000000
_cell_angle_beta 62.587378
_cell_angle_gamma 90.000000
_cell_volume 2175.431345
_symmetry_space_group_name_H-M "C 2/M"
_symmetry_group_IT_number 12
_symmetry_cell_setting 'monoclinic'
loop_
_space_group_symop_operation_xyz
x,y,z
-x,y,-z
-x,-y,-z
x,-y,z
1/2+x,1/2+y,z
1/2-x,1/2+y,-z
1/2-x,1/2-y,-z
1/2+x,1/2-y,z
loop_
_atom_site_type_symbol
_atom_site_label
_atom_site_fract_x
_atom_site_fract_y
_atom_site_fract_z
Si Si1 0.208506 0.345356 0.405156
Si Si2 0.654110 0.500000 0.042086
Si Si3 0.306813 0.000000 0.856336
Si Si4 0.419388 0.500000 0.168924
Si Si5 0.665912 0.353068 0.306221
Si Si6 0.588877 0.351377 0.548156
Si Si7 0.596422 0.296492 0.171285
O O1 0.170714 0.500000 0.405978
O O2 0.226683 0.269007 0.327224
O O3 0.326357 0.342368 0.412578
O O4 0.122046 0.263879 0.483294
O O5 0.513369 0.500000 0.076102
O O6 0.671609 0.368575 0.086707
O O7 0.729322 0.500000 0.950363
O O8 0.386757 0.865121 0.833540
O O9 0.210766 0.000000 0.822131
O O10 0.469990 0.368723 0.196541
O O11 0.720249 0.500000 0.304465
O O12 0.538590 0.348214 0.380941
O O13 0.646047 0.339455 0.230712
O O14 0.610497 0.500000 0.508379
#
# Coordination Sequence:
#
# PCOD9205427 Si02
#       7
#     8   4   4   4   8   8   8
#     4  10  21  35  55  85 107 141 198 234 280 346
#     4   8  19  42  59  89 127 154 196 258 292 360
#     4  12  19  38  72  85 117 167 200 244 313 346
#     4   8  21  40  59  86 126 152 198 249 297 355
#     4  11  20  38  55  75 116 151 183 232 291 346
#     4   9  20  37  57  75 108 152 188 232 285 339
#     4   9  22  36  58  92 119 153 204 245 294 367
#
# _framework density 20.225874999999998
#
# number of rings (size 3 to 8) (size 9 to 14) (size 15 to 20)
#    1.091    1.091    1.818    1.909    1.273    5.091 
#    0.000    1.818    4.000    2.182    0.000    0.000 
#    0.000    0.000    0.000    0.000    0.000    0.000 
#
# Total GULP energy -122472.201768 kJ/mol
# GULP energy per Si atom -5566.918262 kJ/mol
# Density = 2.017984 g / cm^3
# Si number density = 20.225875 Si / 1000 Ang^3
#
#
#
# Elastic Constant Matrix: (Units=GPa)
#
#
# Indices 1 2 3 4 5 6 
#
# 1 76.9607 43.4993 22.1494 0.0000 18.5956 0.0000
# 2 43.4993 189.9179 41.9771 0.0000 17.3063 0.0000
# 3 22.1494 41.9771 79.0050 0.0000 25.4249 0.0000
# 4 0.0000 0.0000 0.0000 25.1644 0.0000 6.7589
# 5 18.5956 17.3063 25.4249 0.0000 30.2833 0.0000
# 6 0.0000 0.0000 0.0000 6.7589 0.0000 5.2793
#
#
#
# Elastic Compliance Matrix: (Units=1/GPa)
#
#
# Indices 1 2 3 4 5 6 
#
# 1 0.016808 -0.002996 -0.000479 0.000000 -0.008206 0.000000
# 2 -0.002996 0.006523 -0.002766 0.000000 0.000434 0.000000
# 3 -0.000479 -0.002766 0.018714 0.000000 -0.013837 0.000000
# 4 0.000000 0.000000 0.000000 0.060565 0.000000 -0.077538
# 5 -0.008206 0.000434 -0.013837 0.000000 0.049430 0.000000
# 6 0.000000 0.000000 0.000000 -0.077538 0.000000 0.288687
#
#
# Mechanical properties :
#
#
# Convention : Reuss Voigt Hill
#
# Bulk Modulus (GPa) = 33.82565 62.34835 48.08700
# Shear Modulus (GPa) = 10.79765 28.02926 19.41346
#
# Velocity S-wave (km/s) = 2.31303 3.72669 3.10148
# Velocity P-wave (km/s) = 4.88812 7.02926 6.05410
#
# Compressibility (1/GPa) = 0.02956336
#
# Stress axis : x y z
#
# Youngs Moduli (GPa) = 59.49605 153.29428 53.43539
#
# Poissons Ratio (x) = 0.45926 0.02562
# Poissons Ratio (y) = 0.17825 0.14778
# Poissons Ratio (z) = 0.02853 0.42396
#
# Static dielectric constant tensor:
#      x y z
#    x 1.745140 0.000000 0.014030 
#    y 0.000000 1.777440 0.000000 
#    z 0.014030 0.000000 1.709190 
# 
# From -- ./inp_files/267189.got.cif
#   From: 2010.05.17/outbox.cif.g08.bks.cpg/sg12_134_cif.got.tgz:267189.got - 2010.06.03 13:09:07.
