data_PCOD9205218
_publ_section_title
;
Structure prediction by ZEFSAII (Michael W. Deem and Ramdas Pophale) SiO2 
 PCOD9205218
Probable space group: C 2/M
;
_chemical_formula_sum "Si O2"
_cell_formula_units_Z 64
_cell_length_a 16.777296
_cell_length_b 9.017218
_cell_length_c 19.684574
_cell_angle_alpha 90.000000
_cell_angle_beta 81.981130
_cell_angle_gamma 90.000000
_cell_volume 2948.853561
_symmetry_space_group_name_H-M "C 2/M"
_symmetry_group_IT_number 12
_symmetry_cell_setting 'monoclinic'
loop_
_space_group_symop_operation_xyz
x,y,z
-x,y,-z
-x,-y,-z
x,-y,z
1/2+x,1/2+y,z
1/2-x,1/2+y,-z
1/2-x,1/2-y,-z
1/2+x,1/2-y,z
loop_
_atom_site_type_symbol
_atom_site_label
_atom_site_fract_x
_atom_site_fract_y
_atom_site_fract_z
Si Si1 0.210317 0.174530 0.285533
Si Si2 0.926582 0.677211 0.960925
Si Si3 0.678806 0.823582 0.905386
Si Si4 0.636161 0.325876 0.157479
Si Si5 0.084547 0.825826 0.414349
Si Si6 0.125705 0.175809 0.777423
Si Si7 0.664963 0.175558 0.526972
Si Si8 0.449135 0.175694 0.338011
O O1 0.143782 0.213128 0.235809
O O2 0.168487 0.186295 0.362822
O O3 0.287257 0.275214 0.263232
O O4 0.232970 0.000000 0.271498
O O5 0.929940 0.500000 0.954125
O O6 0.849295 0.718915 0.016084
O O7 0.922206 0.743308 0.886736
O O8 0.000000 0.725195 0.000000
O O9 0.772679 0.797286 0.880157
O O10 0.628284 0.740974 0.853122
O O11 0.664353 0.000000 0.899516
O O12 0.619083 0.500000 0.154993
O O13 0.099549 0.746622 0.483861
O O14 0.018423 0.748645 0.375212
O O15 0.066440 0.000000 0.424872
O O16 0.062213 0.248505 0.733517
O O17 0.116693 0.000000 0.779546
O O18 0.750000 0.250000 0.500000
O O19 0.632220 0.196802 0.607211
O O20 0.670629 0.000000 0.514197
O O21 0.462206 0.000000 0.329159
#
# Coordination Sequence:
#
# PCOD9205218 Si02
#       8
#     8   8   8   8   8   8   8   8
#     4   9  20  39  59  83 116 149 182 226 285 340
#     4  10  21  35  52  78 110 142 180 227 278 333
#     4   9  19  37  57  77 108 147 182 224 282 336
#     4   9  18  34  56  78 104 142 183 223 270 328
#     4  11  23  39  61  88 118 151 189 234 280 334
#     4  11  22  36  59  88 112 142 192 240 275 328
#     4  11  24  41  62  87 115 151 193 236 283 335
#     4  11  24  41  59  82 118 157 188 227 284 340
#
# _framework density 21.70335
#
# number of rings (size 3 to 8) (size 9 to 14) (size 15 to 20)
#    0.000    1.875    0.000    4.500    0.000   11.250 
#    0.000    2.500    0.000    0.000    0.000    0.000 
#    0.000    0.000    0.000    0.000    0.000    0.000 
#
# Total GULP energy -178942.010222 kJ/mol
# GULP energy per Si atom -5591.937819 kJ/mol
# Density = 2.165395 g / cm^3
# Si number density = 21.703350 Si / 1000 Ang^3
#
#
#
# Elastic Constant Matrix: (Units=GPa)
#
#
# Indices 1 2 3 4 5 6 
#
# 1 54.3931 26.5803 6.4018 0.0000 19.1923 0.0000
# 2 26.5803 57.9676 32.6313 0.0000 18.9657 0.0000
# 3 6.4018 32.6313 99.0994 0.0000 27.7903 0.0000
# 4 0.0000 0.0000 0.0000 29.0813 0.0000 12.6604
# 5 19.1923 18.9657 27.7903 0.0000 43.8663 0.0000
# 6 0.0000 0.0000 0.0000 12.6604 0.0000 29.3558
#
#
#
# Elastic Compliance Matrix: (Units=1/GPa)
#
#
# Indices 1 2 3 4 5 6 
#
# 1 0.027141 -0.012025 0.004959 0.000000 -0.009818 0.000000
# 2 -0.012025 0.027773 -0.007875 0.000000 -0.001757 0.000000
# 3 0.004959 -0.007875 0.014614 0.000000 -0.008023 0.000000
# 4 0.000000 0.000000 0.000000 0.042335 0.000000 -0.018258
# 5 -0.009818 -0.001757 -0.008023 0.000000 0.032934 0.000000
# 6 0.000000 0.000000 0.000000 -0.018258 0.000000 0.041939
#
#
# Mechanical properties :
#
#
# Convention : Reuss Voigt Hill
#
# Bulk Modulus (GPa) = 25.22324 38.07635 31.64979
# Shear Modulus (GPa) = 21.75488 30.18381 25.96935
#
# Velocity S-wave (km/s) = 3.16946 3.73331 3.46288
# Velocity P-wave (km/s) = 5.00410 6.01378 5.53203
#
# Compressibility (1/GPa) = 0.03964598
#
# Stress axis : x y z
#
# Youngs Moduli (GPa) = 36.84418 36.00599 68.42960
#
# Poissons Ratio (x) = 0.43297 -0.33937
# Poissons Ratio (y) = 0.44305 0.53892
# Poissons Ratio (z) = -0.18272 0.28356
#
# Static dielectric constant tensor:
#      x y z
#    x 1.838640 0.000000 -0.017350 
#    y 0.000000 1.721040 0.000000 
#    z -0.017350 0.000000 1.772060 
# 
# From -- ./inp_files/314097.got.cif
#   From: 2010.05.17/outbox.cif.g08.bks.cpg/sg12_158_cif.got.tgz:314097.got - 2010.06.03 13:09:07.
