data_PCOD9205456
_publ_section_title
;
Structure prediction by ZEFSAII (Michael W. Deem and Ramdas Pophale) SiO2 
 PCOD9205456
Probable space group: C 2/M
;
_chemical_formula_sum "Si O2"
_cell_formula_units_Z 40
_cell_length_a 30.815619
_cell_length_b 13.784247
_cell_length_c 5.543818
_cell_angle_alpha 90.000000
_cell_angle_beta 131.091219
_cell_angle_gamma 90.000000
_cell_volume 1774.764582
_symmetry_space_group_name_H-M "C 2/M"
_symmetry_group_IT_number 12
_symmetry_cell_setting 'monoclinic'
loop_
_space_group_symop_operation_xyz
x,y,z
-x,y,-z
-x,-y,-z
x,-y,z
1/2+x,1/2+y,z
1/2-x,1/2+y,-z
1/2-x,1/2-y,-z
1/2+x,1/2-y,z
loop_
_atom_site_type_symbol
_atom_site_label
_atom_site_fract_x
_atom_site_fract_y
_atom_site_fract_z
Si Si1 0.930583 0.720445 0.247595
Si Si2 0.204815 0.793251 0.648225
Si Si3 0.069521 0.389562 0.253882
Si Si4 0.137785 0.890005 0.777530
Si Si5 0.763948 0.395744 0.478707
O O1 0.914007 0.658036 0.427690
O O2 0.899428 0.823318 0.180842
O O3 0.000000 0.733632 0.500000
O O4 0.917112 0.666835 0.946087
O O5 0.147443 0.833788 0.560464
O O6 0.200788 0.701648 0.451853
O O7 0.239566 0.881358 0.656755
O O8 0.250000 0.750000 0.000000
O O9 0.091101 0.500000 0.325057
O O10 0.000000 0.392839 0.000000
O O11 0.116212 0.000000 0.673176
O O12 0.203453 0.895532 0.113012
O O13 0.792404 0.500000 0.548185
#
# Coordination Sequence:
#
# PCOD9205456 Si02
#       5
#     8   8   8   8   8
#     4  10  21  36  58  88 121 156 200 245 284 338
#     4   9  18  34  56  79 106 141 185 239 284 351
#     4   9  18  36  60  82 109 150 196 243 296 345
#     4  10  21  35  56  81 112 155 195 233 289 350
#     4   9  18  34  57  82 108 145 187 234 294 354
#
# _framework density 22.538202999999999
#
# number of rings (size 3 to 8) (size 9 to 14) (size 15 to 20)
#    0.000    2.600    0.000    1.200    2.800    3.600 
#    0.000    2.000    0.000    7.200    0.000    0.000 
#    0.000    0.000    0.000    0.000    0.000    0.000 
#
# Total GULP energy -111516.861732 kJ/mol
# GULP energy per Si atom -5575.843087 kJ/mol
# Density = 2.248690 g / cm^3
# Si number density = 22.538203 Si / 1000 Ang^3
#
#
#
# Elastic Constant Matrix: (Units=GPa)
#
#
# Indices 1 2 3 4 5 6 
#
# 1 127.4616 87.5288 35.7440 0.0000 -25.4948 0.0000
# 2 87.5288 212.2961 35.4248 0.0000 -31.4212 0.0000
# 3 35.7440 35.4248 59.1490 0.0000 -33.6499 0.0000
# 4 0.0000 0.0000 0.0000 18.0938 0.0000 2.4228
# 5 -25.4948 -31.4212 -33.6499 0.0000 39.2641 0.0000
# 6 0.0000 0.0000 0.0000 2.4228 0.0000 24.6317
#
#
#
# Elastic Compliance Matrix: (Units=1/GPa)
#
#
# Indices 1 2 3 4 5 6 
#
# 1 0.012063 -0.004128 -0.004373 0.000000 0.000782 0.000000
# 2 -0.004128 0.006825 -0.000021 0.000000 0.002763 0.000000
# 3 -0.004373 -0.000021 0.035002 0.000000 0.027141 0.000000
# 4 0.000000 0.000000 0.000000 0.056005 0.000000 -0.005509
# 5 0.000782 0.002763 0.027141 0.000000 0.051448 0.000000
# 6 0.000000 0.000000 0.000000 -0.005509 0.000000 0.041140
#
#
# Mechanical properties :
#
#
# Convention : Reuss Voigt Hill
#
# Bulk Modulus (GPa) = 27.13933 79.58911 53.36422
# Shear Modulus (GPa) = 21.56954 32.41184 26.99069
#
# Velocity S-wave (km/s) = 3.09693 3.79632 3.46432
# Velocity P-wave (km/s) = 4.98554 7.38957 6.30323
#
# Compressibility (1/GPa) = 0.03684690
#
# Stress axis : x y z
#
# Youngs Moduli (GPa) = 82.89893 146.52282 28.56980
#
# Poissons Ratio (x) = 0.60487 0.12492
# Poissons Ratio (y) = 0.34222 0.00059
# Poissons Ratio (z) = 0.36248 0.00304
#
# Static dielectric constant tensor:
#      x y z
#    x 1.873890 0.000000 -0.050610 
#    y 0.000000 1.870550 0.000000 
#    z -0.050610 0.000000 1.993010 
# 
# From -- ./inp_files/27406.got.cif
#   From: 2010.05.17/outbox.cif.g08.bks.cpg/sg12_14_cif.got.tgz:27406.got - 2010.06.03 13:09:07.
