data_PCOD9205505
_publ_section_title
;
Structure prediction by ZEFSAII (Michael W. Deem and Ramdas Pophale) SiO2 
 PCOD9205505
Probable space group: C 2/M
;
_chemical_formula_sum "Si O2"
_cell_formula_units_Z 64
_cell_length_a 27.447608
_cell_length_b 13.996296
_cell_length_c 9.696981
_cell_angle_alpha 90.000000
_cell_angle_beta 111.283071
_cell_angle_gamma 90.000000
_cell_volume 3471.172369
_symmetry_space_group_name_H-M "C 2/M"
_symmetry_group_IT_number 12
_symmetry_cell_setting 'monoclinic'
loop_
_space_group_symop_operation_xyz
x,y,z
-x,y,-z
-x,-y,-z
x,-y,z
1/2+x,1/2+y,z
1/2-x,1/2+y,-z
1/2-x,1/2-y,-z
1/2+x,1/2-y,z
loop_
_atom_site_type_symbol
_atom_site_label
_atom_site_fract_x
_atom_site_fract_y
_atom_site_fract_z
Si Si1 0.937269 0.114463 0.432428
Si Si2 0.117645 0.205812 0.885521
Si Si3 0.876734 0.813476 0.628572
Si Si4 0.561781 0.394225 0.059112
Si Si5 0.339054 0.893665 0.696213
Si Si6 0.238312 0.146520 0.428973
Si Si7 0.671182 0.888575 0.985416
Si Si8 0.726641 0.386491 0.091679
O O1 0.910964 0.148787 0.263948
O O2 0.904705 0.173708 0.511929
O O3 0.000000 0.132719 0.500000
O O4 0.930373 0.000000 0.444949
O O5 0.128387 0.317654 0.877478
O O6 0.081916 0.187335 0.980193
O O7 0.174389 0.163288 0.983355
O O8 0.914753 0.868633 0.770663
O O9 0.867293 0.702428 0.665763
O O10 0.821165 0.869064 0.583050
O O11 0.580367 0.500000 0.032660
O O12 0.500000 0.396063 0.000000
O O13 0.286127 0.905255 0.552452
O O14 0.365410 0.000000 0.717671
O O15 0.326373 0.874219 0.845632
O O16 0.250000 0.250000 0.500000
O O17 0.239075 0.141506 0.263450
O O18 0.725651 0.866806 0.963643
O O19 0.659710 0.000000 0.950137
O O20 0.718156 0.500000 0.084325
#
# Coordination Sequence:
#
# PCOD9205505 Si02
#       8
#     8   8   8   8   8   8   8   8
#     4  11  26  44  62  88 120 154 198 252 308 362
#     4  12  22  39  63  87 120 158 199 244 300 359
#     4  11  22  39  61  88 119 160 197 245 299 355
#     4  11  22  38  62  87 112 147 195 250 307 360
#     4  10  21  39  61  91 126 161 200 241 292 352
#     4  10  21  35  56  90 124 160 199 240 291 350
#     4  10  23  40  61  91 126 162 199 243 291 351
#     4  11  22  36  59  92 126 160 200 244 292 355
#
# _framework density 18.437574999999999
#
# number of rings (size 3 to 8) (size 9 to 14) (size 15 to 20)
#    0.000    1.250    2.500    3.750    5.250    3.500 
#    0.000    0.000    0.000    4.500    0.000    0.000 
#    0.000    0.000    0.000    0.000    0.000    0.000 
#
# Total GULP energy -178395.503671 kJ/mol
# GULP energy per Si atom -5574.859490 kJ/mol
# Density = 1.839561 g / cm^3
# Si number density = 18.437575 Si / 1000 Ang^3
#
#
#
# Elastic Constant Matrix: (Units=GPa)
#
#
# Indices 1 2 3 4 5 6 
#
# 1 119.6746 46.3208 35.1825 0.0000 -13.2382 0.0000
# 2 46.3208 109.8422 18.4351 0.0000 3.4109 0.0000
# 3 35.1825 18.4351 71.3623 0.0000 -1.1376 0.0000
# 4 0.0000 0.0000 0.0000 34.1671 0.0000 -4.3755
# 5 -13.2382 3.4109 -1.1376 0.0000 37.1360 0.0000
# 6 0.0000 0.0000 0.0000 -4.3755 0.0000 19.6996
#
#
#
# Elastic Compliance Matrix: (Units=1/GPa)
#
#
# Indices 1 2 3 4 5 6 
#
# 1 0.011927 -0.004385 -0.004675 0.000000 0.004511 0.000000
# 2 -0.004385 0.011162 -0.000763 0.000000 -0.002612 0.000000
# 3 -0.004675 -0.000763 0.016498 0.000000 -0.001091 0.000000
# 4 0.000000 0.000000 0.000000 0.030125 0.000000 0.006691
# 5 0.004511 -0.002612 -0.001091 0.000000 0.028743 0.000000
# 6 0.000000 0.000000 0.000000 0.006691 0.000000 0.052249
#
#
# Mechanical properties :
#
#
# Convention : Reuss Voigt Hill
#
# Bulk Modulus (GPa) = 50.15161 55.63953 52.89557
# Shear Modulus (GPa) = 28.24912 31.59659 29.92286
#
# Velocity S-wave (km/s) = 3.91851 4.14418 4.03293
# Velocity P-wave (km/s) = 6.90889 7.28984 7.10192
#
# Compressibility (1/GPa) = 0.01993954
#
# Stress axis : x y z
#
# Youngs Moduli (GPa) = 83.84554 89.58703 60.61410
#
# Poissons Ratio (x) = 0.39283 0.28339
# Poissons Ratio (y) = 0.36766 0.04627
# Poissons Ratio (z) = 0.39201 0.06839
#
# Static dielectric constant tensor:
#      x y z
#    x 1.725310 0.000000 -0.106080 
#    y 0.000000 1.784020 0.000000 
#    z -0.106080 0.000000 1.750190 
# 
# From -- ./inp_files/104684.got.cif
#   From: 2010.05.17/outbox.cif.g08.bks.cpg/sg12_53_cif.got.tgz:104684.got - 2010.06.03 13:09:07.
