data_PCOD9205046
_publ_section_title
;
Structure prediction by ZEFSAII (Michael W. Deem and Ramdas Pophale) SiO2 
 PCOD9205046
Probable space group: C 2/M
;
_chemical_formula_sum "Si O2"
_cell_formula_units_Z 34
_cell_length_a 14.241734
_cell_length_b 19.222308
_cell_length_c 9.566144
_cell_angle_alpha 90.000000
_cell_angle_beta 152.040170
_cell_angle_gamma 90.000000
_cell_volume 1227.839137
_symmetry_space_group_name_H-M "C 2/M"
_symmetry_group_IT_number 12
_symmetry_cell_setting 'monoclinic'
loop_
_space_group_symop_operation_xyz
x,y,z
-x,y,-z
-x,-y,-z
x,-y,z
1/2+x,1/2+y,z
1/2-x,1/2+y,-z
1/2-x,1/2-y,-z
1/2+x,1/2-y,z
loop_
_atom_site_type_symbol
_atom_site_label
_atom_site_fract_x
_atom_site_fract_y
_atom_site_fract_z
Si Si1 0.739347 0.500000 0.102891
Si Si2 0.708685 0.803535 0.100834
Si Si3 0.500000 0.500000 0.500000
Si Si4 0.852665 0.150243 0.999885
Si Si5 0.302658 0.856508 0.601038
Si Si6 0.976566 0.500000 0.155893
O O1 0.555936 0.500000 0.744856
O O2 0.724897 0.575812 0.152723
O O3 0.937214 0.500000 0.269390
O O4 0.758025 0.722372 0.179081
O O5 0.278505 0.837840 0.732079
O O6 0.471743 0.807885 0.754251
O O7 0.828658 0.845527 0.139930
O O8 0.252309 0.500000 0.203199
O O9 0.081933 0.152952 0.253424
O O10 0.398402 0.932132 0.715126
#
# Coordination Sequence:
#
# PCOD9205046 Si02
#       6
#     4   8   2   8   8   4
#     4  10  21  34  59  79 118 146 183 233 287 339
#     4  10  23  35  56  81 120 152 185 227 291 344
#     4   8  20  32  54  90 112 152 174 232 306 344
#     4  11  22  39  54  86 115 155 186 233 285 342
#     4  11  22  37  58  87 116 150 189 235 288 349
#     4  10  21  35  58  90 115 148 183 238 305 346
#
# _framework density 27.690922
#
# number of rings (size 3 to 8) (size 9 to 14) (size 15 to 20)
#    0.706    0.941    2.353    2.118    9.882    2.824 
#    0.000    0.000    0.000    2.824    0.000   16.471 
#    0.000    0.000    0.000    0.000    0.000    0.000 
#
# Total GULP energy -95025.053868 kJ/mol
# GULP energy per Si atom -5589.709051 kJ/mol
# Density = 2.762790 g / cm^3
# Si number density = 27.690922 Si / 1000 Ang^3
#
#
#
# Elastic Constant Matrix: (Units=GPa)
#
#
# Indices 1 2 3 4 5 6 
#
# 1 96.5809 20.1187 47.5332 0.0000 3.8920 0.0000
# 2 20.1187 256.4018 54.1999 0.0000 12.2141 0.0000
# 3 47.5332 54.1999 177.5126 0.0000 29.7401 0.0000
# 4 0.0000 0.0000 0.0000 9.0941 0.0000 16.6965
# 5 3.8920 12.2141 29.7401 0.0000 41.2794 0.0000
# 6 0.0000 0.0000 0.0000 16.6965 0.0000 40.4189
#
#
#
# Elastic Compliance Matrix: (Units=1/GPa)
#
#
# Indices 1 2 3 4 5 6 
#
# 1 0.012012 -0.000299 -0.003355 0.000000 0.001373 0.000000
# 2 -0.000299 0.004181 -0.001131 0.000000 -0.000394 0.000000
# 3 -0.003355 -0.001131 0.007697 0.000000 -0.004895 0.000000
# 4 0.000000 0.000000 0.000000 0.455150 0.000000 -0.188016
# 5 0.001373 -0.000394 -0.004895 0.000000 0.027739 0.000000
# 6 0.000000 0.000000 0.000000 -0.188016 0.000000 0.102407
#
#
# Mechanical properties :
#
#
# Convention : Reuss Voigt Hill
#
# Bulk Modulus (GPa) = 69.82603 86.02208 77.92406
# Shear Modulus (GPa) = 8.01885 45.40140 26.71013
#
# Velocity S-wave (km/s) = 1.70356 4.05356 3.10914
# Velocity P-wave (km/s) = 5.39819 7.28293 6.41021
#
# Compressibility (1/GPa) = 0.01432131
#
# Stress axis : x y z
#
# Youngs Moduli (GPa) = 83.24789 239.15692 129.91823
#
# Poissons Ratio (x) = 0.07143 0.43594
# Poissons Ratio (y) = 0.02486 0.14689
# Poissons Ratio (z) = 0.27934 0.27040
#
# Static dielectric constant tensor:
#      x y z
#    x 2.215680 0.000000 -0.103890 
#    y 0.000000 2.153030 0.000000 
#    z -0.103890 0.000000 2.165930 
# 
# From -- ./inp_files/217287.got.cif
#   From: 2010.05.17/outbox.cif.g08.bks.cpg/sg12_109_cif.got.tgz:217287.got - 2010.06.03 13:09:07.
