data_PCOD9205834
_publ_section_title
;
Structure prediction by ZEFSAII (Michael W. Deem and Ramdas Pophale) SiO2 
 PCOD9205834
Probable space group: C 2/M
;
_chemical_formula_sum "Si O2"
_cell_formula_units_Z 48
_cell_length_a 20.962997
_cell_length_b 8.661026
_cell_length_c 20.621814
_cell_angle_alpha 90.000000
_cell_angle_beta 130.676156
_cell_angle_gamma 90.000000
_cell_volume 2839.560571
_symmetry_space_group_name_H-M "C 2/M"
_symmetry_group_IT_number 12
_symmetry_cell_setting 'monoclinic'
loop_
_space_group_symop_operation_xyz
x,y,z
-x,y,-z
-x,-y,-z
x,-y,z
1/2+x,1/2+y,z
1/2-x,1/2+y,-z
1/2-x,1/2-y,-z
1/2+x,1/2-y,z
loop_
_atom_site_type_symbol
_atom_site_label
_atom_site_fract_x
_atom_site_fract_y
_atom_site_fract_z
Si Si1 0.134977 0.182504 0.592348
Si Si2 0.757870 0.187371 0.223222
Si Si3 0.907452 0.686469 0.961378
Si Si4 0.519388 0.317136 0.407288
Si Si5 0.655768 0.316190 0.944552
Si Si6 0.404173 0.816650 0.227133
O O1 0.213821 0.241985 0.686215
O O2 0.100055 0.244767 0.500857
O O3 0.057979 0.195268 0.592673
O O4 0.148268 0.000000 0.589855
O O5 0.664750 0.228174 0.138451
O O6 0.824506 0.252968 0.215510
O O7 0.765855 0.000000 0.227353
O O8 0.906212 0.500000 0.967255
O O9 0.882446 0.758784 0.013295
O O10 0.000000 0.733391 0.000000
O O11 0.529587 0.500000 0.400697
O O12 0.487158 0.232367 0.322077
O O13 0.660126 0.500000 0.945862
O O14 0.602420 0.255635 0.848234
O O15 0.750000 0.250000 0.000000
O O16 0.398354 0.000000 0.219349
#
# Coordination Sequence:
#
# PCOD9205834 Si02
#       6
#     8   8   8   8   8   8
#     4   7  11  21  40  63  88 125 165 197 236 293
#     4   9  16  29  48  68  96 133 169 203 244 297
#     4  10  21  36  54  77 105 136 171 210 251 299
#     4   8  13  24  40  61  92 126 161 199 242 294
#     4  12  23  36  54  75 100 133 172 212 256 302
#     4  11  20  29  45  71 100 129 164 205 252 300
#
# _framework density 16.904025000000001
#
# number of rings (size 3 to 8) (size 9 to 14) (size 15 to 20)
#    0.000    2.500    1.667    5.000    0.000    0.333 
#    0.000    6.667    0.000    0.000    0.000    1.167 
#    0.000    0.000    0.000    0.000    0.000    0.000 
#
# Total GULP energy -133675.717478 kJ/mol
# GULP energy per Si atom -5569.821562 kJ/mol
# Density = 1.686555 g / cm^3
# Si number density = 16.904025 Si / 1000 Ang^3
#
#
#
# Elastic Constant Matrix: (Units=GPa)
#
#
# Indices 1 2 3 4 5 6 
#
# 1 62.8806 27.3937 62.0583 0.0000 2.6471 0.0000
# 2 27.3937 42.6701 47.0270 0.0000 1.1305 0.0000
# 3 62.0583 47.0270 206.0937 0.0000 0.2488 0.0000
# 4 0.0000 0.0000 0.0000 20.8180 0.0000 -5.3043
# 5 2.6471 1.1305 0.2488 0.0000 12.7627 0.0000
# 6 0.0000 0.0000 0.0000 -5.3043 0.0000 14.7639
#
#
#
# Elastic Compliance Matrix: (Units=1/GPa)
#
#
# Indices 1 2 3 4 5 6 
#
# 1 0.026072 -0.010656 -0.005414 0.000000 -0.004358 0.000000
# 2 -0.010656 0.035753 -0.004949 0.000000 -0.000861 0.000000
# 3 -0.005414 -0.004949 0.007610 0.000000 0.001413 0.000000
# 4 0.000000 0.000000 0.000000 0.052876 0.000000 0.018997
# 5 -0.004358 -0.000861 0.001413 0.000000 0.079306 0.000000
# 6 0.000000 0.000000 0.000000 0.018997 0.000000 0.074558
#
#
# Mechanical properties :
#
#
# Convention : Reuss Voigt Hill
#
# Bulk Modulus (GPa) = 36.49843 64.95585 50.72714
# Shear Modulus (GPa) = 15.27448 21.34661 18.31054
#
# Velocity S-wave (km/s) = 3.00926 3.55746 3.29478
# Velocity P-wave (km/s) = 5.80625 7.44202 6.67444
#
# Compressibility (1/GPa) = 0.02739844
#
# Stress axis : x y z
#
# Youngs Moduli (GPa) = 38.35545 27.96964 131.40777
#
# Poissons Ratio (x) = 0.29803 0.71144
# Poissons Ratio (y) = 0.40870 0.65029
# Poissons Ratio (z) = 0.20766 0.13841
#
# Static dielectric constant tensor:
#      x y z
#    x 1.526360 0.000000 0.010880 
#    y 0.000000 1.567680 0.000000 
#    z 0.010880 0.000000 1.644020 
# 
# From -- ./inp_files/319372.got.cif
#   From: 2010.05.17/outbox.cif.g08.bks.cpg/sg12_160_cif.got.tgz:319372.got - 2010.06.03 13:09:07.
