data_PCOD9205540
_publ_section_title
;
Structure prediction by ZEFSAII (Michael W. Deem and Ramdas Pophale) SiO2 
 PCOD9205540
Probable space group: C 2/M
;
_chemical_formula_sum "Si O2"
_cell_formula_units_Z 56
_cell_length_a 18.054378
_cell_length_b 10.759765
_cell_length_c 17.007283
_cell_angle_alpha 90.000000
_cell_angle_beta 52.704066
_cell_angle_gamma 90.000000
_cell_volume 2628.266733
_symmetry_space_group_name_H-M "C 2/M"
_symmetry_group_IT_number 12
_symmetry_cell_setting 'monoclinic'
loop_
_space_group_symop_operation_xyz
x,y,z
-x,y,-z
-x,-y,-z
x,-y,z
1/2+x,1/2+y,z
1/2-x,1/2+y,-z
1/2-x,1/2-y,-z
1/2+x,1/2-y,z
loop_
_atom_site_type_symbol
_atom_site_label
_atom_site_fract_x
_atom_site_fract_y
_atom_site_fract_z
Si Si1 0.020616 0.857816 0.841545
Si Si2 0.765338 0.217944 0.580823
Si Si3 0.723778 0.641446 0.759358
Si Si4 0.820492 0.136911 0.950976
Si Si5 0.031896 0.247974 0.561736
Si Si6 0.346616 0.636993 0.748869
Si Si7 0.068783 0.631853 0.700794
O O1 0.915188 0.846336 0.940379
O O2 0.111771 0.843918 0.837273
O O3 0.030297 0.750732 0.770716
O O4 0.028112 0.000000 0.805473
O O5 0.750000 0.250000 0.500000
O O6 0.750320 0.332685 0.650521
O O7 0.871817 0.175867 0.518489
O O8 0.677816 0.130785 0.653662
O O9 0.748746 0.500000 0.765307
O O10 0.779150 0.749686 0.768264
O O11 0.851721 0.133629 0.839736
O O12 0.780609 0.000000 0.995921
O O13 0.750000 0.250000 0.000000
O O14 0.054921 0.343442 0.616996
O O15 0.000000 0.307047 0.500000
O O16 0.947608 0.164492 0.647355
O O17 0.313362 0.500000 0.744016
O O18 0.025282 0.500000 0.750542
#
# Coordination Sequence:
#
# PCOD9205540 Si02
#       7
#     8   8   8   8   8   8   8
#     4   9  19  40  64  86 119 161 196 239 301 367
#     4   9  20  36  52  82 121 166 210 254 295 347
#     4  10  21  39  62  87 121 166 209 251 299 355
#     4  10  22  43  70  95 120 151 196 250 308 373
#     4  11  21  38  54  84 124 169 206 246 297 361
#     4  11  24  42  61  89 126 162 200 253 309 361
#     4  10  21  35  57  87 117 156 209 261 296 339
#
# _framework density 21.306819000000001
#
# number of rings (size 3 to 8) (size 9 to 14) (size 15 to 20)
#    0.000    2.000    2.857    0.000    0.000    7.429 
#    0.000    3.571    0.000    4.286    0.000    0.000 
#    0.000    0.000    0.000    0.000    0.000    0.000 
#
# Total GULP energy -156030.212545 kJ/mol
# GULP energy per Si atom -5572.507591 kJ/mol
# Density = 2.125832 g / cm^3
# Si number density = 21.306819 Si / 1000 Ang^3
#
#
#
# Elastic Constant Matrix: (Units=GPa)
#
#
# Indices 1 2 3 4 5 6 
#
# 1 109.3646 58.2495 25.2465 0.0000 -22.8590 0.0000
# 2 58.2495 165.7186 33.5832 0.0000 -28.1758 0.0000
# 3 25.2465 33.5832 45.3401 0.0000 -17.4696 0.0000
# 4 0.0000 0.0000 0.0000 5.7946 0.0000 5.9760
# 5 -22.8590 -28.1758 -17.4696 0.0000 37.9465 0.0000
# 6 0.0000 0.0000 0.0000 5.9760 0.0000 15.7480
#
#
#
# Elastic Compliance Matrix: (Units=1/GPa)
#
#
# Indices 1 2 3 4 5 6 
#
# 1 0.012262 -0.003046 -0.003157 0.000000 0.003672 0.000000
# 2 -0.003046 0.008253 -0.003358 0.000000 0.002747 0.000000
# 3 -0.003157 -0.003358 0.029913 0.000000 0.009376 0.000000
# 4 0.000000 0.000000 0.000000 0.283541 0.000000 -0.107597
# 5 0.003672 0.002747 0.009376 0.000000 0.034921 0.000000
# 6 0.000000 0.000000 0.000000 -0.107597 0.000000 0.104331
#
#
# Mechanical properties :
#
#
# Convention : Reuss Voigt Hill
#
# Bulk Modulus (GPa) = 31.94315 61.62017 46.78166
# Shear Modulus (GPa) = 9.94472 25.45409 17.69941
#
# Velocity S-wave (km/s) = 2.16276 3.46011 2.88530
# Velocity P-wave (km/s) = 4.61099 6.70421 5.75359
#
# Compressibility (1/GPa) = 0.03130562
#
# Stress axis : x y z
#
# Youngs Moduli (GPa) = 81.55026 121.17444 33.42980
#
# Poissons Ratio (x) = 0.36911 0.10554
# Poissons Ratio (y) = 0.24841 0.11226
# Poissons Ratio (z) = 0.25746 0.40693
#
# Static dielectric constant tensor:
#      x y z
#    x 1.828380 0.000000 -0.012370 
#    y 0.000000 1.876450 0.000000 
#    z -0.012370 0.000000 1.792750 
# 
# From -- ./inp_files/276930.got.cif
#   From: 2010.05.17/outbox.cif.g08.bks.cpg/sg12_139_cif.got.tgz:276930.got - 2010.06.03 13:09:07.
