data_PCOD9205328
_publ_section_title
;
Structure prediction by ZEFSAII (Michael W. Deem and Ramdas Pophale) SiO2 
 PCOD9205328
Probable space group: C 2/M
;
_chemical_formula_sum "Si O2"
_cell_formula_units_Z 48
_cell_length_a 25.332831
_cell_length_b 7.891209
_cell_length_c 11.288054
_cell_angle_alpha 90.000000
_cell_angle_beta 73.511079
_cell_angle_gamma 90.000000
_cell_volume 2163.755480
_symmetry_space_group_name_H-M "C 2/M"
_symmetry_group_IT_number 12
_symmetry_cell_setting 'monoclinic'
loop_
_space_group_symop_operation_xyz
x,y,z
-x,y,-z
-x,-y,-z
x,-y,z
1/2+x,1/2+y,z
1/2-x,1/2+y,-z
1/2-x,1/2-y,-z
1/2+x,1/2-y,z
loop_
_atom_site_type_symbol
_atom_site_label
_atom_site_fract_x
_atom_site_fract_y
_atom_site_fract_z
Si Si1 0.187499 0.307555 0.049189
Si Si2 0.581239 0.802491 0.507373
Si Si3 0.312877 0.702386 0.439408
Si Si4 0.527475 0.794580 0.786052
Si Si5 0.583780 0.791168 0.243457
Si Si6 0.866637 0.800527 0.155643
O O1 0.191513 0.500000 0.085999
O O2 0.157800 0.293750 0.941277
O O3 0.250000 0.250000 0.000000
O O4 0.143516 0.225156 0.166756
O O5 0.646161 0.784907 0.491574
O O6 0.552352 0.732723 0.643571
O O7 0.568720 0.733138 0.385543
O O8 0.565545 0.000000 0.514698
O O9 0.319293 0.500000 0.443014
O O10 0.250000 0.750000 0.500000
O O11 0.334638 0.755518 0.295523
O O12 0.463725 0.744610 0.819751
O O13 0.568875 0.729298 0.859307
O O14 0.530411 0.000000 0.789054
O O15 0.584453 0.000000 0.245544
O O16 0.856658 0.000000 0.144848
#
# Coordination Sequence:
#
# PCOD9205328 Si02
#       6
#     8   8   8   8   8   8
#     4  11  24  41  59  81 113 152 195 237 280 332
#     4   9  17  32  56  86 116 144 179 225 281 341
#     4  10  21  35  54  80 110 146 187 232 282 334
#     4   9  17  34  61  89 114 144 185 229 280 342
#     4   9  19  35  58  86 115 149 186 230 281 333
#     4  10  22  40  58  80 114 150 187 235 284 331
#
# _framework density 22.183653
#
# number of rings (size 3 to 8) (size 9 to 14) (size 15 to 20)
#    0.000    2.333    0.000    2.000    2.333    4.667 
#    0.000    6.667    0.000    4.000    0.000    0.000 
#    0.000    0.000    0.000    0.000    0.000    0.000 
#
# Total GULP energy -133993.409091 kJ/mol
# GULP energy per Si atom -5583.058712 kJ/mol
# Density = 2.213316 g / cm^3
# Si number density = 22.183653 Si / 1000 Ang^3
#
#
#
# Elastic Constant Matrix: (Units=GPa)
#
#
# Indices 1 2 3 4 5 6 
#
# 1 125.6583 -7.2387 17.7808 0.0000 -13.1107 0.0000
# 2 -7.2387 20.6611 -5.1906 0.0000 -7.0452 0.0000
# 3 17.7808 -5.1906 47.3530 0.0000 4.1471 0.0000
# 4 0.0000 0.0000 0.0000 11.9425 0.0000 0.3563
# 5 -13.1107 -7.0452 4.1471 0.0000 28.5964 0.0000
# 6 0.0000 0.0000 0.0000 0.3563 0.0000 20.4968
#
#
#
# Elastic Compliance Matrix: (Units=1/GPa)
#
#
# Indices 1 2 3 4 5 6 
#
# 1 0.009322 0.004378 -0.003534 0.000000 0.005865 0.000000
# 2 0.004378 0.055954 0.003146 0.000000 0.015336 0.000000
# 3 -0.003534 0.003146 0.023158 0.000000 -0.004204 0.000000
# 4 0.000000 0.000000 0.000000 0.083778 0.000000 -0.001456
# 5 0.005865 0.015336 -0.004204 0.000000 0.042046 0.000000
# 6 0.000000 0.000000 0.000000 -0.001456 0.000000 0.048814
#
#
# Mechanical properties :
#
#
# Convention : Reuss Voigt Hill
#
# Bulk Modulus (GPa) = 10.37184 22.70837 16.54011
# Shear Modulus (GPa) = 17.40764 24.76186 21.08475
#
# Velocity S-wave (km/s) = 2.80430 3.34461 3.08630
# Velocity P-wave (km/s) = 3.89500 5.01737 4.49138
#
# Compressibility (1/GPa) = 0.09641490
#
# Stress axis : x y z
#
# Youngs Moduli (GPa) = 107.26902 17.87185 43.18140
#
# Poissons Ratio (x) = -0.07825 0.15261
# Poissons Ratio (y) = -0.46965 -0.13586
# Poissons Ratio (z) = 0.37911 -0.05623
#
# Static dielectric constant tensor:
#      x y z
#    x 1.809670 0.000000 -0.028590 
#    y 0.000000 1.823790 0.000000 
#    z -0.028590 0.000000 1.846010 
# 
# From -- ./inp_files/172925.got.cif
#   From: 2010.05.17/outbox.cif.g08.bks.cpg/sg12_87_cif.got.tgz:172925.got - 2010.06.03 13:09:07.
