data_PCOD9205920
_publ_section_title
;
Structure prediction by ZEFSAII (Michael W. Deem and Ramdas Pophale) SiO2 
 PCOD9205920
Probable space group: C 2/M
;
_chemical_formula_sum "Si O2"
_cell_formula_units_Z 64
_cell_length_a 18.608792
_cell_length_b 9.358143
_cell_length_c 17.114724
_cell_angle_alpha 90.000000
_cell_angle_beta 93.153427
_cell_angle_gamma 90.000000
_cell_volume 2975.909060
_symmetry_space_group_name_H-M "C 2/M"
_symmetry_group_IT_number 12
_symmetry_cell_setting 'monoclinic'
loop_
_space_group_symop_operation_xyz
x,y,z
-x,y,-z
-x,-y,-z
x,-y,z
1/2+x,1/2+y,z
1/2-x,1/2+y,-z
1/2-x,1/2-y,-z
1/2+x,1/2-y,z
loop_
_atom_site_type_symbol
_atom_site_label
_atom_site_fract_x
_atom_site_fract_y
_atom_site_fract_z
Si Si1 0.323053 0.837257 0.507639
Si Si2 0.270229 0.336929 0.095773
Si Si3 0.365831 0.332485 0.971956
Si Si4 0.558472 0.170792 0.156335
Si Si5 0.293807 0.160994 0.741430
Si Si6 0.325199 0.163351 0.328350
Si Si7 0.545294 0.667753 0.736944
Si Si8 0.549341 0.663939 0.426111
O O1 0.250000 0.750000 0.500000
O O2 0.350380 0.833601 0.419602
O O3 0.383771 0.769721 0.565455
O O4 0.308242 0.000000 0.527533
O O5 0.249513 0.500000 0.067970
O O6 0.212084 0.219144 0.065599
O O7 0.259753 0.340423 0.187060
O O8 0.348660 0.310257 0.063049
O O9 0.379590 0.500000 0.958763
O O10 0.422116 0.238342 0.926942
O O11 0.628765 0.196103 0.216436
O O12 0.493752 0.250878 0.194866
O O13 0.548866 0.000000 0.149973
O O14 0.254963 0.271061 0.682370
O O15 0.296826 0.000000 0.709886
O O16 0.381629 0.255305 0.283230
O O17 0.323698 0.000000 0.300939
O O18 0.555664 0.500000 0.754745
O O19 0.494937 0.678561 0.656386
O O20 0.500000 0.687676 0.500000
O O21 0.575651 0.500000 0.432904
#
# Coordination Sequence:
#
# PCOD9205920 Si02
#       8
#     8   8   8   8   8   8   8   8
#     4  11  25  41  60  85 114 147 184 228 277 327
#     4   8  15  28  47  75 109 144 182 226 275 326
#     4   9  15  26  48  77 109 143 182 226 274 325
#     4  10  21  36  54  82 116 147 185 230 275 325
#     4   9  19  35  55  80 112 149 185 224 274 327
#     4  11  24  40  57  81 112 146 185 228 273 328
#     4  11  23  39  61  83 109 146 185 226 277 334
#     4  10  21  40  63  86 110 140 182 230 276 329
#
# _framework density 21.506032999999999
#
# number of rings (size 3 to 8) (size 9 to 14) (size 15 to 20)
#    0.000    2.125    1.250    2.625    1.750    5.750 
#    0.000    0.000    0.000    0.750    0.000    5.250 
#    0.000    0.000    0.000    0.000    0.000    0.000 
#
# Total GULP energy -178649.433567 kJ/mol
# GULP energy per Si atom -5582.794799 kJ/mol
# Density = 2.145708 g / cm^3
# Si number density = 21.506033 Si / 1000 Ang^3
#
#
#
# Elastic Constant Matrix: (Units=GPa)
#
#
# Indices 1 2 3 4 5 6 
#
# 1 73.0411 60.3038 10.4126 0.0000 -13.0565 0.0000
# 2 60.3038 115.7487 4.6131 0.0000 -5.0725 0.0000
# 3 10.4126 4.6131 43.2107 0.0000 -27.5692 0.0000
# 4 0.0000 0.0000 0.0000 25.2742 0.0000 -5.4994
# 5 -13.0565 -5.0725 -27.5692 0.0000 38.7787 0.0000
# 6 0.0000 0.0000 0.0000 -5.4994 0.0000 24.6272
#
#
#
# Elastic Compliance Matrix: (Units=1/GPa)
#
#
# Indices 1 2 3 4 5 6 
#
# 1 0.025777 -0.013118 -0.000674 0.000000 0.006483 0.000000
# 2 -0.013118 0.015369 -0.000027 0.000000 -0.002426 0.000000
# 3 -0.000674 -0.000027 0.042387 0.000000 0.029904 0.000000
# 4 0.000000 0.000000 0.000000 0.041587 0.000000 0.009287
# 5 0.006483 -0.002426 0.029904 0.000000 0.048913 0.000000
# 6 0.000000 0.000000 0.000000 0.009287 0.000000 0.042679
#
#
# Mechanical properties :
#
#
# Convention : Reuss Voigt Hill
#
# Bulk Modulus (GPa) = 17.89165 42.51773 30.20469
# Shear Modulus (GPa) = 19.01266 28.18074 23.59670
#
# Velocity S-wave (km/s) = 2.97654 3.62382 3.31601
# Velocity P-wave (km/s) = 4.48893 6.10922 5.36064
#
# Compressibility (1/GPa) = 0.05589200
#
# Stress axis : x y z
#
# Youngs Moduli (GPa) = 38.79466 65.06725 23.59204
#
# Poissons Ratio (x) = 0.85358 0.01591
# Poissons Ratio (y) = 0.50892 0.00065
# Poissons Ratio (z) = 0.02617 0.00178
#
# Static dielectric constant tensor:
#      x y z
#    x 1.754310 0.000000 -0.022560 
#    y 0.000000 1.753930 0.000000 
#    z -0.022560 0.000000 1.850080 
# 
# From -- ./inp_files/313988.got.cif
#   From: 2010.05.17/outbox.cif.g08.bks.cpg/sg12_157_cif.got.tgz:313988.got - 2010.06.03 13:09:07.
