data_PCOD9205460
_publ_section_title
;
Structure prediction by ZEFSAII (Michael W. Deem and Ramdas Pophale) SiO2 
 PCOD9205460
Probable space group: C 2/M
;
_chemical_formula_sum "Si O2"
_cell_formula_units_Z 48
_cell_length_a 19.570269
_cell_length_b 7.860226
_cell_length_c 21.114540
_cell_angle_alpha 90.000000
_cell_angle_beta 143.050877
_cell_angle_gamma 90.000000
_cell_volume 1952.379512
_symmetry_space_group_name_H-M "C 2/M"
_symmetry_group_IT_number 12
_symmetry_cell_setting 'monoclinic'
loop_
_space_group_symop_operation_xyz
x,y,z
-x,y,-z
-x,-y,-z
x,-y,z
1/2+x,1/2+y,z
1/2-x,1/2+y,-z
1/2-x,1/2-y,-z
1/2+x,1/2-y,z
loop_
_atom_site_type_symbol
_atom_site_label
_atom_site_fract_x
_atom_site_fract_y
_atom_site_fract_z
Si Si1 0.091891 0.305885 0.020069
Si Si2 0.439589 0.792638 0.551190
Si Si3 0.831284 0.707374 0.337941
Si Si4 0.564140 0.793243 0.314360
Si Si5 0.806550 0.300796 0.108365
Si Si6 0.904606 0.800332 0.798421
O O1 0.107824 0.500000 0.050850
O O2 0.019045 0.296745 0.900987
O O3 0.214678 0.232663 0.095523
O O4 0.000000 0.222806 0.000000
O O5 0.572013 0.741549 0.639823
O O6 0.376235 0.738331 0.440630
O O7 0.394107 0.736859 0.585461
O O8 0.437773 0.000000 0.549330
O O9 0.828090 0.500000 0.335013
O O10 0.701107 0.762815 0.237547
O O11 0.432838 0.729606 0.211698
O O12 0.624938 0.724883 0.297034
O O13 0.568370 0.000000 0.315361
O O14 0.823324 0.500000 0.119049
O O15 0.750000 0.250000 0.000000
O O16 0.923861 0.000000 0.823430
#
# Coordination Sequence:
#
# PCOD9205460 Si02
#       6
#     8   8   8   8   8   8
#     4  11  25  42  58  80 112 150 189 232 285 336
#     4   8  15  32  55  80 109 143 182 227 274 327
#     4   8  16  31  54  82 110 140 182 230 275 324
#     4  10  21  35  56  82 112 148 185 224 275 332
#     4  11  22  37  59  84 114 150 188 230 276 332
#     4  11  22  35  56  84 113 144 184 233 279 331
#
# _framework density 24.585383
#
# number of rings (size 3 to 8) (size 9 to 14) (size 15 to 20)
#    0.000    2.167    1.667    2.500    2.333    2.667 
#    0.000    0.000    0.000    1.000    0.000    5.833 
#    0.000    0.000    0.000    0.000    0.000    0.000 
#
# Total GULP energy -134123.960666 kJ/mol
# GULP energy per Si atom -5588.498361 kJ/mol
# Density = 2.452943 g / cm^3
# Si number density = 24.585383 Si / 1000 Ang^3
#
#
#
# Elastic Constant Matrix: (Units=GPa)
#
#
# Indices 1 2 3 4 5 6 
#
# 1 112.7957 0.7711 2.0191 0.0000 -3.0975 0.0000
# 2 0.7711 45.2575 -0.3949 0.0000 -1.8860 0.0000
# 3 2.0191 -0.3949 36.7728 0.0000 0.1926 0.0000
# 4 0.0000 0.0000 0.0000 9.3028 0.0000 -7.9876
# 5 -3.0975 -1.8860 0.1926 0.0000 49.8755 0.0000
# 6 0.0000 0.0000 0.0000 -7.9876 0.0000 22.5259
#
#
#
# Elastic Compliance Matrix: (Units=1/GPa)
#
#
# Indices 1 2 3 4 5 6 
#
# 1 0.008890 -0.000133 -0.000492 0.000000 0.000549 0.000000
# 2 -0.000133 0.022135 0.000241 0.000000 0.000828 0.000000
# 3 -0.000492 0.000241 0.027224 0.000000 -0.000127 0.000000
# 4 0.000000 0.000000 0.000000 0.154550 0.000000 0.054803
# 5 0.000549 0.000828 -0.000127 0.000000 0.020116 0.000000
# 6 0.000000 0.000000 0.000000 0.054803 0.000000 0.063826
#
#
# Mechanical properties :
#
#
# Convention : Reuss Voigt Hill
#
# Bulk Modulus (GPa) = 17.39738 22.17962 19.78850
# Shear Modulus (GPa) = 15.78928 29.16956 22.47942
#
# Velocity S-wave (km/s) = 2.53696 3.44824 3.02709
# Velocity P-wave (km/s) = 3.95894 4.98947 4.50378
#
# Compressibility (1/GPa) = 0.05747993
#
# Stress axis : x y z
#
# Youngs Moduli (GPa) = 112.48101 45.17806 36.73189
#
# Poissons Ratio (x) = 0.00600 0.01809
# Poissons Ratio (y) = 0.01495 -0.00884
# Poissons Ratio (z) = 0.05539 -0.01087
#
# Static dielectric constant tensor:
#      x y z
#    x 1.982940 0.000000 -0.035480 
#    y 0.000000 1.882710 0.000000 
#    z -0.035480 0.000000 1.974650 
# 
# From -- ./inp_files/229830.got.cif
#   From: 2010.05.17/outbox.cif.g08.bks.cpg/sg12_115_cif.got.tgz:229830.got - 2010.06.03 13:09:07.
