data_PCOD9205745
_publ_section_title
;
Structure prediction by ZEFSAII (Michael W. Deem and Ramdas Pophale) SiO2 
 PCOD9205745
Probable space group: C 2/M
;
_chemical_formula_sum "Si O2"
_cell_formula_units_Z 40
_cell_length_a 21.463151
_cell_length_b 18.663788
_cell_length_c 4.841218
_cell_angle_alpha 90.000000
_cell_angle_beta 109.312611
_cell_angle_gamma 90.000000
_cell_volume 1830.184349
_symmetry_space_group_name_H-M "C 2/M"
_symmetry_group_IT_number 12
_symmetry_cell_setting 'monoclinic'
loop_
_space_group_symop_operation_xyz
x,y,z
-x,y,-z
-x,-y,-z
x,-y,z
1/2+x,1/2+y,z
1/2-x,1/2+y,-z
1/2-x,1/2-y,-z
1/2+x,1/2-y,z
loop_
_atom_site_type_symbol
_atom_site_label
_atom_site_fract_x
_atom_site_fract_y
_atom_site_fract_z
Si Si1 0.547020 0.769215 0.836138
Si Si2 0.233195 0.918836 0.833284
Si Si3 0.819552 0.229172 0.246421
Si Si4 0.316427 0.880168 0.467530
Si Si5 0.431902 0.076346 0.234453
O O1 0.500000 0.771474 0.500000
O O2 0.616290 0.733996 0.854087
O O3 0.565507 0.851428 0.940902
O O4 0.500000 0.736630 0.000000
O O5 0.188089 0.852553 0.668690
O O6 0.298519 0.909637 0.739838
O O7 0.208707 0.000000 0.771673
O O8 0.254684 0.902299 0.178845
O O9 0.825995 0.293954 0.475633
O O10 0.750000 0.250000 0.000000
O O11 0.377012 0.913200 0.390303
O O12 0.500000 0.074166 0.500000
O O13 0.424076 0.000000 0.076834
#
# Coordination Sequence:
#
# PCOD9205745 Si02
#       5
#     8   8   8   8   8
#     4  10  22  38  55  77 108 145 181 222 273 326
#     4  11  21  35  56  81 108 137 176 230 281 321
#     4   9  21  38  60  84 111 146 189 229 271 330
#     4  10  21  36  52  77 111 145 178 218 271 324
#     4   9  18  31  48  72 104 141 178 213 254 313
#
# _framework density 21.855720000000002
#
# number of rings (size 3 to 8) (size 9 to 14) (size 15 to 20)
#    0.000    2.200    0.000    2.400    0.000   18.000 
#    0.000    4.000    0.000    1.200    0.000    0.000 
#    0.000    0.000    0.000    0.000    0.000    0.000 
#
# Total GULP energy -111779.972466 kJ/mol
# GULP energy per Si atom -5588.998623 kJ/mol
# Density = 2.180598 g / cm^3
# Si number density = 21.855720 Si / 1000 Ang^3
#
#
#
# Elastic Constant Matrix: (Units=GPa)
#
#
# Indices 1 2 3 4 5 6 
#
# 1 132.5095 41.3245 17.9670 0.0000 -8.4035 0.0000
# 2 41.3245 176.9375 9.5733 0.0000 -2.3653 0.0000
# 3 17.9670 9.5733 78.3902 0.0000 -10.8427 0.0000
# 4 0.0000 0.0000 0.0000 15.3468 0.0000 -1.5562
# 5 -8.4035 -2.3653 -10.8427 0.0000 27.6404 0.0000
# 6 0.0000 0.0000 0.0000 -1.5562 0.0000 9.0646
#
#
#
# Elastic Compliance Matrix: (Units=1/GPa)
#
#
# Indices 1 2 3 4 5 6 
#
# 1 0.008443 -0.001869 -0.001453 0.000000 0.001837 0.000000
# 2 -0.001869 0.006104 -0.000342 0.000000 -0.000180 0.000000
# 3 -0.001453 -0.000342 0.013816 0.000000 0.004949 0.000000
# 4 0.000000 0.000000 0.000000 0.066315 0.000000 0.011385
# 5 0.001837 -0.000180 0.004949 0.000000 0.038663 0.000000
# 6 0.000000 0.000000 0.000000 0.011385 0.000000 0.112274
#
#
# Mechanical properties :
#
#
# Convention : Reuss Voigt Hill
#
# Bulk Modulus (GPa) = 47.53760 58.39629 52.96694
# Shear Modulus (GPa) = 19.23414 31.67517 25.45466
#
# Velocity S-wave (km/s) = 2.96978 3.81108 3.41643
# Velocity P-wave (km/s) = 5.79287 6.79285 6.31269
#
# Compressibility (1/GPa) = 0.02103598
#
# Stress axis : x y z
#
# Youngs Moduli (GPa) = 118.44281 163.81999 72.38010
#
# Poissons Ratio (x) = 0.30613 0.10515
# Poissons Ratio (y) = 0.22134 0.02476
# Poissons Ratio (z) = 0.17207 0.05604
#
# Static dielectric constant tensor:
#      x y z
#    x 1.808030 0.000000 0.026900 
#    y 0.000000 1.830580 0.000000 
#    z 0.026900 0.000000 1.863390 
# 
# From -- ./inp_files/20127.got.cif
#   From: 2010.05.17/outbox.cif.g08.bks.cpg/sg12_11_cif.got.tgz:20127.got - 2010.06.03 13:09:07.
