data_PCOD9205977
_publ_section_title
;
Structure prediction by ZEFSAII (Michael W. Deem and Ramdas Pophale) SiO2 
 PCOD9205977
Probable space group: C 2/M
;
_chemical_formula_sum "Si O2"
_cell_formula_units_Z 56
_cell_length_a 10.010751
_cell_length_b 7.427097
_cell_length_c 31.508708
_cell_angle_alpha 90.000000
_cell_angle_beta 105.019710
_cell_angle_gamma 90.000000
_cell_volume 2262.664014
_symmetry_space_group_name_H-M "C 2/M"
_symmetry_group_IT_number 12
_symmetry_cell_setting 'monoclinic'
loop_
_space_group_symop_operation_xyz
x,y,z
-x,y,-z
-x,-y,-z
x,-y,z
1/2+x,1/2+y,z
1/2-x,1/2+y,-z
1/2-x,1/2-y,-z
1/2+x,1/2-y,z
loop_
_atom_site_type_symbol
_atom_site_label
_atom_site_fract_x
_atom_site_fract_y
_atom_site_fract_z
Si Si1 0.981328 0.781581 0.872483
Si Si2 0.748758 0.718714 0.730714
Si Si3 0.458439 0.291026 0.678892
Si Si4 0.402483 0.284961 0.028769
Si Si5 0.758042 0.281247 0.407966
Si Si6 0.684477 0.290275 0.819395
Si Si7 0.551545 0.291096 0.459947
O O1 0.059211 0.718210 0.921227
O O2 0.058502 0.713928 0.836403
O O3 0.822401 0.724695 0.858957
O O4 0.985540 0.000000 0.871763
O O5 0.751289 0.500000 0.730806
O O6 0.613377 0.782890 0.693388
O O7 0.888553 0.779566 0.719556
O O8 0.724226 0.784430 0.776593
O O9 0.472961 0.500000 0.668596
O O10 0.344063 0.215044 0.637433
O O11 0.423117 0.500000 0.032646
O O12 0.500000 0.211195 0.000000
O O13 0.250000 0.250000 0.000000
O O14 0.761230 0.500000 0.407616
O O15 0.683650 0.219322 0.445572
O O16 0.915633 0.218613 0.418991
O O17 0.652869 0.500000 0.809447
O O18 0.500000 0.207447 0.500000
O O19 0.582842 0.500000 0.470719
#
# Coordination Sequence:
#
# PCOD9205977 Si02
#       7
#     8   8   8   8   8   8   8
#     4  10  21  37  56  79 109 143 178 219 267 317
#     4  10  21  37  56  79 108 140 177 222 267 315
#     4  10  21  37  56  79 109 143 178 219 267 317
#     4  10  21  36  55  81 110 141 179 220 264 316
#     4  10  21  36  55  81 110 141 179 220 264 316
#     4  10  21  36  55  80 107 139 180 221 265 317
#     4  10  21  37  57  81 109 142 179 219 265 315
#
# _framework density 24.749587999999999
#
# number of rings (size 3 to 8) (size 9 to 14) (size 15 to 20)
#    0.000    2.000    0.000    3.000    0.000    6.286 
#    0.000    0.000    0.000    0.000    0.000    0.000 
#    0.000    0.000    0.000    0.000    0.000    0.000 
#
# Total GULP energy -156650.599746 kJ/mol
# GULP energy per Si atom -5594.664277 kJ/mol
# Density = 2.469326 g / cm^3
# Si number density = 24.749588 Si / 1000 Ang^3
#
#
#
# Elastic Constant Matrix: (Units=GPa)
#
#
# Indices 1 2 3 4 5 6 
#
# 1 107.5979 -12.1883 -16.3031 0.0000 -3.3543 0.0000
# 2 -12.1883 88.3952 -0.9523 0.0000 -5.6486 0.0000
# 3 -16.3031 -0.9523 71.9933 0.0000 -0.9984 0.0000
# 4 0.0000 0.0000 0.0000 4.8907 0.0000 7.2638
# 5 -3.3543 -5.6486 -0.9984 0.0000 46.5457 0.0000
# 6 0.0000 0.0000 0.0000 7.2638 0.0000 10.3768
#
#
#
# Elastic Compliance Matrix: (Units=1/GPa)
#
#
# Indices 1 2 3 4 5 6 
#
# 1 0.009828 0.001439 0.002258 0.000000 0.000931 0.000000
# 2 0.001439 0.011614 0.000501 0.000000 0.001524 0.000000
# 3 0.002258 0.000501 0.014415 0.000000 0.000533 0.000000
# 4 0.000000 0.000000 0.000000 -5.155113 0.000000 3.608599
# 5 0.000931 0.001524 0.000533 0.000000 0.021748 0.000000
# 6 0.000000 0.000000 0.000000 3.608599 0.000000 -2.429665
#
#
# Mechanical properties :
#
#
# Convention : Reuss Voigt Hill
#
# Bulk Modulus (GPa) = 22.59808 23.23322 22.91565
# Shear Modulus (GPa) = -0.66482 32.19132 15.76325
#
# Velocity S-wave (km/s) = -0.51885 3.61041 2.52644
# Velocity P-wave (km/s) = 2.96506 5.17569 4.21778
#
# Compressibility (1/GPa) = 0.04425154
#
# Stress axis : x y z
#
# Youngs Moduli (GPa) = 101.75059 86.10287 69.37016
#
# Poissons Ratio (x) = -0.12390 -0.15660
# Poissons Ratio (y) = -0.14641 -0.03473
# Poissons Ratio (z) = -0.22970 -0.04310
#
# Static dielectric constant tensor:
#      x y z
#    x 1.870100 0.000000 -0.014240 
#    y 0.000000 1.935630 0.000000 
#    z -0.014240 0.000000 2.007900 
# 
# From -- ./inp_files/357496.got.cif
#   From: 2010.05.17/outbox.cif.g08.bks.cpg/sg12_179_cif.got.tgz:357496.got - 2010.06.03 13:09:07.
