data_PCOD9205898
_publ_section_title
;
Structure prediction by ZEFSAII (Michael W. Deem and Ramdas Pophale) SiO2 
 PCOD9205898
Probable space group: C 2/M
;
_chemical_formula_sum "Si O2"
_cell_formula_units_Z 56
_cell_length_a 26.210923
_cell_length_b 9.133476
_cell_length_c 19.444629
_cell_angle_alpha 90.000000
_cell_angle_beta 142.069111
_cell_angle_gamma 90.000000
_cell_volume 2861.466802
_symmetry_space_group_name_H-M "C 2/M"
_symmetry_group_IT_number 12
_symmetry_cell_setting 'monoclinic'
loop_
_space_group_symop_operation_xyz
x,y,z
-x,y,-z
-x,-y,-z
x,-y,z
1/2+x,1/2+y,z
1/2-x,1/2+y,-z
1/2-x,1/2-y,-z
1/2+x,1/2-y,z
loop_
_atom_site_type_symbol
_atom_site_label
_atom_site_fract_x
_atom_site_fract_y
_atom_site_fract_z
Si Si1 0.620147 0.170773 0.469292
Si Si2 0.299413 0.325019 0.722295
Si Si3 0.837011 0.825832 0.612940
Si Si4 0.143916 0.323807 0.962517
Si Si5 0.083455 0.323054 0.047048
Si Si6 0.488217 0.336872 0.406882
Si Si7 0.335838 0.328615 0.154912
O O1 0.705409 0.215033 0.599557
O O2 0.604447 0.258149 0.382057
O O3 0.544625 0.210082 0.437078
O O4 0.628710 0.000000 0.462527
O O5 0.301147 0.500000 0.736548
O O6 0.352607 0.293550 0.709395
O O7 0.338846 0.239933 0.827441
O O8 0.750000 0.750000 0.500000
O O9 0.829973 0.000000 0.598403
O O10 0.137524 0.500000 0.951655
O O11 0.093657 0.277384 0.977620
O O12 0.241967 0.282511 0.073006
O O13 0.123954 0.255371 0.867035
O O14 0.086078 0.500000 0.050924
O O15 0.000000 0.277474 0.000000
O O16 0.500000 0.339243 0.500000
O O17 0.513727 0.500000 0.407489
O O18 0.394563 0.313933 0.282956
O O19 0.331519 0.500000 0.131319
#
# Coordination Sequence:
#
# PCOD9205898 Si02
#       7
#     8   8   8   8   8   8   8
#     4  10  21  36  54  80 112 148 192 234 281 340
#     4   9  20  36  54  79 110 146 185 227 276 336
#     4   9  17  32  53  78 109 143 185 227 267 326
#     4   9  19  37  60  83 111 148 191 236 283 336
#     4  10  22  37  55  83 113 142 183 233 287 344
#     4  10  22  37  56  84 117 150 188 231 285 349
#     4   9  19  37  59  84 111 146 194 237 278 339
#
# _framework density 19.570384000000001
#
# number of rings (size 3 to 8) (size 9 to 14) (size 15 to 20)
#    0.000    2.571    0.000    1.714    2.000    6.286 
#    0.000    2.857    0.000    0.000    0.000    0.000 
#    0.000    0.000    0.000    0.000    0.000    0.000 
#
# Total GULP energy -156037.960726 kJ/mol
# GULP energy per Si atom -5572.784312 kJ/mol
# Density = 1.952584 g / cm^3
# Si number density = 19.570384 Si / 1000 Ang^3
#
#
#
# Elastic Constant Matrix: (Units=GPa)
#
#
# Indices 1 2 3 4 5 6 
#
# 1 72.9937 11.0507 5.9834 0.0000 -9.4825 0.0000
# 2 11.0507 17.6740 7.6346 0.0000 -3.6746 0.0000
# 3 5.9834 7.6346 59.3967 0.0000 -10.2429 0.0000
# 4 0.0000 0.0000 0.0000 18.8893 0.0000 -0.9068
# 5 -9.4825 -3.6746 -10.2429 0.0000 22.9187 0.0000
# 6 0.0000 0.0000 0.0000 -0.9068 0.0000 25.7970
#
#
#
# Elastic Compliance Matrix: (Units=1/GPa)
#
#
# Indices 1 2 3 4 5 6 
#
# 1 0.015697 -0.008923 0.000476 0.000000 0.005277 0.000000
# 2 -0.008923 0.065937 -0.006924 0.000000 0.003786 0.000000
# 3 0.000476 -0.006924 0.018984 0.000000 0.007571 0.000000
# 4 0.000000 0.000000 0.000000 0.053030 0.000000 0.001864
# 5 0.005277 0.003786 0.007571 0.000000 0.049806 0.000000
# 6 0.000000 0.000000 0.000000 0.001864 0.000000 0.038830
#
#
# Mechanical properties :
#
#
# Convention : Reuss Voigt Hill
#
# Bulk Modulus (GPa) = 14.31106 22.15573 18.23340
# Shear Modulus (GPa) = 16.87377 21.88070 19.37723
#
# Velocity S-wave (km/s) = 2.93953 3.34736 3.15005
# Velocity P-wave (km/s) = 4.34161 5.12692 4.75052
#
# Compressibility (1/GPa) = 0.06987600
#
# Stress axis : x y z
#
# Youngs Moduli (GPa) = 63.70562 15.16590 52.67712
#
# Poissons Ratio (x) = 0.13533 -0.02505
# Poissons Ratio (y) = 0.56845 0.36471
# Poissons Ratio (z) = -0.03030 0.10500
#
# Static dielectric constant tensor:
#      x y z
#    x 1.765730 0.000000 0.019160 
#    y 0.000000 1.685610 0.000000 
#    z 0.019160 0.000000 1.695900 
# 
# From -- ./inp_files/292502.got.cif
#   From: 2010.05.17/outbox.cif.g08.bks.cpg/sg12_147_cif.got.tgz:292502.got - 2010.06.03 13:09:07.
