data_PCOD9205502
_publ_section_title
;
Structure prediction by ZEFSAII (Michael W. Deem and Ramdas Pophale) SiO2 
 PCOD9205502
Probable space group: C 2/M
;
_chemical_formula_sum "Si O2"
_cell_formula_units_Z 56
_cell_length_a 19.263530
_cell_length_b 13.491392
_cell_length_c 20.143537
_cell_angle_alpha 90.000000
_cell_angle_beta 34.481666
_cell_angle_gamma 90.000000
_cell_volume 2963.835676
_symmetry_space_group_name_H-M "C 2/M"
_symmetry_group_IT_number 12
_symmetry_cell_setting 'monoclinic'
loop_
_space_group_symop_operation_xyz
x,y,z
-x,y,-z
-x,-y,-z
x,-y,z
1/2+x,1/2+y,z
1/2-x,1/2+y,-z
1/2-x,1/2-y,-z
1/2+x,1/2-y,z
loop_
_atom_site_type_symbol
_atom_site_label
_atom_site_fract_x
_atom_site_fract_y
_atom_site_fract_z
Si Si1 0.645357 0.389815 0.395451
Si Si2 0.945634 0.232101 0.973334
Si Si3 0.309891 0.118345 0.829344
Si Si4 0.618693 0.188521 0.358592
Si Si5 0.284386 0.212316 0.400408
Si Si6 0.340687 0.609785 0.257950
Si Si7 0.964069 0.383688 0.837451
O O1 0.500000 0.398751 0.500000
O O2 0.699152 0.500000 0.342355
O O3 0.677011 0.299063 0.321155
O O4 0.681831 0.348539 0.439425
O O5 0.945117 0.316499 0.917313
O O6 0.040601 0.147870 0.874285
O O7 0.814043 0.180274 0.083814
O O8 0.000000 0.270331 0.000000
O O9 0.404238 0.158788 0.699009
O O10 0.361620 0.135317 0.862245
O O11 0.292449 0.000000 0.835005
O O12 0.500000 0.183292 0.500000
O O13 0.722949 0.115289 0.303053
O O14 0.250000 0.250000 0.500000
O O15 0.312336 0.311438 0.337050
O O16 0.406583 0.146364 0.298086
O O17 0.358865 0.500000 0.269569
O O18 0.964325 0.500000 0.853611
#
# Coordination Sequence:
#
# PCOD9205502 Si02
#       7
#     8   8   8   8   8   8   8
#     4   9  19  36  58  81 113 159 204 243 288 345
#     4  11  22  41  64  89 119 154 204 261 309 361
#     4  11  23  39  64  90 120 163 202 252 312 365
#     4  10  21  35  56  89 125 155 198 250 300 361
#     4  10  22  38  58  87 125 164 198 247 299 363
#     4  10  21  36  57  87 118 153 199 250 304 358
#     4  10  24  42  61  89 122 162 205 250 311 368
#
# _framework density 18.894434
#
# number of rings (size 3 to 8) (size 9 to 14) (size 15 to 20)
#    0.000    1.857    1.429    1.714    6.000    3.143 
#    0.000    0.714    0.000    0.857    0.000    0.000 
#    0.000    0.000    0.000    0.000    0.000    0.000 
#
# Total GULP energy -156168.400268 kJ/mol
# GULP energy per Si atom -5577.442867 kJ/mol
# Density = 1.885143 g / cm^3
# Si number density = 18.894434 Si / 1000 Ang^3
#
#
#
# Elastic Constant Matrix: (Units=GPa)
#
#
# Indices 1 2 3 4 5 6 
#
# 1 117.5861 49.9649 44.4155 0.0000 8.5167 0.0000
# 2 49.9649 122.7184 36.4707 0.0000 7.8072 0.0000
# 3 44.4155 36.4707 84.4664 0.0000 6.6101 0.0000
# 4 0.0000 0.0000 0.0000 13.7591 0.0000 -2.8539
# 5 8.5167 7.8072 6.6101 0.0000 26.5999 0.0000
# 6 0.0000 0.0000 0.0000 -2.8539 0.0000 -11.7791
#
#
#
# Elastic Compliance Matrix: (Units=1/GPa)
#
#
# Indices 1 2 3 4 5 6 
#
# 1 0.011784 -0.003315 -0.004636 0.000000 -0.001648 0.000000
# 2 -0.003315 0.010364 -0.002628 0.000000 -0.001327 0.000000
# 3 -0.004636 -0.002628 0.015537 0.000000 -0.001605 0.000000
# 4 0.000000 0.000000 0.000000 0.069201 0.000000 -0.016767
# 5 -0.001648 -0.001327 -0.001605 0.000000 0.038910 0.000000
# 6 0.000000 0.000000 0.000000 -0.016767 0.000000 -0.080834
#
#
# Mechanical properties :
#
#
# Convention : Reuss Voigt Hill
#
# Bulk Modulus (GPa) = 60.50761 65.16368 62.83564
# Shear Modulus (GPa) = 54.56813 18.64398 36.60605
#
# Velocity S-wave (km/s) = 5.37989 3.14466 4.40636
# Velocity P-wave (km/s) = 8.40741 6.91002 7.69522
#
# Compressibility (1/GPa) = 0.01652685
#
# Stress axis : x y z
#
# Youngs Moduli (GPa) = 84.86443 96.48886 64.36252
#
# Poissons Ratio (x) = 0.31987 0.29837
# Poissons Ratio (y) = 0.28133 0.16913
# Poissons Ratio (z) = 0.39342 0.25356
#
# Static dielectric constant tensor:
#      x y z
#    x 1.685590 0.000000 -0.001920 
#    y 0.000000 1.667560 0.000000 
#    z -0.001920 0.000000 1.658230 
# 
# From -- ./inp_files/277820.got.cif
#   From: 2010.05.17/outbox.cif.g08.bks.cpg/sg12_139_cif.got.tgz:277820.got - 2010.06.03 13:09:07.
