data_PCOD9205264
_publ_section_title
;
Structure prediction by ZEFSAII (Michael W. Deem and Ramdas Pophale) SiO2 
 PCOD9205264
Probable space group: C 2/M
;
_chemical_formula_sum "Si O2"
_cell_formula_units_Z 56
_cell_length_a 14.905167
_cell_length_b 8.490266
_cell_length_c 25.327580
_cell_angle_alpha 90.000000
_cell_angle_beta 115.902300
_cell_angle_gamma 90.000000
_cell_volume 2883.184514
_symmetry_space_group_name_H-M "C 2/M"
_symmetry_group_IT_number 12
_symmetry_cell_setting 'monoclinic'
loop_
_space_group_symop_operation_xyz
x,y,z
-x,y,-z
-x,-y,-z
x,-y,z
1/2+x,1/2+y,z
1/2-x,1/2+y,-z
1/2-x,1/2-y,-z
1/2+x,1/2-y,z
loop_
_atom_site_type_symbol
_atom_site_label
_atom_site_fract_x
_atom_site_fract_y
_atom_site_fract_z
Si Si1 0.847654 0.688105 0.775600
Si Si2 0.851029 0.190140 0.999277
Si Si3 0.070701 0.809716 0.310556
Si Si4 0.181559 0.178486 0.436937
Si Si5 0.931327 0.189941 0.907080
Si Si6 0.631408 0.310154 0.679730
Si Si7 0.006435 0.679926 0.564288
O O1 0.849333 0.500000 0.777421
O O2 0.914001 0.746994 0.743853
O O3 0.885478 0.751001 0.841045
O O4 0.734685 0.738782 0.732743
O O5 0.953147 0.239808 0.055275
O O6 0.848379 0.000000 0.999237
O O7 0.750000 0.250000 0.000000
O O8 0.868682 0.240361 0.942854
O O9 0.158545 0.750545 0.373071
O O10 0.963127 0.767585 0.307472
O O11 0.076363 0.000000 0.312068
O O12 0.250000 0.250000 0.500000
O O13 0.071560 0.193718 0.433682
O O14 0.215419 0.000000 0.438404
O O15 0.931231 0.000000 0.906987
O O16 0.632172 0.500000 0.672989
O O17 0.609986 0.225711 0.618367
O O18 0.979407 0.500000 0.572879
O O19 0.000000 0.686647 0.500000
#
# Coordination Sequence:
#
# PCOD9205264 Si02
#       7
#     8   8   8   8   8   8   8
#     4  11  23  37  58  87 115 148 194 241 284 333
#     4   9  19  37  62  89 119 155 194 232 276 329
#     4   9  20  39  57  75 107 148 186 228 286 349
#     4  10  21  36  55  78 106 139 179 229 288 349
#     4   9  20  39  58  83 120 158 192 227 277 341
#     4   9  21  40  56  76 108 147 187 232 288 346
#     4  10  21  35  53  79 106 135 180 232 284 347
#
# _framework density 19.422967
#
# number of rings (size 3 to 8) (size 9 to 14) (size 15 to 20)
#    0.000    2.429    0.000    3.000    2.000    7.429 
#    0.000    5.714    0.000    0.000    0.000    0.000 
#    0.000    0.000    0.000    0.000    0.000    0.000 
#
# Total GULP energy -156130.990320 kJ/mol
# GULP energy per Si atom -5576.106797 kJ/mol
# Density = 1.937876 g / cm^3
# Si number density = 19.422967 Si / 1000 Ang^3
#
#
#
# Elastic Constant Matrix: (Units=GPa)
#
#
# Indices 1 2 3 4 5 6 
#
# 1 103.4944 17.8726 63.7318 0.0000 -1.0168 0.0000
# 2 17.8726 18.0345 33.4579 0.0000 -0.0611 0.0000
# 3 63.7318 33.4579 184.6729 0.0000 0.2607 0.0000
# 4 0.0000 0.0000 0.0000 31.5293 0.0000 0.8712
# 5 -1.0168 -0.0611 0.2607 0.0000 20.1893 0.0000
# 6 0.0000 0.0000 0.0000 0.8712 0.0000 25.4424
#
#
#
# Elastic Compliance Matrix: (Units=1/GPa)
#
#
# Indices 1 2 3 4 5 6 
#
# 1 0.012804 -0.006759 -0.003195 0.000000 0.000666 0.000000
# 2 -0.006759 0.087095 -0.013447 0.000000 0.000097 0.000000
# 3 -0.003195 -0.013447 0.008954 0.000000 -0.000317 0.000000
# 4 0.000000 0.000000 0.000000 0.031747 0.000000 -0.001087
# 5 0.000666 0.000097 -0.000317 0.000000 0.049569 0.000000
# 6 0.000000 0.000000 0.000000 -0.001087 0.000000 0.039342
#
#
# Mechanical properties :
#
#
# Convention : Reuss Voigt Hill
#
# Bulk Modulus (GPa) = 16.11574 59.59184 37.85379
# Shear Modulus (GPa) = 16.83524 28.17483 22.50503
#
# Velocity S-wave (km/s) = 2.94729 3.81280 3.40763
# Velocity P-wave (km/s) = 4.46064 7.08032 5.91727
#
# Compressibility (1/GPa) = 0.06205113
#
# Stress axis : x y z
#
# Youngs Moduli (GPa) = 78.10303 11.48169 111.67846
#
# Poissons Ratio (x) = 0.07761 0.35681
# Poissons Ratio (y) = 0.52790 1.50173
# Poissons Ratio (z) = 0.24954 0.15439
#
# Static dielectric constant tensor:
#      x y z
#    x 1.694310 0.000000 0.017090 
#    y 0.000000 1.679750 0.000000 
#    z 0.017090 0.000000 1.694340 
# 
# From -- ./inp_files/338211.got.cif
#   From: 2010.05.17/outbox.cif.g08.bks.cpg/sg12_170_cif.got.tgz:338211.got - 2010.06.03 13:09:07.
