data_PCOD9205486
_publ_section_title
;
Structure prediction by ZEFSAII (Michael W. Deem and Ramdas Pophale) SiO2 
 PCOD9205486
Probable space group: C 2/M
;
_chemical_formula_sum "Si O2"
_cell_formula_units_Z 40
_cell_length_a 7.615197
_cell_length_b 27.500738
_cell_length_c 9.939205
_cell_angle_alpha 90.000000
_cell_angle_beta 112.892177
_cell_angle_gamma 90.000000
_cell_volume 1917.561191
_symmetry_space_group_name_H-M "C 2/M"
_symmetry_group_IT_number 12
_symmetry_cell_setting 'monoclinic'
loop_
_space_group_symop_operation_xyz
x,y,z
-x,y,-z
-x,-y,-z
x,-y,z
1/2+x,1/2+y,z
1/2-x,1/2+y,-z
1/2-x,1/2-y,-z
1/2+x,1/2-y,z
loop_
_atom_site_type_symbol
_atom_site_label
_atom_site_fract_x
_atom_site_fract_y
_atom_site_fract_z
Si Si1 0.334064 0.944220 0.854622
Si Si2 0.023857 0.882805 0.168211
Si Si3 0.463959 0.088532 0.342321
Si Si4 0.515143 0.198885 0.346333
Si Si5 0.397149 0.723208 0.830361
O O1 0.141221 0.913775 0.810905
O O2 0.434140 0.942574 0.740267
O O3 0.295558 0.000000 0.883976
O O4 0.500000 0.923104 0.000000
O O5 0.237052 0.902217 0.260763
O O6 0.001700 0.825405 0.196930
O O7 0.000000 0.885796 0.000000
O O8 0.500000 0.068239 0.500000
O O9 0.563219 0.142045 0.361647
O O10 0.500000 0.212328 0.500000
O O11 0.633943 0.235557 0.290787
O O12 0.314481 0.203680 0.207553
O O13 0.500000 0.738045 0.000000
#
# Coordination Sequence:
#
# PCOD9205486 Si02
#       5
#     8   8   8   8   8
#     4  11  24  41  69  96 115 161 212 252 316 370
#     4  10  21  41  62  91 128 159 203 259 305 364
#     4  10  23  42  62  91 131 164 200 255 311 363
#     4  10  21  37  56  85 122 162 199 241 299 358
#     4  10  21  35  56  87 116 159 203 243 302 346
#
# _framework density 20.859829000000001
#
# number of rings (size 3 to 8) (size 9 to 14) (size 15 to 20)
#    0.000    1.800    2.000    1.200    2.800    3.200 
#    0.000    1.000    0.000    0.000    0.000    0.000 
#    0.000    0.000    0.000    0.000    0.000    0.000 
#
# Total GULP energy -111540.552745 kJ/mol
# GULP energy per Si atom -5577.027637 kJ/mol
# Density = 2.081235 g / cm^3
# Si number density = 20.859829 Si / 1000 Ang^3
#
#
#
# Elastic Constant Matrix: (Units=GPa)
#
#
# Indices 1 2 3 4 5 6 
#
# 1 76.5347 29.1114 13.5765 0.0000 -1.7847 0.0000
# 2 29.1114 53.5287 -2.4115 0.0000 -8.8333 0.0000
# 3 13.5765 -2.4115 86.3910 0.0000 4.0331 0.0000
# 4 0.0000 0.0000 0.0000 31.4781 0.0000 -12.1535
# 5 -1.7847 -8.8333 4.0331 0.0000 26.7289 0.0000
# 6 0.0000 0.0000 0.0000 -12.1535 0.0000 9.8108
#
#
#
# Elastic Compliance Matrix: (Units=1/GPa)
#
#
# Indices 1 2 3 4 5 6 
#
# 1 0.017269 -0.009794 -0.002911 0.000000 -0.001645 0.000000
# 2 -0.009794 0.025319 0.001899 0.000000 0.007427 0.000000
# 3 -0.002911 0.001899 0.012151 0.000000 -0.001400 0.000000
# 4 0.000000 0.000000 0.000000 0.060893 0.000000 0.075434
# 5 -0.001645 0.007427 -0.001400 0.000000 0.039969 0.000000
# 6 0.000000 0.000000 0.000000 0.075434 0.000000 0.195375
#
#
# Mechanical properties :
#
#
# Convention : Reuss Voigt Hill
#
# Bulk Modulus (GPa) = 30.18557 33.00080 31.59318
# Shear Modulus (GPa) = 13.03336 25.34874 19.19105
#
# Velocity S-wave (km/s) = 2.50233 3.48975 3.03644
# Velocity P-wave (km/s) = 4.78026 5.66501 5.24134
#
# Compressibility (1/GPa) = 0.03312842
#
# Stress axis : x y z
#
# Youngs Moduli (GPa) = 57.90585 39.49548 82.29736
#
# Poissons Ratio (x) = 0.38683 0.23953
# Poissons Ratio (y) = 0.56715 -0.15630
# Poissons Ratio (z) = 0.16854 -0.07501
#
# Static dielectric constant tensor:
#      x y z
#    x 1.783020 0.000000 -0.006170 
#    y 0.000000 1.826160 0.000000 
#    z -0.006170 0.000000 1.742300 
# 
# From -- ./inp_files/41115.got.cif
#   From: 2010.05.17/outbox.cif.g08.bks.cpg/sg12_21_cif.got.tgz:41115.got - 2010.06.03 13:09:07.
