data_PCOD9205228
_publ_section_title
;
Structure prediction by ZEFSAII (Michael W. Deem and Ramdas Pophale) SiO2 
 PCOD9205228
Probable space group: C 2/M
;
_chemical_formula_sum "Si O2"
_cell_formula_units_Z 40
_cell_length_a 4.971101
_cell_length_b 24.316695
_cell_length_c 14.090795
_cell_angle_alpha 90.000000
_cell_angle_beta 88.614880
_cell_angle_gamma 90.000000
_cell_volume 1702.808119
_symmetry_space_group_name_H-M "C 2/M"
_symmetry_group_IT_number 12
_symmetry_cell_setting 'monoclinic'
loop_
_space_group_symop_operation_xyz
x,y,z
-x,y,-z
-x,-y,-z
x,-y,z
1/2+x,1/2+y,z
1/2-x,1/2+y,-z
1/2-x,1/2-y,-z
1/2+x,1/2-y,z
loop_
_atom_site_type_symbol
_atom_site_label
_atom_site_fract_x
_atom_site_fract_y
_atom_site_fract_z
Si Si1 0.668220 0.560703 0.400884
Si Si2 0.922831 0.099375 0.209000
Si Si3 0.176855 0.218322 0.228537
Si Si4 0.069056 0.436180 0.894899
Si Si5 0.233092 0.679126 0.564246
O O1 0.500000 0.558033 0.500000
O O2 0.797462 0.500000 0.387094
O O3 0.479518 0.573296 0.311736
O O4 0.846504 0.616137 0.405484
O O5 0.036757 0.161170 0.204321
O O6 0.118645 0.068473 0.133563
O O7 0.615421 0.094281 0.180757
O O8 0.477152 0.233663 0.196050
O O9 0.207226 0.213171 0.342313
O O10 0.990009 0.500000 0.891779
O O11 0.000000 0.414724 0.000000
O O12 0.500000 0.674055 0.500000
O O13 0.000000 0.701947 0.500000
#
# Coordination Sequence:
#
# PCOD9205228 Si02
#       5
#     8   8   8   8   8
#     4   9  19  35  56  85 124 166 202 239 293 368
#     4  11  23  41  64  92 128 164 206 257 307 365
#     4  11  23  39  60  84 115 161 209 257 311 356
#     4  11  23  41  68  99 127 158 199 250 312 375
#     4  10  21  35  52  79 112 151 205 257 299 350
#
# _framework density 23.490611000000001
#
# number of rings (size 3 to 8) (size 9 to 14) (size 15 to 20)
#    0.000    1.600    0.000    4.800    0.000   12.400 
#    0.000    4.000    0.000   12.000    0.000    0.000 
#    0.000    0.000    0.000    0.000    0.000    0.000 
#
# Total GULP energy -111858.138873 kJ/mol
# GULP energy per Si atom -5592.906944 kJ/mol
# Density = 2.343714 g / cm^3
# Si number density = 23.490611 Si / 1000 Ang^3
#
#
#
# Elastic Constant Matrix: (Units=GPa)
#
#
# Indices 1 2 3 4 5 6 
#
# 1 80.3212 6.8163 -12.4563 0.0000 1.3874 0.0000
# 2 6.8163 115.7954 -4.8391 0.0000 14.7416 0.0000
# 3 -12.4563 -4.8391 57.7881 0.0000 -6.9588 0.0000
# 4 0.0000 0.0000 0.0000 120.3749 0.0000 -26.2619
# 5 1.3874 14.7416 -6.9588 0.0000 28.0628 0.0000
# 6 0.0000 0.0000 0.0000 -26.2619 0.0000 41.9607
#
#
#
# Elastic Compliance Matrix: (Units=1/GPa)
#
#
# Indices 1 2 3 4 5 6 
#
# 1 0.012933 -0.000698 0.002779 0.000000 0.000417 0.000000
# 2 -0.000698 0.009295 0.000045 0.000000 -0.004837 0.000000
# 3 0.002779 0.000045 0.018439 0.000000 0.004411 0.000000
# 4 0.000000 0.000000 0.000000 0.009621 0.000000 0.006022
# 5 0.000417 -0.004837 0.004411 0.000000 0.039248 0.000000
# 6 0.000000 0.000000 0.000000 0.006022 0.000000 0.027601
#
#
# Mechanical properties :
#
#
# Convention : Reuss Voigt Hill
#
# Bulk Modulus (GPa) = 22.26192 25.88294 24.07243
# Shear Modulus (GPa) = 39.10638 55.70527 47.40583
#
# Velocity S-wave (km/s) = 4.08458 4.87497 4.49717
# Velocity P-wave (km/s) = 5.63406 6.53678 6.10213
#
# Compressibility (1/GPa) = 0.04491976
#
# Stress axis : x y z
#
# Youngs Moduli (GPa) = 77.32094 107.58855 54.23378
#
# Poissons Ratio (x) = 0.07512 -0.15074
# Poissons Ratio (y) = 0.05398 -0.00246
# Poissons Ratio (z) = -0.21491 -0.00488
#
# Static dielectric constant tensor:
#      x y z
#    x 1.830200 0.000000 0.000910 
#    y 0.000000 1.966680 0.000000 
#    z 0.000910 0.000000 1.850070 
# 
# From -- ./inp_files/191491.got.cif
#   From: 2010.05.17/outbox.cif.g08.bks.cpg/sg12_96_cif.got.tgz:191491.got - 2010.06.03 13:09:07.
