data_PCOD9205679
_publ_section_title
;
Structure prediction by ZEFSAII (Michael W. Deem and Ramdas Pophale) SiO2 
 PCOD9205679
Probable space group: C 2/M
;
_chemical_formula_sum "Si O2"
_cell_formula_units_Z 56
_cell_length_a 16.638420
_cell_length_b 15.747719
_cell_length_c 12.681276
_cell_angle_alpha 90.000000
_cell_angle_beta 49.856718
_cell_angle_gamma 90.000000
_cell_volume 2539.995997
_symmetry_space_group_name_H-M "C 2/M"
_symmetry_group_IT_number 12
_symmetry_cell_setting 'monoclinic'
loop_
_space_group_symop_operation_xyz
x,y,z
-x,y,-z
-x,-y,-z
x,-y,z
1/2+x,1/2+y,z
1/2-x,1/2+y,-z
1/2-x,1/2-y,-z
1/2+x,1/2-y,z
loop_
_atom_site_type_symbol
_atom_site_label
_atom_site_fract_x
_atom_site_fract_y
_atom_site_fract_z
Si Si1 0.500626 0.321875 0.385983
Si Si2 0.806136 0.596395 0.784475
Si Si3 0.739547 0.271414 0.130933
Si Si4 0.121842 0.355746 0.496007
Si Si5 0.981559 0.593657 0.803304
Si Si6 0.660866 0.897350 0.796881
Si Si7 0.693975 0.400167 0.529651
O O1 0.500000 0.366874 0.500000
O O2 0.809892 0.345186 0.123510
O O3 0.436158 0.234260 0.456623
O O4 0.427815 0.375060 0.369753
O O5 0.764403 0.500000 0.828396
O O6 0.881277 0.800169 0.746429
O O7 0.876260 0.601673 0.619545
O O8 0.876930 0.616237 0.827868
O O9 0.764052 0.180717 0.165927
O O10 0.750000 0.250000 0.000000
O O11 0.064009 0.407844 0.636240
O O12 0.240471 0.349037 0.438800
O O13 0.960297 0.500000 0.862405
O O14 0.051560 0.634979 0.836007
O O15 0.751808 0.883051 0.630754
O O16 0.656815 0.000000 0.815870
O O17 0.706251 0.500000 0.541318
#
# Coordination Sequence:
#
# PCOD9205679 Si02
#       7
#     8   8   8   8   8   8   8
#     4  12  21  38  62  91 120 160 211 260 308 369
#     4  11  21  37  61  92 126 161 203 253 313 376
#     4  12  26  43  59  87 127 169 214 255 312 371
#     4  11  18  34  60  94 129 154 195 250 313 373
#     4   9  17  31  58  94 122 150 194 253 314 367
#     4   9  19  38  64  90 122 160 203 258 313 367
#     4  10  21  35  61  98 126 156 200 256 321 371
#
# _framework density 22.047279
#
# number of rings (size 3 to 8) (size 9 to 14) (size 15 to 20)
#    0.000    1.429    4.286    3.000    0.000    3.714 
#    0.000    0.714    0.000    2.571    0.000    2.000 
#    0.000    0.000    0.000    0.000    0.000    0.000 
#
# Total GULP energy -156178.155022 kJ/mol
# GULP energy per Si atom -5577.791251 kJ/mol
# Density = 2.199710 g / cm^3
# Si number density = 22.047279 Si / 1000 Ang^3
#
#
#
# Elastic Constant Matrix: (Units=GPa)
#
#
# Indices 1 2 3 4 5 6 
#
# 1 133.1460 34.3497 27.5182 0.0000 16.6061 0.0000
# 2 34.3497 81.7507 12.3207 0.0000 6.2371 0.0000
# 3 27.5182 12.3207 82.7112 0.0000 22.5210 0.0000
# 4 0.0000 0.0000 0.0000 6.9342 0.0000 11.8445
# 5 16.6061 6.2371 22.5210 0.0000 32.7424 0.0000
# 6 0.0000 0.0000 0.0000 11.8445 0.0000 26.9757
#
#
#
# Elastic Compliance Matrix: (Units=1/GPa)
#
#
# Indices 1 2 3 4 5 6 
#
# 1 0.009082 -0.003339 -0.001776 0.000000 -0.002749 0.000000
# 2 -0.003339 0.013790 -0.000848 0.000000 -0.000350 0.000000
# 3 -0.001776 -0.000848 0.015403 0.000000 -0.009532 0.000000
# 4 0.000000 0.000000 0.000000 0.576875 0.000000 -0.253294
# 5 -0.002749 -0.000350 -0.009532 0.000000 0.038559 0.000000
# 6 0.000000 0.000000 0.000000 -0.253294 0.000000 0.148287
#
#
# Mechanical properties :
#
#
# Convention : Reuss Voigt Hill
#
# Bulk Modulus (GPa) = 37.95131 49.55390 43.75261
# Shear Modulus (GPa) = 6.07753 28.22508 17.15130
#
# Velocity S-wave (km/s) = 1.66210 3.58188 2.79217
# Velocity P-wave (km/s) = 4.57541 6.29535 5.50299
#
# Compressibility (1/GPa) = 0.02634955
#
# Stress axis : x y z
#
# Youngs Moduli (GPa) = 110.11189 72.51825 64.92286
#
# Poissons Ratio (x) = 0.24211 0.11529
# Poissons Ratio (y) = 0.36762 0.05505
# Poissons Ratio (z) = 0.19553 0.06149
#
# Static dielectric constant tensor:
#      x y z
#    x 1.868430 0.000000 -0.016350 
#    y 0.000000 1.856010 0.000000 
#    z -0.016350 0.000000 1.835610 
# 
# From -- ./inp_files/146036.got.cif
#   From: 2010.05.17/outbox.cif.g08.bks.cpg/sg12_74_cif.got.tgz:146036.got - 2010.06.03 13:09:07.
