data_PCOD9205923
_publ_section_title
;
Structure prediction by ZEFSAII (Michael W. Deem and Ramdas Pophale) SiO2 
 PCOD9205923
Probable space group: C 2/M
;
_chemical_formula_sum "Si O2"
_cell_formula_units_Z 58
_cell_length_a 21.456116
_cell_length_b 15.957421
_cell_length_c 7.523583
_cell_angle_alpha 90.000000
_cell_angle_beta 105.495082
_cell_angle_gamma 90.000000
_cell_volume 2482.329227
_symmetry_space_group_name_H-M "C 2/M"
_symmetry_group_IT_number 12
_symmetry_cell_setting 'monoclinic'
loop_
_space_group_symop_operation_xyz
x,y,z
-x,y,-z
-x,-y,-z
x,-y,z
1/2+x,1/2+y,z
1/2-x,1/2+y,-z
1/2-x,1/2-y,-z
1/2+x,1/2-y,z
loop_
_atom_site_type_symbol
_atom_site_label
_atom_site_fract_x
_atom_site_fract_y
_atom_site_fract_z
Si Si1 0.161485 0.593345 0.666813
Si Si2 0.500000 0.000000 0.500000
Si Si3 0.422003 0.241592 0.261909
Si Si4 0.654288 0.230189 0.167207
Si Si5 0.260118 0.907989 0.903415
Si Si6 0.126619 0.089490 0.678803
Si Si7 0.298444 0.405339 0.634759
Si Si8 0.031968 0.638979 0.216688
O O1 0.129373 0.500000 0.626335
O O2 0.111436 0.668706 0.646229
O O3 0.220277 0.603191 0.574571
O O4 0.200648 0.593164 0.883068
O O5 0.484055 0.928147 0.644480
O O6 0.417465 0.330681 0.348204
O O7 0.493344 0.219757 0.255564
O O8 0.380702 0.242814 0.048472
O O9 0.717862 0.174578 0.182286
O O10 0.672604 0.320853 0.257476
O O11 0.604923 0.169088 0.236278
O O12 0.183320 0.904950 0.869801
O O13 0.275211 0.000000 0.832645
O O14 0.169110 0.091296 0.532846
O O15 0.093083 0.000000 0.668572
O O16 0.309900 0.500000 0.722085
O O17 0.000000 0.613996 0.000000
#
# Coordination Sequence:
#
# PCOD9205923 Si02
#       8
#     8   2   8   8   8   8   8   8
#     4   9  18  33  55  83 113 151 193 233 296 364
#     4  12  26  44  68  94 118 176 198 244 304 352
#     4  10  21  38  60  83 115 155 196 249 297 348
#     4  10  21  38  60  83 115 155 196 249 297 348
#     4   9  18  33  55  83 113 151 193 233 296 364
#     4  10  21  36  54  82 117 153 192 246 302 355
#     4  10  21  36  54  82 117 153 192 246 302 355
#     4  10  25  45  64  93 126 156 206 252 292 358
#
# _framework density 23.365152999999999
#
# number of rings (size 3 to 8) (size 9 to 14) (size 15 to 20)
#    0.000    2.207    0.000    1.862    3.862    6.069 
#    0.000    0.690    0.000    4.138    0.000    0.000 
#    0.000    0.000    0.000    0.000    0.000    0.000 
#
# Total GULP energy -161851.840439 kJ/mol
# GULP energy per Si atom -5581.097946 kJ/mol
# Density = 2.331197 g / cm^3
# Si number density = 23.365153 Si / 1000 Ang^3
#
#
#
# Elastic Constant Matrix: (Units=GPa)
#
#
# Indices 1 2 3 4 5 6 
#
# 1 39.8729 46.4413 18.0298 0.0000 -8.3520 0.0000
# 2 46.4413 162.6554 50.0557 0.0000 -9.5710 0.0000
# 3 18.0298 50.0557 96.7439 0.0000 -10.2365 0.0000
# 4 0.0000 0.0000 0.0000 30.1083 0.0000 -12.3131
# 5 -8.3520 -9.5710 -10.2365 0.0000 32.6307 0.0000
# 6 0.0000 0.0000 0.0000 -12.3131 0.0000 32.6816
#
#
#
# Elastic Compliance Matrix: (Units=1/GPa)
#
#
# Indices 1 2 3 4 5 6 
#
# 1 0.039135 -0.010415 -0.001208 0.000000 0.006583 0.000000
# 2 -0.010415 0.010115 -0.003373 0.000000 -0.000757 0.000000
# 3 -0.001208 -0.003373 0.012587 0.000000 0.002650 0.000000
# 4 0.000000 0.000000 0.000000 0.039263 0.000000 0.014793
# 5 0.006583 -0.000757 0.002650 0.000000 0.032940 0.000000
# 6 0.000000 0.000000 0.000000 0.014793 0.000000 0.036172
#
#
# Mechanical properties :
#
#
# Convention : Reuss Voigt Hill
#
# Bulk Modulus (GPa) = 31.40100 58.70287 45.05193
# Shear Modulus (GPa) = 23.71701 31.40049 27.55875
#
# Velocity S-wave (km/s) = 3.18946 3.66990 3.43808
# Velocity P-wave (km/s) = 5.19922 6.56782 5.92318
#
# Compressibility (1/GPa) = 0.03184612
#
# Stress axis : x y z
#
# Youngs Moduli (GPa) = 25.55238 98.86379 79.44578
#
# Poissons Ratio (x) = 1.02963 0.09600
# Poissons Ratio (y) = 0.26612 0.26794
# Poissons Ratio (z) = 0.03088 0.33343
#
# Static dielectric constant tensor:
#      x y z
#    x 2.092020 0.000000 0.016470 
#    y 0.000000 1.867890 0.000000 
#    z 0.016470 0.000000 1.980260 
# 
# From -- ./inp_files/96377.got.cif
#   From: 2010.05.17/outbox.cif.g08.bks.cpg/sg12_49_cif.got.tgz:96377.got - 2010.06.03 13:09:07.
