data_PCOD9205736
_publ_section_title
;
Structure prediction by ZEFSAII (Michael W. Deem and Ramdas Pophale) SiO2 
 PCOD9205736
Probable space group: C 2/M
;
_chemical_formula_sum "Si O2"
_cell_formula_units_Z 64
_cell_length_a 15.616537
_cell_length_b 7.697076
_cell_length_c 29.227706
_cell_angle_alpha 90.000000
_cell_angle_beta 121.764682
_cell_angle_gamma 90.000000
_cell_volume 2986.999880
_symmetry_space_group_name_H-M "C 2/M"
_symmetry_group_IT_number 12
_symmetry_cell_setting 'monoclinic'
loop_
_space_group_symop_operation_xyz
x,y,z
-x,y,-z
-x,-y,-z
x,-y,z
1/2+x,1/2+y,z
1/2-x,1/2+y,-z
1/2-x,1/2-y,-z
1/2+x,1/2-y,z
loop_
_atom_site_type_symbol
_atom_site_label
_atom_site_fract_x
_atom_site_fract_y
_atom_site_fract_z
Si Si1 0.039071 0.290272 0.368204
Si Si2 0.473729 0.301618 0.879526
Si Si3 0.399663 0.792206 0.250412
Si Si4 0.725032 0.212592 0.357321
Si Si5 0.451226 0.707730 0.439577
Si Si6 0.409466 0.207075 0.762661
Si Si7 0.727557 0.714569 0.136971
Si Si8 0.301202 0.804341 0.061336
O O1 0.039079 0.500000 0.365653
O O2 0.142724 0.233750 0.372554
O O3 0.945121 0.224446 0.310778
O O4 0.021000 0.240342 0.415242
O O5 0.497410 0.500000 0.898489
O O6 0.424530 0.295656 0.815305
O O7 0.387391 0.232863 0.888414
O O8 0.578801 0.204476 0.908726
O O9 0.489285 0.767566 0.238772
O O10 0.298485 0.724004 0.198699
O O11 0.387107 0.000000 0.252587
O O12 0.837864 0.274131 0.398605
O O13 0.681521 0.266498 0.295561
O O14 0.724399 0.000000 0.356769
O O15 0.500000 0.776651 0.500000
O O16 0.441424 0.500000 0.441902
O O17 0.399762 0.000000 0.767817
O O18 0.730566 0.500000 0.139983
O O19 0.769792 0.781010 0.100547
O O20 0.267502 0.000000 0.058136
O O21 0.250000 0.750000 0.000000
#
# Coordination Sequence:
#
# PCOD9205736 Si02
#       8
#     8   8   8   8   8   8   8   8
#     4   9  18  33  56  79 102 137 187 233 265 320
#     4  11  22  35  56  88 116 142 182 227 272 326
#     4   8  14  30  55  79 104 141 181 216 268 334
#     4   8  17  34  54  76 105 145 185 221 275 340
#     4  10  21  36  52  74 110 150 184 224 282 341
#     4   9  16  32  57  79 107 146 184 221 272 335
#     4   9  19  35  57  82 112 150 183 214 270 339
#     4  11  23  43  65  82 111 153 192 229 270 323
#
# _framework density 21.426181
#
# number of rings (size 3 to 8) (size 9 to 14) (size 15 to 20)
#    0.000    2.625    1.250    2.250    1.750    1.250 
#    0.000    8.125    0.000    0.000    0.000    0.000 
#    0.000    0.000    0.000    0.000    0.000    0.000 
#
# Total GULP energy -178579.139834 kJ/mol
# GULP energy per Si atom -5580.598120 kJ/mol
# Density = 2.137741 g / cm^3
# Si number density = 21.426181 Si / 1000 Ang^3
#
#
#
# Elastic Constant Matrix: (Units=GPa)
#
#
# Indices 1 2 3 4 5 6 
#
# 1 32.5556 9.3638 5.5518 0.0000 37.1902 0.0000
# 2 9.3638 23.8983 13.2317 0.0000 -9.0820 0.0000
# 3 5.5518 13.2317 58.5583 0.0000 45.7205 0.0000
# 4 0.0000 0.0000 0.0000 18.7985 0.0000 -4.0448
# 5 37.1902 -9.0820 45.7205 0.0000 -4.7488 0.0000
# 6 0.0000 0.0000 0.0000 -4.0448 0.0000 9.3497
#
#
#
# Elastic Compliance Matrix: (Units=1/GPa)
#
#
# Indices 1 2 3 4 5 6 
#
# 1 0.017613 0.004464 -0.012176 0.000000 0.012165 0.000000
# 2 0.004464 0.034215 0.001837 0.000000 -0.012796 0.000000
# 3 -0.012176 0.001837 0.011156 0.000000 0.008531 0.000000
# 4 0.000000 0.000000 0.000000 0.058656 0.000000 0.025375
# 5 0.012165 -0.012796 0.008531 0.000000 -0.008701 0.000000
# 6 0.000000 0.000000 0.000000 0.025375 0.000000 0.117933
#
#
# Mechanical properties :
#
#
# Convention : Reuss Voigt Hill
#
# Bulk Modulus (GPa) = 19.51939 19.03409 19.27674
# Shear Modulus (GPa) = 19.25292 10.47088 14.86190
#
# Velocity S-wave (km/s) = 3.00087 2.21304 2.63655
# Velocity P-wave (km/s) = 4.59748 3.92848 4.27608
#
# Compressibility (1/GPa) = 0.05123110
#
# Stress axis : x y z
#
# Youngs Moduli (GPa) = 56.77746 29.22681 89.64177
#
# Poissons Ratio (x) = -0.13046 1.09151
# Poissons Ratio (y) = -0.25344 -0.16464
# Poissons Ratio (z) = 0.69134 -0.05368
#
# Static dielectric constant tensor:
#      x y z
#    x 1.780170 0.000000 -0.021840 
#    y 0.000000 1.794110 0.000000 
#    z -0.021840 0.000000 1.786170 
# 
# From -- ./inp_files/359963.got.cif
#   From: 2010.05.17/outbox.cif.g08.bks.cpg/sg12_180_cif.got.tgz:359963.got - 2010.06.03 13:09:07.
