data_PCOD9205515
_publ_section_title
;
Structure prediction by ZEFSAII (Michael W. Deem and Ramdas Pophale) SiO2 
 PCOD9205515
Probable space group: C 2/M
;
_chemical_formula_sum "Si O2"
_cell_formula_units_Z 56
_cell_length_a 13.644463
_cell_length_b 14.504454
_cell_length_c 17.608813
_cell_angle_alpha 90.000000
_cell_angle_beta 124.821289
_cell_angle_gamma 90.000000
_cell_volume 2860.867838
_symmetry_space_group_name_H-M "C 2/M"
_symmetry_group_IT_number 12
_symmetry_cell_setting 'monoclinic'
loop_
_space_group_symop_operation_xyz
x,y,z
-x,y,-z
-x,-y,-z
x,-y,z
1/2+x,1/2+y,z
1/2-x,1/2+y,-z
1/2-x,1/2-y,-z
1/2+x,1/2-y,z
loop_
_atom_site_type_symbol
_atom_site_label
_atom_site_fract_x
_atom_site_fract_y
_atom_site_fract_z
Si Si1 0.364293 0.223606 0.411556
Si Si2 0.578481 0.389141 0.148117
Si Si3 0.120258 0.897217 0.503536
Si Si4 0.728934 0.255212 0.795882
Si Si5 0.851216 0.108748 0.651103
Si Si6 0.551033 0.107807 0.108815
Si Si7 0.880380 0.239792 0.092897
O O1 0.500000 0.214925 0.500000
O O2 0.308345 0.316140 0.424533
O O3 0.345229 0.235149 0.313392
O O4 0.285569 0.140216 0.407551
O O5 0.580108 0.500000 0.139120
O O6 0.685189 0.334582 0.153707
O O7 0.597566 0.360493 0.245523
O O8 0.451206 0.340898 0.078987
O O9 0.093865 0.865561 0.405783
O O10 0.000000 0.903984 0.500000
O O11 0.174089 0.000000 0.525602
O O12 0.821906 0.340189 0.828917
O O13 0.644559 0.276028 0.829365
O O14 0.862105 0.000000 0.659155
O O15 0.458300 0.167968 0.116474
O O16 0.558997 0.000000 0.132783
O O17 0.500000 0.113509 0.000000
O O18 0.750000 0.250000 0.000000
#
# Coordination Sequence:
#
# PCOD9205515 Si02
#       7
#     8   8   8   8   8   8   8
#     4  10  21  35  57  82 111 150 192 231 285 337
#     4   9  21  38  60  86 115 153 195 233 288 350
#     4   9  18  31  50  77 109 142 183 231 272 322
#     4  10  22  40  60  85 120 155 191 247 287 341
#     4   9  18  36  56  78 111 149 187 233 280 332
#     4  10  21  40  63  87 118 155 192 237 296 353
#     4  11  22  37  61  88 119 147 191 241 290 343
#
# _framework density 19.574477999999999
#
# number of rings (size 3 to 8) (size 9 to 14) (size 15 to 20)
#    0.000    2.286    1.429    0.429    4.000    2.571 
#    2.571    0.714    0.000    0.000    0.000    0.000 
#    0.000    0.000    0.000    0.000    0.000    0.000 
#
# Total GULP energy -155984.192414 kJ/mol
# GULP energy per Si atom -5570.864015 kJ/mol
# Density = 1.952993 g / cm^3
# Si number density = 19.574478 Si / 1000 Ang^3
#
#
#
# Elastic Constant Matrix: (Units=GPa)
#
#
# Indices 1 2 3 4 5 6 
#
# 1 70.1512 10.0000 9.2424 0.0000 11.3354 0.0000
# 2 10.0000 42.3311 -11.2334 0.0000 14.2460 0.0000
# 3 9.2424 -11.2334 60.3247 0.0000 7.7464 0.0000
# 4 0.0000 0.0000 0.0000 22.2389 0.0000 -4.0875
# 5 11.3354 14.2460 7.7464 0.0000 30.7575 0.0000
# 6 0.0000 0.0000 0.0000 -4.0875 0.0000 20.6907
#
#
#
# Elastic Compliance Matrix: (Units=1/GPa)
#
#
# Indices 1 2 3 4 5 6 
#
# 1 0.015624 -0.003114 -0.002500 0.000000 -0.003686 0.000000
# 2 -0.003114 0.031900 0.008440 0.000000 -0.015753 0.000000
# 3 -0.002500 0.008440 0.019548 0.000000 -0.007911 0.000000
# 4 0.000000 0.000000 0.000000 0.046660 0.000000 0.009218
# 5 -0.003686 -0.015753 -0.007911 0.000000 0.043160 0.000000
# 6 0.000000 0.000000 0.000000 0.009218 0.000000 0.050152
#
#
# Mechanical properties :
#
#
# Convention : Reuss Voigt Hill
#
# Bulk Modulus (GPa) = 13.75057 20.98055 17.36556
# Shear Modulus (GPa) = 22.15989 25.72396 23.94192
#
# Velocity S-wave (km/s) = 3.36829 3.62906 3.50111
# Velocity P-wave (km/s) = 4.70820 5.31994 5.02339
#
# Compressibility (1/GPa) = 0.07272426
#
# Stress axis : x y z
#
# Youngs Moduli (GPa) = 64.00484 31.34769 51.15715
#
# Poissons Ratio (x) = 0.09761 0.12791
# Poissons Ratio (y) = 0.19930 -0.43178
# Poissons Ratio (z) = 0.16003 -0.26459
#
# Static dielectric constant tensor:
#      x y z
#    x 1.678090 0.000000 -0.017680 
#    y 0.000000 1.716320 0.000000 
#    z -0.017680 0.000000 1.752730 
# 
# From -- ./inp_files/246546.got.cif
#   From: 2010.05.17/outbox.cif.g08.bks.cpg/sg12_124_cif.got.tgz:246546.got - 2010.06.03 13:09:07.
