data_PCOD9205575
_publ_section_title
;
Structure prediction by ZEFSAII (Michael W. Deem and Ramdas Pophale) SiO2 
 PCOD9205575
Probable space group: C 2/M
;
_chemical_formula_sum "Si O2"
_cell_formula_units_Z 56
_cell_length_a 26.067948
_cell_length_b 9.273759
_cell_length_c 11.550488
_cell_angle_alpha 90.000000
_cell_angle_beta 78.112156
_cell_angle_gamma 90.000000
_cell_volume 2732.418453
_symmetry_space_group_name_H-M "C 2/M"
_symmetry_group_IT_number 12
_symmetry_cell_setting 'monoclinic'
loop_
_space_group_symop_operation_xyz
x,y,z
-x,y,-z
-x,-y,-z
x,-y,z
1/2+x,1/2+y,z
1/2-x,1/2+y,-z
1/2-x,1/2-y,-z
1/2+x,1/2-y,z
loop_
_atom_site_type_symbol
_atom_site_label
_atom_site_fract_x
_atom_site_fract_y
_atom_site_fract_z
Si Si1 0.316911 0.174939 0.705089
Si Si2 0.454117 0.664006 0.258810
Si Si3 0.627474 0.745609 0.901367
Si Si4 0.800777 0.161391 0.938330
Si Si5 0.209636 0.332929 0.678122
Si Si6 0.963586 0.654295 0.902307
Si Si7 0.135540 0.823728 0.529463
O O1 0.327133 0.243381 0.826000
O O2 0.260432 0.243448 0.694701
O O3 0.357335 0.245216 0.595822
O O4 0.316113 0.000000 0.704544
O O5 0.465833 0.500000 0.277982
O O6 0.413972 0.674278 0.167717
O O7 0.508237 0.737062 0.197114
O O8 0.418884 0.718546 0.381802
O O9 0.666983 0.834255 0.801846
O O10 0.664100 0.648654 0.963765
O O11 0.592605 0.823846 0.014253
O O12 0.788086 0.000000 0.900894
O O13 0.750000 0.250000 0.000000
O O14 0.221867 0.500000 0.640892
O O15 0.181654 0.243651 0.588351
O O16 0.965929 0.500000 0.842851
O O17 0.000000 0.653885 0.000000
O O18 0.139264 0.000000 0.522650
#
# Coordination Sequence:
#
# PCOD9205575 Si02
#       7
#     8   8   8   8   8   8   8
#     4  12  25  39  56  79 111 150 196 238 284 338
#     4   9  19  35  58  87 115 146 183 233 287 343
#     4  10  21  35  58  84 118 153 193 228 283 341
#     4  12  25  40  59  82 115 156 197 237 281 334
#     4  11  21  35  57  82 113 149 190 237 288 340
#     4   9  18  32  53  84 117 149 184 228 281 340
#     4  10  21  38  58  81 112 147 190 237 291 344
#
# _framework density 20.494665000000001
#
# number of rings (size 3 to 8) (size 9 to 14) (size 15 to 20)
#    0.000    1.571    1.429    3.857    0.000   10.000 
#    0.000    0.000    0.000    0.857    0.000    5.000 
#    0.000    0.000    0.000    0.000    0.000    0.000 
#
# Total GULP energy -156116.426886 kJ/mol
# GULP energy per Si atom -5575.586674 kJ/mol
# Density = 2.044802 g / cm^3
# Si number density = 20.494665 Si / 1000 Ang^3
#
#
#
# Elastic Constant Matrix: (Units=GPa)
#
#
# Indices 1 2 3 4 5 6 
#
# 1 20.6823 10.9545 21.7800 0.0000 -16.8032 0.0000
# 2 10.9545 133.4887 46.4653 0.0000 -11.2049 0.0000
# 3 21.7800 46.4653 137.4130 0.0000 -21.2879 0.0000
# 4 0.0000 0.0000 0.0000 22.0679 0.0000 -2.4130
# 5 -16.8032 -11.2049 -21.2879 0.0000 29.5725 0.0000
# 6 0.0000 0.0000 0.0000 -2.4130 0.0000 8.8627
#
#
#
# Elastic Compliance Matrix: (Units=1/GPa)
#
#
# Indices 1 2 3 4 5 6 
#
# 1 0.096654 -0.001272 -0.007267 0.000000 0.049206 0.000000
# 2 -0.001272 0.008552 -0.002589 0.000000 0.000654 0.000000
# 3 -0.007267 -0.002589 0.009581 0.000000 0.001787 0.000000
# 4 0.000000 0.000000 0.000000 0.046705 0.000000 0.012716
# 5 0.049206 0.000654 0.001787 0.000000 0.063309 0.000000
# 6 0.000000 0.000000 0.000000 0.012716 0.000000 0.116295
#
#
# Mechanical properties :
#
#
# Convention : Reuss Voigt Hill
#
# Bulk Modulus (GPa) = 10.80704 49.99818 30.40261
# Shear Modulus (GPa) = 12.68410 26.25957 19.47183
#
# Velocity S-wave (km/s) = 2.49046 3.58339 3.08570
# Velocity P-wave (km/s) = 3.68163 6.44745 5.24995
#
# Compressibility (1/GPa) = 0.09253231
#
# Stress axis : x y z
#
# Youngs Moduli (GPa) = 10.34619 116.93641 104.36922
#
# Poissons Ratio (x) = 0.14875 0.75840
# Poissons Ratio (y) = 0.01316 0.27019
# Poissons Ratio (z) = 0.07518 0.30272
#
# Static dielectric constant tensor:
#      x y z
#    x 1.770630 0.000000 -0.007140 
#    y 0.000000 1.720480 0.000000 
#    z -0.007140 0.000000 1.745950 
# 
# From -- ./inp_files/186457.got.cif
#   From: 2010.05.17/outbox.cif.g08.bks.cpg/sg12_94_cif.got.tgz:186457.got - 2010.06.03 13:09:07.
