data_PCOD9205452
_publ_section_title
;
Structure prediction by ZEFSAII (Michael W. Deem and Ramdas Pophale) SiO2 
 PCOD9205452
Probable space group: C 2/M
;
_chemical_formula_sum "Si O2"
_cell_formula_units_Z 56
_cell_length_a 12.951042
_cell_length_b 12.628125
_cell_length_c 22.589456
_cell_angle_alpha 90.000000
_cell_angle_beta 132.025330
_cell_angle_gamma 90.000000
_cell_volume 2744.415489
_symmetry_space_group_name_H-M "C 2/M"
_symmetry_group_IT_number 12
_symmetry_cell_setting 'monoclinic'
loop_
_space_group_symop_operation_xyz
x,y,z
-x,y,-z
-x,-y,-z
x,-y,z
1/2+x,1/2+y,z
1/2-x,1/2+y,-z
1/2-x,1/2-y,-z
1/2+x,1/2-y,z
loop_
_atom_site_type_symbol
_atom_site_label
_atom_site_fract_x
_atom_site_fract_y
_atom_site_fract_z
Si Si1 0.405226 0.877357 0.023712
Si Si2 0.169231 0.881116 0.627694
Si Si3 0.662147 0.127939 0.189619
Si Si4 0.438913 0.158128 0.413471
Si Si5 0.159964 0.871711 0.855299
Si Si6 0.381951 0.379180 0.694261
Si Si7 0.841466 0.302776 0.586753
O O1 0.258164 0.830337 0.945851
O O2 0.378874 0.000000 0.030435
O O3 0.500000 0.878320 0.000000
O O4 0.508718 0.831516 0.112987
O O5 0.277058 0.854227 0.722157
O O6 0.059724 0.786630 0.586507
O O7 0.249086 0.870350 0.596387
O O8 0.115791 0.000000 0.615851
O O9 0.770297 0.163628 0.180256
O O10 0.654705 0.000000 0.181171
O O11 0.500000 0.123103 0.500000
O O12 0.278580 0.125757 0.347356
O O13 0.538089 0.129666 0.397768
O O14 0.996325 0.851686 0.787721
O O15 0.174215 0.000000 0.863040
O O16 0.411214 0.500000 0.685731
O O17 0.396950 0.294680 0.647729
O O18 0.750000 0.250000 0.500000
#
# Coordination Sequence:
#
# PCOD9205452 Si02
#       7
#     8   8   8   8   8   8   8
#     4   7  10  18  38  69 107 136 158 199 249 298
#     4  10  21  35  56  80 102 132 173 215 260 307
#     4   8  13  24  44  75 107 134 165 205 254 303
#     4  11  22  40  52  72 103 133 172 217 264 310
#     4   8  13  24  44  75 106 134 168 205 250 302
#     4  10  21  35  56  78 100 134 175 214 256 303
#     4  11  22  40  52  72 103 133 172 217 265 312
#
# _framework density 20.405073000000002
#
# number of rings (size 3 to 8) (size 9 to 14) (size 15 to 20)
#    0.000    2.714    2.857    2.571    0.000    3.429 
#    0.000    0.000    0.000    3.429    0.000    3.000 
#    0.000    5.714    0.000    0.000    0.000    3.429 
#
# Total GULP energy -156041.219563 kJ/mol
# GULP energy per Si atom -5572.900699 kJ/mol
# Density = 2.035863 g / cm^3
# Si number density = 20.405073 Si / 1000 Ang^3
#
#
#
# Elastic Constant Matrix: (Units=GPa)
#
#
# Indices 1 2 3 4 5 6 
#
# 1 76.7542 -8.8197 29.9741 0.0000 9.5424 0.0000
# 2 -8.8197 67.7693 8.5430 0.0000 -2.5787 0.0000
# 3 29.9741 8.5430 144.2534 0.0000 21.2896 0.0000
# 4 0.0000 0.0000 0.0000 -14.6036 0.0000 14.6178
# 5 9.5424 -2.5787 21.2896 0.0000 36.3478 0.0000
# 6 0.0000 0.0000 0.0000 14.6178 0.0000 5.2036
#
#
#
# Elastic Compliance Matrix: (Units=1/GPa)
#
#
# Indices 1 2 3 4 5 6 
#
# 1 0.014654 0.002194 -0.002879 0.000000 -0.002005 0.000000
# 2 0.002194 0.015294 -0.001573 0.000000 0.001430 0.000000
# 3 -0.002879 -0.001573 0.008241 0.000000 -0.004183 0.000000
# 4 0.000000 0.000000 0.000000 -0.017964 0.000000 0.050463
# 5 -0.002005 0.001430 -0.004183 0.000000 0.030590 0.000000
# 6 0.000000 0.000000 0.000000 0.050463 0.000000 0.050414
#
#
# Mechanical properties :
#
#
# Convention : Reuss Voigt Hill
#
# Bulk Modulus (GPa) = 29.69687 38.68574 34.19130
# Shear Modulus (GPa) = 42.74614 22.66153 32.70383
#
# Velocity S-wave (km/s) = 4.58195 3.33616 4.00775
# Velocity P-wave (km/s) = 6.52515 5.81721 6.18133
#
# Compressibility (1/GPa) = 0.03367358
#
# Stress axis : x y z
#
# Youngs Moduli (GPa) = 68.23939 65.38463 121.34632
#
# Poissons Ratio (x) = -0.14344 0.34935
# Poissons Ratio (y) = -0.14970 0.19084
# Poissons Ratio (z) = 0.19646 0.10283
#
# Static dielectric constant tensor:
#      x y z
#    x 1.770020 0.000000 0.024210 
#    y 0.000000 1.749210 0.000000 
#    z 0.024210 0.000000 1.772860 
# 
# From -- ./inp_files/339930.got.cif
#   From: 2010.05.17/outbox.cif.g08.bks.cpg/sg12_170_cif.got.tgz:339930.got - 2010.06.03 13:09:07.
