data_PCOD9205642
_publ_section_title
;
Structure prediction by ZEFSAII (Michael W. Deem and Ramdas Pophale) SiO2 
 PCOD9205642
Probable space group: C 2/M
;
_chemical_formula_sum "Si O2"
_cell_formula_units_Z 40
_cell_length_a 10.242139
_cell_length_b 18.122901
_cell_length_c 14.161266
_cell_angle_alpha 90.000000
_cell_angle_beta 41.674981
_cell_angle_gamma 90.000000
_cell_volume 1747.751085
_symmetry_space_group_name_H-M "C 2/M"
_symmetry_group_IT_number 12
_symmetry_cell_setting 'monoclinic'
loop_
_space_group_symop_operation_xyz
x,y,z
-x,y,-z
-x,-y,-z
x,-y,z
1/2+x,1/2+y,z
1/2-x,1/2+y,-z
1/2-x,1/2-y,-z
1/2+x,1/2-y,z
loop_
_atom_site_type_symbol
_atom_site_label
_atom_site_fract_x
_atom_site_fract_y
_atom_site_fract_z
Si Si1 0.136939 0.415311 0.302035
Si Si2 0.381944 0.084338 0.162130
Si Si3 0.396583 0.691114 0.789508
Si Si4 0.244490 0.344416 0.070847
Si Si5 0.827723 0.680073 0.538144
O O1 0.089663 0.500000 0.335555
O O2 0.277327 0.400661 0.138118
O O3 0.215070 0.383135 0.358436
O O4 0.938495 0.366233 0.398277
O O5 0.193686 0.132773 0.234873
O O6 0.531681 0.131193 0.144914
O O7 0.345388 0.000000 0.216014
O O8 0.500000 0.077423 0.000000
O O9 0.265882 0.764709 0.872690
O O10 0.615090 0.713312 0.638263
O O11 0.381579 0.659514 0.904949
O O12 0.000000 0.725489 0.500000
#
# Coordination Sequence:
#
# PCOD9205642 Si02
#       5
#     8   8   8   8   8
#     4   9  19  37  57  81 115 149 189 240 288 340
#     4   9  19  35  55  82 116 150 187 237 295 349
#     4  10  21  37  58  86 115 154 194 237 299 350
#     4  10  21  35  60  86 116 149 195 247 286 350
#     4   8  20  37  57  80 113 154 189 233 291 347
#
# _framework density 22.886554
#
# number of rings (size 3 to 8) (size 9 to 14) (size 15 to 20)
#    1.200    1.400    0.000    1.800    2.800    4.000 
#    0.000    2.000    0.000    2.400    0.000    0.000 
#    0.000    0.000    0.000    0.000    0.000    0.000 
#
# Total GULP energy -111376.042840 kJ/mol
# GULP energy per Si atom -5568.802142 kJ/mol
# Density = 2.283446 g / cm^3
# Si number density = 22.886554 Si / 1000 Ang^3
#
#
#
# Elastic Constant Matrix: (Units=GPa)
#
#
# Indices 1 2 3 4 5 6 
#
# 1 40.8953 17.0018 12.8855 -0.0003 -14.3799 0.0004
# 2 17.0018 99.8022 -3.2469 -0.0001 -10.5600 0.0002
# 3 12.8855 -3.2469 92.0381 -0.0002 -14.6244 0.0003
# 4 -0.0003 -0.0001 -0.0002 10.7832 0.0004 -7.4494
# 5 -14.3799 -10.5600 -14.6244 0.0004 43.5805 -0.0003
# 6 0.0004 0.0002 0.0003 -7.4494 -0.0003 16.6244
#
#
#
# Elastic Compliance Matrix: (Units=1/GPa)
#
#
# Indices 1 2 3 4 5 6 
#
# 1 0.029998 -0.004388 -0.003117 0.000000 0.007789 0.000000
# 2 -0.004388 0.010981 0.001262 0.000000 0.001637 0.000000
# 3 -0.003117 0.001262 0.011864 0.000000 0.003258 0.000000
# 4 0.000000 0.000000 0.000000 0.134317 -0.000001 0.060188
# 5 0.007789 0.001637 0.003258 -0.000001 0.027006 0.000000
# 6 0.000000 0.000000 0.000000 0.060188 0.000000 0.087123
#
#
# Mechanical properties :
#
#
# Convention : Reuss Voigt Hill
#
# Bulk Modulus (GPa) = 24.77857 31.77961 28.27909
# Shear Modulus (GPa) = 15.27990 27.93729 21.60860
#
# Velocity S-wave (km/s) = 2.58667 3.49762 3.07605
# Velocity P-wave (km/s) = 4.44650 5.49791 4.99992
#
# Compressibility (1/GPa) = 0.04035746
#
# Stress axis : x y z
#
# Youngs Moduli (GPa) = 33.33595 91.06248 84.29083
#
# Poissons Ratio (x) = 0.39954 0.26272
# Poissons Ratio (y) = 0.14626 -0.10635
# Poissons Ratio (z) = 0.10390 -0.11489
#
# Static dielectric constant tensor:
#      x y z
#    x 1.950120 0.000000 -0.009160 
#    y 0.000000 1.861020 0.000000 
#    z -0.009160 0.000000 1.882690 
# 
# From -- ./inp_files/207127.got.cif
#   From: 2010.05.17/outbox.cif.g08.bks.cpg/sg12_104_cif.got.tgz:207127.got - 2010.06.03 13:09:07.
