data_PCOD9205969
_publ_section_title
;
Structure prediction by ZEFSAII (Michael W. Deem and Ramdas Pophale) SiO2 
 PCOD9205969
Probable space group: C 2/M
;
_chemical_formula_sum "Si O2"
_cell_formula_units_Z 56
_cell_length_a 15.832965
_cell_length_b 25.088274
_cell_length_c 8.129661
_cell_angle_alpha 90.000000
_cell_angle_beta 121.338742
_cell_angle_gamma 90.000000
_cell_volume 2758.150314
_symmetry_space_group_name_H-M "C 2/M"
_symmetry_group_IT_number 12
_symmetry_cell_setting 'monoclinic'
loop_
_space_group_symop_operation_xyz
x,y,z
-x,y,-z
-x,-y,-z
x,-y,z
1/2+x,1/2+y,z
1/2-x,1/2+y,-z
1/2-x,1/2-y,-z
1/2+x,1/2-y,z
loop_
_atom_site_type_symbol
_atom_site_label
_atom_site_fract_x
_atom_site_fract_y
_atom_site_fract_z
Si Si1 0.438844 0.683699 0.102527
Si Si2 0.628347 0.347822 0.483428
Si Si3 0.254969 0.354273 0.738486
Si Si4 0.943583 0.561564 0.766662
Si Si5 0.133956 0.563157 0.787987
Si Si6 0.889475 0.257678 0.327775
Si Si7 0.248894 0.436493 0.249374
O O1 0.515633 0.655586 0.304506
O O2 0.398881 0.736686 0.150944
O O3 0.500000 0.697268 0.000000
O O4 0.348020 0.647005 0.957141
O O5 0.696478 0.347079 0.390041
O O6 0.644488 0.294298 0.604125
O O7 0.658015 0.399475 0.618314
O O8 0.188958 0.406527 0.698617
O O9 0.184930 0.305241 0.716207
O O10 0.929465 0.500000 0.703247
O O11 0.836530 0.582251 0.708441
O O12 0.024059 0.584663 0.721920
O O13 0.000000 0.560732 0.000000
O O14 0.126746 0.500000 0.751408
O O15 0.200971 0.570393 0.020265
O O16 0.000000 0.271845 0.500000
O O17 0.266376 0.500000 0.288692
#
# Coordination Sequence:
#
# PCOD9205969 Si02
#       7
#     8   8   8   8   8   8   8
#     4   9  20  38  57  78 106 142 178 220 270 317
#     4  10  21  36  55  79 111 142 176 224 269 308
#     4  11  21  35  56  80 107 143 184 216 261 325
#     4   7  12  26  47  71 102 138 173 211 256 305
#     4   9  18  33  53  79 111 143 178 222 268 316
#     4  10  21  38  58  80 108 138 175 223 273 320
#     4   9  17  32  55  80 107 145 186 220 263 318
#
# _framework density 20.303463000000001
#
# number of rings (size 3 to 8) (size 9 to 14) (size 15 to 20)
#    0.000    2.714    0.000    3.429    0.000    1.714 
#    0.000    2.857    0.000   11.143    0.000    0.000 
#    0.000    0.000    0.000    0.000    0.000    0.000 
#
# Total GULP energy -156241.853840 kJ/mol
# GULP energy per Si atom -5580.066209 kJ/mol
# Density = 2.025725 g / cm^3
# Si number density = 20.303463 Si / 1000 Ang^3
#
#
#
# Elastic Constant Matrix: (Units=GPa)
#
#
# Indices 1 2 3 4 5 6 
#
# 1 103.3433 39.3655 15.4873 0.0000 -10.7840 0.0000
# 2 39.3655 65.4338 25.8142 0.0000 7.8275 0.0000
# 3 15.4873 25.8142 62.0915 0.0000 -2.2744 0.0000
# 4 0.0000 0.0000 0.0000 19.2770 0.0000 -3.1258
# 5 -10.7840 7.8275 -2.2744 0.0000 26.3596 0.0000
# 6 0.0000 0.0000 0.0000 -3.1258 0.0000 32.3794
#
#
#
# Elastic Compliance Matrix: (Units=1/GPa)
#
#
# Indices 1 2 3 4 5 6 
#
# 1 0.014285 -0.010026 0.000931 0.000000 0.008902 0.000000
# 2 -0.010026 0.026352 -0.008920 0.000000 -0.012697 0.000000
# 3 0.000931 -0.008920 0.019755 0.000000 0.004734 0.000000
# 4 0.000000 0.000000 0.000000 0.052700 0.000000 0.005088
# 5 0.008902 -0.012697 0.004734 0.000000 0.045758 0.000000
# 6 0.000000 0.000000 0.000000 0.005088 0.000000 0.031375
#
#
# Mechanical properties :
#
#
# Convention : Reuss Voigt Hill
#
# Bulk Modulus (GPa) = 41.04715 43.57807 42.31261
# Shear Modulus (GPa) = 21.33323 25.61664 23.47494
#
# Velocity S-wave (km/s) = 3.24500 3.55588 3.40399
# Velocity P-wave (km/s) = 5.85668 6.19427 6.02784
#
# Compressibility (1/GPa) = 0.02436223
#
# Stress axis : x y z
#
# Youngs Moduli (GPa) = 70.00324 37.94708 50.62035
#
# Poissons Ratio (x) = 0.38047 -0.04715
# Poissons Ratio (y) = 0.70188 0.45154
# Poissons Ratio (z) = -0.06520 0.33849
#
# Static dielectric constant tensor:
#      x y z
#    x 1.736280 0.000000 -0.014310 
#    y 0.000000 1.672100 0.000000 
#    z -0.014310 0.000000 1.772290 
# 
# From -- ./inp_files/65977.got.cif
#   From: 2010.05.17/outbox.cif.g08.bks.cpg/sg12_33_cif.got.tgz:65977.got - 2010.06.03 13:09:07.
