data_PCOD9205514
_publ_section_title
;
Structure prediction by ZEFSAII (Michael W. Deem and Ramdas Pophale) SiO2 
 PCOD9205514
Probable space group: C 2/M
;
_chemical_formula_sum "Si O2"
_cell_formula_units_Z 48
_cell_length_a 25.179465
_cell_length_b 13.632092
_cell_length_c 9.929748
_cell_angle_alpha 90.000000
_cell_angle_beta 35.155107
_cell_angle_gamma 90.000000
_cell_volume 1962.514031
_symmetry_space_group_name_H-M "C 2/M"
_symmetry_group_IT_number 12
_symmetry_cell_setting 'monoclinic'
loop_
_space_group_symop_operation_xyz
x,y,z
-x,y,-z
-x,-y,-z
x,-y,z
1/2+x,1/2+y,z
1/2-x,1/2+y,-z
1/2-x,1/2-y,-z
1/2+x,1/2-y,z
loop_
_atom_site_type_symbol
_atom_site_label
_atom_site_fract_x
_atom_site_fract_y
_atom_site_fract_z
Si Si1 0.609522 0.190389 0.801600
Si Si2 0.298377 0.391991 0.335300
Si Si3 0.183749 0.894030 0.199258
Si Si4 0.040474 0.684235 0.222103
Si Si5 0.566424 0.396855 0.186317
Si Si6 0.357295 0.175637 0.700891
O O1 0.646694 0.302033 0.709925
O O2 0.689122 0.128977 0.563304
O O3 0.500000 0.182980 0.000000
O O4 0.608870 0.157678 0.960572
O O5 0.316198 0.500000 0.356456
O O6 0.341920 0.391829 0.095980
O O7 0.178932 0.783859 0.270868
O O8 0.189119 0.000000 0.260655
O O9 0.097143 0.896479 0.277194
O O10 0.270554 0.888796 0.918135
O O11 0.093181 0.682828 0.254289
O O12 0.940505 0.634415 0.437596
O O13 0.014154 0.798827 0.256600
O O14 0.520162 0.500000 0.248561
#
# Coordination Sequence:
#
# PCOD9205514 Si02
#       6
#     8   8   8   8   8   8
#     4  10  21  35  57  82 106 140 182 223 261 315
#     4   9  19  37  55  78 111 143 175 219 271 314
#     4   9  17  30  49  75  99 128 168 204 248 304
#     4   9  18  33  49  72 102 132 166 207 257 302
#     4   8  15  29  52  74  98 130 166 210 256 304
#     4   9  18  32  51  70 100 135 162 204 253 304
#
# _framework density 24.458424999999998
#
# number of rings (size 3 to 8) (size 9 to 14) (size 15 to 20)
#    0.000    3.000    0.000    0.000    2.333    1.333 
#    3.000    6.667    0.000    0.000    0.000    0.000 
#    0.000    0.000    0.000    0.000    0.000    0.000 
#
# Total GULP energy -133709.821164 kJ/mol
# GULP energy per Si atom -5571.242549 kJ/mol
# Density = 2.440276 g / cm^3
# Si number density = 24.458425 Si / 1000 Ang^3
#
#
#
# Elastic Constant Matrix: (Units=GPa)
#
#
# Indices 1 2 3 4 5 6 
#
# 1 23.8677 -1.2669 14.8180 0.0000 -4.1535 0.0000
# 2 -1.2669 57.2284 24.2403 0.0000 -2.3428 0.0000
# 3 14.8180 24.2403 159.2683 0.0000 -30.5417 0.0000
# 4 0.0000 0.0000 0.0000 10.5005 0.0000 3.9962
# 5 -4.1535 -2.3428 -30.5417 0.0000 31.9802 0.0000
# 6 0.0000 0.0000 0.0000 3.9962 0.0000 2.8825
#
#
#
# Elastic Compliance Matrix: (Units=1/GPa)
#
#
# Indices 1 2 3 4 5 6 
#
# 1 0.045034 0.002876 -0.004243 0.000000 0.002008 0.000000
# 2 0.002876 0.018933 -0.003442 0.000000 -0.001527 0.000000
# 3 -0.004243 -0.003442 0.008622 0.000000 0.007431 0.000000
# 4 0.000000 0.000000 0.000000 0.201597 0.000000 -0.279483
# 5 0.002008 -0.001527 0.007431 0.000000 0.038515 0.000000
# 6 0.000000 0.000000 0.000000 -0.279483 0.000000 0.734381
#
#
# Mechanical properties :
#
#
# Convention : Reuss Voigt Hill
#
# Bulk Modulus (GPa) = 15.87998 35.10524 25.49261
# Shear Modulus (GPa) = 4.63956 22.57750 13.60853
#
# Velocity S-wave (km/s) = 1.37878 3.04155 2.36136
# Velocity P-wave (km/s) = 3.00690 5.16903 4.22849
#
# Compressibility (1/GPa) = 0.06297237
#
# Stress axis : x y z
#
# Youngs Moduli (GPa) = 22.20559 52.81812 115.97794
#
# Poissons Ratio (x) = -0.15191 0.49204
# Poissons Ratio (y) = -0.06387 0.39918
# Poissons Ratio (z) = 0.09421 0.18179
#
# Static dielectric constant tensor:
#      x y z
#    x 1.988910 0.000000 0.015730 
#    y 0.000000 1.970670 0.000000 
#    z 0.015730 0.000000 1.990360 
# 
# From -- ./inp_files/189366.got.cif
#   From: 2010.05.17/outbox.cif.g08.bks.cpg/sg12_95_cif.got.tgz:189366.got - 2010.06.03 13:09:07.
