data_PCOD9205230
_publ_section_title
;
Structure prediction by ZEFSAII (Michael W. Deem and Ramdas Pophale) SiO2 
 PCOD9205230
Probable space group: C 2/M
;
_chemical_formula_sum "Si O2"
_cell_formula_units_Z 64
_cell_length_a 9.299039
_cell_length_b 28.965767
_cell_length_c 11.242972
_cell_angle_alpha 90.000000
_cell_angle_beta 90.272793
_cell_angle_gamma 90.000000
_cell_volume 3028.302874
_symmetry_space_group_name_H-M "C 2/M"
_symmetry_group_IT_number 12
_symmetry_cell_setting 'monoclinic'
loop_
_space_group_symop_operation_xyz
x,y,z
-x,y,-z
-x,-y,-z
x,-y,z
1/2+x,1/2+y,z
1/2-x,1/2+y,-z
1/2-x,1/2-y,-z
1/2+x,1/2-y,z
loop_
_atom_site_type_symbol
_atom_site_label
_atom_site_fract_x
_atom_site_fract_y
_atom_site_fract_z
Si Si1 0.340543 0.447062 0.499651
Si Si2 0.283393 0.309103 0.400481
Si Si3 0.125851 0.766684 0.912010
Si Si4 0.838213 0.134336 0.051900
Si Si5 0.579517 0.892770 0.622328
Si Si6 0.695548 0.824637 0.820490
Si Si7 0.393334 0.280440 0.647463
Si Si8 0.784091 0.407969 0.720298
O O1 0.500000 0.425003 0.500000
O O2 0.350845 0.500000 0.540653
O O3 0.216882 0.422017 0.576782
O O4 0.296742 0.444791 0.361337
O O5 0.308273 0.308208 0.543141
O O6 0.437972 0.287894 0.363844
O O7 0.161290 0.271894 0.366953
O O8 0.251090 0.359164 0.347901
O O9 0.164925 0.817788 0.870575
O O10 0.095865 0.720483 0.838588
O O11 0.250000 0.750000 0.000000
O O12 0.000000 0.776380 0.000000
O O13 0.772422 0.097698 0.145162
O O14 0.735500 0.146394 0.938518
O O15 0.000000 0.124194 0.000000
O O16 0.500000 0.876230 0.500000
O O17 0.630405 0.855308 0.717007
O O18 0.452393 0.917835 0.696637
O O19 0.841442 0.801682 0.770836
#
# Coordination Sequence:
#
# PCOD9205230 Si02
#       8
#     8   8   8   8   8   8   8   8
#     4  10  24  47  77 106 128 157 204 265 346 427
#     4  10  22  36  54  82 125 169 225 274 324 379
#     4   9  20  35  53  78 115 174 233 274 305 348
#     4  10  22  38  57  92 127 183 238 274 317 369
#     4  10  24  40  64 103 128 167 209 272 333 412
#     4  11  22  35  62  81 129 174 224 274 321 374
#     4  10  21  35  52  79 114 181 217 277 325 368
#     4  11  23  39  65  94 135 168 217 275 323 394
#
# _framework density 21.133948
#
# number of rings (size 3 to 8) (size 9 to 14) (size 15 to 20)
#    0.000    1.875    0.000    3.000   10.500    4.250 
#    2.250    0.000    0.000    1.125    0.000    4.375 
#    0.000    0.000    0.000    0.000    0.000    0.000 
#
# Total GULP energy -178477.965824 kJ/mol
# GULP energy per Si atom -5577.436432 kJ/mol
# Density = 2.108585 g / cm^3
# Si number density = 21.133948 Si / 1000 Ang^3
#
#
#
# Elastic Constant Matrix: (Units=GPa)
#
#
# Indices 1 2 3 4 5 6 
#
# 1 104.7300 16.1775 29.7414 0.0000 -7.3108 0.0000
# 2 16.1775 40.0641 18.6022 0.0000 0.1006 0.0000
# 3 29.7414 18.6022 115.9107 0.0000 -4.9135 0.0000
# 4 0.0000 0.0000 0.0000 26.3283 0.0000 -3.0282
# 5 -7.3108 0.1006 -4.9135 0.0000 32.6573 0.0000
# 6 0.0000 0.0000 0.0000 -3.0282 0.0000 15.2263
#
#
#
# Elastic Compliance Matrix: (Units=1/GPa)
#
#
# Indices 1 2 3 4 5 6 
#
# 1 0.010827 -0.003381 -0.002146 0.000000 0.002111 0.000000
# 2 -0.003381 0.028043 -0.003692 0.000000 -0.001399 0.000000
# 3 -0.002146 -0.003692 0.009813 0.000000 0.001007 0.000000
# 4 0.000000 0.000000 0.000000 0.038871 0.000000 0.007731
# 5 0.002111 -0.001399 0.001007 0.000000 0.031250 0.000000
# 6 0.000000 0.000000 0.000000 0.007731 0.000000 0.067213
#
#
# Mechanical properties :
#
#
# Convention : Reuss Voigt Hill
#
# Bulk Modulus (GPa) = 33.06316 43.30521 38.18418
# Shear Modulus (GPa) = 23.30590 27.92130 25.61360
#
# Velocity S-wave (km/s) = 3.32440 3.63872 3.48511
# Velocity P-wave (km/s) = 5.51490 6.17973 5.85675
#
# Compressibility (1/GPa) = 0.03024514
#
# Stress axis : x y z
#
# Youngs Moduli (GPa) = 92.35786 35.65944 101.90273
#
# Poissons Ratio (x) = 0.12056 0.21869
# Poissons Ratio (y) = 0.31225 0.37626
# Poissons Ratio (z) = 0.19821 0.13167
#
# Static dielectric constant tensor:
#      x y z
#    x 1.813660 0.000000 0.002320 
#    y 0.000000 1.885500 0.000000 
#    z 0.002320 0.000000 1.838910 
# 
# From -- ./inp_files/125737.got.cif
#   From: 2010.05.17/outbox.cif.g08.bks.cpg/sg12_63_cif.got.tgz:125737.got - 2010.06.03 13:09:07.
