data_PCOD9205826
_publ_section_title
;
Structure prediction by ZEFSAII (Michael W. Deem and Ramdas Pophale) SiO2 
 PCOD9205826
Probable space group: C 2/M
;
_chemical_formula_sum "Si O2"
_cell_formula_units_Z 48
_cell_length_a 24.268739
_cell_length_b 10.488929
_cell_length_c 11.823791
_cell_angle_alpha 90.000000
_cell_angle_beta 46.349087
_cell_angle_gamma 90.000000
_cell_volume 2177.754496
_symmetry_space_group_name_H-M "C 2/M"
_symmetry_group_IT_number 12
_symmetry_cell_setting 'monoclinic'
loop_
_space_group_symop_operation_xyz
x,y,z
-x,y,-z
-x,-y,-z
x,-y,z
1/2+x,1/2+y,z
1/2-x,1/2+y,-z
1/2-x,1/2-y,-z
1/2+x,1/2-y,z
loop_
_atom_site_type_symbol
_atom_site_label
_atom_site_fract_x
_atom_site_fract_y
_atom_site_fract_z
Si Si1 0.457147 0.357903 0.943303
Si Si2 0.185003 0.215666 0.725749
Si Si3 0.353397 0.142032 0.431730
Si Si4 0.929880 0.645195 0.807478
Si Si5 0.262195 0.860032 0.150348
Si Si6 0.866394 0.349349 0.666736
O O1 0.477441 0.500000 0.874726
O O2 0.368989 0.354839 0.109151
O O3 0.500000 0.331965 0.000000
O O4 0.467320 0.248983 0.835810
O O5 0.261973 0.143416 0.585178
O O6 0.139833 0.255966 0.677513
O O7 0.212381 0.341260 0.754969
O O8 0.389365 0.171594 0.503282
O O9 0.375850 0.000000 0.363768
O O10 0.956421 0.500000 0.789712
O O11 0.928233 0.672423 0.676572
O O12 0.839790 0.647196 0.969170
O O13 0.203867 0.745753 0.210728
O O14 0.227797 0.000000 0.181288
O O15 0.845028 0.500000 0.704346
#
# Coordination Sequence:
#
# PCOD9205826 Si02
#       6
#     8   8   8   8   8   8
#     4  10  21  36  54  74  94 121 161 206 248 289
#     4   9  17  29  46  70  99 130 160 197 241 283
#     4   9  16  27  46  71 100 132 160 189 230 285
#     4   9  18  31  46  67  96 126 158 198 240 285
#     4   9  16  25  40  65  96 128 162 198 236 282
#     4   9  17  28  43  67  98 130 161 192 233 285
#
# _framework density 22.041051
#
# number of rings (size 3 to 8) (size 9 to 14) (size 15 to 20)
#    0.000    2.833    0.000    1.500    0.000    5.667 
#    0.000    0.833    0.000    1.000    0.000    5.833 
#    0.000    0.000    0.000    0.000    0.000    0.000 
#
# Total GULP energy -133927.383404 kJ/mol
# GULP energy per Si atom -5580.307642 kJ/mol
# Density = 2.199089 g / cm^3
# Si number density = 22.041051 Si / 1000 Ang^3
#
#
#
# Elastic Constant Matrix: (Units=GPa)
#
#
# Indices 1 2 3 4 5 6 
#
# 1 106.7700 74.5986 33.0089 0.0000 34.5262 0.0000
# 2 74.5986 126.1251 43.1996 0.0000 34.1089 0.0000
# 3 33.0089 43.1996 71.0592 0.0000 13.3505 0.0000
# 4 0.0000 0.0000 0.0000 8.5729 0.0000 10.3669
# 5 34.5262 34.1089 13.3505 0.0000 48.5407 0.0000
# 6 0.0000 0.0000 0.0000 10.3669 0.0000 24.2438
#
#
#
# Elastic Compliance Matrix: (Units=1/GPa)
#
#
# Indices 1 2 3 4 5 6 
#
# 1 0.017676 -0.007997 -0.002154 0.000000 -0.006361 0.000000
# 2 -0.007997 0.015357 -0.004917 0.000000 -0.003751 0.000000
# 3 -0.002154 -0.004917 0.018059 0.000000 0.000020 0.000000
# 4 0.000000 0.000000 0.000000 0.241549 0.000000 -0.103289
# 5 -0.006361 -0.003751 0.000020 0.000000 0.027756 0.000000
# 6 0.000000 0.000000 0.000000 -0.103289 0.000000 0.085415
#
#
# Mechanical properties :
#
#
# Convention : Reuss Voigt Hill
#
# Bulk Modulus (GPa) = 47.71854 67.28539 57.50197
# Shear Modulus (GPa) = 11.28842 26.48128 18.88485
#
# Velocity S-wave (km/s) = 2.26554 3.46996 2.93030
# Velocity P-wave (km/s) = 5.34232 6.82991 6.13140
#
# Compressibility (1/GPa) = 0.02095621
#
# Stress axis : x y z
#
# Youngs Moduli (GPa) = 56.57367 65.11801 55.37490
#
# Poissons Ratio (x) = 0.52072 0.11930
# Poissons Ratio (y) = 0.45240 0.27226
# Poissons Ratio (z) = 0.12189 0.32016
#
# Static dielectric constant tensor:
#      x y z
#    x 1.850310 0.000000 -0.009190 
#    y 0.000000 1.769210 0.000000 
#    z -0.009190 0.000000 1.834410 
# 
# From -- ./inp_files/153719.got.cif
#   From: 2010.05.17/outbox.cif.g08.bks.cpg/sg12_77_cif.got.tgz:153719.got - 2010.06.03 13:09:07.
