data_PCOD9205951
_publ_section_title
;
Structure prediction by ZEFSAII (Michael W. Deem and Ramdas Pophale) SiO2 
 PCOD9205951
Probable space group: C 2/M
;
_chemical_formula_sum "Si O2"
_cell_formula_units_Z 64
_cell_length_a 19.479002
_cell_length_b 8.693231
_cell_length_c 22.724892
_cell_angle_alpha 90.000000
_cell_angle_beta 122.040071
_cell_angle_gamma 90.000000
_cell_volume 3261.972478
_symmetry_space_group_name_H-M "C 2/M"
_symmetry_group_IT_number 12
_symmetry_cell_setting 'monoclinic'
loop_
_space_group_symop_operation_xyz
x,y,z
-x,y,-z
-x,-y,-z
x,-y,z
1/2+x,1/2+y,z
1/2-x,1/2+y,-z
1/2-x,1/2-y,-z
1/2+x,1/2-y,z
loop_
_atom_site_type_symbol
_atom_site_label
_atom_site_fract_x
_atom_site_fract_y
_atom_site_fract_z
Si Si1 0.382350 0.174929 0.292004
Si Si2 0.721455 0.813522 0.924904
Si Si3 0.126067 0.681882 0.455930
Si Si4 0.469852 0.320970 0.426169
Si Si5 0.047135 0.312336 0.796013
Si Si6 0.201008 0.177073 0.159547
Si Si7 0.271663 0.315493 0.604882
Si Si8 0.368320 0.184047 0.757159
O O1 0.392560 0.257912 0.358006
O O2 0.435832 0.241055 0.262916
O O3 0.291220 0.174626 0.227935
O O4 0.408689 0.000000 0.313614
O O5 0.628226 0.766783 0.868637
O O6 0.781335 0.764056 0.898613
O O7 0.722915 0.000000 0.925180
O O8 0.750000 0.750000 0.000000
O O9 0.108336 0.500000 0.446814
O O10 0.045963 0.783225 0.419692
O O11 0.180736 0.715233 0.538997
O O12 0.175344 0.728094 0.420270
O O13 0.500000 0.244668 0.500000
O O14 0.457777 0.500000 0.429907
O O15 0.047803 0.500000 0.794953
O O16 0.959518 0.265894 0.780158
O O17 0.148657 0.269507 0.182999
O O18 0.171995 0.000000 0.143328
O O19 0.282527 0.500000 0.606049
O O20 0.303406 0.259566 0.682688
O O21 0.362862 0.000000 0.748421
#
# Coordination Sequence:
#
# PCOD9205951 Si02
#       8
#     8   8   8   8   8   8   8   8
#     4   9  18  36  59  75  97 140 191 231 272 334
#     4   9  18  37  63  86 113 146 182 222 263 318
#     4  10  21  37  54  73  98 137 186 227 277 343
#     4  11  24  36  48  72 106 138 176 234 290 327
#     4   8  17  35  57  82 108 140 180 221 265 317
#     4   9  20  37  56  82 115 148 181 225 280 330
#     4  10  21  36  55  77 104 138 177 229 283 330
#     4  11  21  33  55  83 112 145 184 226 272 328
#
# _framework density 19.62003
#
# number of rings (size 3 to 8) (size 9 to 14) (size 15 to 20)
#    0.000    2.375    0.000    3.750    1.750    4.500 
#    0.000    4.375    0.000    3.750    0.000    0.000 
#    0.000    0.000    0.000    0.000    0.000    0.000 
#
# Total GULP energy -178436.891598 kJ/mol
# GULP energy per Si atom -5576.152862 kJ/mol
# Density = 1.957537 g / cm^3
# Si number density = 19.620030 Si / 1000 Ang^3
#
#
#
# Elastic Constant Matrix: (Units=GPa)
#
#
# Indices 1 2 3 4 5 6 
#
# 1 70.6553 1.0550 23.4141 0.0000 -11.0788 0.0000
# 2 1.0550 19.5380 27.4978 0.0000 -5.9762 0.0000
# 3 23.4141 27.4978 123.4143 0.0000 -13.3550 0.0000
# 4 0.0000 0.0000 0.0000 31.0063 0.0000 -3.4708
# 5 -11.0788 -5.9762 -13.3550 0.0000 21.7005 0.0000
# 6 0.0000 0.0000 0.0000 -3.4708 0.0000 12.4368
#
#
#
# Elastic Compliance Matrix: (Units=1/GPa)
#
#
# Indices 1 2 3 4 5 6 
#
# 1 0.016574 0.006938 -0.003822 0.000000 0.008020 0.000000
# 2 0.006938 0.080024 -0.017547 0.000000 0.014781 0.000000
# 3 -0.003822 -0.017547 0.012860 0.000000 0.001131 0.000000
# 4 0.000000 0.000000 0.000000 0.033291 0.000000 0.009291
# 5 0.008020 0.014781 0.001131 0.000000 0.054943 0.000000
# 6 0.000000 0.000000 0.000000 0.009291 0.000000 0.083000
#
#
# Mechanical properties :
#
#
# Convention : Reuss Voigt Hill
#
# Bulk Modulus (GPa) = 12.40775 35.28240 23.84507
# Shear Modulus (GPa) = 14.86238 23.80475 19.33357
#
# Velocity S-wave (km/s) = 2.75528 3.48701 3.14251
# Velocity P-wave (km/s) = 4.05707 5.85100 5.03458
#
# Compressibility (1/GPa) = 0.08059481
#
# Stress axis : x y z
#
# Youngs Moduli (GPa) = 60.33628 12.49620 77.76107
#
# Poissons Ratio (x) = -0.08669 0.29723
# Poissons Ratio (y) = -0.41858 1.36446
# Poissons Ratio (z) = 0.23062 0.21927
#
# Static dielectric constant tensor:
#      x y z
#    x 1.729550 0.000000 -0.009400 
#    y 0.000000 1.674070 0.000000 
#    z -0.009400 0.000000 1.704530 
# 
# From -- ./inp_files/320059.got.cif
#   From: 2010.05.17/outbox.cif.g08.bks.cpg/sg12_161_cif.got.tgz:320059.got - 2010.06.03 13:09:07.
