data_PCOD9205988
_publ_section_title
;
Structure prediction by ZEFSAII (Michael W. Deem and Ramdas Pophale) SiO2 
 PCOD9205988
Probable space group: C 2/M
;
_chemical_formula_sum "Si O2"
_cell_formula_units_Z 56
_cell_length_a 16.371658
_cell_length_b 9.033200
_cell_length_c 24.297601
_cell_angle_alpha 90.000000
_cell_angle_beta 136.680749
_cell_angle_gamma 90.000000
_cell_volume 2465.253495
_symmetry_space_group_name_H-M "C 2/M"
_symmetry_group_IT_number 12
_symmetry_cell_setting 'monoclinic'
loop_
_space_group_symop_operation_xyz
x,y,z
-x,y,-z
-x,-y,-z
x,-y,z
1/2+x,1/2+y,z
1/2-x,1/2+y,-z
1/2-x,1/2-y,-z
1/2+x,1/2-y,z
loop_
_atom_site_type_symbol
_atom_site_label
_atom_site_fract_x
_atom_site_fract_y
_atom_site_fract_z
Si Si1 0.774291 0.174888 0.180977
Si Si2 0.358460 0.828863 0.330878
Si Si3 0.415562 0.674634 0.536003
Si Si4 0.151793 0.325540 0.382625
Si Si5 0.733958 0.672671 0.050830
Si Si6 0.908725 0.169239 0.752166
Si Si7 0.536814 0.328637 0.099952
O O1 0.847814 0.245611 0.267176
O O2 0.796692 0.245826 0.132321
O O3 0.637517 0.218242 0.128646
O O4 0.790525 0.000000 0.187410
O O5 0.462627 0.757380 0.418017
O O6 0.228641 0.821255 0.294634
O O7 0.386340 0.000000 0.334637
O O8 0.436830 0.500000 0.544851
O O9 0.293196 0.705266 0.443781
O O10 0.386378 0.730227 0.583604
O O11 0.139732 0.500000 0.388277
O O12 0.081188 0.277829 0.293922
O O13 0.767513 0.500000 0.064657
O O14 0.750000 0.750000 0.000000
O O15 0.590823 0.679478 0.990932
O O16 0.980718 0.199332 0.843266
O O17 0.932203 0.000000 0.746004
O O18 0.581509 0.500000 0.117099
#
# Coordination Sequence:
#
# PCOD9205988 Si02
#       7
#     8   8   8   8   8   8   8
#     4  11  22  37  59  85 113 145 183 227 277 333
#     4  10  21  38  59  83 111 144 184 227 275 330
#     4  10  21  37  56  79 110 147 187 230 276 328
#     4  10  21  36  55  80 111 148 187 227 275 331
#     4  11  23  39  58  82 115 150 188 233 278 326
#     4   9  19  36  57  81 109 142 183 230 277 326
#     4   9  20  39  60  81 109 148 187 225 274 328
#
# _framework density 22.715717000000001
#
# number of rings (size 3 to 8) (size 9 to 14) (size 15 to 20)
#    0.000    2.000    0.000    4.286    0.000    9.143 
#    0.000    7.143    0.000    0.000    0.000    0.000 
#    0.000    0.000    0.000    0.000    0.000    0.000 
#
# Total GULP energy -156659.475709 kJ/mol
# GULP energy per Si atom -5594.981275 kJ/mol
# Density = 2.266402 g / cm^3
# Si number density = 22.715717 Si / 1000 Ang^3
#
#
#
# Elastic Constant Matrix: (Units=GPa)
#
#
# Indices 1 2 3 4 5 6 
#
# 1 52.9069 15.1923 5.4397 0.0000 0.8554 0.0000
# 2 15.1923 110.7634 44.2638 0.0000 -11.5515 0.0000
# 3 5.4397 44.2638 106.1904 0.0000 -6.6987 0.0000
# 4 0.0000 0.0000 0.0000 30.0742 0.0000 -2.5665
# 5 0.8554 -11.5515 -6.6987 0.0000 39.5134 0.0000
# 6 0.0000 0.0000 0.0000 -2.5665 0.0000 22.1938
#
#
#
# Elastic Compliance Matrix: (Units=1/GPa)
#
#
# Indices 1 2 3 4 5 6 
#
# 1 0.019738 -0.002882 0.000111 0.000000 -0.001251 0.000000
# 2 -0.002882 0.011489 -0.004473 0.000000 0.002663 0.000000
# 3 0.000111 -0.004473 0.011314 0.000000 0.000608 0.000000
# 4 0.000000 0.000000 0.000000 0.033583 0.000000 0.003883
# 5 -0.001251 0.002663 0.000608 0.000000 0.026216 0.000000
# 6 0.000000 0.000000 0.000000 0.003883 0.000000 0.045507
#
#
# Mechanical properties :
#
#
# Convention : Reuss Voigt Hill
#
# Bulk Modulus (GPa) = 35.64745 44.40582 40.02664
# Shear Modulus (GPa) = 29.12302 32.02062 30.57182
#
# Velocity S-wave (km/s) = 3.58448 3.75857 3.67256
# Velocity P-wave (km/s) = 5.73221 6.19893 5.97013
#
# Compressibility (1/GPa) = 0.02805250
#
# Stress axis : x y z
#
# Youngs Moduli (GPa) = 50.66497 87.04031 88.38340
#
# Poissons Ratio (x) = 0.25087 -0.00985
# Poissons Ratio (y) = 0.14603 0.39537
# Poissons Ratio (z) = -0.00564 0.38936
#
# Static dielectric constant tensor:
#      x y z
#    x 1.921150 0.000000 0.021240 
#    y 0.000000 1.759590 0.000000 
#    z 0.021240 0.000000 1.824870 
# 
# From -- ./inp_files/342563.got.cif
#   From: 2010.05.17/outbox.cif.g08.bks.cpg/sg12_172_cif.got.tgz:342563.got - 2010.06.03 13:09:07.
