data_PCOD9205521
_publ_section_title
;
Structure prediction by ZEFSAII (Michael W. Deem and Ramdas Pophale) SiO2 
 PCOD9205521
Probable space group: C 2/M
;
_chemical_formula_sum "Si O2"
_cell_formula_units_Z 48
_cell_length_a 12.194157
_cell_length_b 23.484709
_cell_length_c 9.383462
_cell_angle_alpha 90.000000
_cell_angle_beta 50.853820
_cell_angle_gamma 90.000000
_cell_volume 2084.025626
_symmetry_space_group_name_H-M "C 2/M"
_symmetry_group_IT_number 12
_symmetry_cell_setting 'monoclinic'
loop_
_space_group_symop_operation_xyz
x,y,z
-x,y,-z
-x,-y,-z
x,-y,z
1/2+x,1/2+y,z
1/2-x,1/2+y,-z
1/2-x,1/2-y,-z
1/2+x,1/2-y,z
loop_
_atom_site_type_symbol
_atom_site_label
_atom_site_fract_x
_atom_site_fract_y
_atom_site_fract_z
Si Si1 0.222328 0.843882 0.818662
Si Si2 0.964799 0.729518 0.688208
Si Si3 0.826143 0.933841 0.743023
Si Si4 0.515270 0.354502 0.746134
Si Si5 0.606252 0.937337 0.191661
Si Si6 0.396609 0.860109 0.220917
O O1 0.300415 0.789290 0.823749
O O2 0.333921 0.894084 0.743468
O O3 0.162962 0.845500 0.707577
O O4 0.096569 0.856463 0.031927
O O5 0.985589 0.796139 0.689031
O O6 0.000000 0.711771 0.500000
O O7 0.066223 0.695341 0.714589
O O8 0.973723 0.909210 0.685123
O O9 0.755891 0.883028 0.704790
O O10 0.834990 0.000000 0.684113
O O11 0.714451 0.936649 0.967675
O O12 0.460089 0.913664 0.253405
O O13 0.597004 0.000000 0.256032
O O14 0.500000 0.851909 0.000000
#
# Coordination Sequence:
#
# PCOD9205521 Si02
#       6
#     8   8   8   8   8   8
#     4   9  20  36  55  83 114 150 191 224 282 340
#     4  11  24  38  57  84 114 151 188 238 283 330
#     4   9  17  31  54  85 112 141 186 234 280 327
#     4  10  21  35  57  83 115 152 185 231 280 340
#     4   8  14  28  52  83 114 141 182 236 278 321
#     4   9  18  32  56  86 112 147 186 233 280 329
#
# _framework density 23.032346
#
# number of rings (size 3 to 8) (size 9 to 14) (size 15 to 20)
#    0.000    2.667    0.000    2.000    4.667    3.333 
#    0.000    3.333    0.000   13.000    0.000    0.000 
#    0.000    0.000    0.000    0.000    0.000    0.000 
#
# Total GULP energy -133867.321269 kJ/mol
# GULP energy per Si atom -5577.805053 kJ/mol
# Density = 2.297992 g / cm^3
# Si number density = 23.032346 Si / 1000 Ang^3
#
#
#
# Elastic Constant Matrix: (Units=GPa)
#
#
# Indices 1 2 3 4 5 6 
#
# 1 120.9830 45.0225 20.1819 0.0000 23.5902 0.0000
# 2 45.0225 117.9098 9.1664 0.0000 28.7840 0.0000
# 3 20.1819 9.1664 32.7680 0.0000 10.4663 0.0000
# 4 0.0000 0.0000 0.0000 48.0300 0.0000 2.0557
# 5 23.5902 28.7840 10.4663 0.0000 29.6309 0.0000
# 6 0.0000 0.0000 0.0000 2.0557 0.0000 -9.3604
#
#
#
# Elastic Compliance Matrix: (Units=1/GPa)
#
#
# Indices 1 2 3 4 5 6 
#
# 1 0.010901 -0.002730 -0.004537 0.000000 -0.004424 0.000000
# 2 -0.002730 0.011805 0.001519 0.000000 -0.009831 0.000000
# 3 -0.004537 0.001519 0.036300 0.000000 -0.010685 0.000000
# 4 0.000000 0.000000 0.000000 0.020626 0.000000 0.004530
# 5 -0.004424 -0.009831 -0.010685 0.000000 0.050596 0.000000
# 6 0.000000 0.000000 0.000000 0.004530 0.000000 -0.105838
#
#
# Mechanical properties :
#
#
# Convention : Reuss Voigt Hill
#
# Bulk Modulus (GPa) = 21.04790 46.71140 33.87965
# Shear Modulus (GPa) = 96.66978 26.81276 61.74127
#
# Velocity S-wave (km/s) = 6.48556 3.41564 5.18310
# Velocity P-wave (km/s) = 8.07722 5.99002 7.11062
#
# Compressibility (1/GPa) = 0.04751068
#
# Stress axis : x y z
#
# Youngs Moduli (GPa) = 91.73458 84.70816 27.54810
#
# Poissons Ratio (x) = 0.23122 0.12499
# Poissons Ratio (y) = 0.25040 -0.04184
# Poissons Ratio (z) = 0.41622 -0.12867
#
# Static dielectric constant tensor:
#      x y z
#    x 2.602650 0.000000 -0.698720 
#    y 0.000000 1.805470 0.000000 
#    z -0.698720 0.000000 2.692490 
# 
# From -- ./inp_files/51360.got.cif
#   From: 2010.05.17/outbox.cif.g08.bks.cpg/sg12_26_cif.got.tgz:51360.got - 2010.06.03 13:09:07.
