data_PCOD9205480
_publ_section_title
;
Structure prediction by ZEFSAII (Michael W. Deem and Ramdas Pophale) SiO2 
 PCOD9205480
Probable space group: C 2/M
;
_chemical_formula_sum "Si O2"
_cell_formula_units_Z 64
_cell_length_a 31.111207
_cell_length_b 18.629842
_cell_length_c 9.464358
_cell_angle_alpha 90.000000
_cell_angle_beta 142.834661
_cell_angle_gamma 90.000000
_cell_volume 3313.892016
_symmetry_space_group_name_H-M "C 2/M"
_symmetry_group_IT_number 12
_symmetry_cell_setting 'monoclinic'
loop_
_space_group_symop_operation_xyz
x,y,z
-x,y,-z
-x,-y,-z
x,-y,z
1/2+x,1/2+y,z
1/2-x,1/2+y,-z
1/2-x,1/2-y,-z
1/2+x,1/2-y,z
loop_
_atom_site_type_symbol
_atom_site_label
_atom_site_fract_x
_atom_site_fract_y
_atom_site_fract_z
Si Si1 0.212822 0.418944 0.111952
Si Si2 0.356928 0.416616 0.940253
Si Si3 0.073046 0.647100 0.771587
Si Si4 0.662511 0.283409 0.927183
Si Si5 0.309048 0.708460 0.315499
Si Si6 0.575734 0.326095 0.137858
Si Si7 0.562718 0.839323 0.059704
Si Si8 0.199137 0.418172 0.409076
O O1 0.235781 0.500000 0.152749
O O2 0.130677 0.407225 0.857051
O O3 0.263759 0.363844 0.168322
O O4 0.214820 0.400701 0.285209
O O5 0.378538 0.500000 0.019138
O O6 0.395544 0.379777 0.906622
O O7 0.273402 0.416512 0.683006
O O8 0.362493 0.361155 0.084999
O O9 0.115131 0.722608 0.877475
O O10 0.000000 0.652282 0.500000
O O11 0.056402 0.626676 0.888847
O O12 0.654869 0.272483 0.738721
O O13 0.745629 0.265525 0.181907
O O14 0.365500 0.689753 0.585648
O O15 0.560713 0.246540 0.038080
O O16 0.500000 0.352459 0.000000
O O17 0.640079 0.864768 0.313981
O O18 0.500000 0.860399 0.000000
O O19 0.171451 0.500000 0.339350
#
# Coordination Sequence:
#
# PCOD9205480 Si02
#       8
#     8   8   8   8   8   8   8   8
#     4   9  18  35  58  84 112 151 193 227 276 336
#     4  11  22  39  60  84 115 149 192 239 291 347
#     4  10  21  36  57  82 116 153 185 230 281 341
#     4  10  22  37  58  87 114 154 191 239 291 342
#     4  10  21  37  60  86 117 148 195 241 285 340
#     4  11  23  37  59  88 112 150 193 248 291 338
#     4  10  21  35  56  86 114 148 192 233 280 337
#     4   9  18  34  58  84 114 151 187 230 281 340
#
# _framework density 19.312639999999998
#
# number of rings (size 3 to 8) (size 9 to 14) (size 15 to 20)
#    0.000    2.000    2.500    0.750    3.500    2.250 
#    2.250    0.000    0.000    2.625    0.000    0.000 
#    0.000    0.000    0.000    0.000    0.000    0.000 
#
# Total GULP energy -178435.551856 kJ/mol
# GULP energy per Si atom -5576.110996 kJ/mol
# Density = 1.926868 g / cm^3
# Si number density = 19.312640 Si / 1000 Ang^3
#
#
#
# Elastic Constant Matrix: (Units=GPa)
#
#
# Indices 1 2 3 4 5 6 
#
# 1 70.3112 -4.2517 -0.3012 0.0000 4.5763 0.0000
# 2 -4.2517 35.6473 -30.4440 0.0000 -1.2954 0.0000
# 3 -0.3012 -30.4440 44.5695 0.0000 3.7488 0.0000
# 4 0.0000 0.0000 0.0000 16.0585 0.0000 -1.6580
# 5 4.5763 -1.2954 3.7488 0.0000 17.4566 0.0000
# 6 0.0000 0.0000 0.0000 -1.6580 0.0000 18.1541
#
#
#
# Elastic Compliance Matrix: (Units=1/GPa)
#
#
# Indices 1 2 3 4 5 6 
#
# 1 0.014812 0.004814 0.003753 0.000000 -0.004332 0.000000
# 2 0.004814 0.069322 0.047924 0.000000 -0.006410 0.000000
# 3 0.003753 0.047924 0.055992 0.000000 -0.009452 0.000000
# 4 0.000000 0.000000 0.000000 0.062865 0.000000 0.005741
# 5 -0.004332 -0.006410 -0.009452 0.000000 0.059975 0.000000
# 6 0.000000 0.000000 0.000000 0.005741 0.000000 0.055608
#
#
# Mechanical properties :
#
#
# Convention : Reuss Voigt Hill
#
# Bulk Modulus (GPa) = 3.95088 8.94823 6.44955
# Shear Modulus (GPa) = 17.24364 22.70216 19.97290
#
# Velocity S-wave (km/s) = 2.99133 3.43229 3.21937
# Velocity P-wave (km/s) = 3.73911 4.51119 4.14318
#
# Compressibility (1/GPa) = 0.25310838
#
# Stress axis : x y z
#
# Youngs Moduli (GPa) = 67.51452 14.42536 17.85959
#
# Poissons Ratio (x) = -0.06945 -0.06703
# Poissons Ratio (y) = -0.32504 -0.85590
# Poissons Ratio (z) = -0.25338 -0.69132
#
# Static dielectric constant tensor:
#      x y z
#    x 1.674180 0.000000 -0.001900 
#    y 0.000000 1.673820 0.000000 
#    z -0.001900 0.000000 1.692600 
# 
# From -- ./inp_files/112916.got.cif
#   From: 2010.05.17/outbox.cif.g08.bks.cpg/sg12_57_cif.got.tgz:112916.got - 2010.06.03 13:09:07.
