data_PCOD9205414
_publ_section_title
;
Structure prediction by ZEFSAII (Michael W. Deem and Ramdas Pophale) SiO2 
 PCOD9205414
Probable space group: C 2/M
;
_chemical_formula_sum "Si O2"
_cell_formula_units_Z 64
_cell_length_a 14.925347
_cell_length_b 8.683594
_cell_length_c 23.065375
_cell_angle_alpha 90.000000
_cell_angle_beta 93.910580
_cell_angle_gamma 90.000000
_cell_volume 2982.442784
_symmetry_space_group_name_H-M "C 2/M"
_symmetry_group_IT_number 12
_symmetry_cell_setting 'monoclinic'
loop_
_space_group_symop_operation_xyz
x,y,z
-x,y,-z
-x,-y,-z
x,-y,z
1/2+x,1/2+y,z
1/2-x,1/2+y,-z
1/2-x,1/2-y,-z
1/2+x,1/2-y,z
loop_
_atom_site_type_symbol
_atom_site_label
_atom_site_fract_x
_atom_site_fract_y
_atom_site_fract_z
Si Si1 0.058001 0.185490 0.447293
Si Si2 0.151731 0.321213 0.266506
Si Si3 0.904342 0.815519 0.359266
Si Si4 0.278978 0.185099 0.603439
Si Si5 0.673073 0.317295 0.144126
Si Si6 0.024910 0.313976 0.883675
Si Si7 0.194358 0.183214 0.943832
Si Si8 0.436523 0.176783 0.242394
O O1 0.157647 0.246573 0.442788
O O2 0.000000 0.235111 0.500000
O O3 0.998764 0.237828 0.389437
O O4 0.062049 0.000000 0.448836
O O5 0.184373 0.269212 0.330978
O O6 0.183199 0.224745 0.212448
O O7 0.043414 0.318204 0.259978
O O8 0.679524 0.000000 0.259969
O O9 0.824510 0.765788 0.398447
O O10 0.889974 0.764046 0.292860
O O11 0.905066 0.000000 0.359879
O O12 0.283218 0.000000 0.599835
O O13 0.679890 0.500000 0.136157
O O14 0.574375 0.258043 0.119690
O O15 0.747649 0.232448 0.109521
O O16 0.017011 0.500000 0.883284
O O17 0.095172 0.256924 0.934421
O O18 0.068513 0.265409 0.823521
O O19 0.186983 0.000000 0.947607
O O20 0.250000 0.250000 0.000000
O O21 0.406323 0.000000 0.241949
#
# Coordination Sequence:
#
# PCOD9205414 Si02
#       8
#     8   8   8   8   8   8   8   8
#     4  10  22  40  58  80 116 157 197 248 304 358
#     4   9  18  35  57  84 120 156 192 247 308 362
#     4  10  21  35  55  84 115 151 195 243 296 358
#     4  10  21  37  57  84 114 150 197 246 297 356
#     4  11  23  40  63  94 127 166 210 253 308 373
#     4  10  22  42  64  93 128 164 206 259 312 367
#     4  12  26  45  67  93 126 167 213 261 310 369
#     4   9  18  34  58  86 119 153 191 241 298 357
#
# _framework density 21.458921
#
# number of rings (size 3 to 8) (size 9 to 14) (size 15 to 20)
#    0.000    1.875    1.250    3.375    1.750    4.750 
#    0.000    2.500    0.000    0.000    0.000    0.000 
#    0.000    0.000    0.000    0.000    0.000    0.000 
#
# Total GULP energy -178826.555651 kJ/mol
# GULP energy per Si atom -5588.329864 kJ/mol
# Density = 2.141008 g / cm^3
# Si number density = 21.458921 Si / 1000 Ang^3
#
#
#
# Elastic Constant Matrix: (Units=GPa)
#
#
# Indices 1 2 3 4 5 6 
#
# 1 67.7857 7.2136 -4.7847 0.0000 -6.9333 0.0000
# 2 7.2136 44.9820 2.0006 0.0000 1.7031 0.0000
# 3 -4.7847 2.0006 17.9002 0.0000 1.9953 0.0000
# 4 0.0000 0.0000 0.0000 28.3554 0.0000 -7.7279
# 5 -6.9333 1.7031 1.9953 0.0000 27.3995 0.0000
# 6 0.0000 0.0000 0.0000 -7.7279 0.0000 26.8358
#
#
#
# Elastic Compliance Matrix: (Units=1/GPa)
#
#
# Indices 1 2 3 4 5 6 
#
# 1 0.015740 -0.002853 0.004096 0.000000 0.003862 0.000000
# 2 -0.002853 0.022899 -0.003108 0.000000 -0.001919 0.000000
# 3 0.004096 -0.003108 0.057638 0.000000 -0.002968 0.000000
# 4 0.000000 0.000000 0.000000 0.038270 0.000000 0.011021
# 5 0.003862 -0.001919 -0.002968 0.000000 0.037810 0.000000
# 6 0.000000 0.000000 0.000000 0.011021 0.000000 0.040437
#
#
# Mechanical properties :
#
#
# Convention : Reuss Voigt Hill
#
# Bulk Modulus (GPa) = 10.80518 15.50297 13.15407
# Shear Modulus (GPa) = 20.21229 24.93402 22.57315
#
# Velocity S-wave (km/s) = 3.07238 3.41242 3.24686
# Velocity P-wave (km/s) = 4.19907 4.77141 4.49436
#
# Compressibility (1/GPa) = 0.09254821
#
# Stress axis : x y z
#
# Youngs Moduli (GPa) = 63.53223 43.66917 17.34955
#
# Poissons Ratio (x) = 0.12457 -0.07106
# Poissons Ratio (y) = 0.18123 0.05392
# Poissons Ratio (z) = -0.26020 0.13572
#
# Static dielectric constant tensor:
#      x y z
#    x 1.794130 0.000000 0.016990 
#    y 0.000000 1.726190 0.000000 
#    z 0.016990 0.000000 1.800910 
# 
# From -- ./inp_files/338759.got.cif
#   From: 2010.05.17/outbox.cif.g08.bks.cpg/sg12_170_cif.got.tgz:338759.got - 2010.06.03 13:09:07.
