data_PCOD9205114
_publ_section_title
;
Structure prediction by ZEFSAII (Michael W. Deem and Ramdas Pophale) SiO2 
 PCOD9205114
Probable space group: C 2/M
;
_chemical_formula_sum "Si O2"
_cell_formula_units_Z 48
_cell_length_a 14.974613
_cell_length_b 7.370785
_cell_length_c 16.869492
_cell_angle_alpha 90.000000
_cell_angle_beta 74.713811
_cell_angle_gamma 90.000000
_cell_volume 1796.089881
_symmetry_space_group_name_H-M "C 2/M"
_symmetry_group_IT_number 12
_symmetry_cell_setting 'monoclinic'
loop_
_space_group_symop_operation_xyz
x,y,z
-x,y,-z
-x,-y,-z
x,-y,z
1/2+x,1/2+y,z
1/2-x,1/2+y,-z
1/2-x,1/2-y,-z
1/2+x,1/2-y,z
loop_
_atom_site_type_symbol
_atom_site_label
_atom_site_fract_x
_atom_site_fract_y
_atom_site_fract_z
Si Si1 0.160559 0.282889 0.073639
Si Si2 0.537382 0.779964 0.868051
Si Si3 0.289238 0.280650 0.371997
Si Si4 0.008600 0.708993 0.695383
Si Si5 0.260545 0.290974 0.199233
Si Si6 0.090130 0.278185 0.431856
O O1 0.152598 0.500000 0.082086
O O2 0.187114 0.212046 0.155091
O O3 0.059018 0.222578 0.069164
O O4 0.250000 0.250000 0.000000
O O5 0.523450 0.716182 0.779612
O O6 0.638906 0.713897 0.866846
O O7 0.544348 0.000000 0.870647
O O8 0.293868 0.500000 0.372988
O O9 0.390970 0.214813 0.371514
O O10 0.276196 0.216097 0.283387
O O11 0.192760 0.221859 0.434655
O O12 0.984904 0.500000 0.714506
O O13 0.932012 0.780667 0.653306
O O14 0.234873 0.500000 0.218609
O O15 0.089763 0.500000 0.433027
O O16 0.000000 0.216156 0.500000
#
# Coordination Sequence:
#
# PCOD9205114 Si02
#       6
#     8   8   8   8   8   8
#     4  10  21  35  50  70  97 127 157 191 235 284
#     4   9  18  33  52  72  94 123 159 197 235 277
#     4   9  17  31  51  72  94 123 160 198 234 275
#     4   9  17  31  51  72  94 123 160 198 234 275
#     4   9  18  33  52  72  94 123 159 197 235 277
#     4   9  17  29  47  71  98 129 161 191 230 283
#
# _framework density 26.724720000000001
#
# number of rings (size 3 to 8) (size 9 to 14) (size 15 to 20)
#    0.000    2.833    0.000    1.000    0.000    6.667 
#    0.000    4.167    0.000    9.000    0.000    0.000 
#    0.000    0.000    0.000    0.000    0.000    0.000 
#
# Total GULP energy -134118.499381 kJ/mol
# GULP energy per Si atom -5588.270808 kJ/mol
# Density = 2.666389 g / cm^3
# Si number density = 26.724720 Si / 1000 Ang^3
#
#
#
# Elastic Constant Matrix: (Units=GPa)
#
#
# Indices 1 2 3 4 5 6 
#
# 1 194.2297 -3.8212 15.9380 0.0000 -30.6452 0.0000
# 2 -3.8212 102.6332 -9.1635 0.0000 -0.2436 0.0000
# 3 15.9380 -9.1635 62.4458 0.0000 -24.9411 0.0000
# 4 0.0000 0.0000 0.0000 6.3198 0.0000 -7.8128
# 5 -30.6452 -0.2436 -24.9411 0.0000 55.5453 0.0000
# 6 0.0000 0.0000 0.0000 -7.8128 0.0000 9.2678
#
#
#
# Elastic Compliance Matrix: (Units=1/GPa)
#
#
# Indices 1 2 3 4 5 6 
#
# 1 0.005646 0.000199 -0.000204 0.000000 0.003025 0.000000
# 2 0.000199 0.009913 0.001785 0.000000 0.000955 0.000000
# 3 -0.000204 0.001785 0.019845 0.000000 0.008806 0.000000
# 4 0.000000 0.000000 0.000000 -3.754790 0.000000 -3.165280
# 5 0.003025 0.000955 0.008806 0.000000 0.023630 0.000000
# 6 0.000000 0.000000 0.000000 -3.165280 0.000000 -2.560425
#
#
# Mechanical properties :
#
#
# Convention : Reuss Voigt Hill
#
# Bulk Modulus (GPa) = 25.66407 40.57950 33.12178
# Shear Modulus (GPa) = -0.80042 37.98362 18.59160
#
# Velocity S-wave (km/s) = -0.54786 3.77409 2.64042
# Velocity P-wave (km/s) = 3.03706 5.84884 4.66008
#
# Compressibility (1/GPa) = 0.03896499
#
# Stress axis : x y z
#
# Youngs Moduli (GPa) = 177.10405 100.88271 50.39017
#
# Poissons Ratio (x) = -0.02010 0.01027
# Poissons Ratio (y) = -0.03528 -0.08995
# Poissons Ratio (z) = 0.03611 -0.18009
#
# Static dielectric constant tensor:
#      x y z
#    x 2.053010 0.000000 -0.035750 
#    y 0.000000 2.072300 0.000000 
#    z -0.035750 0.000000 2.185770 
# 
# From -- ./inp_files/261798.got.cif
#   From: 2010.05.17/outbox.cif.g08.bks.cpg/sg12_131_cif.got.tgz:261798.got - 2010.06.03 13:09:07.
