data_PCOD9205611
_publ_section_title
;
Structure prediction by ZEFSAII (Michael W. Deem and Ramdas Pophale) SiO2 
 PCOD9205611
Probable space group: C 2/M
;
_chemical_formula_sum "Si O2"
_cell_formula_units_Z 52
_cell_length_a 8.534834
_cell_length_b 26.405962
_cell_length_c 25.902426
_cell_angle_alpha 90.000000
_cell_angle_beta 31.047356
_cell_angle_gamma 90.000000
_cell_volume 3010.743022
_symmetry_space_group_name_H-M "C 2/M"
_symmetry_group_IT_number 12
_symmetry_cell_setting 'monoclinic'
loop_
_space_group_symop_operation_xyz
x,y,z
-x,y,-z
-x,-y,-z
x,-y,z
1/2+x,1/2+y,z
1/2-x,1/2+y,-z
1/2-x,1/2-y,-z
1/2+x,1/2-y,z
loop_
_atom_site_type_symbol
_atom_site_label
_atom_site_fract_x
_atom_site_fract_y
_atom_site_fract_z
Si Si1 0.527028 0.199224 0.624189
Si Si2 0.745361 0.500000 0.316670
Si Si3 0.129997 0.905445 0.608367
Si Si4 0.907313 0.805226 0.614860
Si Si5 0.871391 0.000000 0.093961
Si Si6 0.636551 0.000000 0.603391
Si Si7 0.277395 0.406662 0.304254
Si Si8 0.661871 0.442447 0.101384
O O1 0.624677 0.190482 0.655801
O O2 0.383446 0.254261 0.655209
O O3 0.340113 0.150491 0.660056
O O4 0.815594 0.199656 0.504183
O O5 0.527186 0.451528 0.377110
O O6 0.939696 0.500000 0.314329
O O7 0.005677 0.500000 0.199658
O O8 0.500000 0.904622 0.500000
O O9 0.050778 0.914877 0.690589
O O10 0.990067 0.853576 0.626010
O O11 0.998800 0.952558 0.092333
O O12 0.000000 0.000000 0.000000
O O13 0.489258 0.949138 0.622032
O O14 0.000000 0.000000 0.500000
O O15 0.466860 0.413642 0.198715
O O16 0.700424 0.500000 0.112171
O O17 0.000000 0.421081 0.000000
#
# Coordination Sequence:
#
# PCOD9205611 Si02
#       8
#     8   4   8   8   4   4   8   8
#     4  10  21  35  59  75 111 147 196 239 284 323
#     4  12  24  36  52  83 116 150 187 239 274 353
#     4  12  24  36  51  81 119 156 198 224 280 338
#     4  10  21  37  53  81 108 152 194 241 271 332
#     4  10  21  37  60  80 110 140 196 240 292 333
#     4  12  23  35  50  76 118 157 189 217 286 339
#     4  12  21  37  56  80 113 157 189 237 283 350
#     4   9  20  38  58  80 109 147 191 237 292 346
#
# _framework density 17.271484000000001
#
# number of rings (size 3 to 8) (size 9 to 14) (size 15 to 20)
#    0.462    0.769    3.846    3.462    6.462    0.000 
#    0.000    0.000    0.000    0.000    0.000    5.385 
#    0.000    0.000    0.000    0.000    0.000    0.000 
#
# Total GULP energy -144952.923536 kJ/mol
# GULP energy per Si atom -5575.112444 kJ/mol
# Density = 1.723217 g / cm^3
# Si number density = 17.271484 Si / 1000 Ang^3
#
#
#
# Elastic Constant Matrix: (Units=GPa)
#
#
# Indices 1 2 3 4 5 6 
#
# 1 98.0917 33.5651 11.8365 -0.0001 13.8558 0.0002
# 2 33.5651 111.7985 10.7774 -0.0001 -4.8239 0.0003
# 3 11.8365 10.7774 66.4243 0.0004 6.8722 -0.0001
# 4 -0.0001 -0.0001 0.0004 10.5491 0.0005 12.8638
# 5 13.8558 -4.8239 6.8722 0.0005 27.3763 0.0002
# 6 0.0002 0.0003 -0.0001 12.8638 0.0002 4.9996
#
#
#
# Elastic Compliance Matrix: (Units=1/GPa)
#
#
# Indices 1 2 3 4 5 6 
#
# 1 0.012646 -0.004008 -0.000891 0.000000 -0.006883 0.000001
# 2 -0.004008 0.010467 -0.001422 0.000000 0.004230 0.000000
# 3 -0.000891 -0.001422 0.015835 0.000001 -0.003774 -0.000001
# 4 0.000000 0.000000 0.000001 -0.044348 0.000000 0.114106
# 5 -0.006883 0.004230 -0.003774 0.000000 0.041704 -0.000001
# 6 0.000001 0.000000 -0.000001 0.114106 -0.000001 -0.093575
#
#
# Mechanical properties :
#
#
# Convention : Reuss Voigt Hill
#
# Bulk Modulus (GPa) = 38.01309 43.18582 40.59946
# Shear Modulus (GPa) = -139.42808 23.26071 -58.08368
#
# Velocity S-wave (km/s) = -8.99459 3.67382 -5.80541
# Velocity P-wave (km/s) = 9.26354 6.56158 4.62379
#
# Compressibility (1/GPa) = 0.02630673
#
# Stress axis : x y z
#
# Youngs Moduli (GPa) = 79.07886 95.53438 63.15243
#
# Poissons Ratio (x) = 0.38287 0.05627
# Poissons Ratio (y) = 0.31692 0.08979
# Poissons Ratio (z) = 0.07046 0.13583
#
# Static dielectric constant tensor:
#      x y z
#    x 1.610050 0.000000 0.009220 
#    y 0.000000 1.578760 0.000000 
#    z 0.009220 0.000000 1.617110 
# 
# From -- ./inp_files/357053.got.cif
#   From: 2010.05.17/outbox.cif.g08.bks.cpg/sg12_179_cif.got.tgz:357053.got - 2010.06.03 13:09:07.
