data_PCOD9205658
_publ_section_title
;
Structure prediction by ZEFSAII (Michael W. Deem and Ramdas Pophale) SiO2 
 PCOD9205658
Probable space group: C 2/M
;
_chemical_formula_sum "Si O2"
_cell_formula_units_Z 64
_cell_length_a 30.823126
_cell_length_b 20.149503
_cell_length_c 14.798827
_cell_angle_alpha 90.000000
_cell_angle_beta 18.499123
_cell_angle_gamma 90.000000
_cell_volume 2916.250933
_symmetry_space_group_name_H-M "C 2/M"
_symmetry_group_IT_number 12
_symmetry_cell_setting 'monoclinic'
loop_
_space_group_symop_operation_xyz
x,y,z
-x,y,-z
-x,-y,-z
x,-y,z
1/2+x,1/2+y,z
1/2-x,1/2+y,-z
1/2-x,1/2-y,-z
1/2+x,1/2-y,z
loop_
_atom_site_type_symbol
_atom_site_label
_atom_site_fract_x
_atom_site_fract_y
_atom_site_fract_z
Si Si1 0.799421 0.579265 0.343582
Si Si2 0.136732 0.134409 0.290268
Si Si3 0.948781 0.669556 0.398214
Si Si4 0.718960 0.761215 0.890650
Si Si5 0.100523 0.421607 0.668545
Si Si6 0.514071 0.420197 0.864018
Si Si7 0.184314 0.572838 0.210614
Si Si8 0.425052 0.621762 0.850340
O O1 0.781263 0.500000 0.388749
O O2 0.805050 0.603646 0.435963
O O3 0.671607 0.602074 0.538681
O O4 0.946090 0.588038 0.009854
O O5 0.215613 0.203035 0.152028
O O6 0.000000 0.141531 0.500000
O O7 0.072835 0.110346 0.511888
O O8 0.243811 0.087815 0.027155
O O9 0.854499 0.734809 0.572756
O O10 0.894529 0.618549 0.431799
O O11 0.914500 0.632359 0.560623
O O12 0.107413 0.687018 0.073890
O O13 0.629840 0.694084 0.073032
O O14 0.123985 0.500000 0.608432
O O15 0.495105 0.500000 0.890522
O O16 0.431485 0.386601 0.945559
O O17 0.500000 0.407156 0.000000
O O18 0.119726 0.500000 0.340921
O O19 0.313337 0.574459 0.024909
#
# Coordination Sequence:
#
# PCOD9205658 Si02
#       8
#     8   8   8   8   8   8   8   8
#     4   8  17  33  57  90 128 166 216 265 322 403
#     4  10  23  44  68  95 129 175 216 276 329 405
#     4  11  24  40  68  92 134 174 217 276 318 395
#     4  11  24  45  62  96 123 175 230 263 315 387
#     4   9  18  36  63  94 125 168 216 273 338 383
#     4  10  21  35  60  99 135 172 217 269 331 395
#     4  10  23  42  67 102 130 164 215 274 346 398
#     4  10  22  40  66  94 135 178 214 275 321 392
#
# _framework density 21.945986000000001
#
# number of rings (size 3 to 8) (size 9 to 14) (size 15 to 20)
#    0.000    2.125    1.250    1.500    5.250    7.750 
#    0.000    1.875    2.750    4.500    0.000    0.000 
#    0.000    0.000    0.000    0.000    0.000    0.000 
#
# Total GULP energy -178366.968604 kJ/mol
# GULP energy per Si atom -5573.967769 kJ/mol
# Density = 2.189604 g / cm^3
# Si number density = 21.945986 Si / 1000 Ang^3
#
#
#
# Elastic Constant Matrix: (Units=GPa)
#
#
# Indices 1 2 3 4 5 6 
#
# 1 65.6489 22.3524 25.5682 0.0011 9.2102 0.0011
# 2 22.3524 64.0027 16.1579 0.0006 -1.2625 0.0002
# 3 25.5682 16.1579 73.3661 -0.0012 -8.7310 -0.0033
# 4 0.0011 0.0006 -0.0012 -73.4698 -0.0014 -166.0727
# 5 9.2102 -1.2625 -8.7310 -0.0014 30.6722 -0.0020
# 6 0.0011 0.0002 -0.0033 -166.0727 -0.0020 -280.4399
#
#
#
# Elastic Compliance Matrix: (Units=1/GPa)
#
#
# Indices 1 2 3 4 5 6 
#
# 1 0.021189 -0.005767 -0.007142 0.000000 -0.008633 0.000000
# 2 -0.005767 0.018118 -0.001745 0.000000 0.001981 0.000000
# 3 -0.007142 -0.001745 0.017337 0.000000 0.007008 0.000000
# 4 0.000000 0.000000 0.000000 0.040199 0.000000 -0.023805
# 5 -0.008633 0.001981 0.007008 0.000000 0.037271 -0.000001
# 6 0.000000 0.000000 0.000000 -0.023805 -0.000001 0.010531
#
#
# Mechanical properties :
#
#
# Convention : Reuss Voigt Hill
#
# Bulk Modulus (GPa) = 36.58014 36.79718 36.68866
# Shear Modulus (GPa) = 27.31267 -55.38487 -14.03610
#
# Velocity S-wave (km/s) = 3.53163 -5.02908 -2.53173
# Velocity P-wave (km/s) = 5.77359 4.11323 2.86493
#
# Compressibility (1/GPa) = 0.02733724
#
# Stress axis : x y z
#
# Youngs Moduli (GPa) = 47.19471 55.19359 57.67911
#
# Poissons Ratio (x) = 0.31832 0.41192
# Poissons Ratio (y) = 0.27219 0.10062
# Poissons Ratio (z) = 0.33704 0.09629
#
# Static dielectric constant tensor:
#      x y z
#    x 1.842670 0.000000 0.036640 
#    y 0.000000 1.800450 0.000000 
#    z 0.036640 0.000000 1.939600 
# 
# From -- ./inp_files/251914.got.cif
#   From: 2010.05.17/outbox.cif.g08.bks.cpg/sg12_126_cif.got.tgz:251914.got - 2010.06.03 13:09:07.
