data_PCOD9205433
_publ_section_title
;
Structure prediction by ZEFSAII (Michael W. Deem and Ramdas Pophale) SiO2 
 PCOD9205433
Probable space group: C 2/M
;
_chemical_formula_sum "Si O2"
_cell_formula_units_Z 42
_cell_length_a 30.425082
_cell_length_b 7.416208
_cell_length_c 9.924365
_cell_angle_alpha 90.000000
_cell_angle_beta 54.632853
_cell_angle_gamma 90.000000
_cell_volume 1826.076440
_symmetry_space_group_name_H-M "C 2/M"
_symmetry_group_IT_number 12
_symmetry_cell_setting 'monoclinic'
loop_
_space_group_symop_operation_xyz
x,y,z
-x,y,-z
-x,-y,-z
x,-y,z
1/2+x,1/2+y,z
1/2-x,1/2+y,-z
1/2-x,1/2-y,-z
1/2+x,1/2-y,z
loop_
_atom_site_type_symbol
_atom_site_label
_atom_site_fract_x
_atom_site_fract_y
_atom_site_fract_z
Si Si1 0.908757 0.218172 0.891473
Si Si2 0.704986 0.209923 0.389765
Si Si3 0.176457 0.218582 0.738331
Si Si4 0.967477 0.782736 0.255494
Si Si5 0.000000 0.500000 0.000000
Si Si6 0.888310 0.793633 0.630549
O O1 0.891983 0.285163 0.773103
O O2 0.971129 0.258414 0.807623
O O3 0.904037 0.000000 0.901443
O O4 0.869552 0.283395 0.079046
O O5 0.764942 0.281420 0.311876
O O6 0.673279 0.230521 0.587309
O O7 0.670750 0.291572 0.329614
O O8 0.710191 0.000000 0.349466
O O9 0.176520 0.000000 0.739079
O O10 0.928227 0.721591 0.445167
O O11 0.961298 0.000000 0.241767
O O12 0.961818 0.659922 0.135279
O O13 0.906715 0.000000 0.613439
#
# Coordination Sequence:
#
# PCOD9205433 Si02
#       6
#     8   8   8   8   2   8
#     4   9  19  39  63  83 114 158 202 246 296 358
#     4  10  21  35  55  85 119 151 194 249 299 351
#     4   9  19  37  59  82 111 154 200 245 296 353
#     4  10  23  41  63  92 124 159 202 248 302 359
#     4  12  26  40  62  94 128 164 196 252 300 364
#     4  10  21  38  61  85 116 158 197 241 301 363
#
# _framework density 23.000132000000001
#
# number of rings (size 3 to 8) (size 9 to 14) (size 15 to 20)
#    0.000    2.286    0.000    1.429    4.000    3.810 
#    1.714    0.952    0.000    0.000    0.000    0.000 
#    0.000    0.000    0.000    0.000    0.000    0.000 
#
# Total GULP energy -117101.630878 kJ/mol
# GULP energy per Si atom -5576.268137 kJ/mol
# Density = 2.294778 g / cm^3
# Si number density = 23.000132 Si / 1000 Ang^3
#
#
#
# Elastic Constant Matrix: (Units=GPa)
#
#
# Indices 1 2 3 4 5 6 
#
# 1 106.9761 0.3158 46.1374 0.0000 12.8771 0.0000
# 2 0.3158 86.7401 7.8067 0.0000 0.8391 0.0000
# 3 46.1374 7.8067 77.6516 0.0000 6.8698 0.0000
# 4 0.0000 0.0000 0.0000 -39.6334 0.0000 8.5696
# 5 12.8771 0.8391 6.8698 0.0000 24.5050 0.0000
# 6 0.0000 0.0000 0.0000 8.5696 0.0000 2.0613
#
#
#
# Elastic Compliance Matrix: (Units=1/GPa)
#
#
# Indices 1 2 3 4 5 6 
#
# 1 0.013140 0.000669 -0.007446 0.000000 -0.004840 0.000000
# 2 0.000669 0.011668 -0.001542 0.000000 -0.000319 0.000000
# 3 -0.007446 -0.001542 0.017542 0.000000 -0.000952 0.000000
# 4 0.000000 0.000000 0.000000 -0.013287 0.000000 0.055240
# 5 -0.004840 -0.000319 -0.000952 0.000000 0.043629 0.000000
# 6 0.000000 0.000000 0.000000 0.055240 0.000000 0.255480
#
#
# Mechanical properties :
#
#
# Convention : Reuss Voigt Hill
#
# Bulk Modulus (GPa) = 38.89446 42.20974 40.55210
# Shear Modulus (GPa) = 14.14903 11.86044 13.00473
#
# Velocity S-wave (km/s) = 2.48296 2.27330 2.38044
# Velocity P-wave (km/s) = 5.01671 5.02815 5.02243
#
# Compressibility (1/GPa) = 0.02571060
#
# Stress axis : x y z
#
# Youngs Moduli (GPa) = 76.10319 85.70330 57.00728
#
# Poissons Ratio (x) = -0.05735 0.42449
# Poissons Ratio (y) = -0.05092 0.08793
# Poissons Ratio (z) = 0.56669 0.13219
#
# Static dielectric constant tensor:
#      x y z
#    x 1.883110 0.000000 0.013900 
#    y 0.000000 1.903440 0.000000 
#    z 0.013900 0.000000 1.846420 
# 
# From -- ./inp_files/108493.got.cif
#   From: 2010.05.17/outbox.cif.g08.bks.cpg/sg12_55_cif.got.tgz:108493.got - 2010.06.03 13:09:07.
