data_PCOD9205743
_publ_section_title
;
Structure prediction by ZEFSAII (Michael W. Deem and Ramdas Pophale) SiO2 
 PCOD9205743
Probable space group: C 2/M
;
_chemical_formula_sum "Si O2"
_cell_formula_units_Z 58
_cell_length_a 17.068478
_cell_length_b 9.658478
_cell_length_c 19.945399
_cell_angle_alpha 90.000000
_cell_angle_beta 61.183714
_cell_angle_gamma 90.000000
_cell_volume 2880.941601
_symmetry_space_group_name_H-M "C 2/M"
_symmetry_group_IT_number 12
_symmetry_cell_setting 'monoclinic'
loop_
_space_group_symop_operation_xyz
x,y,z
-x,y,-z
-x,-y,-z
x,-y,z
1/2+x,1/2+y,z
1/2-x,1/2+y,-z
1/2-x,1/2-y,-z
1/2+x,1/2-y,z
loop_
_atom_site_type_symbol
_atom_site_label
_atom_site_fract_x
_atom_site_fract_y
_atom_site_fract_z
Si Si1 0.944136 0.217766 0.462008
Si Si2 0.913375 0.157873 0.327406
Si Si3 0.091102 0.833848 0.180434
Si Si4 0.885102 0.667154 0.107494
Si Si5 0.287027 0.667971 0.745669
Si Si6 0.407670 0.166729 0.949905
Si Si7 0.000000 0.500000 0.500000
Si Si8 0.235418 0.164672 0.393256
O O1 0.960862 0.164046 0.380763
O O2 0.839477 0.197757 0.521232
O O3 0.000000 0.149336 0.500000
O O4 0.969494 0.377621 0.459800
O O5 0.828968 0.258420 0.363472
O O6 0.987421 0.193587 0.241314
O O7 0.883155 0.000000 0.328887
O O8 0.146257 0.789300 0.223328
O O9 0.122240 0.751430 0.102306
O O10 0.101980 0.000000 0.167065
O O11 0.881583 0.500000 0.108650
O O12 0.811425 0.715618 0.190368
O O13 0.986732 0.700653 0.083920
O O14 0.864557 0.707704 0.039070
O O15 0.288654 0.500000 0.744336
O O16 0.304590 0.712064 0.662463
O O17 0.398811 0.000000 0.944815
O O18 0.249994 0.000000 0.385986
#
# Coordination Sequence:
#
# PCOD9205743 Si02
#       8
#     8   8   8   8   8   8   2   8
#     4  10  22  40  61  84 115 148 184 222 276 327
#     4  11  24  38  57  81 116 151 186 232 285 336
#     4  10  21  36  52  77 110 147 180 223 279 332
#     4   8  15  30  54  77 106 140 178 225 272 326
#     4   9  18  34  53  78 108 144 182 224 277 335
#     4   9  17  32  54  81 104 137 183 227 273 325
#     4   8  24  40  62  88 116 152 180 232 276 336
#     4  11  23  37  62  87 110 144 192 236 276 331
#
# _framework density 20.132306
#
# number of rings (size 3 to 8) (size 9 to 14) (size 15 to 20)
#    0.414    1.931    0.000    3.310    1.931    4.414 
#    0.000    2.069    0.000    1.655    0.000    0.000 
#    0.000    0.000    0.000    0.000    0.000    0.000 
#
# Total GULP energy -161494.775856 kJ/mol
# GULP energy per Si atom -5568.785374 kJ/mol
# Density = 2.008648 g / cm^3
# Si number density = 20.132306 Si / 1000 Ang^3
#
#
#
# Elastic Constant Matrix: (Units=GPa)
#
#
# Indices 1 2 3 4 5 6 
#
# 1 38.6000 3.1030 -13.2058 0.0000 14.8806 0.0000
# 2 3.1030 51.9081 -1.7542 0.0000 3.3368 0.0000
# 3 -13.2058 -1.7542 63.3658 0.0000 18.0564 0.0000
# 4 0.0000 0.0000 0.0000 -3.0235 0.0000 17.4906
# 5 14.8806 3.3368 18.0564 0.0000 33.0664 0.0000
# 6 0.0000 0.0000 0.0000 17.4906 0.0000 23.9629
#
#
#
# Elastic Compliance Matrix: (Units=1/GPa)
#
#
# Indices 1 2 3 4 5 6 
#
# 1 0.042738 -0.000146 0.017029 0.000000 -0.028517 0.000000
# 2 -0.000146 0.019481 0.001244 0.000000 -0.002579 0.000000
# 3 0.017029 0.001244 0.025562 0.000000 -0.021747 0.000000
# 4 0.000000 0.000000 0.000000 -0.063331 0.000000 0.046226
# 5 -0.028517 -0.002579 -0.021747 0.000000 0.055211 0.000000
# 6 0.000000 0.000000 0.000000 0.046226 0.000000 0.007991
#
#
# Mechanical properties :
#
#
# Convention : Reuss Voigt Hill
#
# Bulk Modulus (GPa) = 8.06227 14.46221 11.26224
# Shear Modulus (GPa) = 53.91197 21.84986 37.88092
#
# Velocity S-wave (km/s) = 5.18044 3.29798 4.34245
# Velocity P-wave (km/s) = 6.30840 4.65848 5.54515
#
# Compressibility (1/GPa) = 0.12403448
#
# Stress axis : x y z
#
# Youngs Moduli (GPa) = 23.39835 51.33098 39.12090
#
# Poissons Ratio (x) = 0.00750 -0.66619
# Poissons Ratio (y) = 0.00342 -0.04866
# Poissons Ratio (z) = -0.39845 -0.06385
#
# Static dielectric constant tensor:
#      x y z
#    x 1.761580 0.000000 0.000970 
#    y 0.000000 1.660120 0.000000 
#    z 0.000970 0.000000 1.711660 
# 
# From -- ./inp_files/314722.got.cif
#   From: 2010.05.17/outbox.cif.g08.bks.cpg/sg12_158_cif.got.tgz:314722.got - 2010.06.03 13:09:07.
