data_PCOD9205257
_publ_section_title
;
Structure prediction by ZEFSAII (Michael W. Deem and Ramdas Pophale) SiO2 
 PCOD9205257
Probable space group: C 2/M
;
_chemical_formula_sum "Si O2"
_cell_formula_units_Z 56
_cell_length_a 15.178113
_cell_length_b 21.795643
_cell_length_c 9.267607
_cell_angle_alpha 90.000000
_cell_angle_beta 101.876225
_cell_angle_gamma 90.000000
_cell_volume 3000.252677
_symmetry_space_group_name_H-M "C 2/M"
_symmetry_group_IT_number 12
_symmetry_cell_setting 'monoclinic'
loop_
_space_group_symop_operation_xyz
x,y,z
-x,y,-z
-x,-y,-z
x,-y,z
1/2+x,1/2+y,z
1/2-x,1/2+y,-z
1/2-x,1/2-y,-z
1/2+x,1/2-y,z
loop_
_atom_site_type_symbol
_atom_site_label
_atom_site_fract_x
_atom_site_fract_y
_atom_site_fract_z
Si Si1 0.900710 0.928924 0.034761
Si Si2 0.727305 0.377086 0.542619
Si Si3 0.917844 0.658765 0.563976
Si Si4 0.496781 0.754644 0.830996
Si Si5 0.070424 0.069293 0.634244
Si Si6 0.168930 0.754286 0.695116
Si Si7 0.831012 0.834577 0.789679
O O1 0.914489 0.905472 0.201874
O O2 0.867995 0.000000 0.025707
O O3 0.839719 0.883717 0.920161
O O4 0.000000 0.929460 0.000000
O O5 0.834291 0.384074 0.575467
O O6 0.666595 0.429448 0.590395
O O7 0.702280 0.316153 0.628067
O O8 0.694550 0.366953 0.368544
O O9 0.875620 0.712264 0.446576
O O10 0.000000 0.630985 0.500000
O O11 0.956616 0.691414 0.718444
O O12 0.592882 0.738334 0.791850
O O13 0.426521 0.698684 0.801427
O O14 0.500000 0.772092 0.000000
O O15 0.000000 0.100586 0.500000
O O16 0.036093 0.000000 0.647269
O O17 0.254315 0.716986 0.785403
#
# Coordination Sequence:
#
# PCOD9205257 Si02
#       7
#     8   8   8   8   8   8   8
#     4  10  22  39  55  78 113 150 186 231 276 320
#     4  11  20  34  58  78 104 148 184 229 271 333
#     4   9  18  37  52  71 107 144 178 220 274 327
#     4  11  22  31  47  76 113 144 179 220 268 322
#     4  10  23  38  55  81 111 148 191 229 273 328
#     4  10  21  35  53  77 110 149 182 226 272 335
#     4  11  21  36  53  80 112 145 189 225 279 326
#
# _framework density 18.665095000000001
#
# number of rings (size 3 to 8) (size 9 to 14) (size 15 to 20)
#    0.000    1.714    2.857    2.143    6.000    3.429 
#    0.000    0.000    0.000    0.429    0.000    3.000 
#    0.000   21.714    0.000    0.000    0.000    0.000 
#
# Total GULP energy -156287.388492 kJ/mol
# GULP energy per Si atom -5581.692446 kJ/mol
# Density = 1.862261 g / cm^3
# Si number density = 18.665095 Si / 1000 Ang^3
#
#
#
# Elastic Constant Matrix: (Units=GPa)
#
#
# Indices 1 2 3 4 5 6 
#
# 1 120.1521 13.4340 50.9446 0.0000 -5.2922 0.0000
# 2 13.4340 38.9022 42.2379 0.0000 11.3081 0.0000
# 3 50.9446 42.2379 152.8446 0.0000 -4.7482 0.0000
# 4 0.0000 0.0000 0.0000 13.3022 0.0000 -0.4984
# 5 -5.2922 11.3081 -4.7482 0.0000 23.0643 0.0000
# 6 0.0000 0.0000 0.0000 -0.4984 0.0000 18.8943
#
#
#
# Elastic Compliance Matrix: (Units=1/GPa)
#
#
# Indices 1 2 3 4 5 6 
#
# 1 0.009758 -0.000673 -0.003006 0.000000 0.001950 0.000000
# 2 -0.000673 0.049356 -0.014263 0.000000 -0.027289 0.000000
# 3 -0.003006 -0.014263 0.011757 0.000000 0.008724 0.000000
# 4 0.000000 0.000000 0.000000 0.075250 0.000000 0.001985
# 5 0.001950 -0.027289 0.008724 0.000000 0.058980 0.000000
# 6 0.000000 0.000000 0.000000 0.001985 0.000000 0.052978
#
#
# Mechanical properties :
#
#
# Convention : Reuss Voigt Hill
#
# Bulk Modulus (GPa) = 28.58121 58.34800 43.46460
# Shear Modulus (GPa) = 16.35984 24.73766 20.54875
#
# Velocity S-wave (km/s) = 2.96378 3.64448 3.32161
# Velocity P-wave (km/s) = 5.20172 7.00271 6.16830
#
# Compressibility (1/GPa) = 0.03498802
#
# Stress axis : x y z
#
# Youngs Moduli (GPa) = 102.47492 20.26088 85.05567
#
# Poissons Ratio (x) = 0.01364 0.25568
# Poissons Ratio (y) = 0.06896 1.21313
# Poissons Ratio (z) = 0.30804 0.28898
#
# Static dielectric constant tensor:
#      x y z
#    x 1.664360 0.000000 -0.004630 
#    y 0.000000 1.666730 0.000000 
#    z -0.004630 0.000000 1.660690 
# 
# From -- ./inp_files/65436.got.cif
#   From: 2010.05.17/outbox.cif.g08.bks.cpg/sg12_33_cif.got.tgz:65436.got - 2010.06.03 13:09:07.
