data_PCOD9205614
_publ_section_title
;
Structure prediction by ZEFSAII (Michael W. Deem and Ramdas Pophale) SiO2 
 PCOD9205614
Probable space group: C 2/M
;
_chemical_formula_sum "Si O2"
_cell_formula_units_Z 56
_cell_length_a 17.492533
_cell_length_b 14.609704
_cell_length_c 21.351373
_cell_angle_alpha 90.000000
_cell_angle_beta 151.128715
_cell_angle_gamma 90.000000
_cell_volume 2634.670897
_symmetry_space_group_name_H-M "C 2/M"
_symmetry_group_IT_number 12
_symmetry_cell_setting 'monoclinic'
loop_
_space_group_symop_operation_xyz
x,y,z
-x,y,-z
-x,-y,-z
x,-y,z
1/2+x,1/2+y,z
1/2-x,1/2+y,-z
1/2-x,1/2-y,-z
1/2+x,1/2-y,z
loop_
_atom_site_type_symbol
_atom_site_label
_atom_site_fract_x
_atom_site_fract_y
_atom_site_fract_z
Si Si1 0.396292 0.661303 0.979542
Si Si2 0.109538 0.896644 0.818369
Si Si3 0.229089 0.109926 0.468288
Si Si4 0.732268 0.323554 0.782849
Si Si5 0.110452 0.281715 0.221001
Si Si6 0.614803 0.260532 0.491222
Si Si7 0.153761 0.607263 0.907414
O O1 0.318728 0.744561 0.884773
O O2 0.251947 0.615433 0.913562
O O3 0.500000 0.611133 0.000000
O O4 0.514515 0.700434 0.117825
O O5 0.182810 0.893965 0.801401
O O6 0.931201 0.861428 0.684773
O O7 0.090942 0.000000 0.827132
O O8 0.230480 0.855053 0.954244
O O9 0.368714 0.167187 0.536964
O O10 0.193804 0.154960 0.509779
O O11 0.245289 0.000000 0.481086
O O12 0.843862 0.348666 0.804723
O O13 0.567933 0.286623 0.636173
O O14 0.274646 0.249741 0.369346
O O15 0.001858 0.332471 0.193970
O O16 0.116314 0.500000 0.890806
#
# Coordination Sequence:
#
# PCOD9205614 Si02
#       7
#     8   8   8   8   8   8   8
#     4  10  22  39  60  83 115 154 192 236 288 352
#     4   9  18  34  56  85 117 155 195 239 294 356
#     4   9  19  35  57  86 117 152 199 245 295 354
#     4  10  21  38  57  83 117 156 196 239 294 353
#     4  11  22  37  59  87 115 151 199 246 292 347
#     4  10  21  35  59  85 117 158 194 245 298 352
#     4  11  23  36  59  89 118 150 194 248 297 348
#
# _framework density 21.255026000000001
#
# number of rings (size 3 to 8) (size 9 to 14) (size 15 to 20)
#    0.000    2.000    1.429    1.714    6.000    1.429 
#    0.000    1.429    0.000    7.714    0.000    0.000 
#    0.000    0.000    0.000    0.000    0.000    0.000 
#
# Total GULP energy -156069.992263 kJ/mol
# GULP energy per Si atom -5573.928295 kJ/mol
# Density = 2.120665 g / cm^3
# Si number density = 21.255026 Si / 1000 Ang^3
#
#
#
# Elastic Constant Matrix: (Units=GPa)
#
#
# Indices 1 2 3 4 5 6 
#
# 1 115.9986 24.6613 7.7171 0.0006 6.5324 0.0002
# 2 24.6613 76.0735 10.1165 -0.0013 0.1681 -0.0003
# 3 7.7171 10.1165 110.7678 -0.0010 -0.8649 0.0000
# 4 0.0006 -0.0013 -0.0010 8.4819 -0.0001 0.9642
# 5 6.5324 0.1681 -0.8649 -0.0001 18.9222 0.0002
# 6 0.0002 -0.0003 0.0000 0.9642 0.0002 11.1558
#
#
#
# Elastic Compliance Matrix: (Units=1/GPa)
#
#
# Indices 1 2 3 4 5 6 
#
# 1 0.009471 -0.003009 -0.000411 -0.000001 -0.003262 0.000000
# 2 -0.003009 0.014263 -0.001086 0.000002 0.000862 0.000000
# 3 -0.000411 -0.001086 0.009160 0.000001 0.000570 0.000000
# 4 -0.000001 0.000002 0.000001 0.119068 0.000001 -0.010291
# 5 -0.003262 0.000862 0.000570 0.000001 0.053992 -0.000001
# 6 0.000000 0.000000 0.000000 -0.010291 -0.000001 0.090529
#
#
# Mechanical properties :
#
#
# Convention : Reuss Voigt Hill
#
# Bulk Modulus (GPa) = 41.86960 43.09219 42.48090
# Shear Modulus (GPa) = 15.95120 25.06832 20.50976
#
# Velocity S-wave (km/s) = 2.74244 3.43797 3.10971
# Velocity P-wave (km/s) = 5.45613 6.00645 5.73789
#
# Compressibility (1/GPa) = 0.02388368
#
# Stress axis : x y z
#
# Youngs Moduli (GPa) = 105.58070 70.11113 109.16833
#
# Poissons Ratio (x) = 0.21094 0.04482
# Poissons Ratio (y) = 0.31765 0.11859
# Poissons Ratio (z) = 0.04335 0.07616
#
# Static dielectric constant tensor:
#      x y z
#    x 1.822590 0.000000 -0.003390 
#    y 0.000000 1.735550 0.000000 
#    z -0.003390 0.000000 1.819230 
# 
# From -- ./inp_files/183468.got.cif
#   From: 2010.05.17/outbox.cif.g08.bks.cpg/sg12_92_cif.got.tgz:183468.got - 2010.06.03 13:09:07.
