data_PCOD9205877
_publ_section_title
;
Structure prediction by ZEFSAII (Michael W. Deem and Ramdas Pophale) SiO2 
 PCOD9205877
Probable space group: C 2/M
;
_chemical_formula_sum "Si O2"
_cell_formula_units_Z 40
_cell_length_a 10.287320
_cell_length_b 7.571413
_cell_length_c 22.548912
_cell_angle_alpha 90.000000
_cell_angle_beta 84.879362
_cell_angle_gamma 90.000000
_cell_volume 1749.315047
_symmetry_space_group_name_H-M "C 2/M"
_symmetry_group_IT_number 12
_symmetry_cell_setting 'monoclinic'
loop_
_space_group_symop_operation_xyz
x,y,z
-x,y,-z
-x,-y,-z
x,-y,z
1/2+x,1/2+y,z
1/2-x,1/2+y,-z
1/2-x,1/2-y,-z
1/2+x,1/2-y,z
loop_
_atom_site_type_symbol
_atom_site_label
_atom_site_fract_x
_atom_site_fract_y
_atom_site_fract_z
Si Si1 0.786275 0.212917 0.741055
Si Si2 0.080282 0.292655 0.941516
Si Si3 0.045626 0.210198 0.669895
Si Si4 0.658175 0.285487 0.127411
Si Si5 0.614761 0.712031 0.537349
O O1 0.648978 0.260918 0.717916
O O2 0.809476 0.273659 0.807284
O O3 0.904282 0.279788 0.694853
O O4 0.792414 0.000000 0.742337
O O5 0.099746 0.500000 0.953426
O O6 0.223422 0.221900 0.919820
O O7 0.982098 0.275330 0.890079
O O8 0.000000 0.213504 0.000000
O O9 0.099297 0.280510 0.605102
O O10 0.030756 0.000000 0.663610
O O11 0.657726 0.500000 0.126787
O O12 0.500000 0.780509 0.500000
O O13 0.602901 0.500000 0.540717
O O14 0.750000 0.750000 0.500000
#
# Coordination Sequence:
#
# PCOD9205877 Si02
#       5
#     8   8   8   8   8
#     4  10  21  37  56  79 108 140 176 220 266 313
#     4  10  21  36  54  79 110 142 178 220 265 314
#     4  10  21  36  55  80 107 138 177 217 262 316
#     4  10  21  36  55  80 107 139 180 220 263 316
#     4  10  21  37  56  79 108 140 175 217 263 312
#
# _framework density 22.866092999999999
#
# number of rings (size 3 to 8) (size 9 to 14) (size 15 to 20)
#    0.000    2.000    0.000    3.000    0.000    5.600 
#    0.000    0.000    0.000    0.000    0.000    0.000 
#    0.000    0.000    0.000    0.000    0.000    0.000 
#
# Total GULP energy -111831.762967 kJ/mol
# GULP energy per Si atom -5591.588148 kJ/mol
# Density = 2.281405 g / cm^3
# Si number density = 22.866093 Si / 1000 Ang^3
#
#
#
# Elastic Constant Matrix: (Units=GPa)
#
#
# Indices 1 2 3 4 5 6 
#
# 1 78.9985 -9.3647 -31.3386 0.0000 -5.6960 0.0000
# 2 -9.3647 52.7378 2.8140 0.0000 -9.9359 0.0000
# 3 -31.3386 2.8140 56.3205 0.0000 -4.2075 0.0000
# 4 0.0000 0.0000 0.0000 0.9633 0.0000 -17.7456
# 5 -5.6960 -9.9359 -4.2075 0.0000 43.1248 0.0000
# 6 0.0000 0.0000 0.0000 -17.7456 0.0000 -50.1980
#
#
#
# Elastic Compliance Matrix: (Units=1/GPa)
#
#
# Indices 1 2 3 4 5 6 
#
# 1 0.017178 0.003281 0.009691 0.000000 0.003970 0.000000
# 2 0.003281 0.020473 0.001196 0.000000 0.005267 0.000000
# 3 0.009691 0.001196 0.023375 0.000000 0.003836 0.000000
# 4 0.000000 0.000000 0.000000 0.138188 0.000000 -0.048851
# 5 0.003970 0.005267 0.003836 0.000000 0.025301 0.000000
# 6 0.000000 0.000000 0.000000 -0.048851 0.000000 -0.002652
#
#
# Mechanical properties :
#
#
# Convention : Reuss Voigt Hill
#
# Bulk Modulus (GPa) = 11.19024 12.47537 11.83280
# Shear Modulus (GPa) = 22.39010 13.84110 18.11560
#
# Velocity S-wave (km/s) = 3.13259 2.46298 2.81774
# Velocity P-wave (km/s) = 4.24129 3.68185 3.97143
#
# Compressibility (1/GPa) = 0.08936360
#
# Stress axis : x y z
#
# Youngs Moduli (GPa) = 58.21332 48.84518 42.78101
#
# Poissons Ratio (x) = -0.16027 -0.41460
# Poissons Ratio (y) = -0.19101 -0.05118
# Poissons Ratio (z) = -0.56416 -0.05844
#
# Static dielectric constant tensor:
#      x y z
#    x 1.776560 0.000000 -0.026730 
#    y 0.000000 1.878500 0.000000 
#    z -0.026730 0.000000 1.860550 
# 
# From -- ./inp_files/254603.got.cif
#   From: 2010.05.17/outbox.cif.g08.bks.cpg/sg12_128_cif.got.tgz:254603.got - 2010.06.03 13:09:07.
