data_PCOD9205861
_publ_section_title
;
Structure prediction by ZEFSAII (Michael W. Deem and Ramdas Pophale) SiO2 
 PCOD9205861
Probable space group: C 2/M
;
_chemical_formula_sum "Si O2"
_cell_formula_units_Z 50
_cell_length_a 9.795408
_cell_length_b 7.398447
_cell_length_c 26.571029
_cell_angle_alpha 90.000000
_cell_angle_beta 94.209490
_cell_angle_gamma 90.000000
_cell_volume 1920.429220
_symmetry_space_group_name_H-M "C 2/M"
_symmetry_group_IT_number 12
_symmetry_cell_setting 'monoclinic'
loop_
_space_group_symop_operation_xyz
x,y,z
-x,y,-z
-x,-y,-z
x,-y,z
1/2+x,1/2+y,z
1/2-x,1/2+y,-z
1/2-x,1/2-y,-z
1/2+x,1/2-y,z
loop_
_atom_site_type_symbol
_atom_site_label
_atom_site_fract_x
_atom_site_fract_y
_atom_site_fract_z
Si Si1 0.163522 0.219133 0.265933
Si Si2 0.402688 0.709025 0.204786
Si Si3 0.000000 0.000000 0.500000
Si Si4 0.945932 0.218755 0.628889
Si Si5 0.052580 0.719113 0.946955
Si Si6 0.208260 0.291012 0.114261
Si Si7 0.677698 0.794403 0.564628
O O1 0.051449 0.283610 0.221819
O O2 0.312031 0.283300 0.253089
O O3 0.410508 0.205810 0.385848
O O4 0.164956 0.000000 0.266005
O O5 0.423708 0.500000 0.191794
O O6 0.609711 0.778521 0.318722
O O7 0.305432 0.793532 0.159539
O O8 0.100317 0.842843 0.526972
O O9 0.830469 0.261480 0.584293
O O10 0.957258 0.000000 0.629569
O O11 0.054054 0.500000 0.946790
O O12 0.940269 0.783892 0.902981
O O13 0.200904 0.783534 0.933976
O O14 0.000000 0.777855 0.000000
O O15 0.187038 0.500000 0.127283
O O16 0.682200 0.000000 0.545695
#
# Coordination Sequence:
#
# PCOD9205861 Si02
#       7
#     8   8   2   8   8   8   8
#     4  10  21  37  61  88 120 154 195 241 289 358
#     4  10  21  36  55  87 118 153 193 239 300 354
#     4  12  26  48  68  96 136 168 206 270 308 362
#     4  10  22  43  64  94 128 161 207 257 301 364
#     4  10  21  36  54  78 107 148 197 246 298 355
#     4  10  21  36  54  79 115 148 191 247 294 357
#     4  11  25  44  68  97 127 170 211 254 314 371
#
# _framework density 26.035845999999999
#
# number of rings (size 3 to 8) (size 9 to 14) (size 15 to 20)
#    0.000    1.760    0.800    2.640    1.120    3.520 
#    0.000    0.000    0.000    0.000    0.000    0.000 
#    0.000    0.000    0.000    0.000    0.000    0.000 
#
# Total GULP energy -139833.657071 kJ/mol
# GULP energy per Si atom -5593.346283 kJ/mol
# Density = 2.597659 g / cm^3
# Si number density = 26.035846 Si / 1000 Ang^3
#
#
#
# Elastic Constant Matrix: (Units=GPa)
#
#
# Indices 1 2 3 4 5 6 
#
# 1 117.8797 -7.8358 -0.0230 0.0000 -6.6806 0.0000
# 2 -7.8358 106.7675 23.6218 0.0000 9.9732 0.0000
# 3 -0.0230 23.6218 77.1613 0.0000 -2.2944 0.0000
# 4 0.0000 0.0000 0.0000 11.2141 0.0000 -14.6608
# 5 -6.6806 9.9732 -2.2944 0.0000 52.1608 0.0000
# 6 0.0000 0.0000 0.0000 -14.6608 0.0000 13.9883
#
#
#
# Elastic Compliance Matrix: (Units=1/GPa)
#
#
# Indices 1 2 3 4 5 6 
#
# 1 0.008577 0.000569 -0.000142 0.000000 0.000983 0.000000
# 2 0.000569 0.010310 -0.003217 0.000000 -0.002040 0.000000
# 3 -0.000142 -0.003217 0.013981 0.000000 0.001212 0.000000
# 4 0.000000 0.000000 0.000000 -0.240881 0.000000 -0.252461
# 5 0.000983 -0.002040 0.001212 0.000000 0.019741 0.000000
# 6 0.000000 0.000000 0.000000 -0.252461 0.000000 -0.193109
#
#
# Mechanical properties :
#
#
# Convention : Reuss Voigt Hill
#
# Bulk Modulus (GPa) = 36.64703 37.03716 36.84210
# Shear Modulus (GPa) = -13.63493 34.54236 10.45372
#
# Velocity S-wave (km/s) = -2.29093 3.64637 2.00595
# Velocity P-wave (km/s) = 2.66615 5.65547 4.42113
#
# Compressibility (1/GPa) = 0.02728734
#
# Stress axis : x y z
#
# Youngs Moduli (GPa) = 116.59418 96.99171 71.52760
#
# Poissons Ratio (x) = -0.05520 0.01019
# Poissons Ratio (y) = -0.06635 0.23009
# Poissons Ratio (z) = 0.01661 0.31200
#
# Static dielectric constant tensor:
#      x y z
#    x 1.969990 0.000000 -0.059510 
#    y 0.000000 1.946980 0.000000 
#    z -0.059510 0.000000 2.109530 
# 
# From -- ./inp_files/357558.got.cif
#   From: 2010.05.17/outbox.cif.g08.bks.cpg/sg12_179_cif.got.tgz:357558.got - 2010.06.03 13:09:07.
