data_PCOD9205562
_publ_section_title
;
Structure prediction by ZEFSAII (Michael W. Deem and Ramdas Pophale) SiO2 
 PCOD9205562
Probable space group: C 2/M
;
_chemical_formula_sum "Si O2"
_cell_formula_units_Z 56
_cell_length_a 11.815987
_cell_length_b 14.805045
_cell_length_c 27.022569
_cell_angle_alpha 90.000000
_cell_angle_beta 33.040485
_cell_angle_gamma 90.000000
_cell_volume 2577.432556
_symmetry_space_group_name_H-M "C 2/M"
_symmetry_group_IT_number 12
_symmetry_cell_setting 'monoclinic'
loop_
_space_group_symop_operation_xyz
x,y,z
-x,y,-z
-x,-y,-z
x,-y,z
1/2+x,1/2+y,z
1/2-x,1/2+y,-z
1/2-x,1/2-y,-z
1/2+x,1/2-y,z
loop_
_atom_site_type_symbol
_atom_site_label
_atom_site_fract_x
_atom_site_fract_y
_atom_site_fract_z
Si Si1 0.574506 0.294116 0.624985
Si Si2 0.826037 0.395154 0.101114
Si Si3 0.630942 0.205443 0.811398
Si Si4 0.999991 0.099050 0.135391
Si Si5 0.788346 0.895212 0.047594
Si Si6 0.306725 0.098231 0.609811
Si Si7 0.652970 0.894939 0.557859
O O1 0.332909 0.311041 0.704461
O O2 0.643483 0.328815 0.653419
O O3 0.646690 0.189964 0.596750
O O4 0.694600 0.356270 0.540886
O O5 0.877953 0.500000 0.092801
O O6 0.832019 0.342959 0.149833
O O7 0.618800 0.395305 0.144112
O O8 0.000000 0.358185 0.000000
O O9 0.633987 0.312218 0.819594
O O10 0.409898 0.169503 0.872048
O O11 0.899225 0.000000 0.168378
O O12 0.157361 0.105855 0.030934
O O13 0.737847 0.000000 0.079112
O O14 0.000000 0.871680 0.000000
O O15 0.500000 0.102095 0.500000
O O16 0.421236 0.105376 0.619588
O O17 0.207379 0.000000 0.641342
O O18 0.700405 0.000000 0.553396
#
# Coordination Sequence:
#
# PCOD9205562 Si02
#       7
#     8   8   8   8   8   8   8
#     4  10  21  35  57  98 122 149 205 260 299 362
#     4  10  21  39  62  88 116 152 206 266 316 361
#     4  12  24  35  62  95 124 159 210 270 309 352
#     4  10  23  41  59  84 121 165 210 253 311 376
#     4  10  22  40  61  86 122 170 214 253 309 375
#     4   8  15  32  59  85 112 151 192 235 295 364
#     4   9  19  39  65  86 122 168 194 236 312 383
#
# _framework density 21.727048
#
# number of rings (size 3 to 8) (size 9 to 14) (size 15 to 20)
#    0.000    2.143    1.429    2.143    2.000    4.000 
#    0.000    2.857    0.000   11.571    0.000    0.000 
#    0.000    0.000    0.000    0.000    0.000    0.000 
#
# Total GULP energy -156238.483239 kJ/mol
# GULP energy per Si atom -5579.945830 kJ/mol
# Density = 2.167760 g / cm^3
# Si number density = 21.727048 Si / 1000 Ang^3
#
#
#
# Elastic Constant Matrix: (Units=GPa)
#
#
# Indices 1 2 3 4 5 6 
#
# 1 57.0813 46.3462 22.8291 -0.0001 -7.4807 0.0002
# 2 46.3462 161.4609 49.1244 0.0005 -10.2652 0.0011
# 3 22.8291 49.1244 83.1554 -0.0083 -14.7536 0.0058
# 4 -0.0001 0.0005 -0.0083 21.7370 0.0013 -17.4866
# 5 -7.4807 -10.2652 -14.7536 0.0013 17.1574 0.0013
# 6 0.0002 0.0011 0.0058 -17.4866 0.0013 32.7125
#
#
#
# Elastic Compliance Matrix: (Units=1/GPa)
#
#
# Indices 1 2 3 4 5 6 
#
# 1 0.023797 -0.005846 -0.002194 -0.000001 0.004991 0.000000
# 2 -0.005846 0.008996 -0.003784 -0.000002 -0.000421 -0.000001
# 3 -0.002194 -0.003784 0.016865 0.000006 0.011282 0.000000
# 4 -0.000001 -0.000002 0.000006 0.080713 -0.000007 0.043145
# 5 0.004991 -0.000421 0.011282 -0.000007 0.069910 -0.000008
# 6 0.000000 -0.000001 0.000000 0.043145 -0.000008 0.053633
#
#
# Mechanical properties :
#
#
# Convention : Reuss Voigt Hill
#
# Bulk Modulus (GPa) = 38.44678 59.81078 49.12878
# Shear Modulus (GPa) = 17.46834 26.54793 22.00813
#
# Velocity S-wave (km/s) = 2.83855 3.49934 3.18612
# Velocity P-wave (km/s) = 5.33638 6.62685 6.01631
#
# Compressibility (1/GPa) = 0.02600998
#
# Stress axis : x y z
#
# Youngs Moduli (GPa) = 42.02220 111.15975 59.29381
#
# Poissons Ratio (x) = 0.64983 0.13009
# Poissons Ratio (y) = 0.24566 0.22438
# Poissons Ratio (z) = 0.09220 0.42065
#
# Static dielectric constant tensor:
#      x y z
#    x 1.812680 0.000000 -0.001010 
#    y 0.000000 1.803740 0.000000 
#    z -0.001010 0.000000 1.841290 
# 
# From -- ./inp_files/374188.got.cif
#   From: 2010.05.17/outbox.cif.g08.bks.cpg/sg12_188_cif.got.tgz:374188.got - 2010.06.03 13:09:07.
