data_PCOD9205769
_publ_section_title
;
Structure prediction by ZEFSAII (Michael W. Deem and Ramdas Pophale) SiO2 
 PCOD9205769
Probable space group: C 2/M
;
_chemical_formula_sum "Si O2"
_cell_formula_units_Z 64
_cell_length_a 31.247037
_cell_length_b 9.324570
_cell_length_c 12.125176
_cell_angle_alpha 90.000000
_cell_angle_beta 81.003045
_cell_angle_gamma 90.000000
_cell_volume 3489.388203
_symmetry_space_group_name_H-M "C 2/M"
_symmetry_group_IT_number 12
_symmetry_cell_setting 'monoclinic'
loop_
_space_group_symop_operation_xyz
x,y,z
-x,y,-z
-x,-y,-z
x,-y,z
1/2+x,1/2+y,z
1/2-x,1/2+y,-z
1/2-x,1/2-y,-z
1/2+x,1/2-y,z
loop_
_atom_site_type_symbol
_atom_site_label
_atom_site_fract_x
_atom_site_fract_y
_atom_site_fract_z
Si Si1 0.592449 0.831069 0.073826
Si Si2 0.584325 0.337172 0.866312
Si Si3 0.532634 0.833837 0.588975
Si Si4 0.991595 0.833106 0.809590
Si Si5 0.214301 0.826626 0.589529
Si Si6 0.384664 0.331647 0.398659
Si Si7 0.186920 0.670757 0.062397
Si Si8 0.771730 0.171551 0.160485
O O1 0.551531 0.743345 0.132723
O O2 0.637683 0.796666 0.115588
O O3 0.583887 0.000000 0.084810
O O4 0.599615 0.781257 0.945143
O O5 0.595068 0.500000 0.899111
O O6 0.532258 0.326539 0.876842
O O7 0.603880 0.318801 0.736557
O O8 0.500000 0.827406 0.500000
O O9 0.509628 0.746242 0.695099
O O10 0.579686 0.762261 0.552513
O O11 0.538540 0.000000 0.618159
O O12 0.983469 0.000000 0.790658
O O13 0.250000 0.750000 0.500000
O O14 0.165550 0.791675 0.568826
O O15 0.219122 0.785582 0.717124
O O16 0.219165 0.000000 0.582035
O O17 0.390202 0.500000 0.424098
O O18 0.189106 0.500000 0.039388
O O19 0.222408 0.702902 0.141758
O O20 0.199839 0.752787 0.945272
O O21 0.778719 0.000000 0.150970
#
# Coordination Sequence:
#
# PCOD9205769 Si02
#       8
#     8   8   8   8   8   8   8   8
#     4  11  21  31  47  77 113 142 171 215 267 316
#     4   9  18  33  53  75 102 139 180 219 260 315
#     4  10  21  38  59  82 106 137 177 222 271 324
#     4  10  21  36  53  74 104 142 179 217 261 314
#     4  10  21  37  57  82 112 146 185 232 281 327
#     4   9  19  36  57  81 108 140 182 227 270 322
#     4   9  19  34  53  79 108 140 177 221 270 324
#     4   9  18  36  58  76 102 142 182 221 270 325
#
# _framework density 18.341325000000001
#
# number of rings (size 3 to 8) (size 9 to 14) (size 15 to 20)
#    0.000    2.375    0.000    3.000    0.000    8.000 
#    2.250    0.000    0.000    0.000    0.000    0.000 
#    0.000    0.000    0.000    0.000    0.000    0.000 
#
# Total GULP energy -178512.323345 kJ/mol
# GULP energy per Si atom -5578.510105 kJ/mol
# Density = 1.829958 g / cm^3
# Si number density = 18.341325 Si / 1000 Ang^3
#
#
#
# Elastic Constant Matrix: (Units=GPa)
#
#
# Indices 1 2 3 4 5 6 
#
# 1 144.9621 63.2599 26.8582 0.0000 -5.9446 0.0000
# 2 63.2599 70.7284 20.8621 0.0000 5.7587 0.0000
# 3 26.8582 20.8621 31.2535 0.0000 7.1965 0.0000
# 4 0.0000 0.0000 0.0000 30.2826 0.0000 -0.8732
# 5 -5.9446 5.7587 7.1965 0.0000 19.2837 0.0000
# 6 0.0000 0.0000 0.0000 -0.8732 0.0000 36.5257
#
#
#
# Elastic Compliance Matrix: (Units=1/GPa)
#
#
# Indices 1 2 3 4 5 6 
#
# 1 0.013112 -0.010625 -0.006385 0.000000 0.009598 0.000000
# 2 -0.010625 0.026231 -0.006368 0.000000 -0.008732 0.000000
# 3 -0.006385 -0.006368 0.045675 0.000000 -0.017112 0.000000
# 4 0.000000 0.000000 0.000000 0.033045 0.000000 0.000790
# 5 0.009598 -0.008732 -0.017112 0.000000 0.063810 0.000000
# 6 0.000000 0.000000 0.000000 0.000790 0.000000 0.027397
#
#
# Mechanical properties :
#
#
# Convention : Reuss Voigt Hill
#
# Bulk Modulus (GPa) = 26.13658 52.10049 39.11853
# Shear Modulus (GPa) = 18.60259 26.28266 22.44262
#
# Velocity S-wave (km/s) = 3.18818 3.78957 3.50181
# Velocity P-wave (km/s) = 5.27576 6.90040 6.14204
#
# Compressibility (1/GPa) = 0.03826055
#
# Stress axis : x y z
#
# Youngs Moduli (GPa) = 76.26748 38.12260 21.89401
#
# Poissons Ratio (x) = 0.40506 0.13980
# Poissons Ratio (y) = 0.81036 0.13942
# Poissons Ratio (z) = 0.48699 0.24276
#
# Static dielectric constant tensor:
#      x y z
#    x 1.663590 0.000000 0.014890 
#    y 0.000000 1.612910 0.000000 
#    z 0.014890 0.000000 1.619810 
# 
# From -- ./inp_files/187510.got.cif
#   From: 2010.05.17/outbox.cif.g08.bks.cpg/sg12_94_cif.got.tgz:187510.got - 2010.06.03 13:09:07.
