data_PCOD9205298
_publ_section_title
;
Structure prediction by ZEFSAII (Michael W. Deem and Ramdas Pophale) SiO2 
 PCOD9205298
Probable space group: C 2/M
;
_chemical_formula_sum "Si O2"
_cell_formula_units_Z 64
_cell_length_a 25.265439
_cell_length_b 8.742347
_cell_length_c 29.281893
_cell_angle_alpha 90.000000
_cell_angle_beta 149.988372
_cell_angle_gamma 90.000000
_cell_volume 3235.017749
_symmetry_space_group_name_H-M "C 2/M"
_symmetry_group_IT_number 12
_symmetry_cell_setting 'monoclinic'
loop_
_space_group_symop_operation_xyz
x,y,z
-x,y,-z
-x,-y,-z
x,-y,z
1/2+x,1/2+y,z
1/2-x,1/2+y,-z
1/2-x,1/2-y,-z
1/2+x,1/2-y,z
loop_
_atom_site_type_symbol
_atom_site_label
_atom_site_fract_x
_atom_site_fract_y
_atom_site_fract_z
Si Si1 0.899324 0.816940 0.206416
Si Si2 0.325949 0.318312 0.734253
Si Si3 0.823418 0.821025 0.993245
Si Si4 0.108505 0.828469 0.053639
Si Si5 0.983202 0.680861 0.181096
Si Si6 0.412658 0.815862 0.472188
Si Si7 0.040253 0.184256 0.645769
Si Si8 0.766208 0.677398 0.780273
O O1 0.979645 0.766747 0.226792
O O2 0.939935 0.768737 0.286971
O O3 0.885622 0.000000 0.196556
O O4 0.788306 0.739767 0.108930
O O5 0.338922 0.500000 0.738242
O O6 0.416508 0.233966 0.773614
O O7 0.207114 0.271701 0.630106
O O8 0.327662 0.275540 0.788921
O O9 0.877056 0.729246 0.074218
O O10 0.814903 0.000000 0.999277
O O11 0.900925 0.806948 0.007291
O O12 0.182997 0.703732 0.132277
O O13 0.154744 0.000000 0.094572
O O14 0.000000 0.822452 0.000000
O O15 0.983922 0.500000 0.188340
O O16 0.500000 0.761643 0.500000
O O17 0.444781 0.755151 0.546004
O O18 0.416694 0.000000 0.475229
O O19 0.145396 0.227573 0.695819
O O20 0.032364 0.000000 0.639481
O O21 0.770769 0.500000 0.770848
#
# Coordination Sequence:
#
# PCOD9205298 Si02
#       8
#     8   8   8   8   8   8   8   8
#     4  11  23  43  65  89 124 165 209 256 305 359
#     4  11  23  41  63  90 125 163 202 249 308 369
#     4  11  22  38  62  91 123 163 209 256 304 358
#     4  10  21  35  53  81 119 162 204 246 298 359
#     4  12  26  43  63  90 121 160 209 259 309 361
#     4  10  21  38  63  94 124 159 201 246 300 366
#     4  10  22  38  61  92 124 157 197 248 303 355
#     4  11  21  35  57  88 122 159 198 244 302 358
#
# _framework density 19.783508000000001
#
# number of rings (size 3 to 8) (size 9 to 14) (size 15 to 20)
#    0.000    1.250    2.500    3.750    0.000    4.500 
#    0.000    0.625    0.000    0.000    0.000    0.000 
#    0.000    0.000    0.000    0.000    0.000    0.000 
#
# Total GULP energy -178838.569045 kJ/mol
# GULP energy per Si atom -5588.705283 kJ/mol
# Density = 1.973848 g / cm^3
# Si number density = 19.783508 Si / 1000 Ang^3
#
#
#
# Elastic Constant Matrix: (Units=GPa)
#
#
# Indices 1 2 3 4 5 6 
#
# 1 95.6851 10.2326 22.1268 0.0000 -13.8916 0.0000
# 2 10.2326 36.2466 15.1264 0.0000 -2.1097 -0.0001
# 3 22.1268 15.1264 76.0291 0.0000 -14.7686 0.0000
# 4 0.0000 0.0000 0.0000 31.7215 0.0000 -4.2700
# 5 -13.8916 -2.1097 -14.7686 0.0000 24.9385 0.0000
# 6 0.0000 -0.0001 0.0000 -4.2700 0.0000 29.5113
#
#
#
# Elastic Compliance Matrix: (Units=1/GPa)
#
#
# Indices 1 2 3 4 5 6 
#
# 1 0.011916 -0.002221 -0.002004 0.000000 0.005263 0.000000
# 2 -0.002221 0.030529 -0.005838 0.000000 -0.002112 0.000000
# 3 -0.002004 -0.005838 0.016480 0.000000 0.008150 0.000000
# 4 0.000000 0.000000 0.000000 0.032151 0.000000 0.004652
# 5 0.005263 -0.002112 0.008150 0.000000 0.047678 0.000000
# 6 0.000000 0.000000 0.000000 0.004652 0.000000 0.034558
#
#
# Mechanical properties :
#
#
# Convention : Reuss Voigt Hill
#
# Bulk Modulus (GPa) = 25.77303 33.65915 29.71609
# Shear Modulus (GPa) = 24.22817 27.93260 26.08038
#
# Velocity S-wave (km/s) = 3.50332 3.76162 3.63476
# Velocity P-wave (km/s) = 5.42403 5.99308 5.71564
#
# Compressibility (1/GPa) = 0.03880025
#
# Stress axis : x y z
#
# Youngs Moduli (GPa) = 83.92134 32.75552 60.67785
#
# Poissons Ratio (x) = 0.07276 0.12157
# Poissons Ratio (y) = 0.18643 0.35422
# Poissons Ratio (z) = 0.16814 0.19122
#
# Static dielectric constant tensor:
#      x y z
#    x 1.709560 0.000000 0.008310 
#    y 0.000000 1.671540 0.000000 
#    z 0.008310 0.000000 1.697270 
# 
# From -- ./inp_files/382543.got.cif
#   From: 2010.05.17/outbox.cif.g08.bks.cpg/sg12_192_cif.got.tgz:382543.got - 2010.06.03 13:09:07.
