data_PCOD9205286
_publ_section_title
;
Structure prediction by ZEFSAII (Michael W. Deem and Ramdas Pophale) SiO2 
 PCOD9205286
Probable space group: C 2/M
;
_chemical_formula_sum "Si O2"
_cell_formula_units_Z 56
_cell_length_a 30.671507
_cell_length_b 8.703205
_cell_length_c 17.143091
_cell_angle_alpha 90.000000
_cell_angle_beta 45.939254
_cell_angle_gamma 90.000000
_cell_volume 3288.458977
_symmetry_space_group_name_H-M "C 2/M"
_symmetry_group_IT_number 12
_symmetry_cell_setting 'monoclinic'
loop_
_space_group_symop_operation_xyz
x,y,z
-x,y,-z
-x,-y,-z
x,-y,z
1/2+x,1/2+y,z
1/2-x,1/2+y,-z
1/2-x,1/2-y,-z
1/2+x,1/2-y,z
loop_
_atom_site_type_symbol
_atom_site_label
_atom_site_fract_x
_atom_site_fract_y
_atom_site_fract_z
Si Si1 0.528929 0.316848 0.349430
Si Si2 0.909743 0.683174 0.579691
Si Si3 0.488797 0.183504 0.793662
Si Si4 0.694233 0.316435 0.392404
Si Si5 0.940702 0.684937 0.023115
Si Si6 0.123895 0.815161 0.638749
Si Si7 0.674333 0.683495 0.745399
O O1 0.529408 0.500000 0.355178
O O2 0.463162 0.255481 0.459786
O O3 0.576555 0.244725 0.350762
O O4 0.537550 0.263651 0.250290
O O5 0.915254 0.500000 0.570975
O O6 0.846223 0.737480 0.623662
O O7 0.454135 0.223596 0.916545
O O8 0.558580 0.235712 0.715873
O O9 0.486957 0.000000 0.785949
O O10 0.690615 0.500000 0.388316
O O11 0.663670 0.274839 0.513711
O O12 0.763299 0.262113 0.307087
O O13 0.933888 0.500000 0.037921
O O14 0.881646 0.764336 0.131539
O O15 0.000000 0.728206 0.000000
O O16 0.157341 0.773007 0.677408
O O17 0.114747 0.000000 0.649791
O O18 0.681259 0.500000 0.739728
#
# Coordination Sequence:
#
# PCOD9205286 Si02
#       7
#     8   8   8   8   8   8   8
#     4  11  21  35  55  82 115 147 182 225 282 335
#     4  11  21  35  56  83 113 145 186 228 274 331
#     4  11  21  34  57  83 112 147 187 233 279 328
#     4  11  22  37  56  80 114 154 188 227 281 336
#     4  10  21  38  57  80 109 148 191 234 281 327
#     4  10  21  35  53  80 114 150 186 227 278 333
#     4  11  23  37  55  81 112 151 194 234 276 328
#
# _framework density 17.029253000000001
#
# number of rings (size 3 to 8) (size 9 to 14) (size 15 to 20)
#    0.000    1.286    2.857    5.143    0.000    2.571 
#    0.000    0.000    0.000    0.857    0.000    0.000 
#    0.000    0.000    0.000    0.000    0.000    0.000 
#
# Total GULP energy -156501.824789 kJ/mol
# GULP energy per Si atom -5589.350885 kJ/mol
# Density = 1.699049 g / cm^3
# Si number density = 17.029253 Si / 1000 Ang^3
#
#
#
# Elastic Constant Matrix: (Units=GPa)
#
#
# Indices 1 2 3 4 5 6 
#
# 1 139.7512 55.9060 63.1511 0.0001 6.6176 0.0000
# 2 55.9060 80.0044 39.2526 0.0002 2.5019 0.0000
# 3 63.1511 39.2526 76.3099 0.0001 -3.3078 0.0000
# 4 0.0001 0.0002 0.0001 24.5636 -0.0001 -2.0642
# 5 6.6176 2.5019 -3.3078 -0.0001 27.2210 0.0000
# 6 0.0000 0.0000 0.0000 -2.0642 0.0000 31.5151
#
#
#
# Elastic Compliance Matrix: (Units=1/GPa)
#
#
# Indices 1 2 3 4 5 6 
#
# 1 0.013141 -0.004880 -0.008529 0.000000 -0.003782 0.000000
# 2 -0.004880 0.018715 -0.005641 0.000000 -0.001219 0.000000
# 3 -0.008529 -0.005641 0.023299 0.000000 0.005423 0.000000
# 4 0.000000 0.000000 0.000000 0.040936 0.000000 0.002681
# 5 -0.003782 -0.001219 0.005423 0.000000 0.038427 0.000000
# 6 0.000000 0.000000 0.000000 0.002681 0.000000 0.031906
#
#
# Mechanical properties :
#
#
# Convention : Reuss Voigt Hill
#
# Bulk Modulus (GPa) = 58.63135 68.07611 63.35373
# Shear Modulus (GPa) = 23.78581 25.84364 24.81472
#
# Velocity S-wave (km/s) = 3.74138 3.89987 3.82145
# Velocity P-wave (km/s) = 7.29167 7.76797 7.53359
#
# Compressibility (1/GPa) = 0.01705572
#
# Stress axis : x y z
#
# Youngs Moduli (GPa) = 76.09905 53.43237 42.91994
#
# Poissons Ratio (x) = 0.26075 0.36605
# Poissons Ratio (y) = 0.37136 0.24212
# Poissons Ratio (z) = 0.64902 0.30142
#
# Static dielectric constant tensor:
#      x y z
#    x 1.570560 0.000000 0.017720 
#    y 0.000000 1.568310 0.000000 
#    z 0.017720 0.000000 1.545940 
# 
# From -- ./inp_files/295070.got.cif
#   From: 2010.05.17/outbox.cif.g08.bks.cpg/sg12_148_cif.got.tgz:295070.got - 2010.06.03 13:09:07.
