data_PCOD9205458
_publ_section_title
;
Structure prediction by ZEFSAII (Michael W. Deem and Ramdas Pophale) SiO2 
 PCOD9205458
Probable space group: C 2/M
;
_chemical_formula_sum "Si O2"
_cell_formula_units_Z 42
_cell_length_a 19.253557
_cell_length_b 18.532629
_cell_length_c 5.287918
_cell_angle_alpha 90.000000
_cell_angle_beta 95.957603
_cell_angle_gamma 90.000000
_cell_volume 1876.638942
_symmetry_space_group_name_H-M "C 2/M"
_symmetry_group_IT_number 12
_symmetry_cell_setting 'monoclinic'
loop_
_space_group_symop_operation_xyz
x,y,z
-x,y,-z
-x,-y,-z
x,-y,z
1/2+x,1/2+y,z
1/2-x,1/2+y,-z
1/2-x,1/2-y,-z
1/2+x,1/2-y,z
loop_
_atom_site_type_symbol
_atom_site_label
_atom_site_fract_x
_atom_site_fract_y
_atom_site_fract_z
Si Si1 0.931751 0.876683 0.152662
Si Si2 0.716777 0.587043 0.084290
Si Si3 0.794645 0.413507 0.608338
Si Si4 0.916390 0.419971 0.995052
Si Si5 0.000000 0.000000 0.500000
Si Si6 0.953432 0.716787 0.239318
O O1 0.922659 0.796507 0.260003
O O2 0.946656 0.936685 0.369529
O O3 0.864319 0.893490 0.959015
O O4 0.000000 0.880801 0.000000
O O5 0.720395 0.500000 0.085758
O O6 0.758802 0.615261 0.342617
O O7 0.752513 0.612592 0.838585
O O8 0.785844 0.500000 0.591162
O O9 0.875614 0.404316 0.719192
O O10 0.892398 0.500000 0.076778
O O11 0.904153 0.351605 0.168962
O O12 0.000000 0.424850 0.000000
O O13 0.000000 0.701217 0.500000
O O14 0.000000 0.722157 0.000000
#
# Coordination Sequence:
#
# PCOD9205458 Si02
#       6
#     8   8   8   8   2   8
#     4  11  24  37  59  91 122 159 207 249 292 347
#     4  10  21  35  56  81 121 157 195 241 295 348
#     4   9  20  36  55  85 118 153 192 243 299 351
#     4   9  19  39  67  92 116 154 204 248 298 365
#     4  12  22  36  64  90 118 156 220 246 282 352
#     4  10  22  39  58  88 125 154 189 254 308 343
#
# _framework density 22.380436
#
# number of rings (size 3 to 8) (size 9 to 14) (size 15 to 20)
#    0.000    2.095    1.905    0.286    2.667    3.429 
#    0.000    7.619    0.000    0.000    0.000    0.000 
#    0.000    0.000    0.000    0.000    0.000    0.000 
#
# Total GULP energy -116930.546407 kJ/mol
# GULP energy per Si atom -5568.121257 kJ/mol
# Density = 2.232950 g / cm^3
# Si number density = 22.380436 Si / 1000 Ang^3
#
#
#
# Elastic Constant Matrix: (Units=GPa)
#
#
# Indices 1 2 3 4 5 6 
#
# 1 132.6654 3.9282 66.1778 0.0000 33.7566 0.0000
# 2 3.9282 159.0182 47.3342 0.0000 18.0629 0.0000
# 3 66.1778 47.3342 185.1573 0.0000 41.3456 0.0000
# 4 0.0000 0.0000 0.0000 1227.5789 0.0000 -350.1876
# 5 33.7566 18.0629 41.3456 0.0000 39.8628 0.0000
# 6 0.0000 0.0000 0.0000 -350.1876 0.0000 108.9782
#
#
#
# Elastic Compliance Matrix: (Units=1/GPa)
#
#
# Indices 1 2 3 4 5 6 
#
# 1 0.010514 0.001278 -0.002560 0.000000 -0.006827 0.000000
# 2 0.001278 0.007048 -0.001697 0.000000 -0.002516 0.000000
# 3 -0.002560 -0.001697 0.007931 0.000000 -0.005289 0.000000
# 4 0.000000 0.000000 0.000000 0.009776 0.000000 0.031413
# 5 -0.006827 -0.002516 -0.005289 0.000000 0.037493 0.000000
# 6 0.000000 0.000000 0.000000 0.031413 0.000000 0.110117
#
#
# Mechanical properties :
#
#
# Convention : Reuss Voigt Hill
#
# Bulk Modulus (GPa) = 51.19058 79.08014 65.13536
# Shear Modulus (GPa) = 25.59544 299.24403 162.41973
#
# Velocity S-wave (km/s) = 3.38546 11.57576 8.52817
# Velocity P-wave (km/s) = 6.18097 14.63131 11.23120
#
# Compressibility (1/GPa) = 0.01953484
#
# Stress axis : x y z
#
# Youngs Moduli (GPa) = 95.10977 141.88751 126.09482
#
# Poissons Ratio (x) = -0.18131 0.32281
# Poissons Ratio (y) = -0.12153 0.21394
# Poissons Ratio (z) = 0.24348 0.24073
#
# Static dielectric constant tensor:
#      x y z
#    x 1.912380 0.000000 -0.085640 
#    y 0.000000 1.862080 0.000000 
#    z -0.085640 0.000000 1.897710 
# 
# From -- ./inp_files/20537.got.cif
#   From: 2010.05.17/outbox.cif.g08.bks.cpg/sg12_11_cif.got.tgz:20537.got - 2010.06.03 13:09:07.
