data_PCOD9205566
_publ_section_title
;
Structure prediction by ZEFSAII (Michael W. Deem and Ramdas Pophale) SiO2 
 PCOD9205566
Probable space group: C 2/M
;
_chemical_formula_sum "Si O2"
_cell_formula_units_Z 58
_cell_length_a 25.914854
_cell_length_b 9.552188
_cell_length_c 22.505370
_cell_angle_alpha 90.000000
_cell_angle_beta 34.090384
_cell_angle_gamma 90.000000
_cell_volume 3122.578836
_symmetry_space_group_name_H-M "C 2/M"
_symmetry_group_IT_number 12
_symmetry_cell_setting 'monoclinic'
loop_
_space_group_symop_operation_xyz
x,y,z
-x,y,-z
-x,-y,-z
x,-y,z
1/2+x,1/2+y,z
1/2-x,1/2+y,-z
1/2-x,1/2-y,-z
1/2+x,1/2-y,z
loop_
_atom_site_type_symbol
_atom_site_label
_atom_site_fract_x
_atom_site_fract_y
_atom_site_fract_z
Si Si1 0.853746 0.660022 0.475925
Si Si2 0.642677 0.651985 0.941354
Si Si3 0.096761 0.338375 0.439863
Si Si4 0.540574 0.667913 0.721080
Si Si5 0.339100 0.335021 0.935094
Si Si6 0.272472 0.166157 0.236503
Si Si7 0.153139 0.163441 0.726760
Si Si8 0.000000 0.000000 0.000000
O O1 0.865484 0.500000 0.444510
O O2 0.910741 0.682495 0.482238
O O3 0.889773 0.761941 0.391212
O O4 0.747972 0.674990 0.598127
O O5 0.692493 0.500000 0.883736
O O6 0.692100 0.775715 0.859746
O O7 0.545760 0.619841 0.001284
O O8 0.642429 0.675746 0.011725
O O9 0.130052 0.500000 0.400576
O O10 0.171698 0.231158 0.344048
O O11 0.000000 0.323861 0.500000
O O12 0.545741 0.500000 0.710545
O O13 0.434739 0.711650 0.813170
O O14 0.573182 0.699349 0.757102
O O15 0.325758 0.500000 0.935011
O O16 0.250000 0.250000 0.000000
O O17 0.334535 0.238110 0.228654
O O18 0.273029 0.000000 0.240220
O O19 0.143849 0.000000 0.755745
#
# Coordination Sequence:
#
# PCOD9205566 Si02
#       8
#     8   8   8   8   8   8   8   2
#     4   9  18  33  52  83 114 141 177 226 277 334
#     4   9  20  38  64  85 108 149 199 244 285 346
#     4   9  19  37  58  79 107 150 196 228 263 332
#     4  10  21  35  58  81 105 147 192 233 280 332
#     4  10  23  41  59  83 113 152 200 239 287 345
#     4  11  22  34  54  88 120 145 175 235 306 349
#     4   9  19  35  58  81 112 150 190 226 271 345
#     4   8  20  36  74  88  98 148 210 250 286 348
#
# _framework density 18.574390999999999
#
# number of rings (size 3 to 8) (size 9 to 14) (size 15 to 20)
#    0.414    2.069    0.000    2.483    1.931    5.241 
#    0.000    4.483    0.000    0.000    0.000    0.000 
#    0.000    0.000    0.000    0.000    0.000    0.000 
#
# Total GULP energy -161476.733196 kJ/mol
# GULP energy per Si atom -5568.163214 kJ/mol
# Density = 1.853212 g / cm^3
# Si number density = 18.574391 Si / 1000 Ang^3
#
#
#
# Elastic Constant Matrix: (Units=GPa)
#
#
# Indices 1 2 3 4 5 6 
#
# 1 86.3283 25.4877 9.1013 0.0014 -13.0696 -0.0004
# 2 25.4877 79.4372 36.5867 0.0062 -0.4509 -0.0036
# 3 9.1013 36.5867 34.9850 0.0021 1.1100 -0.0013
# 4 0.0014 0.0062 0.0021 17.2329 -0.0012 11.3117
# 5 -13.0696 -0.4509 1.1100 -0.0012 19.9355 0.0004
# 6 -0.0004 -0.0036 -0.0013 11.3117 0.0004 21.7470
#
#
#
# Elastic Compliance Matrix: (Units=1/GPa)
#
#
# Indices 1 2 3 4 5 6 
#
# 1 0.014369 -0.005212 0.001420 0.000002 0.009223 -0.000002
# 2 -0.005212 0.026254 -0.026056 -0.000012 -0.001372 0.000009
# 3 0.001420 -0.026056 0.055551 0.000004 -0.002752 -0.000003
# 4 0.000002 -0.000012 0.000004 0.088112 0.000007 -0.045832
# 5 0.009223 -0.001372 -0.002752 0.000007 0.056331 -0.000005
# 6 -0.000002 0.000009 -0.000003 -0.045832 -0.000005 0.069823
#
#
# Mechanical properties :
#
#
# Convention : Reuss Voigt Hill
#
# Bulk Modulus (GPa) = 27.41468 38.12243 32.76856
# Shear Modulus (GPa) = 13.07887 20.42141 16.75014
#
# Velocity S-wave (km/s) = 2.65643 3.31938 3.00623
# Velocity P-wave (km/s) = 4.91938 5.93799 5.45252
#
# Compressibility (1/GPa) = 0.03647681
#
# Stress axis : x y z
#
# Youngs Moduli (GPa) = 69.59347 38.08952 18.00150
#
# Poissons Ratio (x) = 0.19852 -0.02556
# Poissons Ratio (y) = 0.36272 0.46905
# Poissons Ratio (z) = -0.09881 0.99248
#
# Static dielectric constant tensor:
#      x y z
#    x 1.651160 0.000000 -0.009260 
#    y 0.000000 1.579000 0.000000 
#    z -0.009260 0.000000 1.675870 
# 
# From -- ./inp_files/353009.got.cif
#   From: 2010.05.17/outbox.cif.g08.bks.cpg/sg12_177_cif.got.tgz:353009.got - 2010.06.03 13:09:07.
