data_PCOD9205512
_publ_section_title
;
Structure prediction by ZEFSAII (Michael W. Deem and Ramdas Pophale) SiO2 
 PCOD9205512
Probable space group: C 2/M
;
_chemical_formula_sum "Si O2"
_cell_formula_units_Z 32
_cell_length_a 9.714564
_cell_length_b 14.246788
_cell_length_c 15.305591
_cell_angle_alpha 90.000000
_cell_angle_beta 63.896754
_cell_angle_gamma 90.000000
_cell_volume 1902.251774
_symmetry_space_group_name_H-M "C 2/M"
_symmetry_group_IT_number 12
_symmetry_cell_setting 'monoclinic'
loop_
_space_group_symop_operation_xyz
x,y,z
-x,y,-z
-x,-y,-z
x,-y,z
1/2+x,1/2+y,z
1/2-x,1/2+y,-z
1/2-x,1/2-y,-z
1/2+x,1/2-y,z
loop_
_atom_site_type_symbol
_atom_site_label
_atom_site_fract_x
_atom_site_fract_y
_atom_site_fract_z
Si Si1 0.578783 0.000000 0.615478
Si Si2 0.450720 0.500000 0.914681
Si Si3 0.959212 0.347662 0.774733
Si Si4 0.863317 0.844171 0.238775
Si Si5 0.601393 0.000000 0.058029
Si Si6 0.245955 0.500000 0.395509
O O1 0.566240 0.910174 0.681359
O O2 0.714470 0.000000 0.507350
O O3 0.419587 0.000000 0.605796
O O4 0.524437 0.410128 0.848241
O O5 0.500000 0.500000 0.000000
O O6 0.269938 0.500000 0.970508
O O7 0.796673 0.332318 0.769943
O O8 0.925706 0.410318 0.870544
O O9 0.049409 0.252455 0.768782
O O10 0.827023 0.906377 0.335508
O O11 0.500000 0.000000 0.000000
#
# Coordination Sequence:
#
# PCOD9205512 Si02
#       6
#     4   4   8   8   4   4
#     4   8  16  35  59  75 110 143 178 217 263 323
#     4  11  20  40  55  73 109 149 177 218 268 321
#     4  10  21  37  54  83 109 141 180 223 266 316
#     4  10  21  35  57  81 110 141 181 220 265 319
#     4  11  24  38  55  79 107 143 184 222 266 316
#     4   8  16  35  57  80 104 148 177 211 271 322
#
# _framework density 16.822168000000001
#
# number of rings (size 3 to 8) (size 9 to 14) (size 15 to 20)
#    0.000    2.250    2.500    1.500    3.500    3.000 
#    0.000    0.000    0.000    1.500    0.000    0.000 
#    0.000    0.000    0.000    0.000    0.000    0.000 
#
# Total GULP energy -89158.132015 kJ/mol
# GULP energy per Si atom -5572.383251 kJ/mol
# Density = 1.678388 g / cm^3
# Si number density = 16.822168 Si / 1000 Ang^3
#
#
#
# Elastic Constant Matrix: (Units=GPa)
#
#
# Indices 1 2 3 4 5 6 
#
# 1 111.3090 74.1106 64.8983 0.0000 -4.9956 0.0000
# 2 74.1106 189.6709 93.1251 0.0000 -3.9591 0.0000
# 3 64.8983 93.1251 163.6811 0.0000 -9.2736 0.0000
# 4 0.0000 0.0000 0.0000 2.5157 0.0000 -5.9387
# 5 -4.9956 -3.9591 -9.2736 0.0000 19.8211 0.0000
# 6 0.0000 0.0000 0.0000 -5.9387 0.0000 29.9136
#
#
#
# Elastic Compliance Matrix: (Units=1/GPa)
#
#
# Indices 1 2 3 4 5 6 
#
# 1 0.013278 -0.003623 -0.003138 0.000000 0.001155 0.000000
# 2 -0.003623 0.008310 -0.003337 0.000000 -0.000815 0.000000
# 3 -0.003138 -0.003337 0.009419 0.000000 0.002950 0.000000
# 4 0.000000 0.000000 0.000000 0.748106 0.000000 0.148520
# 5 0.001155 -0.000815 0.002950 0.000000 0.051960 0.000000
# 6 0.000000 0.000000 0.000000 0.148520 0.000000 0.062915
#
#
# Mechanical properties :
#
#
# Convention : Reuss Voigt Hill
#
# Bulk Modulus (GPa) = 92.50548 103.21433 97.85991
# Shear Modulus (GPa) = 5.44789 25.95188 15.69989
#
# Velocity S-wave (km/s) = 1.80154 3.93201 3.05829
# Velocity P-wave (km/s) = 7.70954 9.06110 8.41251
#
# Compressibility (1/GPa) = 0.01081017
#
# Stress axis : x y z
#
# Youngs Moduli (GPa) = 75.31440 120.34325 106.16587
#
# Poissons Ratio (x) = 0.43606 0.33310
# Poissons Ratio (y) = 0.27290 0.35429
# Poissons Ratio (z) = 0.23630 0.40161
#
# Static dielectric constant tensor:
#      x y z
#    x 1.528820 0.000000 0.013100 
#    y 0.000000 1.530880 0.000000 
#    z 0.013100 0.000000 1.567700 
# 
# From -- ./inp_files/193676.got.cif
#   From: 2010.05.17/outbox.cif.g08.bks.cpg/sg12_97_cif.got.tgz:193676.got - 2010.06.03 13:09:07.
