data_PCOD9205005
_publ_section_title
;
Structure prediction by ZEFSAII (Michael W. Deem and Ramdas Pophale) SiO2 
 PCOD9205005
Probable space group: C 2/M
;
_chemical_formula_sum "Si O2"
_cell_formula_units_Z 48
_cell_length_a 7.356896
_cell_length_b 30.223565
_cell_length_c 10.544397
_cell_angle_alpha 90.000000
_cell_angle_beta 84.224778
_cell_angle_gamma 90.000000
_cell_volume 2332.663542
_symmetry_space_group_name_H-M "C 2/M"
_symmetry_group_IT_number 12
_symmetry_cell_setting 'monoclinic'
loop_
_space_group_symop_operation_xyz
x,y,z
-x,y,-z
-x,-y,-z
x,-y,z
1/2+x,1/2+y,z
1/2-x,1/2+y,-z
1/2-x,1/2-y,-z
1/2+x,1/2-y,z
loop_
_atom_site_type_symbol
_atom_site_label
_atom_site_fract_x
_atom_site_fract_y
_atom_site_fract_z
Si Si1 0.292120 0.315390 0.879221
Si Si2 0.302066 0.549095 0.760644
Si Si3 0.000000 0.388936 0.500000
Si Si4 0.648253 0.363071 0.383886
Si Si5 0.000000 0.263222 0.000000
Si Si6 0.282073 0.095609 0.983418
Si Si7 0.631322 0.050803 0.276790
O O1 0.359031 0.332816 0.740456
O O2 0.086384 0.297152 0.892705
O O3 0.388568 0.271764 0.924037
O O4 0.294163 0.355756 0.979775
O O5 0.373114 0.500000 0.733945
O O6 0.383954 0.587082 0.666463
O O7 0.084175 0.549001 0.745902
O O8 0.310378 0.563498 0.906770
O O9 0.854855 0.362225 0.425514
O O10 0.873261 0.420453 0.595952
O O11 0.500000 0.351714 0.500000
O O12 0.266648 0.076490 0.843518
O O13 0.500000 0.096855 0.000000
O O14 0.691261 0.000000 0.287394
#
# Coordination Sequence:
#
# PCOD9205005 Si02
#       7
#     8   8   4   8   4   8   8
#     4  10  21  40  62  93 115 146 189 243 306 363
#     4   8  15  28  49  79 114 154 199 243 286 331
#     4  10  21  34  56  82 118 176 200 240 276 332
#     4  10  22  40  59  87 123 161 201 237 283 351
#     4  10  22  40  68  88 114 140 182 250 312 370
#     4   9  15  27  52  80 113 148 189 244 294 343
#     4   9  16  27  47  80 117 158 203 239 279 333
#
# _framework density 20.577334
#
# number of rings (size 3 to 8) (size 9 to 14) (size 15 to 20)
#    0.000    2.667    0.833    1.750    0.000    4.333 
#    3.000    0.833    0.000    0.000    0.000    6.417 
#    0.000    0.000    0.000    0.000    0.000    0.000 
#
# Total GULP energy -133834.858720 kJ/mol
# GULP energy per Si atom -5576.452447 kJ/mol
# Density = 2.053050 g / cm^3
# Si number density = 20.577334 Si / 1000 Ang^3
#
#
#
# Elastic Constant Matrix: (Units=GPa)
#
#
# Indices 1 2 3 4 5 6 
#
# 1 51.1614 18.6505 24.8602 0.0000 -14.3813 0.0000
# 2 18.6505 95.0686 36.8389 0.0000 -14.7654 0.0000
# 3 24.8602 36.8389 112.5147 0.0000 -26.4953 0.0000
# 4 0.0000 0.0000 0.0000 25.0691 0.0000 -14.5474
# 5 -14.3813 -14.7654 -26.4953 0.0000 25.5630 0.0000
# 6 0.0000 0.0000 0.0000 -14.5474 0.0000 43.2519
#
#
#
# Elastic Compliance Matrix: (Units=1/GPa)
#
#
# Indices 1 2 3 4 5 6 
#
# 1 0.024301 -0.002345 -0.002250 0.000000 0.009984 0.000000
# 2 -0.002345 0.012559 -0.002905 0.000000 0.002924 0.000000
# 3 -0.002250 -0.002905 0.012756 0.000000 0.010277 0.000000
# 4 0.000000 0.000000 0.000000 0.049563 0.000000 0.016670
# 5 0.009984 0.002924 0.010277 0.000000 0.057077 0.000000
# 6 0.000000 0.000000 0.000000 0.016670 0.000000 0.028727
#
#
# Mechanical properties :
#
#
# Convention : Reuss Voigt Hill
#
# Bulk Modulus (GPa) = 28.88923 46.60490 37.74707
# Shear Modulus (GPa) = 23.63815 30.66980 27.15398
#
# Velocity S-wave (km/s) = 3.39299 3.86484 3.63658
# Velocity P-wave (km/s) = 5.42399 6.52793 6.00140
#
# Compressibility (1/GPa) = 0.03461497
#
# Stress axis : x y z
#
# Youngs Moduli (GPa) = 41.15083 79.62684 78.39218
#
# Poissons Ratio (x) = 0.18669 0.17642
# Poissons Ratio (y) = 0.09648 0.22776
# Poissons Ratio (z) = 0.09261 0.23135
#
# Static dielectric constant tensor:
#      x y z
#    x 1.931780 0.000000 -0.002590 
#    y 0.000000 1.689190 0.000000 
#    z -0.002590 0.000000 1.708850 
# 
# From -- ./inp_files/42266.got.cif
#   From: 2010.05.17/outbox.cif.g08.bks.cpg/sg12_22_cif.got.tgz:42266.got - 2010.06.03 13:09:07.
