data_PCOD9205154
_publ_section_title
;
Structure prediction by ZEFSAII (Michael W. Deem and Ramdas Pophale) SiO2 
 PCOD9205154
Probable space group: C 2/M
;
_chemical_formula_sum "Si O2"
_cell_formula_units_Z 48
_cell_length_a 14.684446
_cell_length_b 7.595350
_cell_length_c 20.732684
_cell_angle_alpha 90.000000
_cell_angle_beta 107.807958
_cell_angle_gamma 90.000000
_cell_volume 2201.595288
_symmetry_space_group_name_H-M "C 2/M"
_symmetry_group_IT_number 12
_symmetry_cell_setting 'monoclinic'
loop_
_space_group_symop_operation_xyz
x,y,z
-x,y,-z
-x,-y,-z
x,-y,z
1/2+x,1/2+y,z
1/2-x,1/2+y,-z
1/2-x,1/2-y,-z
1/2+x,1/2-y,z
loop_
_atom_site_type_symbol
_atom_site_label
_atom_site_fract_x
_atom_site_fract_y
_atom_site_fract_z
Si Si1 0.363567 0.209413 0.517619
Si Si2 0.896615 0.790916 0.997275
Si Si3 0.419085 0.289785 0.252903
Si Si4 0.115825 0.205022 0.336568
Si Si5 0.703778 0.713071 0.893539
Si Si6 0.331701 0.786881 0.372464
O O1 0.250000 0.250000 0.500000
O O2 0.408144 0.285702 0.592241
O O3 0.385532 0.272144 0.449716
O O4 0.379843 0.000000 0.524144
O O5 0.814191 0.764480 0.926278
O O6 0.908314 0.000000 0.009231
O O7 0.853009 0.721942 0.055159
O O8 0.000000 0.718567 0.000000
O O9 0.426345 0.500000 0.244783
O O10 0.527342 0.217422 0.277929
O O11 0.349392 0.222287 0.182028
O O12 0.376863 0.260524 0.314580
O O13 0.221878 0.280643 0.350336
O O14 0.123611 0.000000 0.320716
O O15 0.702028 0.500000 0.893370
O O16 0.329358 0.000000 0.376908
#
# Coordination Sequence:
#
# PCOD9205154 Si02
#       6
#     8   8   8   8   8   8
#     4   9  17  31  51  73  98 130 170 217 262 301
#     4   9  18  34  58  82 101 130 169 203 242 295
#     4  10  21  35  51  73 104 139 169 202 250 304
#     4   9  19  35  52  72 100 135 172 211 257 304
#     4   9  19  35  52  76 109 135 162 205 249 293
#     4   9  19  34  51  72  99 132 172 216 257 298
#
# _framework density 21.802371999999998
#
# number of rings (size 3 to 8) (size 9 to 14) (size 15 to 20)
#    0.000    2.833    0.000    1.500    0.000    7.000 
#    0.000    6.667    0.000    0.000    0.000    0.000 
#    0.000    0.000    0.000    0.000    0.000    0.000 
#
# Total GULP energy -133880.976763 kJ/mol
# GULP energy per Si atom -5578.374032 kJ/mol
# Density = 2.175275 g / cm^3
# Si number density = 21.802372 Si / 1000 Ang^3
#
#
#
# Elastic Constant Matrix: (Units=GPa)
#
#
# Indices 1 2 3 4 5 6 
#
# 1 107.9919 -0.6880 44.9444 0.0000 28.2915 0.0000
# 2 -0.6880 42.8990 -15.3036 0.0000 -2.1689 0.0000
# 3 44.9444 -15.3036 97.6964 0.0000 28.5959 0.0000
# 4 0.0000 0.0000 0.0000 21.2025 0.0000 -3.0430
# 5 28.2915 -2.1689 28.5959 0.0000 25.7709 0.0000
# 6 0.0000 0.0000 0.0000 -3.0430 0.0000 4.1493
#
#
#
# Elastic Compliance Matrix: (Units=1/GPa)
#
#
# Indices 1 2 3 4 5 6 
#
# 1 0.013572 -0.001466 -0.003075 0.000000 -0.011611 0.000000
# 2 -0.001466 0.025037 0.005196 0.000000 -0.002049 0.000000
# 3 -0.003075 0.005196 0.016807 0.000000 -0.014836 0.000000
# 4 0.000000 0.000000 0.000000 0.052713 0.000000 0.038659
# 5 -0.011611 -0.002049 -0.014836 0.000000 0.067841 0.000000
# 6 0.000000 0.000000 0.000000 0.038659 0.000000 0.269359
#
#
# Mechanical properties :
#
#
# Convention : Reuss Voigt Hill
#
# Bulk Modulus (GPa) = 17.62847 34.05477 25.84162
# Shear Modulus (GPa) = 10.80083 24.86682 17.83383
#
# Velocity S-wave (km/s) = 2.22817 3.38088 2.86313
# Velocity P-wave (km/s) = 3.83703 5.55824 4.77582
#
# Compressibility (1/GPa) = 0.05672643
#
# Stress axis : x y z
#
# Youngs Moduli (GPa) = 73.68014 39.94064 59.49918
#
# Poissons Ratio (x) = 0.05856 0.18295
# Poissons Ratio (y) = 0.10804 -0.30917
# Poissons Ratio (z) = 0.22655 -0.20754
#
# Static dielectric constant tensor:
#      x y z
#    x 1.819650 0.000000 0.019930 
#    y 0.000000 1.859990 0.000000 
#    z 0.019930 0.000000 1.796100 
# 
# From -- ./inp_files/308320.got.cif
#   From: 2010.05.17/outbox.cif.g08.bks.cpg/sg12_155_cif.got.tgz:308320.got - 2010.06.03 13:09:07.
