data_PCOD9205351
_publ_section_title
;
Structure prediction by ZEFSAII (Michael W. Deem and Ramdas Pophale) SiO2 
 PCOD9205351
Probable space group: C 2/M
;
_chemical_formula_sum "Si O2"
_cell_formula_units_Z 58
_cell_length_a 16.427535
_cell_length_b 9.601990
_cell_length_c 16.907380
_cell_angle_alpha 90.000000
_cell_angle_beta 84.470975
_cell_angle_gamma 90.000000
_cell_volume 2654.512053
_symmetry_space_group_name_H-M "C 2/M"
_symmetry_group_IT_number 12
_symmetry_cell_setting 'monoclinic'
loop_
_space_group_symop_operation_xyz
x,y,z
-x,y,-z
-x,-y,-z
x,-y,z
1/2+x,1/2+y,z
1/2-x,1/2+y,-z
1/2-x,1/2-y,-z
1/2+x,1/2-y,z
loop_
_atom_site_type_symbol
_atom_site_label
_atom_site_fract_x
_atom_site_fract_y
_atom_site_fract_z
Si Si1 0.689638 0.157394 0.454681
Si Si2 0.066389 0.735737 0.591300
Si Si3 0.397734 0.159687 0.687178
Si Si4 0.716419 0.662353 0.886800
Si Si5 0.876778 0.337457 0.979598
Si Si6 0.500000 0.500000 0.500000
Si Si7 0.013118 0.330045 0.170237
Si Si8 0.861738 0.166957 0.258910
O O1 0.750000 0.250000 0.500000
O O2 0.608571 0.153233 0.516587
O O3 0.663085 0.221734 0.372717
O O4 0.721197 0.000000 0.441401
O O5 0.132173 0.767404 0.654716
O O6 0.987935 0.665061 0.638739
O O7 0.035247 0.878815 0.556470
O O8 0.415970 0.211883 0.773213
O O9 0.371208 0.000000 0.697779
O O10 0.694052 0.500000 0.895335
O O11 0.802161 0.678595 0.923562
O O12 0.713950 0.694811 0.793358
O O13 0.650929 0.750955 0.942371
O O14 0.882601 0.500000 0.000809
O O15 0.956338 0.300363 0.920991
O O16 0.001224 0.500000 0.178242
O O17 0.936325 0.240423 0.205049
O O18 0.871847 0.000000 0.265132
#
# Coordination Sequence:
#
# PCOD9205351 Si02
#       8
#     8   8   8   8   8   2   8   8
#     4  11  24  37  55  80 111 145 183 227 274 324
#     4  11  21  36  58  80 109 144 185 223 273 322
#     4   9  18  36  57  76 100 139 182 222 267 323
#     4   9  19  35  55  76 105 140 178 218 262 319
#     4   9  18  35  56  77 101 139 180 216 262 316
#     4  12  20  32  62  84 104 150 184 232 264 334
#     4   9  19  34  55  79 106 136 175 220 265 318
#     4  10  21  35  54  82 109 139 174 219 270 317
#
# _framework density 21.849591
#
# number of rings (size 3 to 8) (size 9 to 14) (size 15 to 20)
#    0.000    2.207    2.069    0.414    0.966    4.414 
#    0.000    5.517    0.000    3.310    0.000    0.000 
#    0.000    0.000    0.000    0.000    0.000    0.000 
#
# Total GULP energy -161573.862208 kJ/mol
# GULP energy per Si atom -5571.512490 kJ/mol
# Density = 2.179986 g / cm^3
# Si number density = 21.849591 Si / 1000 Ang^3
#
#
#
# Elastic Constant Matrix: (Units=GPa)
#
#
# Indices 1 2 3 4 5 6 
#
# 1 38.5633 5.6316 16.8885 0.0000 10.1374 0.0000
# 2 5.6316 38.9733 15.0318 0.0000 1.7428 0.0000
# 3 16.8885 15.0318 137.1657 0.0000 22.7333 0.0000
# 4 0.0000 0.0000 0.0000 25.3101 0.0000 6.4718
# 5 10.1374 1.7428 22.7333 0.0000 52.4778 0.0000
# 6 0.0000 0.0000 0.0000 6.4718 0.0000 6.1261
#
#
#
# Elastic Compliance Matrix: (Units=1/GPa)
#
#
# Indices 1 2 3 4 5 6 
#
# 1 0.028594 -0.002984 -0.002472 0.000000 -0.004354 0.000000
# 2 -0.002984 0.027111 -0.002747 0.000000 0.000866 0.000000
# 3 -0.002472 -0.002747 0.008405 0.000000 -0.003072 0.000000
# 4 0.000000 0.000000 0.000000 0.054133 0.000000 -0.057188
# 5 -0.004354 0.000866 -0.003072 0.000000 0.021199 0.000000
# 6 0.000000 0.000000 0.000000 -0.057188 0.000000 0.223652
#
#
# Mechanical properties :
#
#
# Convention : Reuss Voigt Hill
#
# Bulk Modulus (GPa) = 20.96263 32.20068 26.58165
# Shear Modulus (GPa) = 12.64537 28.59282 20.61910
#
# Velocity S-wave (km/s) = 2.40832 3.62141 3.07528
# Velocity P-wave (km/s) = 4.16512 5.67940 4.98015
#
# Compressibility (1/GPa) = 0.04770394
#
# Stress axis : x y z
#
# Youngs Moduli (GPa) = 34.97209 36.88596 118.97561
#
# Poissons Ratio (x) = 0.11006 0.29412
# Poissons Ratio (y) = 0.10435 0.32685
# Poissons Ratio (z) = 0.08645 0.10133
#
# Static dielectric constant tensor:
#      x y z
#    x 1.886330 0.000000 0.034220 
#    y 0.000000 1.728880 0.000000 
#    z 0.034220 0.000000 1.823450 
# 
# From -- ./inp_files/275411.got.cif
#   From: 2010.05.17/outbox.cif.g08.bks.cpg/sg12_138_cif.got.tgz:275411.got - 2010.06.03 13:09:07.
