data_PCOD9205999
_publ_section_title
;
Structure prediction by ZEFSAII (Michael W. Deem and Ramdas Pophale) SiO2 
 PCOD9205999
Probable space group: C 2/M
;
_chemical_formula_sum "Si O2"
_cell_formula_units_Z 40
_cell_length_a 10.043385
_cell_length_b 7.411519
_cell_length_c 23.048452
_cell_angle_alpha 90.000000
_cell_angle_beta 71.341793
_cell_angle_gamma 90.000000
_cell_volume 1625.483624
_symmetry_space_group_name_H-M "C 2/M"
_symmetry_group_IT_number 12
_symmetry_cell_setting 'monoclinic'
loop_
_space_group_symop_operation_xyz
x,y,z
-x,y,-z
-x,-y,-z
x,-y,z
1/2+x,1/2+y,z
1/2-x,1/2+y,-z
1/2-x,1/2-y,-z
1/2+x,1/2-y,z
loop_
_atom_site_type_symbol
_atom_site_label
_atom_site_fract_x
_atom_site_fract_y
_atom_site_fract_z
Si Si1 0.875407 0.709274 0.556020
Si Si2 0.877377 0.790376 0.249041
Si Si3 0.849944 0.215132 0.039988
Si Si4 0.073652 0.219157 0.628194
Si Si5 0.315874 0.780891 0.824187
O O1 0.863690 0.500000 0.540949
O O2 0.717334 0.781387 0.576192
O O3 0.000000 0.792846 0.500000
O O4 0.936598 0.718691 0.612818
O O5 0.910326 0.714900 0.308090
O O6 0.753584 0.714852 0.226343
O O7 0.023265 0.777852 0.193658
O O8 0.842927 0.000000 0.263291
O O9 0.778397 0.282807 0.108900
O O10 0.865777 0.000000 0.046287
O O11 0.750000 0.250000 0.000000
O O12 0.000000 0.289852 0.000000
O O13 0.070140 0.000000 0.628499
O O14 0.314824 0.000000 0.823859
#
# Coordination Sequence:
#
# PCOD9205999 Si02
#       5
#     8   8   8   8   8
#     4  10  21  37  57  81 109 142 180 222 268 318
#     4  10  21  37  56  79 109 143 179 221 267 317
#     4  10  21  37  57  81 109 142 179 220 268 319
#     4  10  21  36  55  81 110 141 179 221 267 319
#     4  10  21  37  57  81 109 142 180 221 266 318
#
# _framework density 24.608059999999998
#
# number of rings (size 3 to 8) (size 9 to 14) (size 15 to 20)
#    0.000    2.000    0.000    3.000    0.000    7.200 
#    0.000    0.000    0.000    0.000    0.000    0.000 
#    0.000    0.000    0.000    0.000    0.000    0.000 
#
# Total GULP energy -111895.633516 kJ/mol
# GULP energy per Si atom -5594.781676 kJ/mol
# Density = 2.455205 g / cm^3
# Si number density = 24.608060 Si / 1000 Ang^3
#
#
#
# Elastic Constant Matrix: (Units=GPa)
#
#
# Indices 1 2 3 4 5 6 
#
# 1 109.7210 -13.1937 -14.5678 0.0000 2.2183 0.0000
# 2 -13.1937 90.9405 -2.0955 0.0000 -1.5507 0.0000
# 3 -14.5678 -2.0955 75.6187 0.0000 2.0806 0.0000
# 4 0.0000 0.0000 0.0000 16.3929 0.0000 4.6378
# 5 2.2183 -1.5507 2.0806 0.0000 47.7513 0.0000
# 6 0.0000 0.0000 0.0000 4.6378 0.0000 6.4707
#
#
#
# Elastic Compliance Matrix: (Units=1/GPa)
#
#
# Indices 1 2 3 4 5 6 
#
# 1 0.009546 0.001420 0.001892 0.000000 -0.000480 0.000000
# 2 0.001420 0.011220 0.000577 0.000000 0.000273 0.000000
# 3 0.001892 0.000577 0.013623 0.000000 -0.000663 0.000000
# 4 0.000000 0.000000 0.000000 0.076518 0.000000 -0.054843
# 5 -0.000480 0.000273 -0.000663 0.000000 0.021002 0.000000
# 6 0.000000 0.000000 0.000000 -0.054843 0.000000 0.193850
#
#
# Mechanical properties :
#
#
# Convention : Reuss Voigt Hill
#
# Bulk Modulus (GPa) = 23.71559 24.06292 23.88926
# Shear Modulus (GPa) = 15.05862 34.53213 24.79537
#
# Velocity S-wave (km/s) = 2.47642 3.75011 3.17773
# Velocity P-wave (km/s) = 4.22317 5.34329 4.81591
#
# Compressibility (1/GPa) = 0.04216636
#
# Stress axis : x y z
#
# Youngs Moduli (GPa) = 104.75978 89.12491 73.40607
#
# Poissons Ratio (x) = -0.12658 -0.13885
# Poissons Ratio (y) = -0.14879 -0.04236
# Poissons Ratio (z) = -0.19815 -0.05143
#
# Static dielectric constant tensor:
#      x y z
#    x 1.881790 0.000000 -0.023200 
#    y 0.000000 2.176250 0.000000 
#    z -0.023200 0.000000 1.982220 
# 
# From -- ./inp_files/254614.got.cif
#   From: 2010.05.17/outbox.cif.g08.bks.cpg/sg12_128_cif.got.tgz:254614.got - 2010.06.03 13:09:07.
