data_PCOD9205487
_publ_section_title
;
Structure prediction by ZEFSAII (Michael W. Deem and Ramdas Pophale) SiO2 
 PCOD9205487
Probable space group: C 2/M
;
_chemical_formula_sum "Si O2"
_cell_formula_units_Z 48
_cell_length_a 21.211736
_cell_length_b 14.682041
_cell_length_c 11.598641
_cell_angle_alpha 90.000000
_cell_angle_beta 144.472218
_cell_angle_gamma 90.000000
_cell_volume 2099.031061
_symmetry_space_group_name_H-M "C 2/M"
_symmetry_group_IT_number 12
_symmetry_cell_setting 'monoclinic'
loop_
_space_group_symop_operation_xyz
x,y,z
-x,y,-z
-x,-y,-z
x,-y,z
1/2+x,1/2+y,z
1/2-x,1/2+y,-z
1/2-x,1/2-y,-z
1/2+x,1/2-y,z
loop_
_atom_site_type_symbol
_atom_site_label
_atom_site_fract_x
_atom_site_fract_y
_atom_site_fract_z
Si Si1 0.749181 0.397651 0.096009
Si Si2 0.149415 0.601875 0.324164
Si Si3 0.565773 0.368977 0.991050
Si Si4 0.796946 0.191170 0.194815
Si Si5 0.636692 0.390889 0.465290
Si Si6 0.423460 0.166607 0.021578
O O1 0.796356 0.500000 0.146425
O O2 0.812661 0.300439 0.205546
O O3 0.676583 0.405128 0.103368
O O4 0.674278 0.368692 0.874194
O O5 0.156324 0.500000 0.381743
O O6 0.270802 0.639701 0.489852
O O7 0.049224 0.650782 0.238544
O O8 0.111685 0.599447 0.133083
O O9 0.479556 0.371581 0.759864
O O10 0.589882 0.264772 0.056371
O O11 0.500000 0.408775 0.000000
O O12 0.847322 0.156941 0.388599
O O13 0.667131 0.168397 0.015369
O O14 0.650349 0.500000 0.498845
#
# Coordination Sequence:
#
# PCOD9205487 Si02
#       6
#     8   8   8   8   8   8
#     4  10  21  38  61  87 116 154 192 231 289 349
#     4   9  16  29  51  80 108 140 189 236 280 332
#     4  11  22  37  57  81 119 159 190 233 291 346
#     4   9  20  38  59  86 116 149 193 239 286 338
#     4  10  21  35  56  87 117 149 194 244 285 336
#     4   9  16  32  52  80 107 148 187 227 287 333
#
# _framework density 22.867694
#
# number of rings (size 3 to 8) (size 9 to 14) (size 15 to 20)
#    0.000    2.333    1.667    2.000    0.000    4.667 
#    0.000    1.667    0.000    1.000    0.000   10.500 
#    0.000    0.000    0.000    0.000    0.000    0.000 
#
# Total GULP energy -133627.956348 kJ/mol
# GULP energy per Si atom -5567.831515 kJ/mol
# Density = 2.281565 g / cm^3
# Si number density = 22.867694 Si / 1000 Ang^3
#
#
#
# Elastic Constant Matrix: (Units=GPa)
#
#
# Indices 1 2 3 4 5 6 
#
# 1 92.1828 10.9021 -1.9013 0.0000 -11.6364 0.0000
# 2 10.9021 143.4941 7.8376 0.0000 -13.5946 0.0000
# 3 -1.9013 7.8376 33.1412 0.0000 -5.8240 0.0000
# 4 0.0000 0.0000 0.0000 -167.4661 0.0000 -49.8692
# 5 -11.6364 -13.5946 -5.8240 0.0000 25.3116 0.0000
# 6 0.0000 0.0000 0.0000 -49.8692 0.0000 -2.2619
#
#
#
# Elastic Compliance Matrix: (Units=1/GPa)
#
#
# Indices 1 2 3 4 5 6 
#
# 1 0.011633 -0.000458 0.001743 0.000000 0.005503 0.000000
# 2 -0.000458 0.007398 -0.001162 0.000000 0.003496 0.000000
# 3 0.001743 -0.001162 0.031868 0.000000 0.007510 0.000000
# 4 0.000000 0.000000 0.000000 0.001073 0.000000 -0.023655
# 5 0.005503 0.003496 0.007510 0.000000 0.045643 0.000000
# 6 0.000000 0.000000 0.000000 -0.023655 0.000000 0.079438
#
#
# Mechanical properties :
#
#
# Convention : Reuss Voigt Hill
#
# Bulk Modulus (GPa) = 19.55171 33.61054 26.58112
# Shear Modulus (GPa) = 25.79248 -12.08463 6.85392
#
# Velocity S-wave (km/s) = 3.36207 -2.30132 1.73312
# Velocity P-wave (km/s) = 4.86208 2.76917 3.95652
#
# Compressibility (1/GPa) = 0.05114642
#
# Stress axis : x y z
#
# Youngs Moduli (GPa) = 85.96430 135.16545 31.37908
#
# Poissons Ratio (x) = 0.06186 -0.05468
# Poissons Ratio (y) = 0.03934 0.03645
# Poissons Ratio (z) = -0.14981 0.15700
#
# Static dielectric constant tensor:
#      x y z
#    x 1.933310 0.000000 0.040440 
#    y 0.000000 1.869640 0.000000 
#    z 0.040440 0.000000 1.864260 
# 
# From -- ./inp_files/167641.got.cif
#   From: 2010.05.17/outbox.cif.g08.bks.cpg/sg12_84_cif.got.tgz:167641.got - 2010.06.03 13:09:07.
