data_PCOD9205497
_publ_section_title
;
Structure prediction by ZEFSAII (Michael W. Deem and Ramdas Pophale) SiO2 
 PCOD9205497
Probable space group: C 2/M
;
_chemical_formula_sum "Si O2"
_cell_formula_units_Z 40
_cell_length_a 14.860378
_cell_length_b 17.928249
_cell_length_c 12.493482
_cell_angle_alpha 90.000000
_cell_angle_beta 38.285390
_cell_angle_gamma 90.000000
_cell_volume 2062.281027
_symmetry_space_group_name_H-M "C 2/M"
_symmetry_group_IT_number 12
_symmetry_cell_setting 'monoclinic'
loop_
_space_group_symop_operation_xyz
x,y,z
-x,y,-z
-x,-y,-z
x,-y,z
1/2+x,1/2+y,z
1/2-x,1/2+y,-z
1/2-x,1/2-y,-z
1/2+x,1/2-y,z
loop_
_atom_site_type_symbol
_atom_site_label
_atom_site_fract_x
_atom_site_fract_y
_atom_site_fract_z
Si Si1 0.226398 0.282843 0.177309
Si Si2 0.494372 0.726028 0.770343
Si Si3 0.641109 0.838247 0.800786
Si Si4 0.688284 0.416047 0.532361
Si Si5 0.168203 0.418492 0.375850
O O1 0.070053 0.274295 0.267529
O O2 0.259010 0.206536 0.209365
O O3 0.238274 0.350281 0.248415
O O4 0.351555 0.294775 0.972411
O O5 0.590540 0.777879 0.758032
O O6 0.577054 0.652215 0.654541
O O7 0.726179 0.901016 0.657173
O O8 0.500000 0.862786 0.000000
O O9 0.625172 0.500000 0.592429
O O10 0.799957 0.411811 0.528102
O O11 0.227144 0.500000 0.287701
O O12 0.000000 0.417405 0.500000
#
# Coordination Sequence:
#
# PCOD9205497 Si02
#       5
#     8   8   8   8   8
#     4  10  21  36  60  85 115 155 193 245 295 339
#     4  10  21  38  58  88 115 150 203 240 287 350
#     4  10  21  38  58  84 116 154 199 240 289 348
#     4  11  23  38  59  87 120 156 194 243 295 349
#     4  10  21  35  56  88 119 152 192 241 302 349
#
# _framework density 19.395999
#
# number of rings (size 3 to 8) (size 9 to 14) (size 15 to 20)
#    0.000    1.800    2.000    1.800    2.800    1.200 
#    0.000    4.000    0.000    7.200    0.000    0.000 
#    0.000    0.000    0.000    0.000    0.000    0.000 
#
# Total GULP energy -111625.480323 kJ/mol
# GULP energy per Si atom -5581.274016 kJ/mol
# Density = 1.935185 g / cm^3
# Si number density = 19.395999 Si / 1000 Ang^3
#
#
#
# Elastic Constant Matrix: (Units=GPa)
#
#
# Indices 1 2 3 4 5 6 
#
# 1 64.0770 5.2132 16.3313 -0.0006 4.7849 0.0004
# 2 5.2132 70.5035 41.1346 -0.0002 5.5183 0.0001
# 3 16.3313 41.1346 54.1243 -0.0004 16.7634 0.0004
# 4 -0.0006 -0.0002 -0.0004 10.8080 0.0004 7.3121
# 5 4.7849 5.5183 16.7634 0.0004 24.6522 -0.0003
# 6 0.0004 0.0001 0.0004 7.3121 -0.0003 25.1083
#
#
#
# Elastic Compliance Matrix: (Units=1/GPa)
#
#
# Indices 1 2 3 4 5 6 
#
# 1 0.017335 0.003461 -0.008334 0.000001 0.001528 0.000000
# 2 0.003461 0.028043 -0.025595 -0.000001 0.010456 0.000001
# 3 -0.008334 -0.025595 0.048351 0.000003 -0.025531 -0.000002
# 4 0.000001 -0.000001 0.000003 0.115226 -0.000004 -0.033557
# 5 0.001528 0.010456 -0.025531 -0.000004 0.055289 0.000002
# 6 0.000000 0.000001 -0.000002 -0.033557 0.000002 0.049600
#
#
# Mechanical properties :
#
#
# Convention : Reuss Voigt Hill
#
# Bulk Modulus (GPa) = 30.49564 34.89589 32.69577
# Shear Modulus (GPa) = 12.96310 20.51542 16.73926
#
# Velocity S-wave (km/s) = 2.58803 3.25578 2.94092
# Velocity P-wave (km/s) = 4.96863 5.67131 5.33156
#
# Compressibility (1/GPa) = 0.03279157
#
# Stress axis : x y z
#
# Youngs Moduli (GPa) = 57.68777 35.65988 20.68218
#
# Poissons Ratio (x) = -0.12343 0.17237
# Poissons Ratio (y) = -0.19967 0.52937
# Poissons Ratio (z) = 0.48079 0.91272
#
# Static dielectric constant tensor:
#      x y z
#    x 1.682710 0.000000 0.006930 
#    y 0.000000 1.666390 0.000000 
#    z 0.006930 0.000000 1.678040 
# 
# From -- ./inp_files/60816.got.cif
#   From: 2010.05.17/outbox.cif.g08.bks.cpg/sg12_31_cif.got.tgz:60816.got - 2010.06.03 13:09:07.
