data_PCOD9205097
_publ_section_title
;
Structure prediction by ZEFSAII (Michael W. Deem and Ramdas Pophale) SiO2 
 PCOD9205097
Probable space group: C 2/M
;
_chemical_formula_sum "Si O2"
_cell_formula_units_Z 48
_cell_length_a 14.644392
_cell_length_b 14.283325
_cell_length_c 9.936813
_cell_angle_alpha 90.000000
_cell_angle_beta 72.344210
_cell_angle_gamma 90.000000
_cell_volume 1980.583652
_symmetry_space_group_name_H-M "C 2/M"
_symmetry_group_IT_number 12
_symmetry_cell_setting 'monoclinic'
loop_
_space_group_symop_operation_xyz
x,y,z
-x,y,-z
-x,-y,-z
x,-y,z
1/2+x,1/2+y,z
1/2-x,1/2+y,-z
1/2-x,1/2-y,-z
1/2+x,1/2-y,z
loop_
_atom_site_type_symbol
_atom_site_label
_atom_site_fract_x
_atom_site_fract_y
_atom_site_fract_z
Si Si1 0.868618 0.888215 0.635063
Si Si2 0.175838 0.291716 0.220529
Si Si3 0.481596 0.609693 0.231598
Si Si4 0.151553 0.110213 0.937343
Si Si5 0.217841 0.388350 0.487003
Si Si6 0.985874 0.390769 0.343727
O O1 0.811395 0.817601 0.757074
O O2 0.975894 0.864662 0.641794
O O3 0.819407 0.868663 0.512972
O O4 0.857080 0.000000 0.661815
O O5 0.250436 0.336127 0.085485
O O6 0.199927 0.338858 0.354422
O O7 0.066316 0.324949 0.241421
O O8 0.456888 0.500000 0.257568
O O9 0.396715 0.649580 0.178915
O O10 0.571918 0.615981 0.088549
O O11 0.172356 0.000000 0.911053
O O12 0.212724 0.500000 0.466803
O O13 0.126131 0.365385 0.623262
O O14 0.001074 0.500000 0.299206
O O15 0.000000 0.385292 0.500000
#
# Coordination Sequence:
#
# PCOD9205097 Si02
#       6
#     8   8   8   8   8   8
#     4  10  21  35  49  69 103 142 169 194 244 305
#     4  11  19  29  53  79  98 124 168 214 244 283
#     4   8  17  35  53  71 101 136 162 196 251 302
#     4   9  17  32  56  80  99 123 164 212 249 288
#     4   9  18  34  53  73 101 133 163 201 250 299
#     4   8  15  29  49  72  97 124 156 200 250 292
#
# _framework density 24.235282000000002
#
# number of rings (size 3 to 8) (size 9 to 14) (size 15 to 20)
#    0.000    2.833    0.000    4.000    0.000    2.000 
#    0.000    2.500    0.000   13.500    0.000    8.167 
#    0.000    0.000    0.000    0.000    0.000    0.000 
#
# Total GULP energy -133873.888113 kJ/mol
# GULP energy per Si atom -5578.078671 kJ/mol
# Density = 2.418012 g / cm^3
# Si number density = 24.235282 Si / 1000 Ang^3
#
#
#
# Elastic Constant Matrix: (Units=GPa)
#
#
# Indices 1 2 3 4 5 6 
#
# 1 142.9083 16.1537 34.3332 0.0000 -3.4918 0.0000
# 2 16.1537 59.6194 10.2170 0.0000 -1.2380 0.0000
# 3 34.3332 10.2170 69.1232 0.0000 6.1422 0.0000
# 4 0.0000 0.0000 0.0000 12.9674 0.0000 9.5975
# 5 -3.4918 -1.2380 6.1422 0.0000 46.2593 0.0000
# 6 0.0000 0.0000 0.0000 9.5975 0.0000 4.1342
#
#
#
# Elastic Compliance Matrix: (Units=1/GPa)
#
#
# Indices 1 2 3 4 5 6 
#
# 1 0.008135 -0.001511 -0.003915 0.000000 0.001093 0.000000
# 2 -0.001511 0.017519 -0.001893 0.000000 0.000606 0.000000
# 3 -0.003915 -0.001893 0.016922 0.000000 -0.002593 0.000000
# 4 0.000000 0.000000 0.000000 -0.107373 0.000000 0.249267
# 5 0.001093 0.000606 -0.002593 0.000000 0.022060 0.000000
# 6 0.000000 0.000000 0.000000 0.249267 0.000000 -0.336789
#
#
# Mechanical properties :
#
#
# Convention : Reuss Voigt Hill
#
# Bulk Modulus (GPa) = 35.79158 43.67317 39.73237
# Shear Modulus (GPa) = -14.06173 26.73530 6.33679
#
# Velocity S-wave (km/s) = -2.41138 3.32498 1.61876
# Velocity P-wave (km/s) = 2.65470 5.72715 4.46361
#
# Compressibility (1/GPa) = 0.02793953
#
# Stress axis : x y z
#
# Youngs Moduli (GPa) = 122.91856 57.07968 59.09618
#
# Poissons Ratio (x) = 0.08623 0.23134
# Poissons Ratio (y) = 0.18569 0.11187
# Poissons Ratio (z) = 0.48119 0.10805
#
# Static dielectric constant tensor:
#      x y z
#    x 1.996390 0.000000 -0.010440 
#    y 0.000000 1.920330 0.000000 
#    z -0.010440 0.000000 1.979840 
# 
# From -- ./inp_files/142701.got.cif
#   From: 2010.05.17/outbox.cif.g08.bks.cpg/sg12_72_cif.got.tgz:142701.got - 2010.06.03 13:09:07.
