data_PCOD9205671
_publ_section_title
;
Structure prediction by ZEFSAII (Michael W. Deem and Ramdas Pophale) SiO2 
 PCOD9205671
Probable space group: C 2/M
;
_chemical_formula_sum "Si O2"
_cell_formula_units_Z 38
_cell_length_a 17.583751
_cell_length_b 15.579844
_cell_length_c 20.493611
_cell_angle_alpha 90.000000
_cell_angle_beta 161.816094
_cell_angle_gamma 90.000000
_cell_volume 1752.033666
_symmetry_space_group_name_H-M "C 2/M"
_symmetry_group_IT_number 12
_symmetry_cell_setting 'monoclinic'
loop_
_space_group_symop_operation_xyz
x,y,z
-x,y,-z
-x,-y,-z
x,-y,z
1/2+x,1/2+y,z
1/2-x,1/2+y,-z
1/2-x,1/2-y,-z
1/2+x,1/2-y,z
loop_
_atom_site_type_symbol
_atom_site_label
_atom_site_fract_x
_atom_site_fract_y
_atom_site_fract_z
Si Si1 0.752379 0.228603 0.674085
Si Si2 0.000000 0.000000 0.500000
Si Si3 0.363342 0.857178 0.648717
Si Si4 0.045037 0.000000 0.681004
Si Si5 0.952771 0.500000 0.121370
Si Si6 0.500000 0.333053 0.000000
Si Si7 0.022876 0.599354 0.396866
O O1 0.500000 0.264899 0.500000
O O2 0.827704 0.284795 0.673676
O O3 0.943124 0.221937 0.888433
O O4 0.682871 0.136472 0.586577
O O5 0.864871 0.000000 0.319492
O O6 0.728754 0.000000 0.317350
O O7 0.436195 0.841318 0.633703
O O8 0.565555 0.918554 0.846174
O O9 0.119399 0.914826 0.443701
O O10 0.258290 0.000000 0.906700
O O11 0.741918 0.388378 0.186911
O O12 0.077133 0.500000 0.426640
#
# Coordination Sequence:
#
# PCOD9205671 Si02
#       7
#     8   2   8   4   4   4   8
#     4  10  24  42  65  93 130 170 209 269 323 386
#     4   8  18  36  48  86 124 166 214 248 294 372
#     4  10  22  41  62  96 131 163 215 264 324 387
#     4  10  21  37  59  92 127 173 209 261 318 386
#     4  10  21  35  61  92 130 170 212 258 318 379
#     4  10  25  42  64  95 124 170 224 263 330 386
#     4  11  22  44  66  94 127 167 218 274 324 381
#
# _framework density 21.689080000000001
#
# number of rings (size 3 to 8) (size 9 to 14) (size 15 to 20)
#    0.000    2.105    2.105    1.263    5.895   10.526 
#    0.000    0.000    0.000    0.000    0.000    0.000 
#    0.000    0.000    0.000    0.000    0.000    0.000 
#
# Total GULP energy -105800.484240 kJ/mol
# GULP energy per Si atom -5568.446539 kJ/mol
# Density = 2.163971 g / cm^3
# Si number density = 21.689080 Si / 1000 Ang^3
#
#
#
# Elastic Constant Matrix: (Units=GPa)
#
#
# Indices 1 2 3 4 5 6 
#
# 1 137.0496 25.8754 29.4523 0.0310 -31.2062 -0.0432
# 2 25.8754 67.5231 26.6824 0.1423 -13.3972 -0.2889
# 3 29.4523 26.6824 108.1514 0.2311 -53.7894 -0.4286
# 4 0.0310 0.1423 0.2311 -3.6200 0.0300 -9.7481
# 5 -31.2062 -13.3972 -53.7894 0.0300 46.0642 -0.0244
# 6 -0.0432 -0.2889 -0.4286 -9.7481 -0.0244 59.6568
#
#
#
# Elastic Compliance Matrix: (Units=1/GPa)
#
#
# Indices 1 2 3 4 5 6 
#
# 1 0.009156 -0.002780 0.002087 0.000095 0.007832 0.000027
# 2 -0.002780 0.017254 -0.004629 0.000148 -0.002270 0.000071
# 3 0.002087 -0.004629 0.023502 0.000789 0.027511 0.000288
# 4 0.000095 0.000148 0.000789 -0.191800 0.001137 -0.031334
# 5 0.007832 -0.002270 0.027511 0.001137 0.058478 0.000402
# 6 0.000027 0.000071 0.000288 -0.031334 0.000402 0.011645
#
#
# Mechanical properties :
#
#
# Convention : Reuss Voigt Hill
#
# Bulk Modulus (GPa) = 25.46525 52.97158 39.21841
# Shear Modulus (GPa) = -104.09626 35.80113 -34.14756
#
# Velocity S-wave (km/s) = -6.93534 4.06723 -3.97219
# Velocity P-wave (km/s) = 7.23640 6.82148 1.70774
#
# Compressibility (1/GPa) = 0.03926920
#
# Stress axis : x y z
#
# Youngs Moduli (GPa) = 109.21610 57.95872 42.54982
#
# Poissons Ratio (x) = 0.16111 -0.08882
# Poissons Ratio (y) = 0.30359 0.19696
# Poissons Ratio (z) = -0.22798 0.26829
#
# Static dielectric constant tensor:
#      x y z
#    x 1.803060 -0.000050 0.016890 
#    y -0.000050 1.864430 0.000000 
#    z 0.016890 0.000000 1.761940 
# 
# From -- ./inp_files/316888.got.cif
#   From: 2010.05.17/outbox.cif.g08.bks.cpg/sg12_159_cif.got.tgz:316888.got - 2010.06.03 13:09:07.
