data_PCOD9205677
_publ_section_title
;
Structure prediction by ZEFSAII (Michael W. Deem and Ramdas Pophale) SiO2 
 PCOD9205677
Probable space group: C 2/M
;
_chemical_formula_sum "Si O2"
_cell_formula_units_Z 50
_cell_length_a 24.320373
_cell_length_b 14.475464
_cell_length_c 7.754788
_cell_angle_alpha 90.000000
_cell_angle_beta 64.808288
_cell_angle_gamma 90.000000
_cell_volume 2470.402894
_symmetry_space_group_name_H-M "C 2/M"
_symmetry_group_IT_number 12
_symmetry_cell_setting 'monoclinic'
loop_
_space_group_symop_operation_xyz
x,y,z
-x,y,-z
-x,-y,-z
x,-y,z
1/2+x,1/2+y,z
1/2-x,1/2+y,-z
1/2-x,1/2-y,-z
1/2+x,1/2-y,z
loop_
_atom_site_type_symbol
_atom_site_label
_atom_site_fract_x
_atom_site_fract_y
_atom_site_fract_z
Si Si1 0.000000 0.500000 0.500000
Si Si2 0.476036 0.830030 0.290830
Si Si3 0.373502 0.104974 0.169646
Si Si4 0.865672 0.231316 0.624515
Si Si5 0.350698 0.392916 0.310080
Si Si6 0.903380 0.223811 0.940685
Si Si7 0.211809 0.604524 0.383792
O O1 0.996336 0.418814 0.653200
O O2 0.435496 0.867331 0.186332
O O3 0.427578 0.782643 0.483760
O O4 0.527458 0.756559 0.175569
O O5 0.321904 0.112365 0.385567
O O6 0.375440 0.000000 0.105113
O O7 0.366520 0.182214 0.035105
O O8 0.851172 0.160194 0.491039
O O9 0.876978 0.187394 0.795700
O O10 0.815374 0.312563 0.691679
O O11 0.366166 0.500000 0.312481
O O12 0.394224 0.342999 0.114611
O O13 0.283111 0.386889 0.320260
O O14 0.197359 0.500000 0.338771
#
# Coordination Sequence:
#
# PCOD9205677 Si02
#       7
#     2   8   8   8   8   8   8
#     4  12  20  36  66  96 138 178 192 240 318 388
#     4  11  22  37  59  95 133 167 198 241 305 381
#     4  10  21  35  61  95 129 165 195 241 311 386
#     4  11  23  40  66  90 128 161 205 256 314 374
#     4  11  25  46  65  83 119 169 216 270 312 350
#     4  12  24  37  63  96 125 160 210 249 304 380
#     4   9  20  41  65  91 126 163 202 251 319 380
#
# _framework density 20.239612999999999
#
# number of rings (size 3 to 8) (size 9 to 14) (size 15 to 20)
#    0.000    1.280    5.600    0.960    2.240    2.560 
#    0.000    1.600    0.000    1.920    0.000    0.000 
#    0.000    0.000    0.000    0.000    0.000    0.000 
#
# Total GULP energy -139417.308869 kJ/mol
# GULP energy per Si atom -5576.692355 kJ/mol
# Density = 2.019355 g / cm^3
# Si number density = 20.239613 Si / 1000 Ang^3
#
#
#
# Elastic Constant Matrix: (Units=GPa)
#
#
# Indices 1 2 3 4 5 6 
#
# 1 45.7985 38.1605 29.9050 0.0000 4.9484 0.0000
# 2 38.1605 109.9021 21.7638 0.0000 7.5200 0.0000
# 3 29.9050 21.7638 36.7710 0.0000 11.7849 0.0000
# 4 0.0000 0.0000 0.0000 13.6511 0.0000 -6.5602
# 5 4.9484 7.5200 11.7849 0.0000 36.6189 0.0000
# 6 0.0000 0.0000 0.0000 -6.5602 0.0000 14.7556
#
#
#
# Elastic Compliance Matrix: (Units=1/GPa)
#
#
# Indices 1 2 3 4 5 6 
#
# 1 0.060697 -0.012850 -0.044572 0.000000 0.008781 0.000000
# 2 -0.012850 0.013028 0.003390 0.000000 -0.002030 0.000000
# 3 -0.044572 0.003390 0.066601 0.000000 -0.016107 0.000000
# 4 0.000000 0.000000 0.000000 0.093157 0.000000 0.041417
# 5 0.008781 -0.002030 -0.016107 0.000000 0.031722 0.000000
# 6 0.000000 0.000000 0.000000 0.041417 0.000000 0.086184
#
#
# Mechanical properties :
#
#
# Convention : Reuss Voigt Hill
#
# Bulk Modulus (GPa) = 30.99654 41.34780 36.17217
# Shear Modulus (GPa) = 10.63358 19.84793 15.24075
#
# Velocity S-wave (km/s) = 2.29461 3.13493 2.74709
# Velocity P-wave (km/s) = 4.72952 5.79458 5.28893
#
# Compressibility (1/GPa) = 0.03226167
#
# Stress axis : x y z
#
# Youngs Moduli (GPa) = 16.47525 76.75585 15.01482
#
# Poissons Ratio (x) = 0.98628 0.66925
# Poissons Ratio (y) = 0.21170 -0.05090
# Poissons Ratio (z) = 0.73434 -0.26018
#
# Static dielectric constant tensor:
#      x y z
#    x 1.742420 0.000000 0.012240 
#    y 0.000000 1.694740 0.000000 
#    z 0.012240 0.000000 1.758970 
# 
# From -- ./inp_files/104371.got.cif
#   From: 2010.05.17/outbox.cif.g08.bks.cpg/sg12_53_cif.got.tgz:104371.got - 2010.06.03 13:09:07.
