data_PCOD9205213
_publ_section_title
;
Structure prediction by ZEFSAII (Michael W. Deem and Ramdas Pophale) SiO2 
 PCOD9205213
Probable space group: C 2/M
;
_chemical_formula_sum "Si O2"
_cell_formula_units_Z 56
_cell_length_a 15.272502
_cell_length_b 8.022631
_cell_length_c 24.644651
_cell_angle_alpha 90.000000
_cell_angle_beta 46.717908
_cell_angle_gamma 90.000000
_cell_volume 2198.231113
_symmetry_space_group_name_H-M "C 2/M"
_symmetry_group_IT_number 12
_symmetry_cell_setting 'monoclinic'
loop_
_space_group_symop_operation_xyz
x,y,z
-x,y,-z
-x,-y,-z
x,-y,z
1/2+x,1/2+y,z
1/2-x,1/2+y,-z
1/2-x,1/2-y,-z
1/2+x,1/2-y,z
loop_
_atom_site_type_symbol
_atom_site_label
_atom_site_fract_x
_atom_site_fract_y
_atom_site_fract_z
Si Si1 0.247547 0.298657 0.064010
Si Si2 0.519869 0.199132 0.821434
Si Si3 0.650415 0.313761 0.243289
Si Si4 0.111357 0.811150 0.899001
Si Si5 0.432406 0.190874 0.382175
Si Si6 0.768063 0.805304 0.668264
Si Si7 0.669855 0.195858 0.467932
O O1 0.250064 0.500000 0.066033
O O2 0.364090 0.241007 0.050186
O O3 0.112884 0.237203 0.138182
O O4 0.250000 0.250000 0.000000
O O5 0.547763 0.227574 0.874049
O O6 0.634434 0.264262 0.739061
O O7 0.518547 0.000000 0.814056
O O8 0.683612 0.500000 0.211591
O O9 0.746420 0.189574 0.177624
O O10 0.510046 0.279647 0.303039
O O11 0.670680 0.301266 0.299334
O O12 0.065963 0.000000 0.920183
O O13 0.424799 0.258817 0.447242
O O14 0.293793 0.206805 0.424591
O O15 0.474401 0.000000 0.364824
O O16 0.844662 0.714095 0.589893
O O17 0.757466 0.000000 0.657276
O O18 0.686346 0.000000 0.473117
#
# Coordination Sequence:
#
# PCOD9205213 Si02
#       7
#     8   8   8   8   8   8   8
#     4  10  23  41  62  90 122 157 197 236 288 352
#     4   9  20  40  61  85 120 160 197 238 293 354
#     4  10  21  37  57  83 111 145 190 235 284 346
#     4  10  21  38  61  90 121 155 196 245 295 345
#     4  10  21  36  53  75 109 149 187 236 290 339
#     4   9  19  35  56  79 108 146 186 231 287 343
#     4  10  21  35  52  78 109 144 191 238 285 341
#
# _framework density 25.475027999999998
#
# number of rings (size 3 to 8) (size 9 to 14) (size 15 to 20)
#    0.000    2.286    0.000    2.571    2.000    7.429 
#    0.000    5.714    0.000    0.000    0.000    0.000 
#    0.000    0.000    0.000    0.000    0.000    0.000 
#
# Total GULP energy -156295.289601 kJ/mol
# GULP energy per Si atom -5581.974629 kJ/mol
# Density = 2.541705 g / cm^3
# Si number density = 25.475028 Si / 1000 Ang^3
#
#
#
# Elastic Constant Matrix: (Units=GPa)
#
#
# Indices 1 2 3 4 5 6 
#
# 1 118.4029 -23.1451 -18.3647 0.0000 13.6203 0.0000
# 2 -23.1451 38.3604 1.1120 0.0000 4.2503 0.0001
# 3 -18.3647 1.1120 56.2109 0.0000 4.7191 0.0000
# 4 0.0000 0.0000 0.0000 29.2504 0.0000 11.3118
# 5 13.6203 4.2503 4.7191 0.0000 45.7897 0.0000
# 6 0.0000 0.0001 0.0000 11.3118 0.0000 19.2613
#
#
#
# Elastic Compliance Matrix: (Units=1/GPa)
#
#
# Indices 1 2 3 4 5 6 
#
# 1 0.010876 0.006925 0.003774 0.000000 -0.004267 0.000000
# 2 0.006925 0.030755 0.002085 0.000000 -0.005130 0.000000
# 3 0.003774 0.002085 0.019259 0.000000 -0.003301 0.000000
# 4 0.000000 0.000000 0.000000 0.044234 0.000000 -0.025978
# 5 -0.004267 -0.005130 -0.003301 0.000000 0.023925 0.000000
# 6 0.000000 0.000000 0.000000 -0.025978 0.000000 0.067174
#
#
# Mechanical properties :
#
#
# Convention : Reuss Voigt Hill
#
# Bulk Modulus (GPa) = 11.56615 14.68649 13.12632
# Shear Modulus (GPa) = 25.06613 35.75175 30.40894
#
# Velocity S-wave (km/s) = 3.14020 3.75027 3.45871
# Velocity P-wave (km/s) = 4.20688 4.95280 4.59500
#
# Compressibility (1/GPa) = 0.08645919
#
# Stress axis : x y z
#
# Youngs Moduli (GPa) = 91.94766 32.51507 51.92324
#
# Poissons Ratio (x) = -0.22518 -0.19598
# Poissons Ratio (y) = -0.63677 -0.10825
# Poissons Ratio (z) = -0.34705 -0.06779
#
# Static dielectric constant tensor:
#      x y z
#    x 2.223550 0.000000 0.020630 
#    y 0.000000 1.950010 0.000000 
#    z 0.020630 0.000000 2.164020 
# 
# From -- ./inp_files/338519.got.cif
#   From: 2010.05.17/outbox.cif.g08.bks.cpg/sg12_170_cif.got.tgz:338519.got - 2010.06.03 13:09:07.
