data_PCOD9205993
_publ_section_title
;
Structure prediction by ZEFSAII (Michael W. Deem and Ramdas Pophale) SiO2 
 PCOD9205993
Probable space group: C 2/M
;
_chemical_formula_sum "Si O2"
_cell_formula_units_Z 56
_cell_length_a 19.311346
_cell_length_b 13.847871
_cell_length_c 17.840921
_cell_angle_alpha 90.000000
_cell_angle_beta 147.778896
_cell_angle_gamma 90.000000
_cell_volume 2543.859537
_symmetry_space_group_name_H-M "C 2/M"
_symmetry_group_IT_number 12
_symmetry_cell_setting 'monoclinic'
loop_
_space_group_symop_operation_xyz
x,y,z
-x,y,-z
-x,-y,-z
x,-y,z
1/2+x,1/2+y,z
1/2-x,1/2+y,-z
1/2-x,1/2-y,-z
1/2+x,1/2-y,z
loop_
_atom_site_type_symbol
_atom_site_label
_atom_site_fract_x
_atom_site_fract_y
_atom_site_fract_z
Si Si1 0.150615 0.117280 0.626192
Si Si2 0.692789 0.612962 0.180765
Si Si3 0.249372 0.386104 0.442965
Si Si4 0.757297 0.617806 0.400616
Si Si5 0.621536 0.804251 0.061439
Si Si6 0.436336 0.113373 0.151470
Si Si7 0.445574 0.115516 0.322033
O O1 0.193740 0.150841 0.582668
O O2 0.248018 0.160717 0.776995
O O3 0.000000 0.141980 0.500000
O O4 0.162803 0.000000 0.641057
O O5 0.661007 0.500000 0.141654
O O6 0.679852 0.643339 0.255373
O O7 0.618008 0.688175 0.061430
O O8 0.843506 0.626733 0.294766
O O9 0.282580 0.500000 0.474480
O O10 0.292851 0.347720 0.564399
O O11 0.093374 0.379768 0.296558
O O12 0.757270 0.500000 0.401576
O O13 0.907816 0.647833 0.530186
O O14 0.500000 0.841760 0.000000
O O15 0.614322 0.837944 0.969821
O O16 0.394435 0.153131 0.194724
O O17 0.401728 0.000000 0.114697
O O18 0.456361 0.000000 0.321033
#
# Coordination Sequence:
#
# PCOD9205993 Si02
#       7
#     8   8   8   8   8   8   8
#     4  10  21  37  59  89 125 154 185 239 300 354
#     4  10  21  36  55  80 114 156 203 253 293 329
#     4   8  14  29  56  86 115 147 184 232 290 350
#     4   8  14  28  55  85 110 143 190 240 292 349
#     4  12  24  37  59  84 117 161 207 235 284 352
#     4   9  17  32  59  91 117 146 189 236 286 357
#     4   8  15  30  56  87 115 145 186 241 302 351
#
# _framework density 22.013793
#
# number of rings (size 3 to 8) (size 9 to 14) (size 15 to 20)
#    0.000    2.714    1.429    2.571    0.000    4.286 
#    0.000    0.714    6.286    0.000    0.000    0.000 
#    0.000    0.000    0.000    0.000    0.000    0.286 
#
# Total GULP energy -156346.106736 kJ/mol
# GULP energy per Si atom -5583.789526 kJ/mol
# Density = 2.196369 g / cm^3
# Si number density = 22.013793 Si / 1000 Ang^3
#
#
#
# Elastic Constant Matrix: (Units=GPa)
#
#
# Indices 1 2 3 4 5 6 
#
# 1 81.4425 13.9367 38.9418 -0.0001 -33.7396 0.0000
# 2 13.9367 83.3006 32.7570 0.0000 -15.6422 0.0000
# 3 38.9418 32.7570 95.2147 -0.0003 -28.3456 -0.0001
# 4 -0.0001 0.0000 -0.0003 22.9567 -0.0001 -0.8642
# 5 -33.7396 -15.6422 -28.3456 -0.0001 45.4609 0.0000
# 6 0.0000 0.0000 -0.0001 -0.8642 0.0000 4.2382
#
#
#
# Elastic Compliance Matrix: (Units=1/GPa)
#
#
# Indices 1 2 3 4 5 6 
#
# 1 0.019178 0.000805 -0.004667 0.000000 0.011600 0.000000
# 2 0.000805 0.014100 -0.004369 0.000000 0.002725 0.000000
# 3 -0.004667 -0.004369 0.015270 0.000000 0.004554 0.000000
# 4 0.000000 0.000000 0.000000 0.043897 0.000000 0.008951
# 5 0.011600 0.002725 0.004554 0.000000 0.034383 0.000000
# 6 0.000000 0.000000 0.000000 0.008951 0.000000 0.237773
#
#
# Mechanical properties :
#
#
# Convention : Reuss Voigt Hill
#
# Bulk Modulus (GPa) = 31.16612 47.91432 39.54022
# Shear Modulus (GPa) = 12.76295 26.15266 19.45780
#
# Velocity S-wave (km/s) = 2.41045 3.45049 2.97626
# Velocity P-wave (km/s) = 4.68352 6.13901 5.45998
#
# Compressibility (1/GPa) = 0.03208612
#
# Stress axis : x y z
#
# Youngs Moduli (GPa) = 52.14253 70.92358 65.48693
#
# Poissons Ratio (x) = -0.05709 0.30564
# Poissons Ratio (y) = -0.04197 0.28610
# Poissons Ratio (z) = 0.24336 0.30985
#
# Static dielectric constant tensor:
#      x y z
#    x 1.831960 0.000000 -0.004820 
#    y 0.000000 1.853110 0.000000 
#    z -0.004820 0.000000 1.774680 
# 
# From -- ./inp_files/284606.got.cif
#   From: 2010.05.17/outbox.cif.g08.bks.cpg/sg12_143_cif.got.tgz:284606.got - 2010.06.03 13:09:07.
