data_PCOD9205803
_publ_section_title
;
Structure prediction by ZEFSAII (Michael W. Deem and Ramdas Pophale) SiO2 
 PCOD9205803
Probable space group: C 2/M
;
_chemical_formula_sum "Si O2"
_cell_formula_units_Z 48
_cell_length_a 26.440182
_cell_length_b 15.702570
_cell_length_c 5.333259
_cell_angle_alpha 90.000000
_cell_angle_beta 98.624147
_cell_angle_gamma 90.000000
_cell_volume 2189.220127
_symmetry_space_group_name_H-M "C 2/M"
_symmetry_group_IT_number 12
_symmetry_cell_setting 'monoclinic'
loop_
_space_group_symop_operation_xyz
x,y,z
-x,y,-z
-x,-y,-z
x,-y,z
1/2+x,1/2+y,z
1/2-x,1/2+y,-z
1/2-x,1/2-y,-z
1/2+x,1/2-y,z
loop_
_atom_site_type_symbol
_atom_site_label
_atom_site_fract_x
_atom_site_fract_y
_atom_site_fract_z
Si Si1 0.147327 0.898018 0.245417
Si Si2 0.289210 0.599179 0.187361
Si Si3 0.952740 0.407153 0.652161
Si Si4 0.393971 0.769877 0.863333
Si Si5 0.291198 0.176608 0.561486
Si Si6 0.853787 0.406025 0.223613
O O1 0.173934 0.888907 0.539588
O O2 0.100746 0.832290 0.151585
O O3 0.136166 0.000000 0.208661
O O4 0.186160 0.868045 0.051453
O O5 0.285634 0.500000 0.147369
O O6 0.232845 0.630106 0.217819
O O7 0.958019 0.500000 0.784559
O O8 0.942609 0.326117 0.819978
O O9 0.901095 0.413604 0.451820
O O10 0.000000 0.395793 0.500000
O O11 0.346380 0.782935 0.639449
O O12 0.370476 0.822657 0.079282
O O13 0.250000 0.250000 0.500000
O O14 0.302140 0.111703 0.343772
O O15 0.851228 0.500000 0.092599
#
# Coordination Sequence:
#
# PCOD9205803 Si02
#       6
#     8   8   8   8   8   8
#     4  10  22  38  57  82 116 158 205 249 289 341
#     4  10  21  36  53  77 113 162 207 244 289 342
#     4   9  20  40  62  87 118 148 185 240 307 374
#     4  11  22  35  58  82 115 151 201 246 300 357
#     4  11  21  34  50  76 116 158 199 245 291 344
#     4  10  22  36  55  85 117 152 196 245 298 358
#
# _framework density 21.925616000000002
#
# number of rings (size 3 to 8) (size 9 to 14) (size 15 to 20)
#    0.000    1.833    1.667    2.000    4.667    4.000 
#    0.000    2.500    0.000    0.500    0.000    1.167 
#    0.000    0.000    0.000    0.000    0.000    0.000 
#
# Total GULP energy -133684.957156 kJ/mol
# GULP energy per Si atom -5570.206548 kJ/mol
# Density = 2.187571 g / cm^3
# Si number density = 21.925616 Si / 1000 Ang^3
#
#
#
# Elastic Constant Matrix: (Units=GPa)
#
#
# Indices 1 2 3 4 5 6 
#
# 1 87.2083 35.3090 20.1749 0.0000 -16.9295 0.0000
# 2 35.3090 119.0597 25.3695 0.0000 4.8203 0.0000
# 3 20.1749 25.3695 69.7370 0.0000 -10.1144 0.0000
# 4 0.0000 0.0000 0.0000 13.3171 0.0000 9.4018
# 5 -16.9295 4.8203 -10.1144 0.0000 23.4159 0.0000
# 6 0.0000 0.0000 0.0000 9.4018 0.0000 -14.1935
#
#
#
# Elastic Compliance Matrix: (Units=1/GPa)
#
#
# Indices 1 2 3 4 5 6 
#
# 1 0.016136 -0.005058 -0.001051 0.000000 0.012254 0.000000
# 2 -0.005058 0.010971 -0.003612 0.000000 -0.007476 0.000000
# 3 -0.001051 -0.003612 0.017022 0.000000 0.007336 0.000000
# 4 0.000000 0.000000 0.000000 0.051164 0.000000 0.033891
# 5 0.012254 -0.007476 0.007336 0.000000 0.056273 0.000000
# 6 0.000000 0.000000 0.000000 0.033891 0.000000 -0.048005
#
#
# Mechanical properties :
#
#
# Convention : Reuss Voigt Hill
#
# Bulk Modulus (GPa) = 40.50631 48.63466 44.57048
# Shear Modulus (GPa) = 38.10002 17.51799 27.80901
#
# Velocity S-wave (km/s) = 4.17309 2.82968 3.56523
# Velocity P-wave (km/s) = 6.46019 5.73637 6.10901
#
# Compressibility (1/GPa) = 0.02468751
#
# Stress axis : x y z
#
# Youngs Moduli (GPa) = 61.97137 91.14562 58.74812
#
# Poissons Ratio (x) = 0.46098 0.06175
# Poissons Ratio (y) = 0.31343 0.21222
# Poissons Ratio (z) = 0.06514 0.32925
#
# Static dielectric constant tensor:
#      x y z
#    x 1.812270 0.000000 -0.046350 
#    y 0.000000 2.002380 0.000000 
#    z -0.046350 0.000000 2.164150 
# 
# From -- ./inp_files/24730.got.cif
#   From: 2010.05.17/outbox.cif.g08.bks.cpg/sg12_13_cif.got.tgz:24730.got - 2010.06.03 13:09:07.
