data_PCOD9205085
_publ_section_title
;
Structure prediction by ZEFSAII (Michael W. Deem and Ramdas Pophale) SiO2 
 PCOD9205085
Probable space group: C 2/M
;
_chemical_formula_sum "Si O2"
_cell_formula_units_Z 56
_cell_length_a 32.507630
_cell_length_b 13.780117
_cell_length_c 7.723619
_cell_angle_alpha 90.000000
_cell_angle_beta 113.115663
_cell_angle_gamma 90.000000
_cell_volume 3182.086283
_symmetry_space_group_name_H-M "C 2/M"
_symmetry_group_IT_number 12
_symmetry_cell_setting 'monoclinic'
loop_
_space_group_symop_operation_xyz
x,y,z
-x,y,-z
-x,-y,-z
x,-y,z
1/2+x,1/2+y,z
1/2-x,1/2+y,-z
1/2-x,1/2-y,-z
1/2+x,1/2-y,z
loop_
_atom_site_type_symbol
_atom_site_label
_atom_site_fract_x
_atom_site_fract_y
_atom_site_fract_z
Si Si1 0.966838 0.610926 0.197324
Si Si2 0.760923 0.616356 0.301580
Si Si3 0.628711 0.118584 0.834486
Si Si4 0.851908 0.291997 0.506711
Si Si5 0.298840 0.384173 0.482314
Si Si6 0.774518 0.382479 0.924940
Si Si7 0.559841 0.111332 0.248240
O O1 0.970254 0.500000 0.267114
O O2 0.921029 0.652596 0.197694
O O3 0.017670 0.650351 0.291474
O O4 0.956055 0.606409 0.975515
O O5 0.765915 0.500000 0.307365
O O6 0.804536 0.657840 0.470596
O O7 0.718660 0.637986 0.352916
O O8 0.760135 0.647128 0.097821
O O9 0.638881 0.167578 0.669203
O O10 0.673260 0.144185 0.018962
O O11 0.627943 0.000000 0.823469
O O12 0.842086 0.178602 0.508095
O O13 0.895291 0.327389 0.677982
O O14 0.305106 0.500000 0.478064
O O15 0.260410 0.352994 0.280442
O O16 0.773487 0.500000 0.922426
O O17 0.569584 0.000000 0.320959
#
# Coordination Sequence:
#
# PCOD9205085 Si02
#       7
#     8   8   8   8   8   8   8
#     4   8  16  30  47  71 101 130 151 179 236 300
#     4   9  18  32  48  69  97 125 161 201 239 287
#     4   9  17  29  46  72  99 123 154 189 235 291
#     4  11  20  30  45  72  95 125 164 201 236 278
#     4  10  21  35  48  66  95 134 170 203 241 278
#     4   8  16  31  48  66  94 128 159 195 235 276
#     4   9  17  30  48  71 101 128 153 188 232 291
#
# _framework density 17.598517999999999
#
# number of rings (size 3 to 8) (size 9 to 14) (size 15 to 20)
#    0.000    2.857    0.000    3.429    2.000    2.857 
#    2.571    2.143    0.000    0.000    0.000    4.000 
#    0.000    0.000    0.000    0.000    0.000    0.000 
#
# Total GULP energy -155877.457665 kJ/mol
# GULP energy per Si atom -5567.052059 kJ/mol
# Density = 1.755846 g / cm^3
# Si number density = 17.598518 Si / 1000 Ang^3
#
#
#
# Elastic Constant Matrix: (Units=GPa)
#
#
# Indices 1 2 3 4 5 6 
#
# 1 73.9182 31.7673 19.2902 0.0000 10.8812 0.0000
# 2 31.7673 48.7293 16.1101 0.0000 8.3036 0.0000
# 3 19.2902 16.1101 50.3701 0.0000 14.3346 0.0000
# 4 0.0000 0.0000 0.0000 402.7289 0.0000 -251.8553
# 5 10.8812 8.3036 14.3346 0.0000 20.8786 0.0000
# 6 0.0000 0.0000 0.0000 -251.8553 0.0000 184.7354
#
#
#
# Elastic Compliance Matrix: (Units=1/GPa)
#
#
# Indices 1 2 3 4 5 6 
#
# 1 0.019658 -0.011221 -0.002851 0.000000 -0.003825 0.000000
# 2 -0.011221 0.029795 -0.004380 0.000000 -0.002995 0.000000
# 3 -0.002851 -0.004380 0.026630 0.000000 -0.015056 0.000000
# 4 0.000000 0.000000 0.000000 0.016844 0.000000 0.022964
# 5 -0.003825 -0.002995 -0.015056 0.000000 0.061417 0.000000
# 6 0.000000 0.000000 0.000000 0.022964 0.000000 0.036721
#
#
# Mechanical properties :
#
#
# Convention : Reuss Voigt Hill
#
# Bulk Modulus (GPa) = 25.52361 34.15031 29.83696
# Shear Modulus (GPa) = 20.74435 128.72523 74.73479
#
# Velocity S-wave (km/s) = 3.43703 8.56179 6.52370
# Velocity P-wave (km/s) = 5.50324 10.82527 8.58697
#
# Compressibility (1/GPa) = 0.03917941
#
# Stress axis : x y z
#
# Youngs Moduli (GPa) = 50.87023 33.56274 37.55105
#
# Poissons Ratio (x) = 0.37660 0.10706
# Poissons Ratio (y) = 0.57081 0.16447
# Poissons Ratio (z) = 0.14503 0.14700
#
# Static dielectric constant tensor:
#      x y z
#    x 1.665200 0.000000 -0.003010 
#    y 0.000000 1.596790 0.000000 
#    z -0.003010 0.000000 1.655690 
# 
# From -- ./inp_files/103979.got.cif
#   From: 2010.05.17/outbox.cif.g08.bks.cpg/sg12_52_cif.got.tgz:103979.got - 2010.06.03 13:09:07.
