data_PCOD9205040
_publ_section_title
;
Structure prediction by ZEFSAII (Michael W. Deem and Ramdas Pophale) SiO2 
 PCOD9205040
Probable space group: C 2/M
;
_chemical_formula_sum "Si O2"
_cell_formula_units_Z 60
_cell_length_a 12.724196
_cell_length_b 20.386574
_cell_length_c 18.173812
_cell_angle_alpha 90.000000
_cell_angle_beta 143.721312
_cell_angle_gamma 90.000000
_cell_volume 2789.536223
_symmetry_space_group_name_H-M "C 2/M"
_symmetry_group_IT_number 12
_symmetry_cell_setting 'monoclinic'
loop_
_space_group_symop_operation_xyz
x,y,z
-x,y,-z
-x,-y,-z
x,-y,z
1/2+x,1/2+y,z
1/2-x,1/2+y,-z
1/2-x,1/2-y,-z
1/2+x,1/2-y,z
loop_
_atom_site_type_symbol
_atom_site_label
_atom_site_fract_x
_atom_site_fract_y
_atom_site_fract_z
Si Si1 0.693797 0.137657 0.636838
Si Si2 0.467172 0.835173 0.167965
Si Si3 0.777735 0.227092 0.434095
Si Si4 0.331409 0.805500 0.953470
Si Si5 0.932386 0.922257 0.203459
Si Si6 0.500000 0.618578 0.500000
Si Si7 0.207700 0.168097 0.137121
Si Si8 0.770163 0.570379 0.759702
O O1 0.500000 0.109904 0.500000
O O2 0.692151 0.210174 0.600308
O O3 0.729512 0.147220 0.745500
O O4 0.864711 0.098558 0.700457
O O5 0.606478 0.806944 0.303677
O O6 0.317872 0.867041 0.134599
O O7 0.569950 0.883477 0.171984
O O8 0.407121 0.780754 0.074685
O O9 0.750000 0.250000 0.500000
O O10 0.926967 0.171008 0.517603
O O11 0.196770 0.864010 0.899420
O O12 0.254642 0.745554 0.861247
O O13 0.500000 0.828299 0.000000
O O14 0.866772 0.916591 0.251337
O O15 0.907218 0.000000 0.168656
O O16 0.650340 0.574797 0.619511
O O17 0.000000 0.159365 0.000000
O O18 0.848600 0.500000 0.820000
#
# Coordination Sequence:
#
# PCOD9205040 Si02
#       8
#     8   8   8   8   8   4   8   8
#     4  12  25  42  66  99 138 179 230 277 339 416
#     4  11  22  38  65  96 131 176 219 277 345 412
#     4  11  21  36  60  94 131 169 215 273 341 408
#     4  11  21  40  68  99 135 168 226 286 350 409
#     4  11  25  44  68  94 132 180 233 287 337 401
#     4  10  21  34  58  88 129 164 206 272 346 392
#     4  11  24  41  66 100 139 177 215 277 351 419
#     4  10  22  40  62  91 126 171 229 284 335 395
#
# _framework density 21.508951
#
# number of rings (size 3 to 8) (size 9 to 14) (size 15 to 20)
#    0.000    1.067    2.000    5.400    1.867    2.133 
#    0.000    0.667    0.000    1.600    0.000    0.000 
#    0.000    0.000    0.000    0.000    0.000    0.000 
#
# Total GULP energy -167107.747872 kJ/mol
# GULP energy per Si atom -5570.258262 kJ/mol
# Density = 2.146000 g / cm^3
# Si number density = 21.508951 Si / 1000 Ang^3
#
#
#
# Elastic Constant Matrix: (Units=GPa)
#
#
# Indices 1 2 3 4 5 6 
#
# 1 156.1208 41.0872 58.5009 0.0013 -4.3129 0.0019
# 2 41.0872 67.4368 34.9954 0.0010 5.7346 0.0017
# 3 58.5009 34.9954 79.3689 0.0057 -2.5921 0.0088
# 4 0.0013 0.0010 0.0057 22.9386 0.0012 23.0352
# 5 -4.3129 5.7346 -2.5921 0.0012 52.3235 0.0020
# 6 0.0019 0.0017 0.0088 23.0352 0.0020 46.5253
#
#
#
# Elastic Compliance Matrix: (Units=1/GPa)
#
#
# Indices 1 2 3 4 5 6 
#
# 1 0.009249 -0.002825 -0.005545 0.000000 0.000797 0.000001
# 2 -0.002825 0.020432 -0.007019 0.000001 -0.002820 0.000000
# 3 -0.005545 -0.007019 0.019824 -0.000002 0.001294 -0.000002
# 4 0.000000 0.000001 -0.000002 0.086703 0.000000 -0.042928
# 5 0.000797 -0.002820 0.001294 0.000000 0.019551 -0.000001
# 6 0.000001 0.000000 -0.000002 -0.042928 -0.000001 0.042748
#
#
# Mechanical properties :
#
#
# Convention : Reuss Voigt Hill
#
# Bulk Modulus (GPa) = 53.40116 63.56593 58.48354
# Shear Modulus (GPa) = 21.22906 35.58037 28.40471
#
# Velocity S-wave (km/s) = 3.14504 4.07161 3.63795
# Velocity P-wave (km/s) = 6.17007 7.19176 6.70042
#
# Compressibility (1/GPa) = 0.01872619
#
# Stress axis : x y z
#
# Youngs Moduli (GPa) = 108.12282 48.94296 50.44479
#
# Poissons Ratio (x) = 0.13827 0.27973
# Poissons Ratio (y) = 0.30546 0.35405
# Poissons Ratio (z) = 0.59958 0.34351
#
# Static dielectric constant tensor:
#      x y z
#    x 1.848070 0.000000 0.014570 
#    y 0.000000 1.891370 -0.000010 
#    z 0.014570 -0.000010 2.250970 
# 
# From -- ./inp_files/265289.got.cif
#   From: 2010.05.17/outbox.cif.g08.bks.cpg/sg12_133_cif.got.tgz:265289.got - 2010.06.03 13:09:07.
