data_PCOD9205437
_publ_section_title
;
Structure prediction by ZEFSAII (Michael W. Deem and Ramdas Pophale) SiO2 
 PCOD9205437
Probable space group: C 2/M
;
_chemical_formula_sum "Si O2"
_cell_formula_units_Z 42
_cell_length_a 7.697763
_cell_length_b 33.945826
_cell_length_c 8.016068
_cell_angle_alpha 90.000000
_cell_angle_beta 67.829469
_cell_angle_gamma 90.000000
_cell_volume 1939.785394
_symmetry_space_group_name_H-M "C 2/M"
_symmetry_group_IT_number 12
_symmetry_cell_setting 'monoclinic'
loop_
_space_group_symop_operation_xyz
x,y,z
-x,y,-z
-x,-y,-z
x,-y,z
1/2+x,1/2+y,z
1/2-x,1/2+y,-z
1/2-x,1/2-y,-z
1/2+x,1/2-y,z
loop_
_atom_site_type_symbol
_atom_site_label
_atom_site_fract_x
_atom_site_fract_y
_atom_site_fract_z
Si Si1 0.310138 0.564297 0.997003
Si Si2 0.500000 0.000000 0.000000
Si Si3 0.938555 0.706451 0.827068
Si Si4 0.160163 0.216400 0.308805
Si Si5 0.444996 0.876563 0.712861
Si Si6 0.361601 0.629193 0.709390
O O1 0.163888 0.534256 0.967909
O O2 0.188131 0.588494 0.177851
O O3 0.500000 0.545445 0.000000
O O4 0.389658 0.596651 0.838438
O O5 0.143766 0.710224 0.668122
O O6 0.854029 0.665555 0.794885
O O7 0.831075 0.745285 0.809596
O O8 0.000000 0.704764 0.000000
O O9 0.118256 0.174423 0.236600
O O10 0.000000 0.222080 0.500000
O O11 0.500000 0.878650 0.500000
O O12 0.644156 0.876755 0.736533
O O13 0.500000 0.624740 0.500000
#
# Coordination Sequence:
#
# PCOD9205437 Si02
#       6
#     8   2   8   8   8   8
#     4  12  25  46  77 104 135 180 218 271 350 406
#     4  12  26  52  76 102 148 162 218 284 332 418
#     4  11  22  36  56  87 130 178 226 284 333 380
#     4  10  21  35  55  85 129 174 224 278 331 383
#     4  11  22  41  66  96 136 182 230 282 335 401
#     4  10  21  41  66  99 138 179 228 285 333 403
#
# _framework density 21.651879999999998
#
# number of rings (size 3 to 8) (size 9 to 14) (size 15 to 20)
#    0.000    1.143    1.905    5.429    0.000    5.333 
#    0.000    0.952    0.000    0.000    0.000    0.000 
#    0.000    0.000    0.000    0.000    0.000    0.000 
#
# Total GULP energy -117055.228151 kJ/mol
# GULP energy per Si atom -5574.058483 kJ/mol
# Density = 2.160260 g / cm^3
# Si number density = 21.651880 Si / 1000 Ang^3
#
#
#
# Elastic Constant Matrix: (Units=GPa)
#
#
# Indices 1 2 3 4 5 6 
#
# 1 78.2333 23.1893 -9.0548 0.0000 -22.7550 0.0000
# 2 23.1893 151.3528 36.4634 0.0000 1.1583 0.0000
# 3 -9.0548 36.4634 82.8538 0.0000 -13.4093 0.0000
# 4 0.0000 0.0000 0.0000 -9.3846 0.0000 -6.7676
# 5 -22.7550 1.1583 -13.4093 0.0000 29.4508 0.0000
# 6 0.0000 0.0000 0.0000 -6.7676 0.0000 25.9734
#
#
#
# Elastic Compliance Matrix: (Units=1/GPa)
#
#
# Indices 1 2 3 4 5 6 
#
# 1 0.021114 -0.005290 0.007891 0.000000 0.020115 0.000000
# 2 -0.005290 0.008817 -0.005588 0.000000 -0.006978 0.000000
# 3 0.007891 -0.005588 0.017719 0.000000 0.014384 0.000000
# 4 0.000000 0.000000 0.000000 -0.089703 0.000000 -0.023373
# 5 0.020115 -0.006978 0.014384 0.000000 0.056320 0.000000
# 6 0.000000 0.000000 0.000000 -0.023373 0.000000 0.032411
#
#
# Mechanical properties :
#
#
# Convention : Reuss Voigt Hill
#
# Bulk Modulus (GPa) = 23.99433 45.95952 34.97692
# Shear Modulus (GPa) = 75.13773 26.66407 50.90090
#
# Velocity S-wave (km/s) = 5.89729 3.51307 4.85384
# Velocity P-wave (km/s) = 7.58133 6.14233 6.89945
#
# Compressibility (1/GPa) = 0.04167652
#
# Stress axis : x y z
#
# Youngs Moduli (GPa) = 47.36172 113.41493 56.43659
#
# Poissons Ratio (x) = 0.59996 -0.44534
# Poissons Ratio (y) = 0.25054 0.31536
# Poissons Ratio (z) = -0.37373 0.63375
#
# Static dielectric constant tensor:
#      x y z
#    x 1.860050 0.000000 -0.008290 
#    y 0.000000 1.783590 0.000000 
#    z -0.008290 0.000000 1.866440 
# 
# From -- ./inp_files/42101.got.cif
#   From: 2010.05.17/outbox.cif.g08.bks.cpg/sg12_22_cif.got.tgz:42101.got - 2010.06.03 13:09:07.
