data_PCOD9205159
_publ_section_title
;
Structure prediction by ZEFSAII (Michael W. Deem and Ramdas Pophale) SiO2 
 PCOD9205159
Probable space group: C 2/M
;
_chemical_formula_sum "Si O2"
_cell_formula_units_Z 64
_cell_length_a 16.450681
_cell_length_b 7.487134
_cell_length_c 19.608118
_cell_angle_alpha 90.000000
_cell_angle_beta 97.252157
_cell_angle_gamma 90.000000
_cell_volume 2395.781227
_symmetry_space_group_name_H-M "C 2/M"
_symmetry_group_IT_number 12
_symmetry_cell_setting 'monoclinic'
loop_
_space_group_symop_operation_xyz
x,y,z
-x,y,-z
-x,-y,-z
x,-y,z
1/2+x,1/2+y,z
1/2-x,1/2+y,-z
1/2-x,1/2-y,-z
1/2+x,1/2-y,z
loop_
_atom_site_type_symbol
_atom_site_label
_atom_site_fract_x
_atom_site_fract_y
_atom_site_fract_z
Si Si1 0.074678 0.216620 0.460210
Si Si2 0.910077 0.213753 0.919536
Si Si3 0.626094 0.216982 0.710389
Si Si4 0.752701 0.706028 0.169266
Si Si5 0.303184 0.707332 0.418458
Si Si6 0.978640 0.714546 0.789924
Si Si7 0.837852 0.212049 0.046078
Si Si8 0.644050 0.207383 0.330157
O O1 0.156822 0.280125 0.508625
O O2 0.076571 0.284108 0.383439
O O3 0.000000 0.274173 0.500000
O O4 0.074517 0.000000 0.458317
O O5 0.828176 0.287909 0.873057
O O6 0.979149 0.240669 0.869891
O O7 0.904216 0.278320 0.997177
O O8 0.902582 0.000000 0.926309
O O9 0.708661 0.280642 0.757985
O O10 0.628198 0.283178 0.633697
O O11 0.552717 0.278898 0.750885
O O12 0.625709 0.000000 0.709262
O O13 0.733483 0.500000 0.179820
O O14 0.824260 0.708471 0.119220
O O15 0.285421 0.500000 0.429591
O O16 0.223734 0.792314 0.374233
O O17 0.978360 0.500000 0.785876
O O18 0.896613 0.782465 0.742515
O O19 0.847305 0.000000 0.056509
O O20 0.750000 0.250000 0.000000
O O21 0.662115 0.000000 0.318800
#
# Coordination Sequence:
#
# PCOD9205159 Si02
#       8
#     8   8   8   8   8   8   8   8
#     4  10  21  36  54  78 107 138 172 209 253 307
#     4   9  18  32  51  75 100 129 167 208 250 300
#     4  10  21  36  53  75 103 135 172 212 256 307
#     4   9  18  33  52  75 102 132 171 214 253 302
#     4  10  21  36  54  78 105 133 171 216 257 303
#     4  10  21  35  51  74 103 134 169 210 257 308
#     4   9  17  30  50  77 105 133 170 213 256 304
#     4  10  21  36  54  78 105 133 171 214 254 303
#
# _framework density 26.713623999999999
#
# number of rings (size 3 to 8) (size 9 to 14) (size 15 to 20)
#    0.000    2.375    0.000    3.000    0.000    5.250 
#    0.000    0.625    0.000    3.750    0.000    0.000 
#    0.000    0.000    0.000    0.000    0.000    0.000 
#
# Total GULP energy -178983.608512 kJ/mol
# GULP energy per Si atom -5593.237766 kJ/mol
# Density = 2.665282 g / cm^3
# Si number density = 26.713624 Si / 1000 Ang^3
#
#
#
# Elastic Constant Matrix: (Units=GPa)
#
#
# Indices 1 2 3 4 5 6 
#
# 1 78.2786 6.2694 18.8956 0.0000 -16.3632 0.0000
# 2 6.2694 99.7201 -1.2532 0.0000 -0.8594 0.0000
# 3 18.8956 -1.2532 174.0415 0.0000 -14.2861 0.0000
# 4 0.0000 0.0000 0.0000 20.6109 0.0000 -17.3694
# 5 -16.3632 -0.8594 -14.2861 0.0000 56.2778 0.0000
# 6 0.0000 0.0000 0.0000 -17.3694 0.0000 15.0680
#
#
#
# Elastic Compliance Matrix: (Units=1/GPa)
#
#
# Indices 1 2 3 4 5 6 
#
# 1 0.013915 -0.000858 -0.001211 0.000000 0.003725 0.000000
# 2 -0.000858 0.010084 0.000161 0.000000 -0.000055 0.000000
# 3 -0.001211 0.000161 0.005974 0.000000 0.001167 0.000000
# 4 0.000000 0.000000 0.000000 1.698435 0.000000 1.957834
# 5 0.003725 -0.000055 0.001167 0.000000 0.019147 0.000000
# 6 0.000000 0.000000 0.000000 1.957834 0.000000 2.323215
#
#
# Mechanical properties :
#
#
# Convention : Reuss Voigt Hill
#
# Bulk Modulus (GPa) = 38.23082 44.42931 41.33007
# Shear Modulus (GPa) = 1.22450 40.26659 20.74554
#
# Velocity S-wave (km/s) = 0.67777 3.88666 2.78976
# Velocity P-wave (km/s) = 3.86716 6.06707 5.08745
#
# Compressibility (1/GPa) = 0.02615691
#
# Stress axis : x y z
#
# Youngs Moduli (GPa) = 71.86665 99.17127 167.38678
#
# Poissons Ratio (x) = 0.08508 0.20272
# Poissons Ratio (y) = 0.06166 -0.02700
# Poissons Ratio (z) = 0.08704 -0.01599
#
# Static dielectric constant tensor:
#      x y z
#    x 2.281850 0.000000 -0.025990 
#    y 0.000000 2.004720 0.000000 
#    z -0.025990 0.000000 2.039110 
# 
# From -- ./inp_files/314183.got.cif
#   From: 2010.05.17/outbox.cif.g08.bks.cpg/sg12_158_cif.got.tgz:314183.got - 2010.06.03 13:09:07.
