data_PCOD9205766
_publ_section_title
;
Structure prediction by ZEFSAII (Michael W. Deem and Ramdas Pophale) SiO2 
 PCOD9205766
Probable space group: C 2/M
;
_chemical_formula_sum "Si O2"
_cell_formula_units_Z 48
_cell_length_a 21.831734
_cell_length_b 15.080236
_cell_length_c 13.483694
_cell_angle_alpha 90.000000
_cell_angle_beta 36.799017
_cell_angle_gamma 90.000000
_cell_volume 2659.127914
_symmetry_space_group_name_H-M "C 2/M"
_symmetry_group_IT_number 12
_symmetry_cell_setting 'monoclinic'
loop_
_space_group_symop_operation_xyz
x,y,z
-x,y,-z
-x,-y,-z
x,-y,z
1/2+x,1/2+y,z
1/2-x,1/2+y,-z
1/2-x,1/2-y,-z
1/2+x,1/2-y,z
loop_
_atom_site_type_symbol
_atom_site_label
_atom_site_fract_x
_atom_site_fract_y
_atom_site_fract_z
Si Si1 0.386776 0.893434 0.610228
Si Si2 0.739128 0.605956 0.640904
Si Si3 0.896577 0.892866 0.355368
Si Si4 0.611693 0.603243 0.403995
Si Si5 0.931544 0.802240 0.001538
Si Si6 0.751554 0.752566 0.880899
O O1 0.500000 0.868406 0.500000
O O2 0.347897 0.868765 0.549073
O O3 0.306970 0.839149 0.778998
O O4 0.377876 0.000000 0.632370
O O5 0.738559 0.500000 0.639202
O O6 0.703830 0.635847 0.577506
O O7 0.648366 0.636825 0.832700
O O8 0.892823 0.866808 0.475206
O O9 0.903462 0.000000 0.344946
O O10 0.993177 0.855332 0.169341
O O11 0.500000 0.607458 0.500000
O O12 0.644969 0.500000 0.358539
O O13 0.683648 0.667193 0.248214
O O14 0.859409 0.743204 0.026313
O O15 0.000000 0.758850 0.000000
O O16 0.750000 0.750000 0.000000
#
# Coordination Sequence:
#
# PCOD9205766 Si02
#       6
#     8   8   8   8   8   8
#     4   9  18  33  52  75 102 129 161 202 246 295
#     4   8  14  26  47  75 103 130 162 201 245 292
#     4   9  16  29  51  76 101 129 162 205 253 295
#     4  10  21  36  53  74 100 130 167 209 251 295
#     4   9  17  30  48  74 102 130 164 202 246 295
#     4  11  22  35  52  73 100 133 168 207 249 296
#
# _framework density 18.051030999999998
#
# number of rings (size 3 to 8) (size 9 to 14) (size 15 to 20)
#    0.000    2.667    0.000    2.000    0.000    3.333 
#    0.000    9.167    0.000    0.500    0.000    0.000 
#    0.000    0.000    0.000    0.000    0.000    0.000 
#
# Total GULP energy -133604.287713 kJ/mol
# GULP energy per Si atom -5566.845321 kJ/mol
# Density = 1.800995 g / cm^3
# Si number density = 18.051031 Si / 1000 Ang^3
#
#
#
# Elastic Constant Matrix: (Units=GPa)
#
#
# Indices 1 2 3 4 5 6 
#
# 1 200.4592 35.2944 72.3393 0.0000 10.5800 0.0000
# 2 35.2944 34.5530 22.4213 0.0000 2.7525 0.0000
# 3 72.3393 22.4213 63.4422 0.0000 17.6306 0.0000
# 4 0.0000 0.0000 0.0000 -27.6028 0.0000 16.5694
# 5 10.5800 2.7525 17.6306 0.0000 38.3824 0.0000
# 6 0.0000 0.0000 0.0000 16.5694 0.0000 11.2316
#
#
#
# Elastic Compliance Matrix: (Units=1/GPa)
#
#
# Indices 1 2 3 4 5 6 
#
# 1 0.008900 -0.002961 -0.009720 0.000000 0.002224 0.000000
# 2 -0.002961 0.039055 -0.011320 0.000000 0.003215 0.000000
# 3 -0.009720 -0.011320 0.034247 0.000000 -0.012240 0.000000
# 4 0.000000 0.000000 0.000000 -0.019213 0.000000 0.028345
# 5 0.002224 0.003215 -0.012240 0.000000 0.030832 0.000000
# 6 0.000000 0.000000 0.000000 0.028345 0.000000 0.047219
#
#
# Mechanical properties :
#
#
# Convention : Reuss Voigt Hill
#
# Bulk Modulus (GPa) = 29.23867 62.06272 45.65069
# Shear Modulus (GPa) = 24.94496 15.62886 20.28691
#
# Velocity S-wave (km/s) = 3.72144 2.94567 3.35605
# Velocity P-wave (km/s) = 5.89054 6.78423 6.35312
#
# Compressibility (1/GPa) = 0.03420128
#
# Stress axis : x y z
#
# Youngs Moduli (GPa) = 112.35900 25.60503 29.19955
#
# Poissons Ratio (x) = 0.07582 0.28381
# Poissons Ratio (y) = 0.33271 0.33053
# Poissons Ratio (z) = 1.09209 0.28984
#
# Static dielectric constant tensor:
#      x y z
#    x 1.697480 0.000000 -0.001380 
#    y 0.000000 1.606340 0.000000 
#    z -0.001380 0.000000 1.590900 
# 
# From -- ./inp_files/167519.got.cif
#   From: 2010.05.17/outbox.cif.g08.bks.cpg/sg12_84_cif.got.tgz:167519.got - 2010.06.03 13:09:07.
