data_PCOD9205116
_publ_section_title
;
Structure prediction by ZEFSAII (Michael W. Deem and Ramdas Pophale) SiO2 
 PCOD9205116
Probable space group: C 2/M
;
_chemical_formula_sum "Si O2"
_cell_formula_units_Z 40
_cell_length_a 30.685413
_cell_length_b 10.919689
_cell_length_c 21.488098
_cell_angle_alpha 90.000000
_cell_angle_beta 164.840984
_cell_angle_gamma 90.000000
_cell_volume 1882.825052
_symmetry_space_group_name_H-M "C 2/M"
_symmetry_group_IT_number 12
_symmetry_cell_setting 'monoclinic'
loop_
_space_group_symop_operation_xyz
x,y,z
-x,y,-z
-x,-y,-z
x,-y,z
1/2+x,1/2+y,z
1/2-x,1/2+y,-z
1/2-x,1/2-y,-z
1/2+x,1/2-y,z
loop_
_atom_site_type_symbol
_atom_site_label
_atom_site_fract_x
_atom_site_fract_y
_atom_site_fract_z
Si Si1 0.233623 0.139126 0.653398
Si Si2 0.241389 0.131134 0.030143
Si Si3 0.572831 0.214923 0.538450
Si Si4 0.078360 0.356998 0.207657
Si Si5 0.565497 0.638660 0.914995
O O1 0.107028 0.208154 0.523435
O O2 0.283218 0.181333 0.652549
O O3 0.180240 0.000000 0.573028
O O4 0.406028 0.139170 0.930668
O O5 0.420385 0.127714 0.311462
O O6 0.104130 0.146703 0.894931
O O7 0.218047 0.000000 0.965584
O O8 0.250000 0.250000 0.000000
O O9 0.500000 0.282941 0.500000
O O10 0.750679 0.155616 0.800401
O O11 0.106359 0.500000 0.266657
O O12 0.046690 0.250087 0.214119
O O13 0.505522 0.500000 0.846344
#
# Coordination Sequence:
#
# PCOD9205116 Si02
#       5
#     8   8   8   8   8
#     4   8  14  25  42  68 101 129 154 191 238 283
#     4  10  21  35  50  70  98 129 159 196 241 286
#     4   9  17  30  49  72  97 126 160 197 238 283
#     4   8  14  26  44  68  99 129 155 190 237 283
#     4   9  17  31  51  73  97 125 159 198 237 280
#
# _framework density 21.244672000000001
#
# number of rings (size 3 to 8) (size 9 to 14) (size 15 to 20)
#    0.000    3.200    0.000    1.800    0.000    4.400 
#    0.000   13.000    0.000    1.200    0.000    0.000 
#    0.000    0.000    0.000    0.000    0.000    0.000 
#
# Total GULP energy -111448.189145 kJ/mol
# GULP energy per Si atom -5572.409457 kJ/mol
# Density = 2.119632 g / cm^3
# Si number density = 21.244672 Si / 1000 Ang^3
#
#
#
# Elastic Constant Matrix: (Units=GPa)
#
#
# Indices 1 2 3 4 5 6 
#
# 1 128.2241 114.9293 29.2137 0.0000 31.6354 0.0000
# 2 114.9293 168.0137 23.9404 0.0000 28.7812 0.0000
# 3 29.2137 23.9404 100.5066 0.0000 15.1612 0.0000
# 4 0.0000 0.0000 0.0000 -0.1053 0.0000 0.8368
# 5 31.6354 28.7812 15.1612 0.0000 40.2588 0.0000
# 6 0.0000 0.0000 0.0000 0.8368 0.0000 31.8918
#
#
#
# Elastic Compliance Matrix: (Units=1/GPa)
#
#
# Indices 1 2 3 4 5 6 
#
# 1 0.022380 -0.013819 -0.002174 -0.000001 -0.006888 0.000000
# 2 -0.013819 0.015400 0.000394 -0.000001 -0.000299 0.000000
# 3 -0.002174 0.000394 0.010891 0.000003 -0.002674 0.000000
# 4 -0.000001 -0.000001 0.000003 -7.856865 0.000006 0.206151
# 5 -0.006888 -0.000299 -0.002674 0.000006 0.031472 0.000000
# 6 0.000000 0.000000 0.000000 0.206151 0.000000 0.025947
#
#
# Mechanical properties :
#
#
# Convention : Reuss Voigt Hill
#
# Bulk Modulus (GPa) = 57.23694 81.43459 69.33576
# Shear Modulus (GPa) = -0.64819 29.65311 14.50246
#
# Velocity S-wave (km/s) = -0.55297 3.74008 2.61557
# Velocity P-wave (km/s) = 5.15680 7.55420 6.46755
#
# Compressibility (1/GPa) = 0.01747123
#
# Stress axis : x y z
#
# Youngs Moduli (GPa) = 44.68262 64.93511 91.81665
#
# Poissons Ratio (x) = 0.89736 0.19964
# Poissons Ratio (y) = 0.61748 -0.03614
# Poissons Ratio (z) = 0.09716 -0.02556
#
# Static dielectric constant tensor:
#      x y z
#    x 1.777150 0.000000 -0.016120 
#    y 0.000000 1.740170 0.000000 
#    z -0.016120 0.000000 1.869500 
# 
# From -- ./inp_files/71337.got.cif
#   From: 2010.05.17/outbox.cif.g08.bks.cpg/sg12_36_cif.got.tgz:71337.got - 2010.06.03 13:09:07.
