data_PCOD9205195
_publ_section_title
;
Structure prediction by ZEFSAII (Michael W. Deem and Ramdas Pophale) SiO2 
 PCOD9205195
Probable space group: C 2/M
;
_chemical_formula_sum "Si O2"
_cell_formula_units_Z 58
_cell_length_a 14.986369
_cell_length_b 8.235816
_cell_length_c 20.047224
_cell_angle_alpha 90.000000
_cell_angle_beta 87.109638
_cell_angle_gamma 90.000000
_cell_volume 2471.180465
_symmetry_space_group_name_H-M "C 2/M"
_symmetry_group_IT_number 12
_symmetry_cell_setting 'monoclinic'
loop_
_space_group_symop_operation_xyz
x,y,z
-x,y,-z
-x,-y,-z
x,-y,z
1/2+x,1/2+y,z
1/2-x,1/2+y,-z
1/2-x,1/2-y,-z
1/2+x,1/2-y,z
loop_
_atom_site_type_symbol
_atom_site_label
_atom_site_fract_x
_atom_site_fract_y
_atom_site_fract_z
Si Si1 0.667153 0.320616 0.543099
Si Si2 0.713279 0.685268 0.762334
Si Si3 0.920583 0.692380 0.047844
Si Si4 0.570606 0.813576 0.669732
Si Si5 0.737852 0.690905 0.096641
Si Si6 0.000000 0.000000 0.500000
Si Si7 0.389514 0.690048 0.707435
Si Si8 0.450190 0.694809 0.856793
O O1 0.690972 0.500000 0.571223
O O2 0.750000 0.250000 0.500000
O O3 0.633827 0.207298 0.603732
O O4 0.579948 0.361423 0.502363
O O5 0.713011 0.500000 0.785354
O O6 0.622601 0.724662 0.727528
O O7 0.732824 0.792973 0.826747
O O8 0.796564 0.715385 0.708998
O O9 0.914305 0.500000 0.034362
O O10 0.820563 0.762868 0.051801
O O11 0.962390 0.718733 0.119545
O O12 0.000000 0.765993 0.000000
O O13 0.473749 0.735912 0.659094
O O14 0.557861 0.000000 0.688008
O O15 0.731092 0.500000 0.081773
O O16 0.637436 0.758672 0.099442
O O17 0.369959 0.500000 0.700712
O O18 0.427639 0.722077 0.780616
O O19 0.458922 0.500000 0.865463
#
# Coordination Sequence:
#
# PCOD9205195 Si02
#       8
#     8   8   8   8   8   2   8   8
#     4  10  22  45  69  97 131 175 225 270 326 384
#     4  11  22  37  59  91 122 159 200 248 308 373
#     4  10  21  35  52  76 105 143 194 247 300 358
#     4  12  24  39  62  95 130 164 208 255 306 368
#     4   9  19  37  56  76 112 153 191 237 306 374
#     4   8  24  44  74  94 132 176 214 280 326 370
#     4  10  21  39  60  88 126 159 198 249 311 378
#     4   9  19  35  55  77 107 150 189 237 302 366
#
# _framework density 23.470562999999999
#
# number of rings (size 3 to 8) (size 9 to 14) (size 15 to 20)
#    0.414    1.517    0.000    4.966    0.000    7.448 
#    0.000    2.759    0.000    0.000    0.000    0.000 
#    0.000    0.000    0.000    0.000    0.000    0.000 
#
# Total GULP energy -161752.830430 kJ/mol
# GULP energy per Si atom -5577.683808 kJ/mol
# Density = 2.341714 g / cm^3
# Si number density = 23.470563 Si / 1000 Ang^3
#
#
#
# Elastic Constant Matrix: (Units=GPa)
#
#
# Indices 1 2 3 4 5 6 
#
# 1 159.8386 3.8629 20.4463 0.0000 -17.9143 0.0000
# 2 3.8629 52.7424 -7.7641 0.0000 4.9417 0.0000
# 3 20.4463 -7.7641 46.8604 0.0000 -20.3124 0.0000
# 4 0.0000 0.0000 0.0000 20.3146 0.0000 1.5912
# 5 -17.9143 4.9417 -20.3124 0.0000 35.7756 0.0000
# 6 0.0000 0.0000 0.0000 1.5912 0.0000 29.4867
#
#
#
# Elastic Compliance Matrix: (Units=1/GPa)
#
#
# Indices 1 2 3 4 5 6 
#
# 1 0.006817 -0.001032 -0.002128 0.000000 0.002348 0.000000
# 2 -0.001032 0.019625 0.003055 0.000000 -0.001493 0.000000
# 3 -0.002128 0.003055 0.029354 0.000000 0.015179 0.000000
# 4 0.000000 0.000000 0.000000 0.049435 0.000000 -0.002668
# 5 0.002348 -0.001493 0.015179 0.000000 0.037952 0.000000
# 6 0.000000 0.000000 0.000000 -0.002668 0.000000 0.034058
#
#
# Mechanical properties :
#
#
# Convention : Reuss Voigt Hill
#
# Bulk Modulus (GPa) = 17.99029 32.50353 25.24691
# Shear Modulus (GPa) = 25.51289 33.30846 29.41068
#
# Velocity S-wave (km/s) = 3.30057 3.77126 3.54374
# Velocity P-wave (km/s) = 4.71240 5.73079 5.24636
#
# Compressibility (1/GPa) = 0.05558555
#
# Stress axis : x y z
#
# Youngs Moduli (GPa) = 146.70137 50.95460 34.06683
#
# Poissons Ratio (x) = 0.05261 0.07248
# Poissons Ratio (y) = 0.15146 -0.10407
# Poissons Ratio (z) = 0.31211 -0.15565
#
# Static dielectric constant tensor:
#      x y z
#    x 1.867500 0.000000 -0.023160 
#    y 0.000000 1.828820 0.000000 
#    z -0.023160 0.000000 1.974300 
# 
# From -- ./inp_files/337970.got.cif
#   From: 2010.05.17/outbox.cif.g08.bks.cpg/sg12_169_cif.got.tgz:337970.got - 2010.06.03 13:09:07.
