data_PCOD9205167
_publ_section_title
;
Structure prediction by ZEFSAII (Michael W. Deem and Ramdas Pophale) SiO2 
 PCOD9205167
Probable space group: C 2/M
;
_chemical_formula_sum "Si O2"
_cell_formula_units_Z 48
_cell_length_a 10.889935
_cell_length_b 26.129068
_cell_length_c 7.793590
_cell_angle_alpha 90.000000
_cell_angle_beta 97.043267
_cell_angle_gamma 90.000000
_cell_volume 2200.883617
_symmetry_space_group_name_H-M "C 2/M"
_symmetry_group_IT_number 12
_symmetry_cell_setting 'monoclinic'
loop_
_space_group_symop_operation_xyz
x,y,z
-x,y,-z
-x,-y,-z
x,-y,z
1/2+x,1/2+y,z
1/2-x,1/2+y,-z
1/2-x,1/2-y,-z
1/2+x,1/2-y,z
loop_
_atom_site_type_symbol
_atom_site_label
_atom_site_fract_x
_atom_site_fract_y
_atom_site_fract_z
Si Si1 0.628534 0.358811 0.101956
Si Si2 0.130713 0.441823 0.562252
Si Si3 0.616191 0.105423 0.906410
Si Si4 0.017102 0.707580 0.710551
Si Si5 0.729923 0.742095 0.293704
Si Si6 0.891712 0.938379 0.612237
O O1 0.747152 0.376533 0.006418
O O2 0.682200 0.314454 0.235050
O O3 0.591139 0.407644 0.210531
O O4 0.500000 0.340615 0.000000
O O5 0.124152 0.500000 0.498314
O O6 0.143315 0.437657 0.768825
O O7 0.258662 0.420061 0.514604
O O8 0.000000 0.416780 0.500000
O O9 0.562317 0.154558 0.796516
O O10 0.500000 0.088420 0.000000
O O11 0.885999 0.722128 0.771769
O O12 0.000000 0.705357 0.500000
O O13 0.132564 0.746620 0.762669
O O14 0.750000 0.750000 0.500000
O O15 0.000000 0.927040 0.500000
O O16 0.885765 0.000000 0.636591
#
# Coordination Sequence:
#
# PCOD9205167 Si02
#       6
#     8   8   8   8   8   8
#     4  10  22  38  55  82 116 147 183 232 284 334
#     4   9  18  34  55  78 105 137 178 227 271 319
#     4  10  21  35  51  75 108 144 177 215 271 329
#     4   9  18  34  54  75 100 133 177 223 266 315
#     4   9  19  35  55  78 104 139 182 224 270 324
#     4   9  19  36  58  84 112 145 186 230 278 334
#
# _framework density 21.809422999999999
#
# number of rings (size 3 to 8) (size 9 to 14) (size 15 to 20)
#    0.000    2.667    0.000    0.500    0.000    7.333 
#    0.000    3.333    0.000    0.000    0.000    0.000 
#    0.000    0.000    0.000    0.000    0.000    0.000 
#
# Total GULP energy -133605.400656 kJ/mol
# GULP energy per Si atom -5566.891694 kJ/mol
# Density = 2.175978 g / cm^3
# Si number density = 21.809423 Si / 1000 Ang^3
#
#
#
# Elastic Constant Matrix: (Units=GPa)
#
#
# Indices 1 2 3 4 5 6 
#
# 1 194.6731 19.5672 43.4211 0.0000 0.5032 0.0000
# 2 19.5672 29.1358 0.5401 0.0000 1.6007 0.0000
# 3 43.4211 0.5401 24.4235 0.0000 -5.8338 0.0000
# 4 0.0000 0.0000 0.0000 18.5068 0.0000 -11.9039
# 5 0.5032 1.6007 -5.8338 0.0000 32.4001 0.0000
# 6 0.0000 0.0000 0.0000 -11.9039 0.0000 -23.4265
#
#
#
# Elastic Compliance Matrix: (Units=1/GPa)
#
#
# Indices 1 2 3 4 5 6 
#
# 1 0.009756 -0.006050 -0.017948 0.000000 -0.003084 0.000000
# 2 -0.006050 0.038202 0.009909 0.000000 -0.000009 0.000000
# 3 -0.017948 0.009909 0.075845 0.000000 0.013445 0.000000
# 4 0.000000 0.000000 0.000000 0.040724 0.000000 -0.020693
# 5 -0.003084 -0.000009 0.013445 0.000000 0.033333 0.000000
# 6 0.000000 0.000000 0.000000 -0.020693 0.000000 -0.032172
#
#
# Mechanical properties :
#
#
# Convention : Reuss Voigt Hill
#
# Bulk Modulus (GPa) = 10.45753 41.69880 26.07816
# Shear Modulus (GPa) = 22.14930 17.80966 19.97948
#
# Velocity S-wave (km/s) = 3.19028 2.86073 3.02999
# Velocity P-wave (km/s) = 4.28671 5.48387 4.92182
#
# Compressibility (1/GPa) = 0.09562491
#
# Stress axis : x y z
#
# Youngs Moduli (GPa) = 102.50087 26.17672 13.18486
#
# Poissons Ratio (x) = 0.15837 0.23664
# Poissons Ratio (y) = 0.62011 -0.13064
# Poissons Ratio (z) = 1.83964 -0.25938
#
# Static dielectric constant tensor:
#      x y z
#    x 1.903410 0.000000 0.007620 
#    y 0.000000 1.779890 0.000000 
#    z 0.007620 0.000000 1.823430 
# 
# From -- ./inp_files/42155.got.cif
#   From: 2010.05.17/outbox.cif.g08.bks.cpg/sg12_22_cif.got.tgz:42155.got - 2010.06.03 13:09:07.
