data_PCOD9205678
_publ_section_title
;
Structure prediction by ZEFSAII (Michael W. Deem and Ramdas Pophale) SiO2 
 PCOD9205678
Probable space group: C 2/M
;
_chemical_formula_sum "Si O2"
_cell_formula_units_Z 42
_cell_length_a 9.752826
_cell_length_b 20.268104
_cell_length_c 11.241023
_cell_angle_alpha 90.000000
_cell_angle_beta 77.551379
_cell_angle_gamma 90.000000
_cell_volume 2169.787009
_symmetry_space_group_name_H-M "C 2/M"
_symmetry_group_IT_number 12
_symmetry_cell_setting 'monoclinic'
loop_
_space_group_symop_operation_xyz
x,y,z
-x,y,-z
-x,-y,-z
x,-y,z
1/2+x,1/2+y,z
1/2-x,1/2+y,-z
1/2-x,1/2-y,-z
1/2+x,1/2-y,z
loop_
_atom_site_type_symbol
_atom_site_label
_atom_site_fract_x
_atom_site_fract_y
_atom_site_fract_z
Si Si1 0.272240 0.623547 0.248819
Si Si2 0.416932 0.000000 0.743872
Si Si3 0.655439 0.685636 0.008353
Si Si4 0.778459 0.500000 0.256867
Si Si5 0.087953 0.126355 0.274551
Si Si6 0.500000 0.000000 0.000000
Si Si7 0.359189 0.757910 0.585284
O O1 0.164672 0.564160 0.285831
O O2 0.422909 0.611609 0.283394
O O3 0.206366 0.691286 0.309477
O O4 0.296201 0.636218 0.104099
O O5 0.583262 0.000000 0.685223
O O6 0.413775 0.000000 0.889511
O O7 0.646657 0.650422 0.136262
O O8 0.500000 0.708038 0.000000
O O9 0.750000 0.750000 0.000000
O O10 0.680826 0.563799 0.293408
O O11 0.851473 0.500000 0.111291
O O12 0.105745 0.188000 0.360029
O O13 0.500000 0.785422 0.500000
O O14 0.250000 0.750000 0.500000
#
# Coordination Sequence:
#
# PCOD9205678 Si02
#       7
#     8   4   8   4   8   2   8
#     4  11  23  43  65  97 131 173 217 269 327 398
#     4  10  23  39  65  94 134 173 212 260 328 393
#     4  10  21  35  61  96 129 163 208 261 321 394
#     4  10  23  39  65  93 134 170 211 263 317 398
#     4  11  23  43  65  97 130 174 218 264 332 391
#     4   8  20  40  58 106 132 178 202 260 332 390
#     4  12  26  44  68  95 128 175 225 281 331 382
#
# _framework density 19.356738
#
# number of rings (size 3 to 8) (size 9 to 14) (size 15 to 20)
#    0.571    0.762    3.810    1.714    2.667    1.524 
#    0.000    5.714    0.000    0.000    0.000    0.000 
#    0.000    0.000    0.000    0.000    0.000    0.000 
#
# Total GULP energy -116960.834147 kJ/mol
# GULP energy per Si atom -5569.563531 kJ/mol
# Density = 1.931268 g / cm^3
# Si number density = 19.356738 Si / 1000 Ang^3
#
#
#
# Elastic Constant Matrix: (Units=GPa)
#
#
# Indices 1 2 3 4 5 6 
#
# 1 149.0592 80.1420 21.1135 0.0000 -4.4024 0.0000
# 2 80.1420 116.9989 6.4215 0.0000 0.1526 0.0000
# 3 21.1135 6.4215 53.4011 0.0000 2.3393 0.0000
# 4 0.0000 0.0000 0.0000 -6.8914 0.0000 2.1244
# 5 -4.4024 0.1526 2.3393 0.0000 33.6597 0.0000
# 6 0.0000 0.0000 0.0000 2.1244 0.0000 17.4036
#
#
#
# Elastic Compliance Matrix: (Units=1/GPa)
#
#
# Indices 1 2 3 4 5 6 
#
# 1 0.011354 -0.007579 -0.003655 0.000000 0.001773 0.000000
# 2 -0.007579 0.013663 0.001404 0.000000 -0.001151 0.000000
# 3 -0.003655 0.001404 0.020085 0.000000 -0.001880 0.000000
# 4 0.000000 0.000000 0.000000 -0.139847 0.000000 0.017071
# 5 0.001773 -0.001151 -0.001880 0.000000 0.030077 0.000000
# 6 0.000000 0.000000 0.000000 0.017071 0.000000 0.055376
#
#
# Mechanical properties :
#
#
# Convention : Reuss Voigt Hill
#
# Bulk Modulus (GPa) = 39.30635 59.42370 49.36502
# Shear Modulus (GPa) = 265.28541 22.95320 144.11930
#
# Velocity S-wave (km/s) = 11.71956 3.44728 8.63805
# Velocity P-wave (km/s) = 14.26469 6.82721 11.18240
#
# Compressibility (1/GPa) = 0.02544118
#
# Stress axis : x y z
#
# Youngs Moduli (GPa) = 88.07818 73.19155 49.78848
#
# Poissons Ratio (x) = 0.55469 0.18199
# Poissons Ratio (y) = 0.66751 -0.06990
# Poissons Ratio (z) = 0.32195 -0.10275
#
# Static dielectric constant tensor:
#      x y z
#    x 1.662330 0.000000 -0.010460 
#    y 0.000000 1.662620 0.000000 
#    z -0.010460 0.000000 1.689870 
# 
# From -- ./inp_files/120681.got.cif
#   From: 2010.05.17/outbox.cif.g08.bks.cpg/sg12_61_cif.got.tgz:120681.got - 2010.06.03 13:09:07.
