data_PCOD9205610
_publ_section_title
;
Structure prediction by ZEFSAII (Michael W. Deem and Ramdas Pophale) SiO2 
 PCOD9205610
Probable space group: C 2/M
;
_chemical_formula_sum "Si O2"
_cell_formula_units_Z 56
_cell_length_a 9.683431
_cell_length_b 22.726117
_cell_length_c 13.538604
_cell_angle_alpha 90.000000
_cell_angle_beta 68.052126
_cell_angle_gamma 90.000000
_cell_volume 2763.463110
_symmetry_space_group_name_H-M "C 2/M"
_symmetry_group_IT_number 12
_symmetry_cell_setting 'monoclinic'
loop_
_space_group_symop_operation_xyz
x,y,z
-x,y,-z
-x,-y,-z
x,-y,z
1/2+x,1/2+y,z
1/2-x,1/2+y,-z
1/2-x,1/2-y,-z
1/2+x,1/2-y,z
loop_
_atom_site_type_symbol
_atom_site_label
_atom_site_fract_x
_atom_site_fract_y
_atom_site_fract_z
Si Si1 0.904910 0.343212 0.746318
Si Si2 0.122262 0.067565 0.249645
Si Si3 0.660176 0.270935 0.927628
Si Si4 0.838142 0.260586 0.374252
Si Si5 0.899804 0.640987 0.122408
Si Si6 0.831398 0.870467 0.569667
Si Si7 0.803852 0.125957 0.353341
O O1 0.768472 0.314288 0.841764
O O2 0.834446 0.384456 0.681761
O O3 0.000349 0.291240 0.667410
O O4 0.009237 0.372450 0.801523
O O5 0.242894 0.107567 0.161358
O O6 0.162962 0.076763 0.354887
O O7 0.952721 0.090420 0.287364
O O8 0.133610 0.000000 0.217897
O O9 0.623130 0.211687 0.876464
O O10 0.500000 0.297107 0.000000
O O11 0.750000 0.250000 0.000000
O O12 0.750000 0.250000 0.500000
O O13 0.739782 0.314103 0.357635
O O14 0.843842 0.195560 0.329215
O O15 0.000000 0.626398 0.000000
O O16 0.763220 0.882979 0.480088
O O17 0.000000 0.853492 0.500000
#
# Coordination Sequence:
#
# PCOD9205610 Si02
#       7
#     8   8   8   8   8   8   8
#     4  12  22  37  61  96 136 172 205 266 330 396
#     4  11  24  46  68  88 124 178 230 273 320 386
#     4  11  22  38  61  97 135 178 214 264 331 405
#     4  10  21  35  58  95 141 167 201 249 332 403
#     4  11  23  41  62  93 128 165 223 268 330 395
#     4   9  20  38  59  94 126 167 212 255 319 396
#     4  10  24  35  63  95 127 169 212 264 321 392
#
# _framework density 20.264429
#
# number of rings (size 3 to 8) (size 9 to 14) (size 15 to 20)
#    0.000    1.429    4.286    1.714    8.000    4.571 
#    0.000    0.714    0.000    1.714    0.000    0.000 
#    0.000    0.000    0.000    0.000    0.000    0.000 
#
# Total GULP energy -156243.019814 kJ/mol
# GULP energy per Si atom -5580.107850 kJ/mol
# Density = 2.021831 g / cm^3
# Si number density = 20.264429 Si / 1000 Ang^3
#
#
#
# Elastic Constant Matrix: (Units=GPa)
#
#
# Indices 1 2 3 4 5 6 
#
# 1 70.5537 -8.1358 23.6208 0.0000 6.5441 0.0000
# 2 -8.1358 45.9543 -10.9898 0.0000 -15.0289 0.0000
# 3 23.6208 -10.9898 74.6416 0.0000 -10.1781 0.0000
# 4 0.0000 0.0000 0.0000 12.8765 0.0000 -0.3736
# 5 6.5441 -15.0289 -10.1781 0.0000 54.8780 0.0000
# 6 0.0000 0.0000 0.0000 -0.3736 0.0000 17.1693
#
#
#
# Elastic Compliance Matrix: (Units=1/GPa)
#
#
# Indices 1 2 3 4 5 6 
#
# 1 0.016333 0.000683 -0.005446 0.000000 -0.002771 0.000000
# 2 0.000683 0.025520 0.004599 0.000000 0.007760 0.000000
# 3 -0.005446 0.004599 0.016475 0.000000 0.004965 0.000000
# 4 0.000000 0.000000 0.000000 0.077710 0.000000 0.001691
# 5 -0.002771 0.007760 0.004965 0.000000 0.021599 0.000000
# 6 0.000000 0.000000 0.000000 0.001691 0.000000 0.058280
#
#
# Mechanical properties :
#
#
# Convention : Reuss Voigt Hill
#
# Bulk Modulus (GPa) = 17.24121 22.23775 19.73948
# Shear Modulus (GPa) = 21.22458 29.42839 25.32649
#
# Velocity S-wave (km/s) = 3.23984 3.81493 3.53909
# Velocity P-wave (km/s) = 4.74573 5.51385 5.14415
#
# Compressibility (1/GPa) = 0.05800057
#
# Stress axis : x y z
#
# Youngs Moduli (GPa) = 61.22741 39.18556 60.69860
#
# Poissons Ratio (x) = -0.02677 0.33055
# Poissons Ratio (y) = -0.04183 -0.27918
# Poissons Ratio (z) = 0.33343 -0.18023
#
# Static dielectric constant tensor:
#      x y z
#    x 1.786580 0.000000 0.038730 
#    y 0.000000 1.697510 0.000000 
#    z 0.038730 0.000000 1.795310 
# 
# From -- ./inp_files/198367.got.cif
#   From: 2010.05.17/outbox.cif.g08.bks.cpg/sg12_100_cif.got.tgz:198367.got - 2010.06.03 13:09:07.
