data_PCOD9205674
_publ_section_title
;
Structure prediction by ZEFSAII (Michael W. Deem and Ramdas Pophale) SiO2 
 PCOD9205674
Probable space group: C 2/M
;
_chemical_formula_sum "Si O2"
_cell_formula_units_Z 48
_cell_length_a 23.869376
_cell_length_b 16.306640
_cell_length_c 5.838555
_cell_angle_alpha 90.000000
_cell_angle_beta 91.080828
_cell_angle_gamma 90.000000
_cell_volume 2272.132471
_symmetry_space_group_name_H-M "C 2/M"
_symmetry_group_IT_number 12
_symmetry_cell_setting 'monoclinic'
loop_
_space_group_symop_operation_xyz
x,y,z
-x,y,-z
-x,-y,-z
x,-y,z
1/2+x,1/2+y,z
1/2-x,1/2+y,-z
1/2-x,1/2-y,-z
1/2+x,1/2-y,z
loop_
_atom_site_type_symbol
_atom_site_label
_atom_site_fract_x
_atom_site_fract_y
_atom_site_fract_z
Si Si1 0.733647 0.845857 0.729414
Si Si2 0.860958 0.169765 0.637566
Si Si3 0.364513 0.769119 0.030740
Si Si4 0.224763 0.000000 0.027414
Si Si5 0.563764 0.812216 0.576975
Si Si6 0.151217 0.591338 0.344918
Si Si7 0.838293 0.000000 0.473304
O O1 0.793492 0.815467 0.640834
O O2 0.690566 0.776153 0.813228
O O3 0.702148 0.892845 0.522540
O O4 0.743745 0.913170 0.931968
O O5 0.901074 0.236692 0.528243
O O6 0.870526 0.085493 0.505049
O O7 0.872612 0.181540 0.910605
O O8 0.420681 0.799473 0.157942
O O9 0.351308 0.837850 0.841421
O O10 0.192250 0.000000 0.274803
O O11 0.194726 0.000000 0.774385
O O12 0.500000 0.810034 0.500000
O O13 0.595125 0.893443 0.490585
O O14 0.153736 0.500000 0.251101
#
# Coordination Sequence:
#
# PCOD9205674 Si02
#       7
#     8   8   8   4   8   8   4
#     4  10  21  35  61  94 133 170 201 257 320 402
#     4  10  23  40  61  93 125 166 213 261 330 391
#     4  10  23  36  63  89 127 166 209 268 326 390
#     4  10  22  36  60  94 141 175 208 252 323 390
#     4  10  24  45  63  85 121 167 222 277 325 375
#     4  10  22  39  60  96 131 165 211 253 320 393
#     4  10  24  40  63  95 131 172 213 264 323 400
#
# _framework density 21.125527000000002
#
# number of rings (size 3 to 8) (size 9 to 14) (size 15 to 20)
#    0.000    2.000    0.833    0.500   10.500    9.667 
#    0.000    1.250    0.000    1.000    0.000    0.000 
#    0.000    0.000    0.000    0.000    0.000    0.000 
#
# Total GULP energy -133710.302434 kJ/mol
# GULP energy per Si atom -5571.262601 kJ/mol
# Density = 2.107744 g / cm^3
# Si number density = 21.125527 Si / 1000 Ang^3
#
#
#
# Elastic Constant Matrix: (Units=GPa)
#
#
# Indices 1 2 3 4 5 6 
#
# 1 87.2161 26.3166 19.1553 0.0000 19.1948 0.0000
# 2 26.3166 68.9841 41.9707 0.0000 8.7934 0.0000
# 3 19.1553 41.9707 94.2657 0.0000 6.6869 0.0000
# 4 0.0000 0.0000 0.0000 34.4952 0.0000 -11.5885
# 5 19.1948 8.7934 6.6869 0.0000 13.5199 0.0000
# 6 0.0000 0.0000 0.0000 -11.5885 0.0000 11.8917
#
#
#
# Elastic Compliance Matrix: (Units=1/GPa)
#
#
# Indices 1 2 3 4 5 6 
#
# 1 0.017572 -0.003623 -0.000368 0.000000 -0.022409 0.000000
# 2 -0.003623 0.021710 -0.008595 0.000000 -0.004725 0.000000
# 3 -0.000368 -0.008595 0.014588 0.000000 -0.001103 0.000000
# 4 0.000000 0.000000 0.000000 0.043099 0.000000 0.042001
# 5 -0.022409 -0.004725 -0.001103 0.000000 0.109399 0.000000
# 6 0.000000 0.000000 0.000000 0.042001 0.000000 0.125022
#
#
# Mechanical properties :
#
#
# Convention : Reuss Voigt Hill
#
# Bulk Modulus (GPa) = 34.84544 47.26125 41.05335
# Shear Modulus (GPa) = 13.65646 22.84957 18.25301
#
# Velocity S-wave (km/s) = 2.54528 3.29235 2.94262
# Velocity P-wave (km/s) = 5.01680 6.07231 5.56961
#
# Compressibility (1/GPa) = 0.02869816
#
# Stress axis : x y z
#
# Youngs Moduli (GPa) = 56.90994 46.06263 68.54989
#
# Poissons Ratio (x) = 0.16689 0.02522
# Poissons Ratio (y) = 0.20619 0.58915
# Poissons Ratio (z) = 0.02094 0.39589
#
# Static dielectric constant tensor:
#      x y z
#    x 1.751550 0.000000 -0.051450 
#    y 0.000000 1.861850 0.000000 
#    z -0.051450 0.000000 1.940370 
# 
# From -- ./inp_files/24849.got.cif
#   From: 2010.05.17/outbox.cif.g08.bks.cpg/sg12_13_cif.got.tgz:24849.got - 2010.06.03 13:09:07.
