data_PCOD9205976
_publ_section_title
;
Structure prediction by ZEFSAII (Michael W. Deem and Ramdas Pophale) SiO2 
 PCOD9205976
Probable space group: C 2/M
;
_chemical_formula_sum "Si O2"
_cell_formula_units_Z 56
_cell_length_a 21.417905
_cell_length_b 18.232370
_cell_length_c 10.023333
_cell_angle_alpha 90.000000
_cell_angle_beta 140.663193
_cell_angle_gamma 90.000000
_cell_volume 2481.063360
_symmetry_space_group_name_H-M "C 2/M"
_symmetry_group_IT_number 12
_symmetry_cell_setting 'monoclinic'
loop_
_space_group_symop_operation_xyz
x,y,z
-x,y,-z
-x,-y,-z
x,-y,z
1/2+x,1/2+y,z
1/2-x,1/2+y,-z
1/2-x,1/2-y,-z
1/2+x,1/2-y,z
loop_
_atom_site_type_symbol
_atom_site_label
_atom_site_fract_x
_atom_site_fract_y
_atom_site_fract_z
Si Si1 0.912441 0.746086 0.761995
Si Si2 0.234936 0.915634 0.252571
Si Si3 0.726557 0.370864 0.824216
Si Si4 0.754612 0.633533 0.576487
Si Si5 0.062267 0.774424 0.479091
Si Si6 0.614519 0.087647 0.718649
Si Si7 0.071654 0.085332 0.794314
O O1 0.854922 0.680453 0.739186
O O2 0.833392 0.809134 0.598939
O O3 0.948051 0.727874 0.671562
O O4 0.000000 0.771145 0.000000
O O5 0.253397 0.912102 0.439067
O O6 0.324854 0.887242 0.312464
O O7 0.225979 0.000000 0.199821
O O8 0.132068 0.886281 0.024207
O O9 0.738409 0.402249 0.693906
O O10 0.673974 0.292286 0.709442
O O11 0.651166 0.409395 0.804097
O O12 0.831654 0.371352 0.070572
O O13 0.985939 0.855480 0.630165
O O14 0.000000 0.746126 0.500000
O O15 0.500000 0.094615 0.500000
O O16 0.630805 0.000000 0.770300
O O17 0.038373 0.000000 0.749893
#
# Coordination Sequence:
#
# PCOD9205976 Si02
#       7
#     8   8   8   8   8   8   8
#     4  10  21  38  56  74 107 148 181 223 271 312
#     4   9  18  33  53  78 108 139 172 216 269 325
#     4   9  18  31  50  75 105 135 173 216 258 308
#     4  10  21  36  55  80 106 140 184 222 266 320
#     4   9  18  33  54  80 108 137 176 220 263 316
#     4   9  18  33  51  71 101 140 175 211 260 314
#     4   9  17  31  54  83 114 144 170 207 270 335
#
# _framework density 22.570967
#
# number of rings (size 3 to 8) (size 9 to 14) (size 15 to 20)
#    0.000    2.714    0.000    2.143    0.000    5.429 
#    0.000    5.714    0.000   25.286    0.000    0.000 
#    0.000    0.000    0.000    0.000    0.000    0.000 
#
# Total GULP energy -156195.974024 kJ/mol
# GULP energy per Si atom -5578.427644 kJ/mol
# Density = 2.251959 g / cm^3
# Si number density = 22.570967 Si / 1000 Ang^3
#
#
#
# Elastic Constant Matrix: (Units=GPa)
#
#
# Indices 1 2 3 4 5 6 
#
# 1 95.1588 9.9394 58.6437 0.0000 -16.2956 0.0000
# 2 9.9394 48.9659 13.9876 0.0000 2.3774 0.0000
# 3 58.6437 13.9876 153.7368 0.0000 -7.8538 0.0000
# 4 0.0000 0.0000 0.0000 -12.0074 0.0000 -56.2278
# 5 -16.2956 2.3774 -7.8538 0.0000 40.0075 0.0000
# 6 0.0000 0.0000 0.0000 -56.2278 0.0000 -66.8660
#
#
#
# Elastic Compliance Matrix: (Units=1/GPa)
#
#
# Indices 1 2 3 4 5 6 
#
# 1 0.014782 -0.001758 -0.005218 0.000000 0.005101 0.000000
# 2 -0.001758 0.021283 -0.001381 0.000000 -0.002252 0.000000
# 3 -0.005218 -0.001381 0.008603 0.000000 -0.000355 0.000000
# 4 0.000000 0.000000 0.000000 0.028349 0.000000 -0.023839
# 5 0.005101 -0.002252 -0.000355 0.000000 0.027137 0.000000
# 6 0.000000 0.000000 0.000000 -0.023839 0.000000 0.005091
#
#
# Mechanical properties :
#
#
# Convention : Reuss Voigt Hill
#
# Bulk Modulus (GPa) = 35.77309 51.44477 43.60893
# Shear Modulus (GPa) = 38.08799 6.57954 22.33376
#
# Velocity S-wave (km/s) = 4.11235 1.70920 3.14903
# Velocity P-wave (km/s) = 6.19936 5.17079 5.70829
#
# Compressibility (1/GPa) = 0.02795398
#
# Stress axis : x y z
#
# Youngs Moduli (GPa) = 67.65192 46.98598 116.24401
#
# Poissons Ratio (x) = 0.08258 0.60656
# Poissons Ratio (y) = 0.11890 0.16053
# Poissons Ratio (z) = 0.35301 0.06489
#
# Static dielectric constant tensor:
#      x y z
#    x 1.916060 0.000000 0.005300 
#    y 0.000000 1.863950 0.000000 
#    z 0.005300 0.000000 1.872620 
# 
# From -- ./inp_files/99702.got.cif
#   From: 2010.05.17/outbox.cif.g08.bks.cpg/sg12_50_cif.got.tgz:99702.got - 2010.06.03 13:09:07.
