data_PCOD9205626
_publ_section_title
;
Structure prediction by ZEFSAII (Michael W. Deem and Ramdas Pophale) SiO2 
 PCOD9205626
Probable space group: C 2/M
;
_chemical_formula_sum "Si O2"
_cell_formula_units_Z 56
_cell_length_a 25.560435
_cell_length_b 19.240188
_cell_length_c 7.186817
_cell_angle_alpha 90.000000
_cell_angle_beta 136.440273
_cell_angle_gamma 90.000000
_cell_volume 2435.582891
_symmetry_space_group_name_H-M "C 2/M"
_symmetry_group_IT_number 12
_symmetry_cell_setting 'monoclinic'
loop_
_space_group_symop_operation_xyz
x,y,z
-x,y,-z
-x,-y,-z
x,-y,z
1/2+x,1/2+y,z
1/2-x,1/2+y,-z
1/2-x,1/2-y,-z
1/2+x,1/2-y,z
loop_
_atom_site_type_symbol
_atom_site_label
_atom_site_fract_x
_atom_site_fract_y
_atom_site_fract_z
Si Si1 0.408929 0.177164 0.304729
Si Si2 0.920460 0.855134 0.692250
Si Si3 0.588313 0.209038 0.254319
Si Si4 0.332186 0.576208 0.735974
Si Si5 0.714088 0.920113 0.903981
Si Si6 0.360541 0.331723 0.155968
Si Si7 0.838432 0.423535 0.663072
O O1 0.500000 0.170092 0.500000
O O2 0.403059 0.187243 0.511316
O O3 0.352033 0.111596 0.133363
O O4 0.372022 0.249973 0.138686
O O5 0.877079 0.786061 0.660434
O O6 0.873985 0.919128 0.648962
O O7 0.922428 0.847761 0.476082
O O8 0.000000 0.860315 0.000000
O O9 0.613056 0.146116 0.187064
O O10 0.500000 0.219815 0.000000
O O11 0.337383 0.500000 0.834071
O O12 0.244453 0.589293 0.469478
O O13 0.365723 0.627173 0.977232
O O14 0.679681 0.927052 0.605893
O O15 0.735906 0.000000 0.012864
O O16 0.782516 0.863210 0.049763
O O17 0.869004 0.500000 0.795595
#
# Coordination Sequence:
#
# PCOD9205626 Si02
#       7
#     8   8   8   8   8   8   8
#     4  10  21  35  59  90 119 154 198 249 297 353
#     4  10  23  39  58  85 121 150 192 247 293 347
#     4   9  19  35  54  82 116 152 190 233 293 347
#     4  10  22  39  61  86 114 153 196 241 296 351
#     4   9  18  37  61  85 119 159 199 245 298 355
#     4  10  21  38  65  87 117 159 202 243 294 356
#     4   8  16  34  57  82 114 151 193 238 284 345
#
# _framework density 22.992443000000002
#
# number of rings (size 3 to 8) (size 9 to 14) (size 15 to 20)
#    0.000    2.571    0.000    1.714    6.000    3.714 
#    2.571    0.714    0.000    0.000    0.000    0.000 
#    0.000    0.000    0.000    0.000    0.000    0.000 
#
# Total GULP energy -155982.071882 kJ/mol
# GULP energy per Si atom -5570.788282 kJ/mol
# Density = 2.294011 g / cm^3
# Si number density = 22.992443 Si / 1000 Ang^3
#
#
#
# Elastic Constant Matrix: (Units=GPa)
#
#
# Indices 1 2 3 4 5 6 
#
# 1 70.2259 33.2359 4.7525 0.0000 10.1828 0.0000
# 2 33.2359 111.8581 36.2574 0.0000 28.2917 0.0000
# 3 4.7525 36.2574 43.9216 0.0000 -6.4543 0.0000
# 4 0.0000 0.0000 0.0000 46.1125 0.0000 20.5845
# 5 10.1828 28.2917 -6.4543 0.0000 30.3646 0.0000
# 6 0.0000 0.0000 0.0000 20.5845 0.0000 51.2095
#
#
#
# Elastic Compliance Matrix: (Units=1/GPa)
#
#
# Indices 1 2 3 4 5 6 
#
# 1 0.016909 -0.006560 0.003768 0.000000 0.001242 0.000000
# 2 -0.006560 0.025531 -0.024298 0.000000 -0.026753 0.000000
# 3 0.003768 -0.024298 0.047028 0.000000 0.031372 0.000000
# 4 0.000000 0.000000 0.000000 0.026428 0.000000 -0.010623
# 5 0.001242 -0.026753 0.031372 0.000000 0.064112 0.000000
# 6 0.000000 0.000000 0.000000 -0.010623 0.000000 0.023798
#
#
# Mechanical properties :
#
#
# Convention : Reuss Voigt Hill
#
# Bulk Modulus (GPa) = 28.33697 41.61078 34.97387
# Shear Modulus (GPa) = 18.53571 35.65465 27.09518
#
# Velocity S-wave (km/s) = 2.84239 3.94218 3.43656
# Velocity P-wave (km/s) = 4.80868 6.23361 5.56693
#
# Compressibility (1/GPa) = 0.03528959
#
# Stress axis : x y z
#
# Youngs Moduli (GPa) = 59.13962 39.16739 21.26377
#
# Poissons Ratio (x) = 0.25693 -0.08012
# Poissons Ratio (y) = 0.38794 0.51667
# Poissons Ratio (z) = -0.22284 0.95169
#
# Static dielectric constant tensor:
#      x y z
#    x 1.854620 0.000000 -0.029370 
#    y 0.000000 1.918150 0.000000 
#    z -0.029370 0.000000 1.639460 
# 
# From -- ./inp_files/106060.got.cif
#   From: 2010.05.17/outbox.cif.g08.bks.cpg/sg12_54_cif.got.tgz:106060.got - 2010.06.03 13:09:07.
