data_PCOD9205894
_publ_section_title
;
Structure prediction by ZEFSAII (Michael W. Deem and Ramdas Pophale) SiO2 
 PCOD9205894
Probable space group: C 2/M
;
_chemical_formula_sum "Si O2"
_cell_formula_units_Z 42
_cell_length_a 10.185453
_cell_length_b 7.462030
_cell_length_c 30.190857
_cell_angle_alpha 90.000000
_cell_angle_beta 126.444052
_cell_angle_gamma 90.000000
_cell_volume 1845.886463
_symmetry_space_group_name_H-M "C 2/M"
_symmetry_group_IT_number 12
_symmetry_cell_setting 'monoclinic'
loop_
_space_group_symop_operation_xyz
x,y,z
-x,y,-z
-x,-y,-z
x,-y,z
1/2+x,1/2+y,z
1/2-x,1/2+y,-z
1/2-x,1/2-y,-z
1/2+x,1/2-y,z
loop_
_atom_site_type_symbol
_atom_site_label
_atom_site_fract_x
_atom_site_fract_y
_atom_site_fract_z
Si Si1 0.546896 0.783899 0.661393
Si Si2 0.335940 0.782996 0.218573
Si Si3 0.525695 0.289814 0.846832
Si Si4 0.000000 0.500000 0.500000
Si Si5 0.316889 0.214227 0.964774
Si Si6 0.672551 0.294656 0.592760
O O1 0.604034 0.722382 0.721218
O O2 0.651451 0.712142 0.641565
O O3 0.356427 0.738179 0.616943
O O4 0.558728 0.000000 0.663180
O O5 0.449108 0.726972 0.200632
O O6 0.150317 0.716948 0.174265
O O7 0.335053 0.000000 0.219001
O O8 0.520589 0.500000 0.857048
O O9 0.684392 0.213310 0.903285
O O10 0.950894 0.657019 0.454029
O O11 0.328517 0.000000 0.959445
O O12 0.500000 0.287532 0.000000
O O13 0.250000 0.250000 0.000000
O O14 0.647020 0.500000 0.573245
#
# Coordination Sequence:
#
# PCOD9205894 Si02
#       6
#     8   8   8   2   8   8
#     4  10  22  43  64  94 128 161 207 258 314 376
#     4  10  21  37  61  88 120 154 196 254 302 363
#     4  10  21  36  55  87 118 154 204 251 306 363
#     4  12  26  48  68  96 136 168 206 270 302 358
#     4  10  21  36  54  79 116 159 203 253 303 363
#     4  11  25  44  68  97 127 170 211 254 314 380
#
# _framework density 22.753294
#
# number of rings (size 3 to 8) (size 9 to 14) (size 15 to 20)
#    0.000    1.714    0.952    2.571    1.333    3.429 
#    0.000    0.000    0.000    0.000    0.000    0.000 
#    0.000    0.000    0.000    0.000    0.000    0.000 
#
# Total GULP energy -117193.055896 kJ/mol
# GULP energy per Si atom -5580.621709 kJ/mol
# Density = 2.270151 g / cm^3
# Si number density = 22.753294 Si / 1000 Ang^3
#
#
#
# Elastic Constant Matrix: (Units=GPa)
#
#
# Indices 1 2 3 4 5 6 
#
# 1 67.3233 -9.0823 -26.7530 0.0000 20.2824 0.0000
# 2 -9.0823 81.3189 5.1687 0.0000 -6.5260 0.0000
# 3 -26.7530 5.1687 58.8219 0.0000 -23.7848 0.0000
# 4 0.0000 0.0000 0.0000 -7.1784 0.0000 -29.7853
# 5 20.2824 -6.5260 -23.7848 0.0000 -50.9374 0.0000
# 6 0.0000 0.0000 0.0000 -29.7853 0.0000 7.3815
#
#
#
# Elastic Compliance Matrix: (Units=1/GPa)
#
#
# Indices 1 2 3 4 5 6 
#
# 1 0.017871 0.001634 0.009066 0.000000 0.002674 0.000000
# 2 0.001634 0.012466 -0.000618 0.000000 -0.000658 0.000000
# 3 0.009066 -0.000618 0.019069 0.000000 -0.005215 0.000000
# 4 0.000000 0.000000 0.000000 -0.007851 0.000000 -0.031681
# 5 0.002674 -0.000658 -0.005215 0.000000 -0.016048 0.000000
# 6 0.000000 0.000000 0.000000 -0.031681 0.000000 0.007635
#
#
# Mechanical properties :
#
#
# Convention : Reuss Voigt Hill
#
# Bulk Modulus (GPa) = 14.37399 16.23676 15.30537
# Shear Modulus (GPa) = 138.23916 5.72851 71.98383
#
# Velocity S-wave (km/s) = 7.80305 1.58844 5.63075
# Velocity P-wave (km/s) = 9.35492 3.24279 7.00108
#
# Compressibility (1/GPa) = 0.06957012
#
# Stress axis : x y z
#
# Youngs Moduli (GPa) = 55.95600 80.21627 52.44082
#
# Poissons Ratio (x) = -0.13110 -0.47540
# Poissons Ratio (y) = -0.09145 0.03241
# Poissons Ratio (z) = -0.50727 0.04958
#
# Static dielectric constant tensor:
#      x y z
#    x 1.788670 0.000000 0.038540 
#    y 0.000000 1.837050 0.000000 
#    z 0.038540 0.000000 1.839520 
# 
# From -- ./inp_files/303696.got.cif
#   From: 2010.05.17/outbox.cif.g08.bks.cpg/sg12_152_cif.got.tgz:303696.got - 2010.06.03 13:09:07.
