data_PCOD9205309
_publ_section_title
;
Structure prediction by ZEFSAII (Michael W. Deem and Ramdas Pophale) SiO2 
 PCOD9205309
Probable space group: C 2/M
;
_chemical_formula_sum "Si O2"
_cell_formula_units_Z 48
_cell_length_a 33.253988
_cell_length_b 14.795047
_cell_length_c 16.692653
_cell_angle_alpha 90.000000
_cell_angle_beta 162.389058
_cell_angle_gamma 90.000000
_cell_volume 2484.765243
_symmetry_space_group_name_H-M "C 2/M"
_symmetry_group_IT_number 12
_symmetry_cell_setting 'monoclinic'
loop_
_space_group_symop_operation_xyz
x,y,z
-x,y,-z
-x,-y,-z
x,-y,z
1/2+x,1/2+y,z
1/2-x,1/2+y,-z
1/2-x,1/2-y,-z
1/2+x,1/2-y,z
loop_
_atom_site_type_symbol
_atom_site_label
_atom_site_fract_x
_atom_site_fract_y
_atom_site_fract_z
Si Si1 0.637146 0.735714 0.719334
Si Si2 0.217131 0.391035 0.129750
Si Si3 0.324304 0.392454 0.835188
Si Si4 0.151887 0.169321 0.298122
Si Si5 0.583814 0.890967 0.493590
Si Si6 0.383261 0.605311 0.593648
O O1 0.500000 0.705790 0.500000
O O2 0.692788 0.662299 0.762565
O O3 0.607290 0.829573 0.616057
O O4 0.750000 0.750000 0.000000
O O5 0.231044 0.500000 0.147332
O O6 0.270625 0.361349 0.319008
O O7 0.062202 0.371581 0.819415
O O8 0.330932 0.500000 0.858716
O O9 0.309615 0.376277 0.712493
O O10 0.198927 0.363290 0.649351
O O11 0.468585 0.353443 0.135302
O O12 0.250000 0.250000 0.500000
O O13 0.153186 0.111981 0.382123
O O14 0.000000 0.200621 0.000000
O O15 0.592099 0.000000 0.524280
O O16 0.396374 0.500000 0.599458
#
# Coordination Sequence:
#
# PCOD9205309 Si02
#       6
#     8   8   8   8   8   8
#     4  12  26  44  65  94 122 159 201 251 310 371
#     4  10  23  43  65  92 126 161 201 252 307 362
#     4   9  19  37  61  86 115 158 204 245 294 351
#     4  10  21  35  53  85 121 159 199 243 290 345
#     4  10  23  43  66  91 125 164 201 248 307 368
#     4   9  19  37  61  86 116 157 202 249 294 345
#
# _framework density 19.317720999999999
#
# number of rings (size 3 to 8) (size 9 to 14) (size 15 to 20)
#    0.000    2.000    1.667    0.500    4.667    4.667 
#    0.000    0.000    0.000    5.000    0.000    0.000 
#    0.000    0.000    0.000    0.000    0.000    0.000 
#
# Total GULP energy -133862.391465 kJ/mol
# GULP energy per Si atom -5577.599644 kJ/mol
# Density = 1.927375 g / cm^3
# Si number density = 19.317721 Si / 1000 Ang^3
#
#
#
# Elastic Constant Matrix: (Units=GPa)
#
#
# Indices 1 2 3 4 5 6 
#
# 1 97.8753 16.3839 77.5584 0.0000 -2.1944 0.0000
# 2 16.3839 45.0179 41.4462 0.0000 -1.1166 0.0000
# 3 77.5584 41.4462 153.7550 0.0000 -20.6164 0.0000
# 4 0.0000 0.0000 0.0000 21.4485 0.0000 0.6607
# 5 -2.1944 -1.1166 -20.6164 0.0000 37.6910 0.0000
# 6 0.0000 0.0000 0.0000 0.6607 0.0000 57.5600
#
#
#
# Elastic Compliance Matrix: (Units=1/GPa)
#
#
# Indices 1 2 3 4 5 6 
#
# 1 0.017891 0.002992 -0.010446 0.000000 -0.004583 0.000000
# 2 0.002992 0.030548 -0.010359 0.000000 -0.004587 0.000000
# 3 -0.010446 -0.010359 0.015586 0.000000 0.007610 0.000000
# 4 0.000000 0.000000 0.000000 0.046640 0.000000 -0.000535
# 5 -0.004583 -0.004587 0.007610 0.000000 0.030291 0.000000
# 6 0.000000 0.000000 0.000000 -0.000535 0.000000 0.017379
#
#
# Mechanical properties :
#
#
# Convention : Reuss Voigt Hill
#
# Bulk Modulus (GPa) = 35.21214 63.04724 49.12969
# Shear Modulus (GPa) = 24.57894 34.09054 29.33474
#
# Velocity S-wave (km/s) = 3.57087 4.20543 3.90107
# Velocity P-wave (km/s) = 5.93877 7.50258 6.76600
#
# Compressibility (1/GPa) = 0.02839930
#
# Stress axis : x y z
#
# Youngs Moduli (GPa) = 55.89422 32.73586 64.16121
#
# Poissons Ratio (x) = -0.09795 0.67022
# Poissons Ratio (y) = -0.16724 0.66463
# Poissons Ratio (z) = 0.58386 0.33910
#
# Static dielectric constant tensor:
#      x y z
#    x 1.695220 0.000000 -0.007260 
#    y 0.000000 1.704960 0.000000 
#    z -0.007260 0.000000 1.684640 
# 
# From -- ./inp_files/251387.got.cif
#   From: 2010.05.17/outbox.cif.g08.bks.cpg/sg12_126_cif.got.tgz:251387.got - 2010.06.03 13:09:07.
