data_PCOD9205862
_publ_section_title
;
Structure prediction by ZEFSAII (Michael W. Deem and Ramdas Pophale) SiO2 
 PCOD9205862
Probable space group: C 2/M
;
_chemical_formula_sum "Si O2"
_cell_formula_units_Z 40
_cell_length_a 16.527566
_cell_length_b 7.532133
_cell_length_c 14.140738
_cell_angle_alpha 90.000000
_cell_angle_beta 61.902500
_cell_angle_gamma 90.000000
_cell_volume 1552.887960
_symmetry_space_group_name_H-M "C 2/M"
_symmetry_group_IT_number 12
_symmetry_cell_setting 'monoclinic'
loop_
_space_group_symop_operation_xyz
x,y,z
-x,y,-z
-x,-y,-z
x,-y,z
1/2+x,1/2+y,z
1/2-x,1/2+y,-z
1/2-x,1/2-y,-z
1/2+x,1/2-y,z
loop_
_atom_site_type_symbol
_atom_site_label
_atom_site_fract_x
_atom_site_fract_y
_atom_site_fract_z
Si Si1 0.320413 0.702630 0.259925
Si Si2 0.471441 0.793530 0.865125
Si Si3 0.521718 0.783188 0.343010
Si Si4 0.804988 0.710516 0.065862
Si Si5 0.647103 0.216263 0.451801
O O1 0.338855 0.500000 0.275348
O O2 0.419076 0.789038 0.190329
O O3 0.273430 0.705177 0.181712
O O4 0.249735 0.781503 0.375311
O O5 0.448134 0.715372 0.775324
O O6 0.444731 0.000000 0.877537
O O7 0.408120 0.721943 0.983399
O O8 0.417371 0.728249 0.426036
O O9 0.587477 0.732696 0.392365
O O10 0.521189 0.000000 0.340884
O O11 0.802642 0.500000 0.084898
O O12 0.750000 0.750000 0.000000
O O13 0.651768 0.000000 0.450727
#
# Coordination Sequence:
#
# PCOD9205862 Si02
#       5
#     8   8   8   8   8
#     4  11  22  35  53  80 112 143 177 217 262 314
#     4  10  21  36  54  78 108 142 179 219 265 316
#     4   8  14  29  53  76 101 136 178 222 265 309
#     4  11  23  39  59  81 105 136 177 221 265 317
#     4   8  15  29  51  78 104 135 178 222 262 309
#
# _framework density 25.758458999999998
#
# number of rings (size 3 to 8) (size 9 to 14) (size 15 to 20)
#    0.000    2.400    0.000    4.200    0.000    8.000 
#    0.000    0.000    0.000    1.200    0.000    8.400 
#    0.000    0.000    0.000    0.000    0.000    0.000 
#
# Total GULP energy -111785.453398 kJ/mol
# GULP energy per Si atom -5589.272670 kJ/mol
# Density = 2.569983 g / cm^3
# Si number density = 25.758459 Si / 1000 Ang^3
#
#
#
# Elastic Constant Matrix: (Units=GPa)
#
#
# Indices 1 2 3 4 5 6 
#
# 1 67.8505 -6.7217 -11.3571 0.0000 -16.4852 0.0000
# 2 -6.7217 82.2549 4.1658 0.0000 -1.1690 0.0000
# 3 -11.3571 4.1658 100.2486 0.0000 -30.9781 0.0000
# 4 0.0000 0.0000 0.0000 8.5738 0.0000 2.0145
# 5 -16.4852 -1.1690 -30.9781 0.0000 47.2435 0.0000
# 6 0.0000 0.0000 0.0000 2.0145 0.0000 19.1007
#
#
#
# Elastic Compliance Matrix: (Units=1/GPa)
#
#
# Indices 1 2 3 4 5 6 
#
# 1 0.018023 0.001358 0.004940 0.000000 0.009562 0.000000
# 2 0.001358 0.012285 -0.000146 0.000000 0.000682 0.000000
# 3 0.004940 -0.000146 0.013886 0.000000 0.010825 0.000000
# 4 0.000000 0.000000 0.000000 0.119598 0.000000 -0.012614
# 5 0.009562 0.000682 0.010825 0.000000 0.031619 0.000000
# 6 0.000000 0.000000 0.000000 -0.012614 0.000000 0.053684
#
#
# Mechanical properties :
#
#
# Convention : Reuss Voigt Hill
#
# Bulk Modulus (GPa) = 17.69905 24.72533 21.21219
# Shear Modulus (GPa) = 19.56003 32.60142 26.08072
#
# Velocity S-wave (km/s) = 2.75864 3.56147 3.18545
# Velocity P-wave (km/s) = 4.12709 5.15091 4.66716
#
# Compressibility (1/GPa) = 0.05650021
#
# Stress axis : x y z
#
# Youngs Moduli (GPa) = 55.48484 81.39729 72.01436
#
# Poissons Ratio (x) = -0.11058 -0.35576
# Poissons Ratio (y) = -0.07538 0.01049
# Poissons Ratio (z) = -0.27410 0.01186
#
# Static dielectric constant tensor:
#      x y z
#    x 2.108690 0.000000 -0.020080 
#    y 0.000000 1.975540 0.000000 
#    z -0.020080 0.000000 2.019070 
# 
# From -- ./inp_files/211249.got.cif
#   From: 2010.05.17/outbox.cif.g08.bks.cpg/sg12_106_cif.got.tgz:211249.got - 2010.06.03 13:09:07.
