data_PCOD9205021
_publ_section_title
;
Structure prediction by ZEFSAII (Michael W. Deem and Ramdas Pophale) SiO2 
 PCOD9205021
Probable space group: C 2/M
;
_chemical_formula_sum "Si O2"
_cell_formula_units_Z 40
_cell_length_a 11.635194
_cell_length_b 15.112576
_cell_length_c 14.167860
_cell_angle_alpha 90.000000
_cell_angle_beta 133.991186
_cell_angle_gamma 90.000000
_cell_volume 1792.317645
_symmetry_space_group_name_H-M "C 2/M"
_symmetry_group_IT_number 12
_symmetry_cell_setting 'monoclinic'
loop_
_space_group_symop_operation_xyz
x,y,z
-x,y,-z
-x,-y,-z
x,-y,z
1/2+x,1/2+y,z
1/2-x,1/2+y,-z
1/2-x,1/2-y,-z
1/2+x,1/2-y,z
loop_
_atom_site_type_symbol
_atom_site_label
_atom_site_fract_x
_atom_site_fract_y
_atom_site_fract_z
Si Si1 0.932877 0.742626 0.564210
Si Si2 0.170768 0.902401 0.013003
Si Si3 0.018974 0.400295 0.121497
Si Si4 0.441910 0.718228 0.766641
Si Si5 0.179870 0.601065 0.695920
O O1 0.750000 0.750000 0.500000
O O2 0.016577 0.786980 0.704452
O O3 0.000000 0.776899 0.500000
O O4 0.005992 0.643573 0.609764
O O5 0.065047 0.824978 0.910302
O O6 0.094358 0.000000 0.955273
O O7 0.339035 0.903099 0.056840
O O8 0.220908 0.892471 0.150046
O O9 0.088347 0.500000 0.174341
O O10 0.095642 0.318326 0.221453
O O11 0.000000 0.382073 0.000000
O O12 0.281060 0.660759 0.682526
O O13 0.170776 0.500000 0.662714
#
# Coordination Sequence:
#
# PCOD9205021 Si02
#       5
#     8   8   8   8   8
#     4  12  27  48  68 100 135 191 253 297 336 410
#     4  10  21  38  64 106 140 171 226 287 353 438
#     4  10  21  34  56  96 142 181 217 270 353 433
#     4  12  23  40  73  98 142 181 235 285 363 413
#     4  11  24  45  74 105 138 182 233 292 357 428
#
# _framework density 22.317471999999999
#
# number of rings (size 3 to 8) (size 9 to 14) (size 15 to 20)
#    0.000    1.000    4.000    3.000    2.800    2.000 
#    0.000    0.000    0.000    5.400    0.000    0.000 
#    0.000    0.000    0.000    0.000    0.000    0.000 
#
# Total GULP energy -111602.974219 kJ/mol
# GULP energy per Si atom -5580.148711 kJ/mol
# Density = 2.226668 g / cm^3
# Si number density = 22.317472 Si / 1000 Ang^3
#
#
#
# Elastic Constant Matrix: (Units=GPa)
#
#
# Indices 1 2 3 4 5 6 
#
# 1 151.7700 70.2723 45.1304 0.0000 -36.6349 0.0000
# 2 70.2723 152.0725 58.7424 0.0000 -6.2274 0.0000
# 3 45.1304 58.7424 79.6310 0.0000 -15.2384 0.0000
# 4 0.0000 0.0000 0.0000 18.4683 0.0000 2.7274
# 5 -36.6349 -6.2274 -15.2384 0.0000 51.3893 0.0000
# 6 0.0000 0.0000 0.0000 2.7274 0.0000 32.1762
#
#
#
# Elastic Compliance Matrix: (Units=1/GPa)
#
#
# Indices 1 2 3 4 5 6 
#
# 1 0.010490 -0.003865 -0.001858 0.000000 0.006459 0.000000
# 2 -0.003865 0.010665 -0.006315 0.000000 -0.003336 0.000000
# 3 -0.001858 -0.006315 0.018944 0.000000 0.003528 0.000000
# 4 0.000000 0.000000 0.000000 0.054833 0.000000 -0.004648
# 5 0.006459 -0.003336 0.003528 0.000000 0.024706 0.000000
# 6 0.000000 0.000000 0.000000 -0.004648 0.000000 0.031473
#
#
# Mechanical properties :
#
#
# Convention : Reuss Voigt Hill
#
# Bulk Modulus (GPa) = 62.40975 81.30707 71.85841
# Shear Modulus (GPa) = 27.69651 34.36196 31.02924
#
# Velocity S-wave (km/s) = 3.52664 3.92814 3.73279
# Velocity P-wave (km/s) = 6.67893 7.55545 7.13067
#
# Compressibility (1/GPa) = 0.01602314
#
# Stress axis : x y z
#
# Youngs Moduli (GPa) = 95.32696 93.76771 52.78646
#
# Poissons Ratio (x) = 0.36245 0.09807
# Poissons Ratio (y) = 0.36847 0.33334
# Poissons Ratio (z) = 0.17710 0.59212
#
# Static dielectric constant tensor:
#      x y z
#    x 1.867430 0.000000 -0.028820 
#    y 0.000000 1.831510 0.000000 
#    z -0.028820 0.000000 2.022520 
# 
# From -- ./inp_files/204684.got.cif
#   From: 2010.05.17/outbox.cif.g08.bks.cpg/sg12_103_cif.got.tgz:204684.got - 2010.06.03 13:09:07.
