data_PCOD9205054
_publ_section_title
;
Structure prediction by ZEFSAII (Michael W. Deem and Ramdas Pophale) SiO2 
 PCOD9205054
Probable space group: C 2/M
;
_chemical_formula_sum "Si O2"
_cell_formula_units_Z 36
_cell_length_a 13.843397
_cell_length_b 5.741089
_cell_length_c 16.350299
_cell_angle_alpha 90.000000
_cell_angle_beta 95.350588
_cell_angle_gamma 90.000000
_cell_volume 1293.797148
_symmetry_space_group_name_H-M "C 2/M"
_symmetry_group_IT_number 12
_symmetry_cell_setting 'monoclinic'
loop_
_space_group_symop_operation_xyz
x,y,z
-x,y,-z
-x,-y,-z
x,-y,z
1/2+x,1/2+y,z
1/2-x,1/2+y,-z
1/2-x,1/2-y,-z
1/2+x,1/2-y,z
loop_
_atom_site_type_symbol
_atom_site_label
_atom_site_fract_x
_atom_site_fract_y
_atom_site_fract_z
Si Si1 0.808536 0.500000 0.341840
Si Si2 0.680962 0.500000 0.658464
Si Si3 0.608602 0.000000 0.472097
Si Si4 0.607799 0.500000 0.471580
Si Si5 0.316721 0.500000 0.841919
Si Si6 0.986334 0.000000 0.222993
Si Si7 0.412108 0.000000 0.205845
Si Si8 0.615898 0.747641 0.000386
O O1 0.769939 0.756387 0.315904
O O2 0.824599 0.500000 0.440790
O O3 0.915393 0.500000 0.306087
O O4 0.669088 0.500000 0.560239
O O5 0.576581 0.500000 0.697845
O O6 0.500000 0.000000 0.500000
O O7 0.621223 0.749815 0.430241
O O8 0.500000 0.500000 0.500000
O O9 0.397690 0.500000 0.777173
O O10 0.204095 0.500000 0.813031
O O11 0.341050 0.714904 0.905145
O O12 0.955273 0.747844 0.181578
O O13 0.643869 0.500000 0.961583
O O14 0.644069 0.000000 0.968839
O O15 0.500000 0.747257 0.000000
#
# Coordination Sequence:
#
# PCOD9205054 Si02
#       8
#     4   4   4   4   4   4   4   8
#     4   8  14  26  38  56  91 119 148 200 240 278
#     4   8  14  26  38  56  91 119 148 200 240 278
#     4   8  12  18  32  52  76 109 148 189 231 278
#     4   8  12  18  32  52  76 109 148 189 231 278
#     4  10  21  34  60  74 106 138 172 204 264 306
#     4  10  22  34  50  77 105 135 172 212 251 306
#     4  10  22  34  50  77 105 135 172 212 251 306
#     4   8  16  30  52  76  98 132 168 205 253 298
#
# _framework density 27.825074999999998
#
# number of rings (size 3 to 8) (size 9 to 14) (size 15 to 20)
#    0.667    2.667    0.000    0.000    3.111    0.000 
#    0.000    0.000    0.000    5.333    0.000    0.000 
#    0.000   64.000    0.000    0.000    0.000   46.000 
#
# Total GULP energy -100368.352838 kJ/mol
# GULP energy per Si atom -5576.019602 kJ/mol
# Density = 2.776174 g / cm^3
# Si number density = 27.825075 Si / 1000 Ang^3
#
#
#
# Elastic Constant Matrix: (Units=GPa)
#
#
# Indices 1 2 3 4 5 6 
#
# 1 156.1173 58.6204 32.3278 0.0000 -3.9328 0.0000
# 2 58.6204 381.8210 28.3277 0.0000 0.6121 0.0000
# 3 32.3278 28.3277 51.7155 0.0000 -12.9595 0.0000
# 4 0.0000 0.0000 0.0000 17.4284 0.0000 11.3134
# 5 -3.9328 0.6121 -12.9595 0.0000 52.4737 0.0000
# 6 0.0000 0.0000 0.0000 11.3134 0.0000 -17.1860
#
#
#
# Elastic Compliance Matrix: (Units=1/GPa)
#
#
# Indices 1 2 3 4 5 6 
#
# 1 0.007627 -0.000841 -0.004436 0.000000 -0.000514 0.000000
# 2 -0.000841 0.002832 -0.001119 0.000000 -0.000372 0.000000
# 3 -0.004436 -0.001119 0.024136 0.000000 0.005641 0.000000
# 4 0.000000 0.000000 0.000000 0.040200 0.000000 0.026463
# 5 -0.000514 -0.000372 0.005641 0.000000 0.020416 0.000000
# 6 0.000000 0.000000 0.000000 0.026463 0.000000 -0.040767
#
#
# Mechanical properties :
#
#
# Convention : Reuss Voigt Hill
#
# Bulk Modulus (GPa) = 45.86415 92.02282 68.94348
# Shear Modulus (GPa) = 67.11184 41.90175 54.50679
#
# Velocity S-wave (km/s) = 4.91646 3.88480 4.43076
# Velocity P-wave (km/s) = 6.98194 7.29835 7.14190
#
# Compressibility (1/GPa) = 0.02180352
#
# Stress axis : x y z
#
# Youngs Moduli (GPa) = 131.11650 353.13942 41.43214
#
# Poissons Ratio (x) = 0.29700 0.18378
# Poissons Ratio (y) = 0.11027 0.04635
# Poissons Ratio (z) = 0.58160 0.39506
#
# Static dielectric constant tensor:
#      x y z
#    x 2.100560 0.000000 -0.014200 
#    y 0.000000 2.184570 0.000000 
#    z -0.014200 0.000000 2.423150 
# 
# From -- ./inp_files/337409.got.cif
#   From: 2010.05.17/outbox.cif.g08.bks.cpg/sg12_169_cif.got.tgz:337409.got - 2010.06.03 13:09:07.
