data_PCOD9205006
_publ_section_title
;
Structure prediction by ZEFSAII (Michael W. Deem and Ramdas Pophale) SiO2 
 PCOD9205006
Probable space group: C 2/M
;
_chemical_formula_sum "Si O2"
_cell_formula_units_Z 48
_cell_length_a 18.887765
_cell_length_b 25.334923
_cell_length_c 6.496822
_cell_angle_alpha 90.000000
_cell_angle_beta 49.408028
_cell_angle_gamma 90.000000
_cell_volume 2360.751445
_symmetry_space_group_name_H-M "C 2/M"
_symmetry_group_IT_number 12
_symmetry_cell_setting 'monoclinic'
loop_
_space_group_symop_operation_xyz
x,y,z
-x,y,-z
-x,-y,-z
x,-y,z
1/2+x,1/2+y,z
1/2-x,1/2+y,-z
1/2-x,1/2-y,-z
1/2+x,1/2-y,z
loop_
_atom_site_type_symbol
_atom_site_label
_atom_site_fract_x
_atom_site_fract_y
_atom_site_fract_z
Si Si1 0.809718 0.699953 0.529453
Si Si2 0.732540 0.625707 0.313126
Si Si3 0.905938 0.142436 0.779690
Si Si4 0.609690 0.561384 0.841711
Si Si5 0.600182 0.854928 0.259648
Si Si6 0.383303 0.748995 0.028994
O O1 0.761729 0.664939 0.441645
O O2 0.853405 0.662407 0.614969
O O3 0.727438 0.734650 0.784085
O O4 0.886250 0.735339 0.264656
O O5 0.667145 0.652598 0.264523
O O6 0.672830 0.579649 0.530791
O O7 0.827821 0.611705 0.013526
O O8 0.000000 0.121589 0.500000
O O9 0.867249 0.099152 0.010221
O O10 0.929660 0.195584 0.861271
O O11 0.623465 0.500000 0.862208
O O12 0.500000 0.569904 0.000000
O O13 0.500000 0.878672 0.500000
O O14 0.588105 0.799595 0.157280
#
# Coordination Sequence:
#
# PCOD9205006 Si02
#       6
#     8   8   8   8   8   8
#     4  10  21  37  58  83 124 165 206 250 295 351
#     4  11  22  40  62  86 122 162 200 251 305 361
#     4  12  23  38  59  88 123 160 202 246 303 365
#     4  11  24  42  63  90 120 156 204 256 318 379
#     4  11  23  39  58  88 124 168 210 249 294 352
#     4  10  21  34  56  82 124 162 202 248 293 347
#
# _framework density 20.332509999999999
#
# number of rings (size 3 to 8) (size 9 to 14) (size 15 to 20)
#    0.000    1.167    5.000    1.000    4.667    3.667 
#    6.000    0.000    0.000    0.500    0.000    4.667 
#    0.000    0.000    0.000    0.000    0.000    0.000 
#
# Total GULP energy -134068.401601 kJ/mol
# GULP energy per Si atom -5586.183400 kJ/mol
# Density = 2.028623 g / cm^3
# Si number density = 20.332510 Si / 1000 Ang^3
#
#
#
# Elastic Constant Matrix: (Units=GPa)
#
#
# Indices 1 2 3 4 5 6 
#
# 1 55.3026 10.9163 39.3880 0.0000 -0.0054 0.0000
# 2 10.9163 57.8231 30.3547 0.0000 8.2248 0.0000
# 3 39.3880 30.3547 146.4485 0.0000 -12.6815 0.0000
# 4 0.0000 0.0000 0.0000 19.9510 0.0000 -1.0954
# 5 -0.0054 8.2248 -12.6815 0.0000 38.3817 0.0000
# 6 0.0000 0.0000 0.0000 -1.0954 0.0000 11.5577
#
#
#
# Elastic Compliance Matrix: (Units=1/GPa)
#
#
# Indices 1 2 3 4 5 6 
#
# 1 0.022556 -0.000821 -0.006054 0.000000 -0.001821 0.000000
# 2 -0.000821 0.020703 -0.004586 0.000000 -0.005952 0.000000
# 3 -0.006054 -0.004586 0.009772 0.000000 0.004210 0.000000
# 4 0.000000 0.000000 0.000000 0.050385 0.000000 0.004775
# 5 -0.001821 -0.005952 0.004210 0.000000 0.028720 0.000000
# 6 0.000000 0.000000 0.000000 0.004775 0.000000 0.086975
#
#
# Mechanical properties :
#
#
# Convention : Reuss Voigt Hill
#
# Bulk Modulus (GPa) = 33.21265 46.76581 39.98923
# Shear Modulus (GPa) = 19.83585 25.90578 22.87082
#
# Velocity S-wave (km/s) = 3.12681 3.57334 3.35750
# Velocity P-wave (km/s) = 5.42274 6.33051 5.89413
#
# Compressibility (1/GPa) = 0.03010901
#
# Stress axis : x y z
#
# Youngs Moduli (GPa) = 44.33385 48.30216 102.33643
#
# Poissons Ratio (x) = 0.03966 0.61955
# Poissons Ratio (y) = 0.03640 0.46928
# Poissons Ratio (z) = 0.26840 0.22150
#
# Static dielectric constant tensor:
#      x y z
#    x 1.757240 0.000000 -0.017150 
#    y 0.000000 1.689110 0.000000 
#    z -0.017150 0.000000 1.778090 
# 
# From -- ./inp_files/21791.got.cif
#   From: 2010.05.17/outbox.cif.g08.bks.cpg/sg12_11_cif.got.tgz:21791.got - 2010.06.03 13:09:07.
