data_PCOD9205043
_publ_section_title
;
Structure prediction by ZEFSAII (Michael W. Deem and Ramdas Pophale) SiO2 
 PCOD9205043
Probable space group: C 2/M
;
_chemical_formula_sum "Si O2"
_cell_formula_units_Z 32
_cell_length_a 5.279688
_cell_length_b 29.665813
_cell_length_c 10.859031
_cell_angle_alpha 90.000000
_cell_angle_beta 111.351698
_cell_angle_gamma 90.000000
_cell_volume 1584.070871
_symmetry_space_group_name_H-M "C 2/M"
_symmetry_group_IT_number 12
_symmetry_cell_setting 'monoclinic'
loop_
_space_group_symop_operation_xyz
x,y,z
-x,y,-z
-x,-y,-z
x,-y,z
1/2+x,1/2+y,z
1/2-x,1/2+y,-z
1/2-x,1/2-y,-z
1/2+x,1/2-y,z
loop_
_atom_site_type_symbol
_atom_site_label
_atom_site_fract_x
_atom_site_fract_y
_atom_site_fract_z
Si Si1 0.312700 0.396613 0.351608
Si Si2 0.231882 0.865788 0.228819
Si Si3 0.818817 0.731623 0.149046
Si Si4 0.579235 0.949320 0.872114
O O1 0.500000 0.407779 0.500000
O O2 0.493906 0.368923 0.285955
O O3 0.190218 0.439698 0.257754
O O4 0.036313 0.370405 0.340037
O O5 0.234795 0.819892 0.152722
O O6 0.222550 0.910059 0.140604
O O7 0.640314 0.760371 0.212849
O O8 0.750000 0.750000 0.000000
O O9 0.681083 0.000000 0.871409
O O10 0.500000 0.943114 0.000000
#
# Coordination Sequence:
#
# PCOD9205043 Si02
#       4
#     8   8   8   8
#     4  10  22  41  65  89 125 172 208 248 306 372
#     4  10  22  39  64  91 126 161 205 262 305 361
#     4  10  21  34  58  91 123 154 205 252 304 365
#     4   9  22  39  62  96 130 162 204 256 313 368
#
# _framework density 20.201115999999999
#
# number of rings (size 3 to 8) (size 9 to 14) (size 15 to 20)
#    1.500    0.750    0.000    2.250    3.500    4.500 
#    0.000    3.750    0.000   15.000    0.000    0.000 
#    0.000    0.000    0.000    0.000    0.000    0.000 
#
# Total GULP energy -89087.129227 kJ/mol
# GULP energy per Si atom -5567.945577 kJ/mol
# Density = 2.015514 g / cm^3
# Si number density = 20.201116 Si / 1000 Ang^3
#
#
#
# Elastic Constant Matrix: (Units=GPa)
#
#
# Indices 1 2 3 4 5 6 
#
# 1 112.8994 15.4691 -4.9026 0.0000 -7.3546 0.0000
# 2 15.4691 116.9656 22.9912 0.0000 -18.2408 0.0000
# 3 -4.9026 22.9912 83.0082 0.0000 14.5231 0.0000
# 4 0.0000 0.0000 0.0000 49.3125 0.0000 -106.6093
# 5 -7.3546 -18.2408 14.5231 0.0000 27.5183 0.0000
# 6 0.0000 0.0000 0.0000 -106.6093 0.0000 294.5775
#
#
#
# Elastic Compliance Matrix: (Units=1/GPa)
#
#
# Indices 1 2 3 4 5 6 
#
# 1 0.009126 -0.001110 0.000604 0.000000 0.001385 0.000000
# 2 -0.001110 0.011154 -0.004844 0.000000 0.009653 0.000000
# 3 0.000604 -0.004844 0.015378 0.000000 -0.011165 0.000000
# 4 0.000000 0.000000 0.000000 0.093197 0.000000 0.033729
# 5 0.001385 0.009653 -0.011165 0.000000 0.049001 0.000000
# 6 0.000000 0.000000 0.000000 0.033729 0.000000 0.015601
#
#
# Mechanical properties :
#
#
# Convention : Reuss Voigt Hill
#
# Bulk Modulus (GPa) = 40.06630 42.22095 41.14362
# Shear Modulus (GPa) = 23.53219 92.90270 58.21744
#
# Velocity S-wave (km/s) = 3.41676 6.78887 5.37415
# Velocity P-wave (km/s) = 5.95335 9.07730 7.67593
#
# Compressibility (1/GPa) = 0.02495863
#
# Stress axis : x y z
#
# Youngs Moduli (GPa) = 109.57786 89.65544 65.02913
#
# Poissons Ratio (x) = 0.09950 -0.03929
# Poissons Ratio (y) = 0.12160 0.31499
# Poissons Ratio (z) = -0.06620 0.43427
#
# Static dielectric constant tensor:
#      x y z
#    x 1.535840 0.000000 -0.187580 
#    y 0.000000 1.702240 0.000000 
#    z -0.187580 0.000000 1.474980 
# 
# From -- ./inp_files/115068.got.cif
#   From: 2010.05.17/outbox.cif.g08.bks.cpg/sg12_58_cif.got.tgz:115068.got - 2010.06.03 13:09:07.
