data_PCOD9205322
_publ_section_title
;
Structure prediction by ZEFSAII (Michael W. Deem and Ramdas Pophale) SiO2 
 PCOD9205322
Probable space group: C 2/M
;
_chemical_formula_sum "Si O2"
_cell_formula_units_Z 56
_cell_length_a 29.031170
_cell_length_b 7.717484
_cell_length_c 19.558107
_cell_angle_alpha 90.000000
_cell_angle_beta 143.696095
_cell_angle_gamma 90.000000
_cell_volume 2594.410904
_symmetry_space_group_name_H-M "C 2/M"
_symmetry_group_IT_number 12
_symmetry_cell_setting 'monoclinic'
loop_
_space_group_symop_operation_xyz
x,y,z
-x,y,-z
-x,-y,-z
x,-y,z
1/2+x,1/2+y,z
1/2-x,1/2+y,-z
1/2-x,1/2-y,-z
1/2+x,1/2-y,z
loop_
_atom_site_type_symbol
_atom_site_label
_atom_site_fract_x
_atom_site_fract_y
_atom_site_fract_z
Si Si1 0.759143 0.709798 0.208883
Si Si2 0.519784 0.704245 0.808443
Si Si3 0.313822 0.708096 0.019796
Si Si4 0.962280 0.787435 0.883126
Si Si5 0.122892 0.300693 0.454660
Si Si6 0.712324 0.711729 0.304650
Si Si7 0.574061 0.296171 0.546996
O O1 0.759535 0.500000 0.209253
O O2 0.714326 0.770025 0.088346
O O3 0.721983 0.763686 0.236737
O O4 0.847944 0.772064 0.315807
O O5 0.532526 0.500000 0.832822
O O6 0.507626 0.774880 0.870326
O O7 0.441205 0.721875 0.671378
O O8 0.597541 0.772235 0.864284
O O9 0.315193 0.500000 0.019761
O O10 0.250000 0.750000 0.000000
O O11 0.871939 0.734498 0.770167
O O12 0.963402 0.000000 0.884770
O O13 0.000000 0.732782 0.000000
O O14 0.129784 0.500000 0.442629
O O15 0.210572 0.225908 0.563266
O O16 0.090953 0.289688 0.494158
O O17 0.714781 0.500000 0.308981
O O18 0.500000 0.228938 0.500000
O O19 0.561501 0.500000 0.518300
#
# Coordination Sequence:
#
# PCOD9205322 Si02
#       7
#     8   8   8   8   8   8   8
#     4   9  18  34  54  77 105 138 178 221 267 326
#     4  10  21  36  55  82 114 143 182 234 276 320
#     4  10  22  37  53  76 107 144 182 224 273 323
#     4   9  16  29  55  85 109 140 181 225 276 328
#     4  10  21  36  54  77 111 150 185 222 269 329
#     4   8  15  30  52  78 106 137 177 222 267 321
#     4  10  21  35  54  79 106 137 177 230 278 319
#
# _framework density 21.584862999999999
#
# number of rings (size 3 to 8) (size 9 to 14) (size 15 to 20)
#    0.000    2.571    0.000    2.571    2.000    6.286 
#    0.000    0.000    0.000    3.857    0.000    0.000 
#    0.000    0.000    0.000    0.000    0.000    0.000 
#
# Total GULP energy -156281.564174 kJ/mol
# GULP energy per Si atom -5581.484435 kJ/mol
# Density = 2.153573 g / cm^3
# Si number density = 21.584863 Si / 1000 Ang^3
#
#
#
# Elastic Constant Matrix: (Units=GPa)
#
#
# Indices 1 2 3 4 5 6 
#
# 1 115.8283 8.5858 72.6931 0.0000 30.8779 0.0000
# 2 8.5858 31.3232 3.8841 0.0000 2.3603 0.0000
# 3 72.6931 3.8841 130.0363 0.0000 10.3186 0.0000
# 4 0.0000 0.0000 0.0000 21.4253 0.0000 -1.7103
# 5 30.8779 2.3603 10.3186 0.0000 28.8309 0.0000
# 6 0.0000 0.0000 0.0000 -1.7103 0.0000 6.6578
#
#
#
# Elastic Compliance Matrix: (Units=1/GPa)
#
#
# Indices 1 2 3 4 5 6 
#
# 1 0.019227 -0.002832 -0.009313 0.000000 -0.017027 0.000000
# 2 -0.002832 0.032616 0.000597 0.000000 0.000150 0.000000
# 3 -0.009313 0.000597 0.012444 0.000000 0.005471 0.000000
# 4 0.000000 0.000000 0.000000 0.047651 0.000000 0.012241
# 5 -0.017027 0.000150 0.005471 0.000000 0.050951 0.000000
# 6 0.000000 0.000000 0.000000 0.012241 0.000000 0.153345
#
#
# Mechanical properties :
#
#
# Convention : Reuss Voigt Hill
#
# Bulk Modulus (GPa) = 24.27653 49.72375 37.00014
# Shear Modulus (GPa) = 14.16185 24.18445 19.17315
#
# Velocity S-wave (km/s) = 2.56423 3.35092 2.98362
# Velocity P-wave (km/s) = 4.47643 6.16912 5.38964
#
# Compressibility (1/GPa) = 0.04119204
#
# Stress axis : x y z
#
# Youngs Moduli (GPa) = 52.00955 30.65956 80.35899
#
# Poissons Ratio (x) = 0.08684 0.74836
# Poissons Ratio (y) = 0.14731 -0.04800
# Poissons Ratio (z) = 0.48435 -0.01831
#
# Static dielectric constant tensor:
#      x y z
#    x 1.782250 0.000000 0.024820 
#    y 0.000000 1.809560 0.000000 
#    z 0.024820 0.000000 1.778400 
# 
# From -- ./inp_files/281691.got.cif
#   From: 2010.05.17/outbox.cif.g08.bks.cpg/sg12_141_cif.got.tgz:281691.got - 2010.06.03 13:09:07.
