data_PCOD9205601
_publ_section_title
;
Structure prediction by ZEFSAII (Michael W. Deem and Ramdas Pophale) SiO2 
 PCOD9205601
Probable space group: C 2/M
;
_chemical_formula_sum "Si O2"
_cell_formula_units_Z 40
_cell_length_a 8.822064
_cell_length_b 25.843928
_cell_length_c 9.117893
_cell_angle_alpha 90.000000
_cell_angle_beta 73.457093
_cell_angle_gamma 90.000000
_cell_volume 1992.799990
_symmetry_space_group_name_H-M "C 2/M"
_symmetry_group_IT_number 12
_symmetry_cell_setting 'monoclinic'
loop_
_space_group_symop_operation_xyz
x,y,z
-x,y,-z
-x,-y,-z
x,-y,z
1/2+x,1/2+y,z
1/2-x,1/2+y,-z
1/2-x,1/2-y,-z
1/2+x,1/2-y,z
loop_
_atom_site_type_symbol
_atom_site_label
_atom_site_fract_x
_atom_site_fract_y
_atom_site_fract_z
Si Si1 0.093354 0.939822 0.126845
Si Si2 0.620855 0.864579 0.848115
Si Si3 0.866267 0.100454 0.431651
Si Si4 0.935194 0.558058 0.361679
Si Si5 0.830147 0.305481 0.470742
O O1 0.230344 0.896671 0.123107
O O2 0.954623 0.931182 0.283838
O O3 0.152228 0.000000 0.117843
O O4 0.000000 0.932349 0.000000
O O5 0.520386 0.908048 0.787996
O O6 0.665374 0.826436 0.700238
O O7 0.500000 0.841390 0.000000
O O8 0.752307 0.064017 0.560287
O O9 0.766514 0.150475 0.413991
O O10 0.000000 0.122433 0.500000
O O11 0.987097 0.500000 0.326448
O O12 0.000000 0.576290 0.500000
O O13 0.750000 0.250000 0.500000
O O14 0.000000 0.301930 0.500000
#
# Coordination Sequence:
#
# PCOD9205601 Si02
#       5
#     8   8   8   8   8
#     4  11  25  39  61  96 139 184 220 261 317 378
#     4  11  24  42  63  93 135 170 212 268 333 391
#     4  11  20  39  64  90 128 168 224 271 318 377
#     4  10  21  35  58  89 125 175 223 263 313 378
#     4  11  25  46  74  97 123 165 219 278 339 397
#
# _framework density 20.072261000000001
#
# number of rings (size 3 to 8) (size 9 to 14) (size 15 to 20)
#    0.000    1.200    4.000    4.200    5.600    2.400 
#    0.000    2.000    0.000    0.000    0.000    0.000 
#    0.000    0.000    0.000    0.000    0.000    0.000 
#
# Total GULP energy -111470.787705 kJ/mol
# GULP energy per Si atom -5573.539385 kJ/mol
# Density = 2.002658 g / cm^3
# Si number density = 20.072261 Si / 1000 Ang^3
#
#
#
# Elastic Constant Matrix: (Units=GPa)
#
#
# Indices 1 2 3 4 5 6 
#
# 1 104.7870 38.7402 26.7811 0.0000 19.4029 0.0000
# 2 38.7402 107.5620 22.4340 0.0000 15.4995 0.0000
# 3 26.7811 22.4340 88.9887 0.0000 -1.0957 0.0000
# 4 0.0000 0.0000 0.0000 12.2746 0.0000 -3.0065
# 5 19.4029 15.4995 -1.0957 0.0000 30.9093 0.0000
# 6 0.0000 0.0000 0.0000 -3.0065 0.0000 10.0987
#
#
#
# Elastic Compliance Matrix: (Units=1/GPa)
#
#
# Indices 1 2 3 4 5 6 
#
# 1 0.012657 -0.002955 -0.003145 0.000000 -0.006575 0.000000
# 2 -0.002955 0.011345 -0.002019 0.000000 -0.003906 0.000000
# 3 -0.003145 -0.002019 0.012735 0.000000 0.003438 0.000000
# 4 0.000000 0.000000 0.000000 0.087877 0.000000 0.026163
# 5 -0.006575 -0.003906 0.003438 0.000000 0.038560 0.000000
# 6 0.000000 0.000000 0.000000 0.026163 0.000000 0.106812
#
#
# Mechanical properties :
#
#
# Convention : Reuss Voigt Hill
#
# Bulk Modulus (GPa) = 48.78266 53.02759 50.90512
# Shear Modulus (GPa) = 17.06146 24.88201 20.97174
#
# Velocity S-wave (km/s) = 2.91864 3.52465 3.23586
# Velocity P-wave (km/s) = 5.97614 6.56048 6.27511
#
# Compressibility (1/GPa) = 0.02049909
#
# Stress axis : x y z
#
# Youngs Moduli (GPa) = 79.00791 88.14319 78.52279
#
# Poissons Ratio (x) = 0.26048 0.24696
# Poissons Ratio (y) = 0.23349 0.15852
# Poissons Ratio (z) = 0.24848 0.17795
#
# Static dielectric constant tensor:
#      x y z
#    x 1.910820 0.000000 0.011260 
#    y 0.000000 1.713380 0.000000 
#    z 0.011260 0.000000 1.740610 
# 
# From -- ./inp_files/40314.got.cif
#   From: 2010.05.17/outbox.cif.g08.bks.cpg/sg12_21_cif.got.tgz:40314.got - 2010.06.03 13:09:07.
