data_PCOD9205790
_publ_section_title
;
Structure prediction by ZEFSAII (Michael W. Deem and Ramdas Pophale) SiO2 
 PCOD9205790
Probable space group: C 2/M
;
_chemical_formula_sum "Si O2"
_cell_formula_units_Z 56
_cell_length_a 13.334794
_cell_length_b 13.537504
_cell_length_c 31.177601
_cell_angle_alpha 90.000000
_cell_angle_beta 36.855554
_cell_angle_gamma 90.000000
_cell_volume 3375.777796
_symmetry_space_group_name_H-M "C 2/M"
_symmetry_group_IT_number 12
_symmetry_cell_setting 'monoclinic'
loop_
_space_group_symop_operation_xyz
x,y,z
-x,y,-z
-x,-y,-z
x,-y,z
1/2+x,1/2+y,z
1/2-x,1/2+y,-z
1/2-x,1/2-y,-z
1/2+x,1/2-y,z
loop_
_atom_site_type_symbol
_atom_site_label
_atom_site_fract_x
_atom_site_fract_y
_atom_site_fract_z
Si Si1 0.520665 0.383076 0.921900
Si Si2 0.520878 0.809408 0.543696
Si Si3 0.223761 0.616849 0.087723
Si Si4 0.902718 0.752421 0.186969
Si Si5 0.323132 0.382801 0.297303
Si Si6 0.116894 0.886894 0.556546
Si Si7 0.581156 0.384498 0.286120
O O1 0.520155 0.500000 0.912003
O O2 0.666376 0.366202 0.907140
O O3 0.551768 0.318874 0.869537
O O4 0.346753 0.360232 0.005720
O O5 0.500000 0.820628 0.500000
O O6 0.357420 0.851109 0.622953
O O7 0.687409 0.865753 0.502272
O O8 0.548209 0.695119 0.547500
O O9 0.184882 0.500000 0.099238
O O10 0.058802 0.681555 0.143431
O O11 0.865175 0.821368 0.240570
O O12 0.740448 0.686065 0.232662
O O13 0.324026 0.500000 0.288453
O O14 0.459268 0.362685 0.287958
O O15 0.022627 0.872745 0.634234
O O16 0.091953 0.000000 0.551180
O O17 0.631240 0.500000 0.266101
#
# Coordination Sequence:
#
# PCOD9205790 Si02
#       7
#     8   8   8   8   8   8   8
#     4   9  19  36  56  79 108 141 176 220 258 310
#     4  11  21  37  60  78 102 142 186 219 264 317
#     4   9  19  36  57  80 106 140 182 213 257 318
#     4  12  20  34  55  82 109 141 174 220 269 315
#     4  11  23  36  52  80 109 141 179 222 266 313
#     4  10  21  37  56  80 105 135 178 226 267 312
#     4  10  21  36  53  76 109 141 175 218 267 318
#
# _framework density 16.588768999999999
#
# number of rings (size 3 to 8) (size 9 to 14) (size 15 to 20)
#    0.000    1.714    2.857    3.429    0.000    0.857 
#    0.000    0.000    0.000    0.857    0.000   12.000 
#    0.000    0.000    0.000    0.000    0.000    0.000 
#
# Total GULP energy -156340.262212 kJ/mol
# GULP energy per Si atom -5583.580793 kJ/mol
# Density = 1.655101 g / cm^3
# Si number density = 16.588769 Si / 1000 Ang^3
#
#
#
# Elastic Constant Matrix: (Units=GPa)
#
#
# Indices 1 2 3 4 5 6 
#
# 1 55.6832 38.3614 58.9666 0.0001 -18.0570 0.0000
# 2 38.3614 77.6315 67.1938 0.0000 -16.2548 0.0000
# 3 58.9666 67.1938 129.0000 -0.0002 -6.8408 0.0000
# 4 0.0001 0.0000 -0.0002 13.9528 0.0001 -8.7127
# 5 -18.0570 -16.2548 -6.8408 0.0001 30.2849 0.0000
# 6 0.0000 0.0000 0.0000 -8.7127 0.0000 20.2595
#
#
#
# Elastic Compliance Matrix: (Units=1/GPa)
#
#
# Indices 1 2 3 4 5 6 
#
# 1 0.047096 -0.001662 -0.019453 -0.000001 0.022794 0.000000
# 2 -0.001662 0.026905 -0.012694 0.000000 0.010583 0.000000
# 3 -0.019453 -0.012694 0.022550 0.000001 -0.013318 0.000000
# 4 -0.000001 0.000000 0.000001 0.097983 -0.000001 0.042138
# 5 0.022794 0.010583 -0.013318 -0.000001 0.049282 0.000000
# 6 0.000000 0.000000 0.000000 0.042138 0.000000 0.067481
#
#
# Mechanical properties :
#
#
# Convention : Reuss Voigt Hill
#
# Bulk Modulus (GPa) = 34.56219 65.70648 50.13434
# Shear Modulus (GPa) = 12.86804 19.41898 16.14351
#
# Velocity S-wave (km/s) = 2.78818 3.42513 3.12293
# Velocity P-wave (km/s) = 5.58974 7.43889 6.57960
#
# Compressibility (1/GPa) = 0.02893335
#
# Stress axis : x y z
#
# Youngs Moduli (GPa) = 21.23332 37.16722 44.34602
#
# Poissons Ratio (x) = 0.06176 0.86268
# Poissons Ratio (y) = 0.03528 0.56292
# Poissons Ratio (z) = 0.41306 0.47179
#
# Static dielectric constant tensor:
#      x y z
#    x 1.527090 0.000000 -0.002360 
#    y 0.000000 1.541000 0.000000 
#    z -0.002360 0.000000 1.531530 
# 
# From -- ./inp_files/205024.got.cif
#   From: 2010.05.17/outbox.cif.g08.bks.cpg/sg12_103_cif.got.tgz:205024.got - 2010.06.03 13:09:07.
