data_PCOD9205019
_publ_section_title
;
Structure prediction by ZEFSAII (Michael W. Deem and Ramdas Pophale) SiO2 
 PCOD9205019
Probable space group: C 2/M
;
_chemical_formula_sum "Si O2"
_cell_formula_units_Z 36
_cell_length_a 16.005653
_cell_length_b 18.035619
_cell_length_c 11.847620
_cell_angle_alpha 90.000000
_cell_angle_beta 151.021562
_cell_angle_gamma 90.000000
_cell_volume 1656.959203
_symmetry_space_group_name_H-M "C 2/M"
_symmetry_group_IT_number 12
_symmetry_cell_setting 'monoclinic'
loop_
_space_group_symop_operation_xyz
x,y,z
-x,y,-z
-x,-y,-z
x,-y,z
1/2+x,1/2+y,z
1/2-x,1/2+y,-z
1/2-x,1/2-y,-z
1/2+x,1/2-y,z
loop_
_atom_site_type_symbol
_atom_site_label
_atom_site_fract_x
_atom_site_fract_y
_atom_site_fract_z
Si Si1 0.848970 0.755427 0.893069
Si Si2 0.053876 0.584233 0.690550
Si Si3 0.235163 0.331234 0.543770
Si Si4 0.000000 0.163160 0.500000
Si Si5 0.438963 0.627187 0.177991
O O1 0.808157 0.820652 0.756108
O O2 0.673385 0.710948 0.692486
O O3 0.898483 0.791943 0.071092
O O4 0.000000 0.713766 0.000000
O O5 0.993554 0.500000 0.636907
O O6 0.000000 0.606588 0.500000
O O7 0.956652 0.637218 0.665373
O O8 0.260532 0.586357 0.942223
O O9 0.250000 0.250000 0.500000
O O10 0.371210 0.387274 0.648202
O O11 0.968986 0.122560 0.346333
#
# Coordination Sequence:
#
# PCOD9205019 Si02
#       5
#     8   8   8   4   8
#     4  10  21  34  56  93 133 165 206 270 334 389
#     4  11  25  45  68  94 131 178 223 272 332 398
#     4  11  22  39  65 101 135 165 213 279 340 389
#     4  12  22  34  59  90 131 178 208 266 334 386
#     4  11  24  38  61  94 132 170 219 267 329 398
#
# _framework density 21.726545999999999
#
# number of rings (size 3 to 8) (size 9 to 14) (size 15 to 20)
#    0.000    1.111    4.444    2.000    6.222    0.889 
#    0.000    2.778    0.000    1.333    0.000    0.000 
#    0.000    0.000    0.000    0.000    0.000    0.000 
#
# Total GULP energy -100280.366132 kJ/mol
# GULP energy per Si atom -5571.131452 kJ/mol
# Density = 2.167710 g / cm^3
# Si number density = 21.726546 Si / 1000 Ang^3
#
#
#
# Elastic Constant Matrix: (Units=GPa)
#
#
# Indices 1 2 3 4 5 6 
#
# 1 112.1301 37.2743 28.3183 0.0000 14.2008 0.0000
# 2 37.2743 49.5979 13.9640 0.0000 14.8448 0.0000
# 3 28.3183 13.9640 92.9965 0.0000 9.2894 0.0000
# 4 0.0000 0.0000 0.0000 18.1685 0.0000 5.4302
# 5 14.2008 14.8448 9.2894 0.0000 60.6908 0.0000
# 6 0.0000 0.0000 0.0000 5.4302 0.0000 22.6629
#
#
#
# Elastic Compliance Matrix: (Units=1/GPa)
#
#
# Indices 1 2 3 4 5 6 
#
# 1 0.012426 -0.008511 -0.002461 0.000000 -0.000449 0.000000
# 2 -0.008511 0.028315 -0.001185 0.000000 -0.004753 0.000000
# 3 -0.002461 -0.001185 0.011774 0.000000 -0.000936 0.000000
# 4 0.000000 0.000000 0.000000 0.059286 0.000000 -0.014205
# 5 -0.000449 -0.004753 -0.000936 0.000000 0.017888 0.000000
# 6 0.000000 0.000000 0.000000 -0.014205 0.000000 0.047529
#
#
# Mechanical properties :
#
#
# Convention : Reuss Voigt Hill
#
# Bulk Modulus (GPa) = 35.46090 45.98196 40.72143
# Shear Modulus (GPa) = 23.70435 31.98230 27.84332
#
# Velocity S-wave (km/s) = 3.30666 3.84088 3.58374
# Velocity P-wave (km/s) = 5.56197 6.39372 5.99230
#
# Compressibility (1/GPa) = 0.02820008
#
# Stress axis : x y z
#
# Youngs Moduli (GPa) = 80.47729 35.31733 84.93314
#
# Poissons Ratio (x) = 0.30059 0.20902
# Poissons Ratio (y) = 0.68495 0.10066
# Poissons Ratio (z) = 0.19805 0.04186
#
# Static dielectric constant tensor:
#      x y z
#    x 3.305100 0.000000 1.050060 
#    y 0.000000 1.817570 0.000000 
#    z 1.050060 0.000000 2.582820 
# 
# From -- ./inp_files/147841.got.cif
#   From: 2010.05.17/outbox.cif.g08.bks.cpg/sg12_74_cif.got.tgz:147841.got - 2010.06.03 13:09:07.
