data_PCOD9205957
_publ_section_title
;
Structure prediction by ZEFSAII (Michael W. Deem and Ramdas Pophale) SiO2 
 PCOD9205957
Probable space group: C 2/M
;
_chemical_formula_sum "Si O2"
_cell_formula_units_Z 56
_cell_length_a 26.199434
_cell_length_b 29.271226
_cell_length_c 13.821198
_cell_angle_alpha 90.000000
_cell_angle_beta 161.405470
_cell_angle_gamma 90.000000
_cell_volume 3379.796656
_symmetry_space_group_name_H-M "C 2/M"
_symmetry_group_IT_number 12
_symmetry_cell_setting 'monoclinic'
loop_
_space_group_symop_operation_xyz
x,y,z
-x,y,-z
-x,-y,-z
x,-y,z
1/2+x,1/2+y,z
1/2-x,1/2+y,-z
1/2-x,1/2-y,-z
1/2+x,1/2-y,z
loop_
_atom_site_type_symbol
_atom_site_label
_atom_site_fract_x
_atom_site_fract_y
_atom_site_fract_z
Si Si1 0.775620 0.356048 0.361710
Si Si2 0.818726 0.300730 0.637452
Si Si3 0.242393 0.448073 0.363682
Si Si4 0.514148 0.300180 0.636585
Si Si5 0.586091 0.643952 0.361712
Si Si6 0.622437 0.800181 0.636584
Si Si7 0.878709 0.551927 0.636316
O O1 0.811501 0.327874 0.523492
O O2 0.867630 0.333500 0.437012
O O3 0.824642 0.408227 0.468528
O O4 0.587306 0.352994 0.999999
O O5 0.750000 0.250000 0.500000
O O6 0.711991 0.327874 0.523493
O O7 0.000000 0.298523 0.000000
O O8 0.298449 0.500000 0.447120
O O9 0.356113 0.408227 0.531468
O O10 0.214249 0.442599 0.428498
O O11 0.066461 0.443362 0.999999
O O12 0.500000 0.315494 0.500000
O O13 0.430618 0.333499 0.562987
O O14 0.435290 0.250000 0.500002
O O15 0.700163 0.296415 0.000001
O O16 0.500000 0.815495 0.500000
O O17 0.851327 0.500000 0.552877
#
# Coordination Sequence:
#
# PCOD9205957 Si02
#       7
#     8   8   8   8   8   8   8
#     4  11  22  35  53  80 109 138 175 217 264 315
#     4  12  24  36  51  74 107 144 176 211 259 315
#     4   9  18  33  53  78 107 140 178 216 260 314
#     4  10  21  36  55  78 104 137 178 220 260 309
#     4  11  22  35  53  80 109 138 175 217 264 315
#     4  10  21  36  55  78 104 137 178 220 260 309
#     4   9  18  33  53  78 107 140 178 216 260 314
#
# _framework density 16.569044000000002
#
# number of rings (size 3 to 8) (size 9 to 14) (size 15 to 20)
#    0.000    1.714    1.429    5.571    0.000    7.429 
#    0.000    1.429    0.000    0.857    0.000    0.000 
#    0.000    0.000    0.000    0.000    0.000    0.000 
#
# Total GULP energy -156387.202563 kJ/mol
# GULP energy per Si atom -5585.257234 kJ/mol
# Density = 1.653133 g / cm^3
# Si number density = 16.569044 Si / 1000 Ang^3
#
#
#
# Elastic Constant Matrix: (Units=GPa)
#
#
# Indices 1 2 3 4 5 6 
#
# 1 130.9872 93.0231 71.3209 0.0000 -0.6542 0.0000
# 2 93.0231 138.9915 66.4004 0.0000 -2.3852 0.0000
# 3 71.3209 66.4004 81.1884 0.0000 -3.8069 0.0000
# 4 0.0000 0.0000 0.0000 32.8505 0.0000 1.5690
# 5 -0.6542 -2.3852 -3.8069 0.0000 25.8980 0.0000
# 6 0.0000 0.0000 0.0000 1.5690 0.0000 15.3371
#
#
#
# Elastic Compliance Matrix: (Units=1/GPa)
#
#
# Indices 1 2 3 4 5 6 
#
# 1 0.018553 -0.007586 -0.010175 0.000000 -0.001726 0.000000
# 2 -0.007586 0.014913 -0.005515 0.000000 0.000371 0.000000
# 3 -0.010175 -0.005515 0.025909 0.000000 0.003044 0.000000
# 4 0.000000 0.000000 0.000000 0.030590 0.000000 -0.003129
# 5 -0.001726 0.000371 0.003044 0.000000 0.039051 0.000000
# 6 0.000000 0.000000 0.000000 -0.003129 0.000000 0.065522
#
#
# Mechanical properties :
#
#
# Convention : Reuss Voigt Hill
#
# Bulk Modulus (GPa) = 77.98783 90.29510 84.14147
# Shear Modulus (GPa) = 20.37786 22.84528 21.61157
#
# Velocity S-wave (km/s) = 3.51076 3.71724 3.61547
# Velocity P-wave (km/s) = 7.97524 8.54625 8.26568
#
# Compressibility (1/GPa) = 0.01282251
#
# Stress axis : x y z
#
# Youngs Moduli (GPa) = 53.89944 67.05637 38.59681
#
# Poissons Ratio (x) = 0.50867 0.39272
# Poissons Ratio (y) = 0.40887 0.21287
# Poissons Ratio (z) = 0.54843 0.36984
#
# Static dielectric constant tensor:
#      x y z
#    x 1.537810 0.000000 0.001550 
#    y 0.000000 1.548470 0.000000 
#    z 0.001550 0.000000 1.555120 
# 
# From -- ./inp_files/178709.got.cif
#   From: 2010.05.17/outbox.cif.g08.bks.cpg/sg12_90_cif.got.tgz:178709.got - 2010.06.03 13:09:07.
