data_PCOD9205784
_publ_section_title
;
Structure prediction by ZEFSAII (Michael W. Deem and Ramdas Pophale) SiO2 
 PCOD9205784
Probable space group: C 2/M
;
_chemical_formula_sum "Si O2"
_cell_formula_units_Z 56
_cell_length_a 9.503685
_cell_length_b 27.145742
_cell_length_c 16.508263
_cell_angle_alpha 90.000000
_cell_angle_beta 45.447322
_cell_angle_gamma 90.000000
_cell_volume 3034.900372
_symmetry_space_group_name_H-M "C 2/M"
_symmetry_group_IT_number 12
_symmetry_cell_setting 'monoclinic'
loop_
_space_group_symop_operation_xyz
x,y,z
-x,y,-z
-x,-y,-z
x,-y,z
1/2+x,1/2+y,z
1/2-x,1/2+y,-z
1/2-x,1/2-y,-z
1/2+x,1/2-y,z
loop_
_atom_site_type_symbol
_atom_site_label
_atom_site_fract_x
_atom_site_fract_y
_atom_site_fract_z
Si Si1 0.765316 0.690280 0.585658
Si Si2 0.058215 0.307336 0.815005
Si Si3 0.312020 0.732796 0.124576
Si Si4 0.729454 0.695217 0.422713
Si Si5 0.725199 0.555692 0.875680
Si Si6 0.134016 0.603791 0.018199
Si Si7 0.411810 0.363612 0.187004
O O1 0.744855 0.670545 0.503298
O O2 0.694326 0.747642 0.610576
O O3 0.663912 0.658516 0.697078
O O4 0.000000 0.692263 0.500000
O O5 0.870565 0.275789 0.860371
O O6 0.981138 0.347340 0.907936
O O7 0.218982 0.271725 0.791214
O O8 0.151537 0.330582 0.696883
O O9 0.380700 0.681407 0.136483
O O10 0.500000 0.752009 0.000000
O O11 0.500000 0.697713 0.500000
O O12 0.777748 0.500000 0.831452
O O13 0.846070 0.573179 0.906096
O O14 0.716344 0.592655 0.802666
O O15 0.500000 0.556080 0.000000
O O16 0.358694 0.619071 0.902018
O O17 0.000000 0.581487 0.000000
#
# Coordination Sequence:
#
# PCOD9205784 Si02
#       7
#     8   8   8   8   8   8   8
#     4  10  21  36  53  75 107 153 200 240 267 316
#     4  12  24  35  52  76 117 156 194 231 278 330
#     4  12  22  34  49  78 113 156 188 228 281 336
#     4  10  23  35  50  73 108 159 204 227 268 324
#     4   9  19  40  65  85 110 144 184 240 302 348
#     4  11  24  35  55  89 118 146 185 230 289 353
#     4  11  20  39  58  82 115 147 195 238 281 344
#
# _framework density 18.452005
#
# number of rings (size 3 to 8) (size 9 to 14) (size 15 to 20)
#    0.000    1.286    4.286    2.143    8.000    0.286 
#    0.000    0.000    0.000    0.429    0.000    0.000 
#    0.000    2.286    0.000    0.000    0.000    0.000 
#
# Total GULP energy -156220.134137 kJ/mol
# GULP energy per Si atom -5579.290505 kJ/mol
# Density = 1.841001 g / cm^3
# Si number density = 18.452005 Si / 1000 Ang^3
#
#
#
# Elastic Constant Matrix: (Units=GPa)
#
#
# Indices 1 2 3 4 5 6 
#
# 1 100.4686 27.3491 19.5282 0.0000 14.7701 0.0000
# 2 27.3491 74.2258 19.7348 0.0000 15.9573 0.0000
# 3 19.5282 19.7348 100.2930 0.0000 18.1248 0.0000
# 4 0.0000 0.0000 0.0000 16.6745 0.0000 8.7494
# 5 14.7701 15.9573 18.1248 0.0000 32.9438 0.0000
# 6 0.0000 0.0000 0.0000 8.7494 0.0000 15.7098
#
#
#
# Elastic Compliance Matrix: (Units=1/GPa)
#
#
# Indices 1 2 3 4 5 6 
#
# 1 0.011497 -0.003319 -0.001049 0.000000 -0.002970 0.000000
# 2 -0.003319 0.016303 -0.001559 0.000000 -0.005551 0.000000
# 3 -0.001049 -0.001559 0.011393 0.000000 -0.005043 0.000000
# 4 0.000000 0.000000 0.000000 0.084734 0.000000 -0.047192
# 5 -0.002970 -0.005551 -0.005043 0.000000 0.037150 0.000000
# 6 0.000000 0.000000 0.000000 -0.047192 0.000000 0.089938
#
#
# Mechanical properties :
#
#
# Convention : Reuss Voigt Hill
#
# Bulk Modulus (GPa) = 36.57517 45.35684 40.96600
# Shear Modulus (GPa) = 18.38360 26.95732 22.67046
#
# Velocity S-wave (km/s) = 3.15984 3.82637 3.50897
# Velocity P-wave (km/s) = 5.76000 6.64499 6.21826
#
# Compressibility (1/GPa) = 0.02734095
#
# Stress axis : x y z
#
# Youngs Moduli (GPa) = 86.97683 61.33799 87.77287
#
# Poissons Ratio (x) = 0.20357 0.09206
# Poissons Ratio (y) = 0.28867 0.13679
# Poissons Ratio (z) = 0.09123 0.09560
#
# Static dielectric constant tensor:
#      x y z
#    x 1.676810 0.000000 0.046350 
#    y 0.000000 1.640170 0.000000 
#    z 0.046350 0.000000 1.665430 
# 
# From -- ./inp_files/185201.got.cif
#   From: 2010.05.17/outbox.cif.g08.bks.cpg/sg12_93_cif.got.tgz:185201.got - 2010.06.03 13:09:07.
