data_PCOD9205196
_publ_section_title
;
Structure prediction by ZEFSAII (Michael W. Deem and Ramdas Pophale) SiO2 
 PCOD9205196
Probable space group: C 2/M
;
_chemical_formula_sum "Si O2"
_cell_formula_units_Z 58
_cell_length_a 14.878903
_cell_length_b 7.730481
_cell_length_c 21.099001
_cell_angle_alpha 90.000000
_cell_angle_beta 110.206418
_cell_angle_gamma 90.000000
_cell_volume 2277.468970
_symmetry_space_group_name_H-M "C 2/M"
_symmetry_group_IT_number 12
_symmetry_cell_setting 'monoclinic'
loop_
_space_group_symop_operation_xyz
x,y,z
-x,y,-z
-x,-y,-z
x,-y,z
1/2+x,1/2+y,z
1/2-x,1/2+y,-z
1/2-x,1/2-y,-z
1/2+x,1/2-y,z
loop_
_atom_site_type_symbol
_atom_site_label
_atom_site_fract_x
_atom_site_fract_y
_atom_site_fract_z
Si Si1 0.277654 0.203354 0.795349
Si Si2 0.134109 0.790421 0.649285
Si Si3 0.446343 0.203466 0.547371
Si Si4 0.210027 0.698482 0.403911
Si Si5 0.138867 0.706041 0.987986
Si Si6 0.117319 0.296707 0.839902
Si Si7 0.500000 0.500000 0.000000
Si Si8 0.076485 0.809724 0.262608
O O1 0.197308 0.261224 0.724593
O O2 0.223885 0.234087 0.847967
O O3 0.373266 0.292920 0.794136
O O4 0.294826 0.000000 0.793132
O O5 0.027841 0.720245 0.620986
O O6 0.193361 0.724836 0.601973
O O7 0.130961 0.000000 0.647574
O O8 0.500000 0.284405 0.500000
O O9 0.349012 0.278866 0.552480
O O10 0.430820 0.000000 0.531663
O O11 0.230585 0.500000 0.424599
O O12 0.136359 0.694195 0.325914
O O13 0.129821 0.500000 0.002594
O O14 0.092659 0.735920 0.906793
O O15 0.084268 0.844801 0.018016
O O16 0.250000 0.750000 0.000000
O O17 0.115769 0.500000 0.829357
O O18 0.035132 0.217358 0.775874
O O19 0.092291 0.000000 0.292636
#
# Coordination Sequence:
#
# PCOD9205196 Si02
#       8
#     8   8   8   8   8   8   2   8
#     4  10  21  38  62  90 124 162 198 251 316 381
#     4   9  19  35  54  79 109 148 193 236 303 373
#     4  10  21  35  52  76 105 144 195 247 303 364
#     4   9  19  37  56  75 112 156 191 245 309 372
#     4  11  26  49  76 109 144 192 248 298 358 427
#     4  11  24  41  64  96 133 166 212 264 318 384
#     4  12  26  48  84 100 148 196 238 304 354 420
#     4  11  22  36  59  91 126 160 206 250 312 388
#
# _framework density 25.466868000000002
#
# number of rings (size 3 to 8) (size 9 to 14) (size 15 to 20)
#    0.000    1.793    0.690    3.931    1.931    7.448 
#    0.000    0.000    0.000    0.000    0.000    0.000 
#    0.000    0.000    0.000    0.000    0.000    0.000 
#
# Total GULP energy -161897.489819 kJ/mol
# GULP energy per Si atom -5582.672063 kJ/mol
# Density = 2.540890 g / cm^3
# Si number density = 25.466868 Si / 1000 Ang^3
#
#
#
# Elastic Constant Matrix: (Units=GPa)
#
#
# Indices 1 2 3 4 5 6 
#
# 1 168.0565 13.7203 7.0923 0.0000 -4.6312 0.0000
# 2 13.7203 86.3783 17.1675 0.0000 7.3956 0.0000
# 3 7.0923 17.1675 44.2415 0.0000 -3.2843 0.0000
# 4 0.0000 0.0000 0.0000 15.3891 0.0000 0.9207
# 5 -4.6312 7.3956 -3.2843 0.0000 39.8112 0.0000
# 6 0.0000 0.0000 0.0000 0.9207 0.0000 31.6937
#
#
#
# Elastic Compliance Matrix: (Units=1/GPa)
#
#
# Indices 1 2 3 4 5 6 
#
# 1 0.006072 -0.000926 -0.000552 0.000000 0.000833 0.000000
# 2 -0.000926 0.012992 -0.005111 0.000000 -0.002943 0.000000
# 3 -0.000552 -0.005111 0.024893 0.000000 0.002939 0.000000
# 4 0.000000 0.000000 0.000000 0.065094 0.000000 -0.001891
# 5 0.000833 -0.002943 0.002939 0.000000 0.026005 0.000000
# 6 0.000000 0.000000 0.000000 -0.001891 0.000000 0.031607
#
#
# Mechanical properties :
#
#
# Convention : Reuss Voigt Hill
#
# Bulk Modulus (GPa) = 32.49065 41.62627 37.05846
# Shear Modulus (GPa) = 26.30163 34.75852 30.53008
#
# Velocity S-wave (km/s) = 3.21717 3.69840 3.46615
# Velocity P-wave (km/s) = 5.15616 5.88373 5.53192
#
# Compressibility (1/GPa) = 0.03077808
#
# Stress axis : x y z
#
# Youngs Moduli (GPa) = 164.68381 76.97086 40.17134
#
# Poissons Ratio (x) = 0.07128 0.02219
# Poissons Ratio (y) = 0.15251 0.20533
# Poissons Ratio (z) = 0.09095 0.39343
#
# Static dielectric constant tensor:
#      x y z
#    x 2.019330 0.000000 -0.070190 
#    y 0.000000 1.940490 0.000000 
#    z -0.070190 0.000000 2.135980 
# 
# From -- ./inp_files/338135.got.cif
#   From: 2010.05.17/outbox.cif.g08.bks.cpg/sg12_170_cif.got.tgz:338135.got - 2010.06.03 13:09:07.
