data_PCOD9205402
_publ_section_title
;
Structure prediction by ZEFSAII (Michael W. Deem and Ramdas Pophale) SiO2 
 PCOD9205402
Probable space group: C 2/M
;
_chemical_formula_sum "Si O2"
_cell_formula_units_Z 56
_cell_length_a 17.917786
_cell_length_b 14.349032
_cell_length_c 14.912535
_cell_angle_alpha 90.000000
_cell_angle_beta 141.089744
_cell_angle_gamma 90.000000
_cell_volume 2408.179452
_symmetry_space_group_name_H-M "C 2/M"
_symmetry_group_IT_number 12
_symmetry_cell_setting 'monoclinic'
loop_
_space_group_symop_operation_xyz
x,y,z
-x,y,-z
-x,-y,-z
x,-y,z
1/2+x,1/2+y,z
1/2-x,1/2+y,-z
1/2-x,1/2-y,-z
1/2+x,1/2-y,z
loop_
_atom_site_type_symbol
_atom_site_label
_atom_site_fract_x
_atom_site_fract_y
_atom_site_fract_z
Si Si1 0.103788 0.334809 0.392087
Si Si2 0.047533 0.894917 0.634350
Si Si3 0.488120 0.720488 0.123407
Si Si4 0.683277 0.609349 0.925763
Si Si5 0.636929 0.109579 0.755866
Si Si6 0.199184 0.749738 0.193993
Si Si7 0.205154 0.852466 0.560395
O O1 0.176446 0.255995 0.512606
O O2 0.200689 0.389799 0.423525
O O3 0.032677 0.281426 0.247397
O O4 0.004382 0.379632 0.362293
O O5 0.141597 0.850246 0.790407
O O6 0.000000 0.844864 0.500000
O O7 0.921575 0.900425 0.567516
O O8 0.086293 0.000000 0.645942
O O9 0.421701 0.632229 0.102771
O O10 0.603009 0.701142 0.170341
O O11 0.387183 0.772591 0.970642
O O12 0.691054 0.500000 0.916735
O O13 0.800555 0.636333 0.089948
O O14 0.699268 0.177812 0.742332
O O15 0.663700 0.000000 0.763779
O O16 0.244076 0.658370 0.290798
#
# Coordination Sequence:
#
# PCOD9205402 Si02
#       7
#     8   8   8   8   8   8   8
#     4  10  21  36  56  78 110 148 189 227 271 329
#     4  10  21  35  55  83 111 140 181 233 283 330
#     4   9  17  35  55  83 110 149 193 230 272 328
#     4   9  18  34  56  82 111 146 186 230 281 333
#     4  10  22  38  57  84 115 149 188 229 280 335
#     4   9  20  33  56  84 115 145 189 235 275 324
#     4  10  21  37  55  80 111 145 186 227 275 331
#
# _framework density 23.254080999999999
#
# number of rings (size 3 to 8) (size 9 to 14) (size 15 to 20)
#    0.000    2.429    1.429    0.000    2.000    4.571 
#    0.000    4.286    0.000    0.000    0.000    8.000 
#    0.000    0.000    0.000    0.000    0.000    0.000 
#
# Total GULP energy -156100.464910 kJ/mol
# GULP energy per Si atom -5575.016604 kJ/mol
# Density = 2.320115 g / cm^3
# Si number density = 23.254081 Si / 1000 Ang^3
#
#
#
# Elastic Constant Matrix: (Units=GPa)
#
#
# Indices 1 2 3 4 5 6 
#
# 1 102.9079 27.9918 17.5432 0.0000 27.6641 0.0000
# 2 27.9918 54.9337 21.6041 0.0000 4.8982 0.0000
# 3 17.5432 21.6041 91.7929 0.0000 1.8222 0.0000
# 4 0.0000 0.0000 0.0000 15.4247 0.0000 6.4861
# 5 27.6641 4.8982 1.8222 0.0000 43.7010 0.0000
# 6 0.0000 0.0000 0.0000 6.4861 0.0000 10.8598
#
#
#
# Elastic Compliance Matrix: (Units=1/GPa)
#
#
# Indices 1 2 3 4 5 6 
#
# 1 0.013609 -0.005805 -0.001078 0.000000 -0.007919 0.000000
# 2 -0.005805 0.022722 -0.004264 0.000000 0.001306 0.000000
# 3 -0.001078 -0.004264 0.012091 0.000000 0.000656 0.000000
# 4 0.000000 0.000000 0.000000 0.086574 0.000000 -0.051707
# 5 -0.007919 0.001306 0.000656 0.000000 0.027722 0.000000
# 6 0.000000 0.000000 0.000000 -0.051707 0.000000 0.122966
#
#
# Mechanical properties :
#
#
# Convention : Reuss Voigt Hill
#
# Bulk Modulus (GPa) = 38.27204 42.65695 40.46449
# Shear Modulus (GPa) = 15.78849 26.16344 20.97597
#
# Velocity S-wave (km/s) = 2.60850 3.35791 3.00665
# Velocity P-wave (km/s) = 5.05632 5.78081 5.43066
#
# Compressibility (1/GPa) = 0.02612874
#
# Stress axis : x y z
#
# Youngs Moduli (GPa) = 73.48106 44.00975 82.70846
#
# Poissons Ratio (x) = 0.25546 0.08912
# Poissons Ratio (y) = 0.42653 0.35270
# Poissons Ratio (z) = 0.07918 0.18767
#
# Static dielectric constant tensor:
#      x y z
#    x 1.969120 0.000000 -0.019000 
#    y 0.000000 1.842480 0.000000 
#    z -0.019000 0.000000 1.928730 
# 
# From -- ./inp_files/226602.got.cif
#   From: 2010.05.17/outbox.cif.g08.bks.cpg/sg12_114_cif.got.tgz:226602.got - 2010.06.03 13:09:07.
