data_PCOD9205794
_publ_section_title
;
Structure prediction by ZEFSAII (Michael W. Deem and Ramdas Pophale) SiO2 
 PCOD9205794
Probable space group: C 2/M
;
_chemical_formula_sum "Si O2"
_cell_formula_units_Z 64
_cell_length_a 33.053283
_cell_length_b 8.943704
_cell_length_c 16.137403
_cell_angle_alpha 90.000000
_cell_angle_beta 134.521691
_cell_angle_gamma 90.000000
_cell_volume 3401.308988
_symmetry_space_group_name_H-M "C 2/M"
_symmetry_group_IT_number 12
_symmetry_cell_setting 'monoclinic'
loop_
_space_group_symop_operation_xyz
x,y,z
-x,y,-z
-x,-y,-z
x,-y,z
1/2+x,1/2+y,z
1/2-x,1/2+y,-z
1/2-x,1/2-y,-z
1/2+x,1/2-y,z
loop_
_atom_site_type_symbol
_atom_site_label
_atom_site_fract_x
_atom_site_fract_y
_atom_site_fract_z
Si Si1 0.286782 0.318875 0.626297
Si Si2 0.586308 0.681559 0.168016
Si Si3 0.413705 0.324760 0.322431
Si Si4 0.531434 0.680162 0.919603
Si Si5 0.277747 0.324419 0.120483
Si Si6 0.520129 0.177862 0.732896
Si Si7 0.907627 0.679461 0.488948
Si Si8 0.723660 0.820166 0.704564
O O1 0.284586 0.500000 0.617792
O O2 0.250000 0.250000 0.500000
O O3 0.352206 0.268685 0.714333
O O4 0.262053 0.277360 0.681307
O O5 0.586309 0.500000 0.169259
O O6 0.532027 0.728126 0.143834
O O7 0.573036 0.724805 0.054049
O O8 0.427842 0.500000 0.339873
O O9 0.345980 0.307926 0.212482
O O10 0.446759 0.237351 0.299202
O O11 0.426117 0.257905 0.430499
O O12 0.532235 0.500000 0.915365
O O13 0.544619 0.749233 0.850511
O O14 0.264164 0.500000 0.102363
O O15 0.260991 0.251717 0.184834
O O16 0.250000 0.250000 0.000000
O O17 0.453638 0.219085 0.624601
O O18 0.524315 0.000000 0.743527
O O19 0.909714 0.500000 0.480526
O O20 0.842065 0.720211 0.410371
O O21 0.726525 0.000000 0.717838
#
# Coordination Sequence:
#
# PCOD9205794 Si02
#       8
#     8   8   8   8   8   8   8   8
#     4  10  21  36  57  84 112 145 186 232 281 333
#     4   8  17  36  57  77 105 141 182 227 276 323
#     4  10  21  36  53  77 106 138 181 224 263 313
#     4   9  18  35  57  77 103 143 185 227 272 322
#     4  10  21  37  58  82 109 143 182 226 274 328
#     4  11  22  33  51  80 111 141 176 219 271 326
#     4   9  19  35  52  72 107 147 177 214 271 328
#     4   9  19  36  55  77 109 148 186 226 276 330
#
# _framework density 18.816286000000002
#
# number of rings (size 3 to 8) (size 9 to 14) (size 15 to 20)
#    0.000    2.500    0.000    2.250    1.750    5.500 
#    0.000    4.375    0.000    0.000    0.000    0.000 
#    0.000    0.000    0.000    0.000    0.000    0.000 
#
# Total GULP energy -178571.253056 kJ/mol
# GULP energy per Si atom -5580.351658 kJ/mol
# Density = 1.877346 g / cm^3
# Si number density = 18.816286 Si / 1000 Ang^3
#
#
#
# Elastic Constant Matrix: (Units=GPa)
#
#
# Indices 1 2 3 4 5 6 
#
# 1 41.0530 8.7645 22.1199 0.0000 0.6371 0.0000
# 2 8.7645 18.8535 22.2824 0.0000 1.5200 0.0000
# 3 22.1199 22.2824 97.3943 0.0000 -0.6250 0.0000
# 4 0.0000 0.0000 0.0000 30.7251 0.0000 -3.6534
# 5 0.6371 1.5200 -0.6250 0.0000 19.3419 0.0000
# 6 0.0000 0.0000 0.0000 -3.6534 0.0000 20.3039
#
#
#
# Elastic Compliance Matrix: (Units=1/GPa)
#
#
# Indices 1 2 3 4 5 6 
#
# 1 0.028550 -0.007627 -0.004742 0.000000 -0.000494 0.000000
# 2 -0.007627 0.075499 -0.015581 0.000000 -0.006185 0.000000
# 3 -0.004742 -0.015581 0.014921 0.000000 0.001863 0.000000
# 4 0.000000 0.000000 0.000000 0.033258 0.000000 0.005984
# 5 -0.000494 -0.006185 0.001863 0.000000 0.052264 0.000000
# 6 0.000000 0.000000 0.000000 0.005984 0.000000 0.050328
#
#
# Mechanical properties :
#
#
# Convention : Reuss Voigt Hill
#
# Bulk Modulus (GPa) = 15.85542 29.29272 22.57407
# Shear Modulus (GPa) = 15.07183 21.01646 18.04414
#
# Velocity S-wave (km/s) = 2.83326 3.34567 3.10007
# Velocity P-wave (km/s) = 4.37583 5.52506 4.98368
#
# Compressibility (1/GPa) = 0.06306990
#
# Stress axis : x y z
#
# Youngs Moduli (GPa) = 35.02622 13.24515 67.01894
#
# Poissons Ratio (x) = 0.10103 0.31783
# Poissons Ratio (y) = 0.26716 1.04419
# Poissons Ratio (z) = 0.16611 0.20637
#
# Static dielectric constant tensor:
#      x y z
#    x 1.641910 0.000000 0.031050 
#    y 0.000000 1.631380 0.000000 
#    z 0.031050 0.000000 1.644960 
# 
# From -- ./inp_files/249948.got.cif
#   From: 2010.05.17/outbox.cif.g08.bks.cpg/sg12_125_cif.got.tgz:249948.got - 2010.06.03 13:09:07.
