data_PCOD9205757
_publ_section_title
;
Structure prediction by ZEFSAII (Michael W. Deem and Ramdas Pophale) SiO2 
 PCOD9205757
Probable space group: C 2/M
;
_chemical_formula_sum "Si O2"
_cell_formula_units_Z 50
_cell_length_a 14.678596
_cell_length_b 13.547779
_cell_length_c 19.665594
_cell_angle_alpha 90.000000
_cell_angle_beta 137.304077
_cell_angle_gamma 90.000000
_cell_volume 2651.906189
_symmetry_space_group_name_H-M "C 2/M"
_symmetry_group_IT_number 12
_symmetry_cell_setting 'monoclinic'
loop_
_space_group_symop_operation_xyz
x,y,z
-x,y,-z
-x,-y,-z
x,-y,z
1/2+x,1/2+y,z
1/2-x,1/2+y,-z
1/2-x,1/2-y,-z
1/2+x,1/2-y,z
loop_
_atom_site_type_symbol
_atom_site_label
_atom_site_fract_x
_atom_site_fract_y
_atom_site_fract_z
Si Si1 0.116008 0.618905 0.774602
Si Si2 0.643140 0.386218 0.388073
Si Si3 0.964429 0.385315 0.553262
Si Si4 0.140449 0.114613 0.538554
Si Si5 0.000000 0.000000 0.000000
Si Si6 0.097618 0.802045 0.106033
Si Si7 0.899725 0.721544 0.741156
O O1 0.140384 0.500000 0.789745
O O2 0.257077 0.675413 0.847079
O O3 0.036380 0.647042 0.661671
O O4 0.022043 0.651080 0.785491
O O5 0.598666 0.500000 0.358236
O O6 0.804850 0.383969 0.472207
O O7 0.614464 0.347332 0.448064
O O8 0.585940 0.319131 0.297368
O O9 0.008992 0.500000 0.573098
O O10 0.000000 0.337726 0.500000
O O11 0.259873 0.171669 0.640981
O O12 0.000000 0.115101 0.500000
O O13 0.185227 0.000000 0.555562
O O14 0.031302 0.088656 0.072892
O O15 0.105817 0.750891 0.183280
O O16 0.000000 0.745622 0.000000
#
# Coordination Sequence:
#
# PCOD9205757 Si02
#       7
#     8   8   8   8   2   8   8
#     4  11  21  39  63  88 119 161 203 252 310 364
#     4  10  21  36  52  85 126 159 196 238 290 357
#     4   9  17  29  50  80 116 154 193 236 285 343
#     4  10  22  40  57  81 128 175 198 232 293 361
#     4   8  20  48  64  84 120 158 192 256 336 388
#     4  10  23  42  64  87 118 153 198 256 322 373
#     4  12  24  34  65  94 118 154 214 255 296 361
#
# _framework density 18.854362999999999
#
# number of rings (size 3 to 8) (size 9 to 14) (size 15 to 20)
#    0.480    1.280    2.400    1.920    3.360    2.560 
#    0.000    0.000    0.000    1.920    0.000    0.000 
#    0.000    0.000    0.000    0.000    0.000    0.000 
#
# Total GULP energy -139231.108018 kJ/mol
# GULP energy per Si atom -5569.244321 kJ/mol
# Density = 1.881145 g / cm^3
# Si number density = 18.854363 Si / 1000 Ang^3
#
#
#
# Elastic Constant Matrix: (Units=GPa)
#
#
# Indices 1 2 3 4 5 6 
#
# 1 113.0719 17.4830 39.6554 0.0000 -7.4131 0.0000
# 2 17.4830 72.1013 38.1537 0.0000 -5.7519 0.0000
# 3 39.6554 38.1537 78.5394 0.0000 -8.7904 0.0000
# 4 0.0000 0.0000 0.0000 22.1104 0.0000 -6.5576
# 5 -7.4131 -5.7519 -8.7904 0.0000 16.9743 0.0000
# 6 0.0000 0.0000 0.0000 -6.5576 0.0000 7.4501
#
#
#
# Elastic Compliance Matrix: (Units=1/GPa)
#
#
# Indices 1 2 3 4 5 6 
#
# 1 0.010821 0.000417 -0.005436 0.000000 0.002052 0.000000
# 2 0.000417 0.018732 -0.009107 0.000000 0.001813 0.000000
# 3 -0.005436 -0.009107 0.020477 0.000000 0.005144 0.000000
# 4 0.000000 0.000000 0.000000 0.061206 0.000000 0.053874
# 5 0.002052 0.001813 0.005144 0.000000 0.063087 0.000000
# 6 0.000000 0.000000 0.000000 0.053874 0.000000 0.181646
#
#
# Mechanical properties :
#
#
# Convention : Reuss Voigt Hill
#
# Bulk Modulus (GPa) = 45.92165 50.47740 48.19952
# Shear Modulus (GPa) = 12.77198 20.53499 16.65348
#
# Velocity S-wave (km/s) = 2.60552 3.30379 2.97521
# Velocity P-wave (km/s) = 5.78450 6.43302 6.11736
#
# Compressibility (1/GPa) = 0.02177622
#
# Stress axis : x y z
#
# Youngs Moduli (GPa) = 92.41689 53.38357 48.83458
#
# Poissons Ratio (x) = -0.02224 0.26547
# Poissons Ratio (y) = -0.03850 0.44476
# Poissons Ratio (z) = 0.50239 0.48619
#
# Static dielectric constant tensor:
#      x y z
#    x 1.675680 0.000000 -0.004190 
#    y 0.000000 1.712360 0.000000 
#    z -0.004190 0.000000 1.665250 
# 
# From -- ./inp_files/176387.got.cif
#   From: 2010.05.17/outbox.cif.g08.bks.cpg/sg12_89_cif.got.tgz:176387.got - 2010.06.03 13:09:07.
