data_PCOD9205654
_publ_section_title
;
Structure prediction by ZEFSAII (Michael W. Deem and Ramdas Pophale) SiO2 
 PCOD9205654
Probable space group: C 2/M
;
_chemical_formula_sum "Si O2"
_cell_formula_units_Z 44
_cell_length_a 13.155211
_cell_length_b 15.065767
_cell_length_c 13.239952
_cell_angle_alpha 90.000000
_cell_angle_beta 49.837964
_cell_angle_gamma 90.000000
_cell_volume 2005.376336
_symmetry_space_group_name_H-M "C 2/M"
_symmetry_group_IT_number 12
_symmetry_cell_setting 'monoclinic'
loop_
_space_group_symop_operation_xyz
x,y,z
-x,y,-z
-x,-y,-z
x,-y,z
1/2+x,1/2+y,z
1/2-x,1/2+y,-z
1/2-x,1/2-y,-z
1/2+x,1/2-y,z
loop_
_atom_site_type_symbol
_atom_site_label
_atom_site_fract_x
_atom_site_fract_y
_atom_site_fract_z
Si Si1 0.543013 0.500000 0.826787
Si Si2 0.060428 0.191618 0.560817
Si Si3 0.389187 0.144690 0.888765
Si Si4 0.822865 0.500000 0.549121
Si Si5 0.632742 0.352315 0.153994
Si Si6 0.792249 0.500000 0.794758
Si Si7 0.347568 0.855055 0.369191
O O1 0.660954 0.500000 0.665912
O O2 0.451918 0.414347 0.867095
O O3 0.364125 0.500000 0.133702
O O4 0.192866 0.140567 0.441474
O O5 0.113757 0.258174 0.612785
O O6 0.000000 0.236873 0.500000
O O7 0.941941 0.138873 0.691487
O O8 0.376448 0.249257 0.872985
O O9 0.331713 0.086299 0.832914
O O10 0.546094 0.123397 0.786194
O O11 0.288755 0.124019 0.044652
O O12 0.863883 0.500000 0.639746
O O13 0.864731 0.417079 0.455502
#
# Coordination Sequence:
#
# PCOD9205654 Si02
#       7
#     4   8   8   4   8   4   8
#     4  10  21  39  66  93 132 164 216 277 311 387
#     4  10  21  38  64  84 116 170 216 250 311 387
#     4  10  22  37  60  89 134 167 203 266 331 384
#     4  10  21  35  60  97 126 152 206 279 321 377
#     4  10  21  41  57  89 130 172 208 261 327 378
#     4  10  22  38  66 104 124 170 218 266 332 382
#     4  10  21  38  57  90 129 155 200 272 320 363
#
# _framework density 21.941018
#
# number of rings (size 3 to 8) (size 9 to 14) (size 15 to 20)
#    0.545    1.455    1.818    1.091    5.091    2.182 
#    0.000    2.727    0.000    0.000    0.000    3.818 
#    0.000    0.000    0.000    0.000    0.000    0.000 
#
# Total GULP energy -122542.341815 kJ/mol
# GULP energy per Si atom -5570.106446 kJ/mol
# Density = 2.189108 g / cm^3
# Si number density = 21.941018 Si / 1000 Ang^3
#
#
#
# Elastic Constant Matrix: (Units=GPa)
#
#
# Indices 1 2 3 4 5 6 
#
# 1 57.2215 23.8089 41.1250 0.0000 -11.0742 0.0000
# 2 23.8089 95.1411 11.3539 0.0000 -3.5011 0.0000
# 3 41.1250 11.3539 208.4375 0.0000 -58.2810 0.0000
# 4 0.0000 0.0000 0.0000 9.6524 0.0000 16.0217
# 5 -11.0742 -3.5011 -58.2810 0.0000 32.2463 0.0000
# 6 0.0000 0.0000 0.0000 16.0217 0.0000 -2.3577
#
#
#
# Elastic Compliance Matrix: (Units=1/GPa)
#
#
# Indices 1 2 3 4 5 6 
#
# 1 0.022640 -0.005169 -0.004383 0.000000 -0.000709 0.000000
# 2 -0.005169 0.011760 0.000485 0.000000 0.000378 0.000000
# 3 -0.004383 0.000485 0.010573 0.000000 0.017657 0.000000
# 4 0.000000 0.000000 0.000000 0.008437 0.000000 0.057333
# 5 -0.000709 0.000378 0.017657 0.000000 0.062721 0.000000
# 6 0.000000 0.000000 0.000000 0.057333 0.000000 -0.034540
#
#
# Mechanical properties :
#
#
# Convention : Reuss Voigt Hill
#
# Bulk Modulus (GPa) = 37.25942 57.04175 47.15058
# Shear Modulus (GPa) = 46.01065 26.87569 36.44317
#
# Velocity S-wave (km/s) = 4.58429 3.50366 4.07991
# Velocity P-wave (km/s) = 6.71114 6.51320 6.61291
#
# Compressibility (1/GPa) = 0.02683885
#
# Stress axis : x y z
#
# Youngs Moduli (GPa) = 44.17016 85.03284 94.58080
#
# Poissons Ratio (x) = 0.43949 0.41459
# Poissons Ratio (y) = 0.22829 -0.04587
# Poissons Ratio (z) = 0.19362 -0.04124
#
# Static dielectric constant tensor:
#      x y z
#    x 1.778140 0.000000 -0.065190 
#    y 0.000000 1.722680 0.000000 
#    z -0.065190 0.000000 1.924730 
# 
# From -- ./inp_files/215791.got.cif
#   From: 2010.05.17/outbox.cif.g08.bks.cpg/sg12_108_cif.got.tgz:215791.got - 2010.06.03 13:09:07.
