data_PCOD9205833
_publ_section_title
;
Structure prediction by ZEFSAII (Michael W. Deem and Ramdas Pophale) SiO2 
 PCOD9205833
Probable space group: C 2/M
;
_chemical_formula_sum "Si O2"
_cell_formula_units_Z 64
_cell_length_a 29.248891
_cell_length_b 8.641202
_cell_length_c 14.482362
_cell_angle_alpha 90.000000
_cell_angle_beta 74.151259
_cell_angle_gamma 90.000000
_cell_volume 3521.208331
_symmetry_space_group_name_H-M "C 2/M"
_symmetry_group_IT_number 12
_symmetry_cell_setting 'monoclinic'
loop_
_space_group_symop_operation_xyz
x,y,z
-x,y,-z
-x,-y,-z
x,-y,z
1/2+x,1/2+y,z
1/2-x,1/2+y,-z
1/2-x,1/2-y,-z
1/2+x,1/2-y,z
loop_
_atom_site_type_symbol
_atom_site_label
_atom_site_fract_x
_atom_site_fract_y
_atom_site_fract_z
Si Si1 0.110719 0.186693 0.243627
Si Si2 0.009823 0.186634 0.389745
Si Si3 0.303517 0.686294 0.469631
Si Si4 0.395008 0.314768 0.127095
Si Si5 0.801048 0.186893 0.268206
Si Si6 0.805527 0.187174 0.670642
Si Si7 0.531698 0.814656 0.769362
Si Si8 0.930745 0.684690 0.914565
O O1 0.063287 0.227851 0.327885
O O2 0.157482 0.239166 0.272294
O O3 0.104516 0.256534 0.145760
O O4 0.111709 0.000000 0.235945
O O5 0.000000 0.237045 0.500000
O O6 0.974919 0.255324 0.331422
O O7 0.005660 0.000000 0.389183
O O8 0.303276 0.500000 0.470480
O O9 0.250000 0.750000 0.500000
O O10 0.321414 0.733424 0.358667
O O11 0.323730 0.735533 0.557840
O O12 0.396344 0.500000 0.124579
O O13 0.340189 0.265358 0.172019
O O14 0.425177 0.256583 0.197652
O O15 0.417414 0.251165 0.020988
O O16 0.748210 0.253796 0.286344
O O17 0.797117 0.000000 0.269164
O O18 0.804345 0.000000 0.672847
O O19 0.483391 0.768364 0.850966
O O20 0.534838 0.000000 0.767857
O O21 0.929816 0.500000 0.919582
#
# Coordination Sequence:
#
# PCOD9205833 Si02
#       8
#     8   8   8   8   8   8   8   8
#     4   9  18  33  53  77 103 134 174 213 249 298
#     4   9  18  33  54  80 110 142 173 207 249 298
#     4   8  14  27  46  68  96 128 160 196 239 286
#     4  11  22  35  54  78 102 131 168 212 261 308
#     4   9  19  33  49  73 104 133 165 208 252 298
#     4   9  17  30  51  75 100 134 171 206 245 293
#     4  10  21  36  54  77 105 136 170 208 253 306
#     4  10  21  37  55  75 100 131 168 211 258 307
#
# _framework density 18.17558
#
# number of rings (size 3 to 8) (size 9 to 14) (size 15 to 20)
#    0.000    2.625    0.000    1.500    0.000    5.750 
#    0.000    4.375    0.000    4.500    0.000    0.000 
#    0.000    0.000    0.000    0.000    0.000    0.000 
#
# Total GULP energy -178358.022086 kJ/mol
# GULP energy per Si atom -5573.688190 kJ/mol
# Density = 1.813421 g / cm^3
# Si number density = 18.175580 Si / 1000 Ang^3
#
#
#
# Elastic Constant Matrix: (Units=GPa)
#
#
# Indices 1 2 3 4 5 6 
#
# 1 95.0675 18.5338 42.3658 0.0000 20.8895 0.0000
# 2 18.5338 13.3260 22.7842 0.0000 3.3148 0.0000
# 3 42.3658 22.7842 111.1395 0.0000 10.0012 0.0000
# 4 0.0000 0.0000 0.0000 20.3093 0.0000 1.4001
# 5 20.8895 3.3148 10.0012 0.0000 20.3080 0.0000
# 6 0.0000 0.0000 0.0000 1.4001 0.0000 20.0075
#
#
#
# Elastic Compliance Matrix: (Units=1/GPa)
#
#
# Indices 1 2 3 4 5 6 
#
# 1 0.018185 -0.018532 -0.001802 0.000000 -0.014794 0.000000
# 2 -0.018532 0.135535 -0.021394 0.000000 0.007476 0.000000
# 3 -0.001802 -0.021394 0.014220 0.000000 -0.001657 0.000000
# 4 0.000000 0.000000 0.000000 0.049477 0.000000 -0.003462
# 5 -0.014794 0.007476 -0.001657 0.000000 0.064055 0.000000
# 6 0.000000 0.000000 0.000000 -0.003462 0.000000 0.050224
#
#
# Mechanical properties :
#
#
# Convention : Reuss Voigt Hill
#
# Bulk Modulus (GPa) = 11.83647 42.98896 27.41272
# Shear Modulus (GPa) = 11.27874 21.18156 16.23015
#
# Velocity S-wave (km/s) = 2.49377 3.41748 2.99149
# Velocity P-wave (km/s) = 3.84946 6.26702 5.20067
#
# Compressibility (1/GPa) = 0.08448462
#
# Stress axis : x y z
#
# Youngs Moduli (GPa) = 54.98935 7.37819 70.32580
#
# Poissons Ratio (x) = 0.13673 0.12671
# Poissons Ratio (y) = 1.01905 1.50454
# Poissons Ratio (z) = 0.09908 0.15785
#
# Static dielectric constant tensor:
#      x y z
#    x 1.611020 0.000000 -0.000180 
#    y 0.000000 1.617090 0.000000 
#    z -0.000180 0.000000 1.639480 
# 
# From -- ./inp_files/243792.got.cif
#   From: 2010.05.17/outbox.cif.g08.bks.cpg/sg12_122_cif.got.tgz:243792.got - 2010.06.03 13:09:07.
