data_PCOD9205725
_publ_section_title
;
Structure prediction by ZEFSAII (Michael W. Deem and Ramdas Pophale) SiO2 
 PCOD9205725
Probable space group: C 2/M
;
_chemical_formula_sum "Si O2"
_cell_formula_units_Z 56
_cell_length_a 19.213486
_cell_length_b 8.555772
_cell_length_c 25.172863
_cell_angle_alpha 90.000000
_cell_angle_beta 138.107934
_cell_angle_gamma 90.000000
_cell_volume 2763.112289
_symmetry_space_group_name_H-M "C 2/M"
_symmetry_group_IT_number 12
_symmetry_cell_setting 'monoclinic'
loop_
_space_group_symop_operation_xyz
x,y,z
-x,y,-z
-x,-y,-z
x,-y,z
1/2+x,1/2+y,z
1/2-x,1/2+y,-z
1/2-x,1/2-y,-z
1/2+x,1/2-y,z
loop_
_atom_site_type_symbol
_atom_site_label
_atom_site_fract_x
_atom_site_fract_y
_atom_site_fract_z
Si Si1 0.709861 0.683617 0.760649
Si Si2 0.635703 0.684484 0.422201
Si Si3 0.563092 0.685311 0.088908
Si Si4 0.543321 0.813232 0.748554
Si Si5 0.404386 0.314874 0.482867
Si Si6 0.736052 0.681209 0.316455
Si Si7 0.987577 0.316004 0.830902
O O1 0.698790 0.500000 0.743542
O O2 0.827534 0.723597 0.846033
O O3 0.628836 0.735324 0.759417
O O4 0.697315 0.777030 0.698285
O O5 0.642016 0.500000 0.414564
O O6 0.750000 0.750000 0.500000
O O7 0.569829 0.767310 0.339115
O O8 0.574387 0.707259 0.443064
O O9 0.585664 0.500000 0.101933
O O10 0.499240 0.727687 0.105969
O O11 0.500000 0.723857 0.000000
O O12 0.550441 0.763860 0.814365
O O13 0.554328 0.000000 0.752759
O O14 0.500000 0.268715 0.500000
O O15 0.384315 0.500000 0.463255
O O16 0.303669 0.221770 0.406068
O O17 0.706099 0.500000 0.298630
O O18 0.633096 0.785430 0.253163
O O19 0.004227 0.500000 0.848610
#
# Coordination Sequence:
#
# PCOD9205725 Si02
#       7
#     8   8   8   8   8   8   8
#     4  11  22  37  60  86 115 152 190 230 281 340
#     4  11  23  37  55  79 110 151 194 239 291 341
#     4  10  21  39  64  92 120 148 182 227 275 328
#     4  11  23  39  58  83 116 150 191 241 287 335
#     4  10  21  36  52  72 101 139 186 237 285 332
#     4  11  21  34  55  80 108 143 187 236 281 333
#     4  10  21  37  59  84 112 148 185 224 273 331
#
# _framework density 20.267002000000002
#
# number of rings (size 3 to 8) (size 9 to 14) (size 15 to 20)
#    0.000    1.429    0.000    7.714    0.000    9.429 
#    0.000    0.714    0.000    0.000    0.000    0.000 
#    0.000    0.000    0.000    0.000    0.000    0.000 
#
# Total GULP energy -156549.063380 kJ/mol
# GULP energy per Si atom -5591.037978 kJ/mol
# Density = 2.022087 g / cm^3
# Si number density = 20.267002 Si / 1000 Ang^3
#
#
#
# Elastic Constant Matrix: (Units=GPa)
#
#
# Indices 1 2 3 4 5 6 
#
# 1 86.5302 4.2330 6.9186 0.0000 -18.5182 0.0000
# 2 4.2330 35.3065 11.1487 0.0000 -6.9039 0.0000
# 3 6.9186 11.1487 73.6088 0.0000 -24.4843 0.0000
# 4 0.0000 0.0000 0.0000 28.5711 0.0000 -1.4752
# 5 -18.5182 -6.9039 -24.4843 0.0000 27.6302 0.0000
# 6 0.0000 0.0000 0.0000 -1.4752 0.0000 29.7018
#
#
#
# Elastic Compliance Matrix: (Units=1/GPa)
#
#
# Indices 1 2 3 4 5 6 
#
# 1 0.013817 -0.000220 0.002547 0.000000 0.011463 0.000000
# 2 -0.000220 0.030221 -0.002969 0.000000 0.004773 0.000000
# 3 0.002547 -0.002969 0.020017 0.000000 0.018703 0.000000
# 4 0.000000 0.000000 0.000000 0.035090 0.000000 0.001743
# 5 0.011463 0.004773 0.018703 0.000000 0.061641 0.000000
# 6 0.000000 0.000000 0.000000 0.001743 0.000000 0.033755
#
#
# Mechanical properties :
#
#
# Convention : Reuss Voigt Hill
#
# Bulk Modulus (GPa) = 15.93064 26.67181 21.30122
# Shear Modulus (GPa) = 23.06848 28.72364 25.89606
#
# Velocity S-wave (km/s) = 3.37742 3.76874 3.57843
# Velocity P-wave (km/s) = 4.80487 5.66804 5.25421
#
# Compressibility (1/GPa) = 0.06277213
#
# Stress axis : x y z
#
# Youngs Moduli (GPa) = 72.37544 33.09008 49.95830
#
# Poissons Ratio (x) = 0.00726 -0.12726
# Poissons Ratio (y) = 0.01589 0.14832
# Poissons Ratio (z) = -0.18437 0.09824
#
# Static dielectric constant tensor:
#      x y z
#    x 1.767890 0.000000 -0.020540 
#    y 0.000000 1.680780 0.000000 
#    z -0.020540 0.000000 1.693120 
# 
# From -- ./inp_files/342542.got.cif
#   From: 2010.05.17/outbox.cif.g08.bks.cpg/sg12_172_cif.got.tgz:342542.got - 2010.06.03 13:09:07.
