data_PCOD9205503
_publ_section_title
;
Structure prediction by ZEFSAII (Michael W. Deem and Ramdas Pophale) SiO2 
 PCOD9205503
Probable space group: C 2/M
;
_chemical_formula_sum "Si O2"
_cell_formula_units_Z 64
_cell_length_a 19.146714
_cell_length_b 13.593927
_cell_length_c 16.426560
_cell_angle_alpha 90.000000
_cell_angle_beta 130.611997
_cell_angle_gamma 90.000000
_cell_volume 3245.673565
_symmetry_space_group_name_H-M "C 2/M"
_symmetry_group_IT_number 12
_symmetry_cell_setting 'monoclinic'
loop_
_space_group_symop_operation_xyz
x,y,z
-x,y,-z
-x,-y,-z
x,-y,z
1/2+x,1/2+y,z
1/2-x,1/2+y,-z
1/2-x,1/2-y,-z
1/2+x,1/2-y,z
loop_
_atom_site_type_symbol
_atom_site_label
_atom_site_fract_x
_atom_site_fract_y
_atom_site_fract_z
Si Si1 0.782357 0.886056 0.157140
Si Si2 0.054113 0.615285 0.386869
Si Si3 0.593116 0.255959 0.263663
Si Si4 0.743378 0.617790 0.049567
Si Si5 0.542406 0.382991 0.942927
Si Si6 0.636330 0.197995 0.720983
Si Si7 0.095359 0.613604 0.115663
Si Si8 0.233700 0.614254 0.636710
O O1 0.851123 0.814724 0.257698
O O2 0.682113 0.880074 0.121987
O O3 0.812462 0.000000 0.180665
O O4 0.768209 0.853354 0.053093
O O5 0.039274 0.500000 0.352002
O O6 0.068233 0.690268 0.322583
O O7 0.145048 0.618192 0.511188
O O8 0.965297 0.655569 0.367790
O O9 0.510430 0.323604 0.167004
O O10 0.613148 0.180518 0.206136
O O11 0.682352 0.325346 0.338595
O O12 0.750657 0.500000 0.054967
O O13 0.828032 0.656449 0.165545
O O14 0.649163 0.645772 0.023647
O O15 0.536279 0.500000 0.921461
O O16 0.500000 0.366574 0.000000
O O17 0.702345 0.159581 0.699309
O O18 0.084881 0.500000 0.133093
O O19 0.000000 0.642042 0.000000
O O20 0.260253 0.500000 0.669274
#
# Coordination Sequence:
#
# PCOD9205503 Si02
#       8
#     8   8   8   8   8   8   8   8
#     4  10  22  39  58  89 130 163 202 249 300 367
#     4  11  26  43  64  93 122 156 208 271 319 367
#     4  12  22  39  64  90 120 163 208 249 310 369
#     4  10  21  35  56  89 125 160 198 242 296 366
#     4  10  21  36  57  90 129 162 197 242 297 371
#     4  12  22  40  66  91 121 168 208 249 313 373
#     4  10  22  37  57  87 126 166 201 243 296 367
#     4  11  24  44  66  91 121 158 210 267 318 365
#
# _framework density 19.718556
#
# number of rings (size 3 to 8) (size 9 to 14) (size 15 to 20)
#    0.000    1.250    1.250    4.875    3.500    2.000 
#    0.000    0.625    0.000    3.750    0.000    0.000 
#    0.000    0.000    0.000    0.000    0.000    0.000 
#
# Total GULP energy -178915.180782 kJ/mol
# GULP energy per Si atom -5591.099399 kJ/mol
# Density = 1.967368 g / cm^3
# Si number density = 19.718556 Si / 1000 Ang^3
#
#
#
# Elastic Constant Matrix: (Units=GPa)
#
#
# Indices 1 2 3 4 5 6 
#
# 1 47.7598 17.7744 2.5415 0.0000 1.3337 0.0000
# 2 17.7744 125.0817 35.2665 0.0000 -0.1450 0.0000
# 3 2.5415 35.2665 56.4626 0.0000 7.0773 0.0000
# 4 0.0000 0.0000 0.0000 35.6516 0.0000 1.9208
# 5 1.3337 -0.1450 7.0773 0.0000 35.1595 0.0000
# 6 0.0000 0.0000 0.0000 1.9208 0.0000 17.2460
#
#
#
# Elastic Compliance Matrix: (Units=1/GPa)
#
#
# Indices 1 2 3 4 5 6 
#
# 1 0.022215 -0.003539 0.001352 0.000000 -0.001129 0.000000
# 2 -0.003539 0.010325 -0.006475 0.000000 0.001480 0.000000
# 3 0.001352 -0.006475 0.022266 0.000000 -0.004560 0.000000
# 4 0.000000 0.000000 0.000000 0.028219 0.000000 -0.003143
# 5 -0.001129 0.001480 -0.004560 0.000000 0.029409 0.000000
# 6 0.000000 0.000000 0.000000 -0.003143 0.000000 0.058334
#
#
# Mechanical properties :
#
#
# Convention : Reuss Voigt Hill
#
# Bulk Modulus (GPa) = 26.67990 37.82986 32.25488
# Shear Modulus (GPa) = 24.92692 29.19287 27.05990
#
# Velocity S-wave (km/s) = 3.55933 3.85187 3.70848
# Velocity P-wave (km/s) = 5.51828 6.24573 5.89324
#
# Compressibility (1/GPa) = 0.03748140
#
# Stress axis : x y z
#
# Youngs Moduli (GPa) = 45.01476 96.85100 44.91147
#
# Poissons Ratio (x) = 0.34279 -0.06074
# Poissons Ratio (y) = 0.15932 0.29082
# Poissons Ratio (z) = -0.06088 0.62714
#
# Static dielectric constant tensor:
#      x y z
#    x 1.691920 0.000000 0.011430 
#    y 0.000000 1.730290 0.000000 
#    z 0.011430 0.000000 1.659950 
# 
# From -- ./inp_files/225718.got.cif
#   From: 2010.05.17/outbox.cif.g08.bks.cpg/sg12_113_cif.got.tgz:225718.got - 2010.06.03 13:09:07.
