data_PCOD9205117
_publ_section_title
;
Structure prediction by ZEFSAII (Michael W. Deem and Ramdas Pophale) SiO2 
 PCOD9205117
Probable space group: C 2/M
;
_chemical_formula_sum "Si O2"
_cell_formula_units_Z 64
_cell_length_a 26.040528
_cell_length_b 14.863039
_cell_length_c 8.079499
_cell_angle_alpha 90.000000
_cell_angle_beta 87.432671
_cell_angle_gamma 90.000000
_cell_volume 3123.961717
_symmetry_space_group_name_H-M "C 2/M"
_symmetry_group_IT_number 12
_symmetry_cell_setting 'monoclinic'
loop_
_space_group_symop_operation_xyz
x,y,z
-x,y,-z
-x,-y,-z
x,-y,z
1/2+x,1/2+y,z
1/2-x,1/2+y,-z
1/2-x,1/2-y,-z
1/2+x,1/2-y,z
loop_
_atom_site_type_symbol
_atom_site_label
_atom_site_fract_x
_atom_site_fract_y
_atom_site_fract_z
Si Si1 0.297434 0.394613 0.579658
Si Si2 0.604639 0.224076 0.890358
Si Si3 0.918782 0.602448 0.597120
Si Si4 0.245235 0.397689 0.083921
Si Si5 0.523371 0.102522 0.764077
Si Si6 0.659888 0.771042 0.235825
Si Si7 0.693446 0.102771 0.731733
Si Si8 0.648478 0.397098 0.783517
O O1 0.300800 0.500000 0.629866
O O2 0.326277 0.326176 0.695982
O O3 0.236394 0.372182 0.590406
O O4 0.323385 0.386824 0.396947
O O5 0.551386 0.172006 0.879071
O O6 0.646659 0.168546 0.775505
O O7 0.604735 0.324265 0.817729
O O8 0.626260 0.227907 0.072989
O O9 0.900206 0.500000 0.625191
O O10 0.945899 0.607622 0.415129
O O11 0.873291 0.672122 0.628233
O O12 0.964403 0.618529 0.723253
O O13 0.237233 0.500000 0.149701
O O14 0.211788 0.325129 0.185431
O O15 0.305373 0.378306 0.093444
O O16 0.225888 0.396817 0.898653
O O17 0.528917 0.000000 0.824378
O O18 0.675169 0.000000 0.705613
O O19 0.631511 0.500000 0.803363
#
# Coordination Sequence:
#
# PCOD9205117 Si02
#       8
#     8   8   8   8   8   8   8   8
#     4  10  21  35  50  70  98 134 175 215 253 294
#     4  11  21  32  51  77 103 134 170 207 251 301
#     4   9  19  36  56  78 105 135 165 200 245 296
#     4   9  18  32  48  70 103 137 167 202 247 299
#     4   9  19  36  56  78 105 135 165 200 245 296
#     4  11  21  32  51  77 103 134 170 207 251 301
#     4   9  18  32  48  70 103 137 167 202 247 299
#     4  10  21  35  50  70  98 134 175 215 253 294
#
# _framework density 20.486806999999999
#
# number of rings (size 3 to 8) (size 9 to 14) (size 15 to 20)
#    0.000    2.250    0.000    3.750    0.000    8.500 
#    0.000    3.750    0.000    0.750    0.000    5.250 
#    0.000    0.000    0.000    0.000    0.000    0.000 
#
# Total GULP energy -178957.814332 kJ/mol
# GULP energy per Si atom -5592.431698 kJ/mol
# Density = 2.044018 g / cm^3
# Si number density = 20.486807 Si / 1000 Ang^3
#
#
#
# Elastic Constant Matrix: (Units=GPa)
#
#
# Indices 1 2 3 4 5 6 
#
# 1 59.7624 44.4725 14.3761 0.0000 12.0117 0.0000
# 2 44.4725 83.3302 27.6634 0.0000 3.5247 0.0000
# 3 14.3761 27.6634 55.6844 0.0000 3.2522 0.0000
# 4 0.0000 0.0000 0.0000 -5.3617 0.0000 -6.3517
# 5 12.0117 3.5247 3.2522 0.0000 32.0326 0.0000
# 6 0.0000 0.0000 0.0000 -6.3517 0.0000 13.0704
#
#
#
# Elastic Compliance Matrix: (Units=1/GPa)
#
#
# Indices 1 2 3 4 5 6 
#
# 1 0.030501 -0.016096 0.000690 0.000000 -0.009737 0.000000
# 2 -0.016096 0.022888 -0.007465 0.000000 0.004275 0.000000
# 3 0.000690 -0.007465 0.021584 0.000000 -0.001629 0.000000
# 4 0.000000 0.000000 0.000000 -0.118365 0.000000 -0.057521
# 5 -0.009737 0.004275 -0.001629 0.000000 0.034564 0.000000
# 6 0.000000 0.000000 0.000000 -0.057521 0.000000 0.048556
#
#
# Mechanical properties :
#
#
# Convention : Reuss Voigt Hill
#
# Bulk Modulus (GPa) = 34.20825 41.31122 37.75973
# Shear Modulus (GPa) = 52.51441 15.43259 33.97350
#
# Velocity S-wave (km/s) = 5.06842 2.74760 4.07665
# Velocity P-wave (km/s) = 7.14044 5.50221 6.37417
#
# Compressibility (1/GPa) = 0.02923272
#
# Stress axis : x y z
#
# Youngs Moduli (GPa) = 32.78531 43.69148 46.33139
#
# Poissons Ratio (x) = 0.70324 -0.03198
# Poissons Ratio (y) = 0.52770 0.34585
# Poissons Ratio (z) = -0.02263 0.32614
#
# Static dielectric constant tensor:
#      x y z
#    x 1.705740 0.000000 0.016710 
#    y 0.000000 1.726760 0.000000 
#    z 0.016710 0.000000 1.779960 
# 
# From -- ./inp_files/104596.got.cif
#   From: 2010.05.17/outbox.cif.g08.bks.cpg/sg12_53_cif.got.tgz:104596.got - 2010.06.03 13:09:07.
