data_PCOD9205274
_publ_section_title
;
Structure prediction by ZEFSAII (Michael W. Deem and Ramdas Pophale) SiO2 
 PCOD9205274
Probable space group: C 2/M
;
_chemical_formula_sum "Si O2"
_cell_formula_units_Z 64
_cell_length_a 16.565880
_cell_length_b 9.032150
_cell_length_c 29.526734
_cell_angle_alpha 90.000000
_cell_angle_beta 138.904922
_cell_angle_gamma 90.000000
_cell_volume 2903.966751
_symmetry_space_group_name_H-M "C 2/M"
_symmetry_group_IT_number 12
_symmetry_cell_setting 'monoclinic'
loop_
_space_group_symop_operation_xyz
x,y,z
-x,y,-z
-x,-y,-z
x,-y,z
1/2+x,1/2+y,z
1/2-x,1/2+y,-z
1/2-x,1/2-y,-z
1/2+x,1/2-y,z
loop_
_atom_site_type_symbol
_atom_site_label
_atom_site_fract_x
_atom_site_fract_y
_atom_site_fract_z
Si Si1 0.054083 0.328025 0.096888
Si Si2 0.278745 0.328052 0.403036
Si Si3 0.375614 0.676701 0.537617
Si Si4 0.534406 0.328920 0.279876
Si Si5 0.358383 0.324899 0.332463
Si Si6 0.223958 0.674545 0.036974
Si Si7 0.612192 0.328588 0.207355
Si Si8 0.291945 0.175680 0.157050
O O1 0.090216 0.500000 0.109931
O O2 0.037991 0.275269 0.141898
O O3 0.163895 0.229835 0.124132
O O4 0.922997 0.312206 0.017371
O O5 0.242461 0.500000 0.392743
O O6 0.375332 0.295165 0.483385
O O7 0.332459 0.312443 0.375508
O O8 0.155769 0.231638 0.355516
O O9 0.369992 0.500000 0.541882
O O10 0.250000 0.750000 0.500000
O O11 0.501589 0.726052 0.614471
O O12 0.514026 0.500000 0.282569
O O13 0.568126 0.316691 0.240519
O O14 0.409409 0.239120 0.233374
O O15 0.345836 0.500000 0.315338
O O16 0.252560 0.228658 0.264973
O O17 0.255188 0.500000 0.048982
O O18 0.291947 0.753748 0.106854
O O19 0.250000 0.750000 0.000000
O O20 0.602628 0.500000 0.189676
O O21 0.297684 0.000000 0.157305
#
# Coordination Sequence:
#
# PCOD9205274 Si02
#       8
#     8   8   8   8   8   8   8   8
#     4  11  24  41  61  86 118 155 192 233 284 340
#     4   9  18  35  58  81 107 143 191 238 278 330
#     4  10  21  35  53  79 110 145 183 229 285 342
#     4  10  21  38  60  86 117 151 190 236 285 340
#     4   9  18  35  58  80 106 145 191 234 278 332
#     4  11  24  42  65  91 119 153 194 238 284 337
#     4  10  21  37  59  87 116 148 189 236 284 336
#     4  12  25  40  61  88 119 155 193 236 287 339
#
# _framework density 22.038820999999999
#
# number of rings (size 3 to 8) (size 9 to 14) (size 15 to 20)
#    0.000    1.750    0.000    4.125    0.000   10.500 
#    0.000    2.500    0.000    3.750    0.000    0.000 
#    0.000    0.000    0.000    0.000    0.000    0.000 
#
# Total GULP energy -179034.691173 kJ/mol
# GULP energy per Si atom -5594.834099 kJ/mol
# Density = 2.198866 g / cm^3
# Si number density = 22.038821 Si / 1000 Ang^3
#
#
#
# Elastic Constant Matrix: (Units=GPa)
#
#
# Indices 1 2 3 4 5 6 
#
# 1 66.7659 23.3232 2.2316 0.0000 14.4261 0.0000
# 2 23.3232 99.1935 36.0968 0.0000 23.1154 0.0000
# 3 2.2316 36.0968 87.4932 0.0000 23.1816 0.0000
# 4 0.0000 0.0000 0.0000 29.9294 0.0000 1.8872
# 5 14.4261 23.1154 23.1816 0.0000 38.6194 0.0000
# 6 0.0000 0.0000 0.0000 1.8872 0.0000 29.2586
#
#
#
# Elastic Compliance Matrix: (Units=1/GPa)
#
#
# Indices 1 2 3 4 5 6 
#
# 1 0.017452 -0.003690 0.002639 0.000000 -0.005895 0.000000
# 2 -0.003690 0.013495 -0.004398 0.000000 -0.004059 0.000000
# 3 0.002639 -0.004398 0.015150 0.000000 -0.007447 0.000000
# 4 0.000000 0.000000 0.000000 0.033548 0.000000 -0.002164
# 5 -0.005895 -0.004059 -0.007447 0.000000 0.034995 0.000000
# 6 0.000000 0.000000 0.000000 -0.002164 0.000000 0.034318
#
#
# Mechanical properties :
#
#
# Convention : Reuss Voigt Hill
#
# Bulk Modulus (GPa) = 28.41001 41.86177 35.13589
# Shear Modulus (GPa) = 29.13916 32.34820 30.74368
#
# Velocity S-wave (km/s) = 3.64012 3.83532 3.73899
# Velocity P-wave (km/s) = 5.53047 6.21681 5.88366
#
# Compressibility (1/GPa) = 0.03519886
#
# Stress axis : x y z
#
# Youngs Moduli (GPa) = 57.29922 74.09933 66.00741
#
# Poissons Ratio (x) = 0.27345 -0.17420
# Poissons Ratio (y) = 0.21145 0.29031
# Poissons Ratio (z) = -0.15122 0.32590
#
# Static dielectric constant tensor:
#      x y z
#    x 1.864410 0.000000 -0.025620 
#    y 0.000000 1.734670 0.000000 
#    z -0.025620 0.000000 1.815580 
# 
# From -- ./inp_files/378346.got.cif
#   From: 2010.05.17/outbox.cif.g08.bks.cpg/sg12_190_cif.got.tgz:378346.got - 2010.06.03 13:09:07.
