data_PCOD9205451
_publ_section_title
;
Structure prediction by ZEFSAII (Michael W. Deem and Ramdas Pophale) SiO2 
 PCOD9205451
Probable space group: C 2/M
;
_chemical_formula_sum "Si O2"
_cell_formula_units_Z 38
_cell_length_a 13.226687
_cell_length_b 10.999002
_cell_length_c 13.357677
_cell_angle_alpha 90.000000
_cell_angle_beta 108.930157
_cell_angle_gamma 90.000000
_cell_volume 1838.176827
_symmetry_space_group_name_H-M "C 2/M"
_symmetry_group_IT_number 12
_symmetry_cell_setting 'monoclinic'
loop_
_space_group_symop_operation_xyz
x,y,z
-x,y,-z
-x,-y,-z
x,-y,z
1/2+x,1/2+y,z
1/2-x,1/2+y,-z
1/2-x,1/2-y,-z
1/2+x,1/2-y,z
loop_
_atom_site_type_symbol
_atom_site_label
_atom_site_fract_x
_atom_site_fract_y
_atom_site_fract_z
Si Si1 0.153031 0.255052 0.752850
Si Si2 0.000000 0.000000 0.000000
Si Si3 0.219940 0.000000 0.197761
Si Si4 0.102914 0.000000 0.370916
Si Si5 0.041998 0.642947 0.402666
Si Si6 0.712880 0.365787 0.571341
Si Si7 0.614898 0.500000 0.820464
O O1 0.214054 0.377093 0.804249
O O2 0.026739 0.285067 0.701990
O O3 0.190490 0.226780 0.651682
O O4 0.171549 0.130628 0.819915
O O5 0.888584 0.000000 0.898924
O O6 0.068670 0.000000 0.916611
O O7 0.185389 0.000000 0.304781
O O8 0.128301 0.111338 0.454756
O O9 0.984556 0.000000 0.290397
O O10 0.015172 0.500000 0.379038
O O11 0.000000 0.672823 0.500000
O O12 0.169674 0.650794 0.436209
O O13 0.714455 0.500000 0.622206
#
# Coordination Sequence:
#
# PCOD9205451 Si02
#       7
#     8   2   4   4   8   8   4
#     4  12  24  41  67 103 130 179 216 273 325 404
#     4  10  28  54  74  96 120 168 222 296 338 404
#     4  11  25  44  72  94 131 169 227 273 341 377
#     4   9  21  42  59  97 140 194 211 265 315 392
#     4  10  21  35  55  92 143 188 219 253 310 389
#     4   9  21  38  57  94 149 180 215 255 310 389
#     4  11  26  46  70  94 131 171 229 272 342 384
#
# _framework density 20.672657000000001
#
# number of rings (size 3 to 8) (size 9 to 14) (size 15 to 20)
#    0.632    1.053    2.105    1.263    8.842    3.368 
#    0.000    0.000    0.000    1.263    0.000    0.000 
#    0.000    0.000    0.000    0.000    0.000    0.000 
#
# Total GULP energy -105812.050214 kJ/mol
# GULP energy per Si atom -5569.055274 kJ/mol
# Density = 2.062561 g / cm^3
# Si number density = 20.672657 Si / 1000 Ang^3
#
#
#
# Elastic Constant Matrix: (Units=GPa)
#
#
# Indices 1 2 3 4 5 6 
#
# 1 76.6210 18.8042 30.3616 0.0000 -11.6859 0.0000
# 2 18.8042 149.2190 36.7023 0.0000 -3.1166 0.0000
# 3 30.3616 36.7023 91.5222 0.0000 -9.9841 0.0000
# 4 0.0000 0.0000 0.0000 -0.9185 0.0000 -0.6491
# 5 -11.6859 -3.1166 -9.9841 0.0000 25.3907 0.0000
# 6 0.0000 0.0000 0.0000 -0.6491 0.0000 24.9774
#
#
#
# Elastic Compliance Matrix: (Units=1/GPa)
#
#
# Indices 1 2 3 4 5 6 
#
# 1 0.015796 -0.000815 -0.004317 0.000000 0.005473 0.000000
# 2 -0.000815 0.007479 -0.002789 0.000000 -0.000554 0.000000
# 3 -0.004317 -0.002789 0.013815 0.000000 0.003103 0.000000
# 4 0.000000 0.000000 0.000000 -1.069079 0.000000 -0.027785
# 5 0.005473 -0.000554 0.003103 0.000000 0.043056 0.000000
# 6 0.000000 0.000000 0.000000 -0.027785 0.000000 0.039314
#
#
# Mechanical properties :
#
#
# Convention : Reuss Voigt Hill
#
# Bulk Modulus (GPa) = 47.05992 54.34427 50.70210
# Shear Modulus (GPa) = -5.39552 25.32286 9.96367
#
# Velocity S-wave (km/s) = -1.61730 3.50372 2.19777
# Velocity P-wave (km/s) = 4.39616 6.53553 5.56953
#
# Compressibility (1/GPa) = 0.02124950
#
# Stress axis : x y z
#
# Youngs Moduli (GPa) = 63.30584 133.71293 72.38299
#
# Poissons Ratio (x) = 0.10892 0.31245
# Poissons Ratio (y) = 0.05157 0.20190
# Poissons Ratio (z) = 0.27327 0.37296
#
# Static dielectric constant tensor:
#      x y z
#    x 1.745570 0.000000 0.009590 
#    y 0.000000 1.898040 0.000000 
#    z 0.009590 0.000000 1.701550 
# 
# From -- ./inp_files/211481.got.cif
#   From: 2010.05.17/outbox.cif.g08.bks.cpg/sg12_106_cif.got.tgz:211481.got - 2010.06.03 13:09:07.
