data_PCOD9205129
_publ_section_title
;
Structure prediction by ZEFSAII (Michael W. Deem and Ramdas Pophale) SiO2 
 PCOD9205129
Probable space group: C 2/M
;
_chemical_formula_sum "Si O2"
_cell_formula_units_Z 56
_cell_length_a 29.736322
_cell_length_b 17.981139
_cell_length_c 9.682807
_cell_angle_alpha 90.000000
_cell_angle_beta 32.033731
_cell_angle_gamma 90.000000
_cell_volume 2746.150487
_symmetry_space_group_name_H-M "C 2/M"
_symmetry_group_IT_number 12
_symmetry_cell_setting 'monoclinic'
loop_
_space_group_symop_operation_xyz
x,y,z
-x,y,-z
-x,-y,-z
x,-y,z
1/2+x,1/2+y,z
1/2-x,1/2+y,-z
1/2-x,1/2-y,-z
1/2+x,1/2-y,z
loop_
_atom_site_type_symbol
_atom_site_label
_atom_site_fract_x
_atom_site_fract_y
_atom_site_fract_z
Si Si1 0.160197 0.877685 0.943538
Si Si2 0.352121 0.916049 0.511433
Si Si3 0.798516 0.585273 0.959135
Si Si4 0.875981 0.717474 0.268171
Si Si5 0.788620 0.291694 0.211944
Si Si6 0.029195 0.144552 0.070459
Si Si7 0.899052 0.083478 0.611064
O O1 0.112432 0.891311 0.924106
O O2 0.103351 0.904554 0.218840
O O3 0.253597 0.911773 0.716705
O O4 0.171788 0.788650 0.927325
O O5 0.398020 0.851021 0.308445
O O6 0.383374 0.000000 0.408053
O O7 0.347741 0.900756 0.687151
O O8 0.816198 0.500000 0.956417
O O9 0.812647 0.646044 0.039713
O O10 0.698902 0.589622 0.179687
O O11 0.821274 0.688152 0.279924
O O12 0.811735 0.773524 0.516242
O O13 0.947679 0.769698 0.018977
O O14 0.956207 0.138022 0.373733
O O15 0.000000 0.111666 0.000000
O O16 0.928807 0.000000 0.502373
#
# Coordination Sequence:
#
# PCOD9205129 Si02
#       7
#     8   8   8   8   8   8   8
#     4   9  19  34  53  75  99 131 170 205 245 296
#     4   9  18  33  54  77 100 127 162 209 259 300
#     4   9  18  32  52  80 105 127 163 207 250 295
#     4   9  19  33  48  71 100 133 169 202 248 302
#     4   9  17  32  51  73 101 128 163 212 253 289
#     4  11  22  34  48  69 102 139 173 203 235 285
#     4  10  21  35  50  72 105 141 170 196 236 296
#
# _framework density 20.392181000000001
#
# number of rings (size 3 to 8) (size 9 to 14) (size 15 to 20)
#    0.000    2.571    0.000    3.429    0.000    8.857 
#    0.000    2.143    0.000    0.429    0.000    1.000 
#    0.000    9.143    0.000    0.000    0.000    0.000 
#
# Total GULP energy -156268.015060 kJ/mol
# GULP energy per Si atom -5581.000538 kJ/mol
# Density = 2.034577 g / cm^3
# Si number density = 20.392181 Si / 1000 Ang^3
#
#
#
# Elastic Constant Matrix: (Units=GPa)
#
#
# Indices 1 2 3 4 5 6 
#
# 1 69.0281 17.5484 2.8659 0.0000 21.2203 0.0000
# 2 17.5484 102.1358 49.6974 0.0000 22.0469 0.0000
# 3 2.8659 49.6974 76.2125 0.0000 11.0810 0.0000
# 4 0.0000 0.0000 0.0000 -29.4580 0.0000 -32.9368
# 5 21.2203 22.0469 11.0810 0.0000 22.0894 0.0000
# 6 0.0000 0.0000 0.0000 -32.9368 0.0000 -8.2636
#
#
#
# Elastic Compliance Matrix: (Units=1/GPa)
#
#
# Indices 1 2 3 4 5 6 
#
# 1 0.020929 -0.000221 0.002425 0.000000 -0.021102 0.000000
# 2 -0.000221 0.016951 -0.009294 0.000000 -0.012044 0.000000
# 3 0.002425 -0.009294 0.019503 0.000000 -0.002837 0.000000
# 4 0.000000 0.000000 0.000000 0.009821 0.000000 -0.039145
# 5 -0.021102 -0.012044 -0.002837 0.000000 0.078986 0.000000
# 6 0.000000 0.000000 0.000000 -0.039145 0.000000 0.035010
#
#
# Mechanical properties :
#
#
# Convention : Reuss Voigt Hill
#
# Bulk Modulus (GPa) = 23.14626 43.06666 33.10646
# Shear Modulus (GPa) = 23.83428 8.69120 16.26274
#
# Velocity S-wave (km/s) = 3.42247 2.06671 2.82707
# Velocity P-wave (km/s) = 5.19548 5.18267 5.18908
#
# Compressibility (1/GPa) = 0.04320353
#
# Stress axis : x y z
#
# Youngs Moduli (GPa) = 47.77972 58.99379 51.27385
#
# Poissons Ratio (x) = 0.01304 -0.12435
# Poissons Ratio (y) = 0.01056 0.47655
# Poissons Ratio (z) = -0.11588 0.54830
#
# Static dielectric constant tensor:
#      x y z
#    x 1.779010 0.000000 -0.034150 
#    y 0.000000 1.708200 0.000000 
#    z -0.034150 0.000000 1.734130 
# 
# From -- ./inp_files/112582.got.cif
#   From: 2010.05.17/outbox.cif.g08.bks.cpg/sg12_57_cif.got.tgz:112582.got - 2010.06.03 13:09:07.
