data_PCOD9205184
_publ_section_title
;
Structure prediction by ZEFSAII (Michael W. Deem and Ramdas Pophale) SiO2 
 PCOD9205184
Probable space group: C 2/M
;
_chemical_formula_sum "Si O2"
_cell_formula_units_Z 48
_cell_length_a 30.455340
_cell_length_b 7.344661
_cell_length_c 30.734188
_cell_angle_alpha 90.000000
_cell_angle_beta 18.448449
_cell_angle_gamma 90.000000
_cell_volume 2175.523702
_symmetry_space_group_name_H-M "C 2/M"
_symmetry_group_IT_number 12
_symmetry_cell_setting 'monoclinic'
loop_
_space_group_symop_operation_xyz
x,y,z
-x,y,-z
-x,-y,-z
x,-y,z
1/2+x,1/2+y,z
1/2-x,1/2+y,-z
1/2-x,1/2-y,-z
1/2+x,1/2-y,z
loop_
_atom_site_type_symbol
_atom_site_label
_atom_site_fract_x
_atom_site_fract_y
_atom_site_fract_z
Si Si1 0.131358 0.282466 0.575559
Si Si2 0.347018 0.222287 0.628667
Si Si3 0.820492 0.717151 0.887285
Si Si4 0.732522 0.722329 0.642336
Si Si5 0.582328 0.277037 0.045989
Si Si6 0.358876 0.708473 0.105763
O O1 0.119082 0.500000 0.583217
O O2 0.250000 0.250000 0.500000
O O3 0.185211 0.215929 0.477898
O O4 0.978329 0.213423 0.733266
O O5 0.500000 0.269632 0.500000
O O6 0.301094 0.280333 0.623617
O O7 0.248598 0.291254 0.759626
O O8 0.336064 0.000000 0.637946
O O9 0.828636 0.500000 0.874005
O O10 0.750000 0.750000 0.000000
O O11 0.709404 0.784025 0.956375
O O12 0.734061 0.500000 0.640494
O O13 0.570695 0.778360 0.794154
O O14 0.578970 0.500000 0.049221
O O15 0.610368 0.214570 0.970445
O O16 0.310850 0.500000 0.142657
O O17 0.500000 0.701109 0.000000
#
# Coordination Sequence:
#
# PCOD9205184 Si02
#       6
#     8   8   8   8   8   8
#     4  10  21  35  52  73  99 130 165 204 248 297
#     4   9  16  22  33  55  86 122 155 189 231 282
#     4  10  21  35  52  74  98 128 166 207 249 293
#     4   9  16  27  41  61  90 125 159 194 241 288
#     4   9  16  26  42  62  89 124 159 197 239 284
#     4   9  14  22  35  55  84 120 157 187 226 283
#
# _framework density 22.063652000000001
#
# number of rings (size 3 to 8) (size 9 to 14) (size 15 to 20)
#    0.000    2.667    1.667    1.000    2.333    2.000 
#    0.000    0.000    0.000    0.000    0.000    0.000 
#    0.000    2.667    0.000    0.167    0.000    0.000 
#
# Total GULP energy -133979.088556 kJ/mol
# GULP energy per Si atom -5582.462023 kJ/mol
# Density = 2.201343 g / cm^3
# Si number density = 22.063652 Si / 1000 Ang^3
#
#
#
# Elastic Constant Matrix: (Units=GPa)
#
#
# Indices 1 2 3 4 5 6 
#
# 1 186.9799 3.6117 128.2454 -0.0268 11.1024 0.0055
# 2 3.6117 84.6442 11.5008 -0.0724 -0.5819 0.0210
# 3 128.2454 11.5008 245.5680 -0.0390 12.4804 0.0103
# 4 -0.0268 -0.0724 -0.0390 -3.2782 0.0060 -2.7955
# 5 11.1024 -0.5819 12.4804 0.0060 43.1755 0.0093
# 6 0.0055 0.0210 0.0103 -2.7955 0.0093 2.4486
#
#
#
# Elastic Compliance Matrix: (Units=1/GPa)
#
#
# Indices 1 2 3 4 5 6 
#
# 1 0.008372 0.000226 -0.004337 -0.000012 -0.000896 -0.000013
# 2 0.000226 0.011900 -0.000691 -0.000086 0.000302 -0.000199
# 3 -0.004337 -0.000691 0.006407 -0.000010 -0.000746 -0.000020
# 4 -0.000012 -0.000086 -0.000010 -0.154564 0.000064 -0.176462
# 5 -0.000896 0.000302 -0.000746 0.000064 0.023611 -0.000014
# 6 -0.000013 -0.000199 -0.000020 -0.176462 -0.000014 0.206940
#
#
# Mechanical properties :
#
#
# Convention : Reuss Voigt Hill
#
# Bulk Modulus (GPa) = 58.56208 89.32309 73.94259
# Shear Modulus (GPa) = 42.38628 33.39146 37.88887
#
# Velocity S-wave (km/s) = 4.38778 3.89448 4.14847
# Velocity P-wave (km/s) = 7.22981 7.79710 7.51881
#
# Compressibility (1/GPa) = 0.01707590
#
# Stress axis : x y z
#
# Youngs Moduli (GPa) = 119.44978 84.03068 156.06809
#
# Poissons Ratio (x) = -0.01898 0.67688
# Poissons Ratio (y) = -0.02698 0.10779
# Poissons Ratio (z) = 0.51806 0.05804
#
# Static dielectric constant tensor:
#      x y z
#    x 1.758350 -0.000060 0.002500 
#    y -0.000060 1.950180 0.000140 
#    z 0.002500 0.000140 1.736680 
# 
# From -- ./inp_files/101925.got.cif
#   From: 2010.05.17/outbox.cif.g08.bks.cpg/sg12_51_cif.got.tgz:101925.got - 2010.06.03 13:09:07.
