data_PCOD9205115
_publ_section_title
;
Structure prediction by ZEFSAII (Michael W. Deem and Ramdas Pophale) SiO2 
 PCOD9205115
Probable space group: C 2/M
;
_chemical_formula_sum "Si O2"
_cell_formula_units_Z 64
_cell_length_a 31.592778
_cell_length_b 7.298696
_cell_length_c 12.253500
_cell_angle_alpha 90.000000
_cell_angle_beta 85.498672
_cell_angle_gamma 90.000000
_cell_volume 2816.771390
_symmetry_space_group_name_H-M "C 2/M"
_symmetry_group_IT_number 12
_symmetry_cell_setting 'monoclinic'
loop_
_space_group_symop_operation_xyz
x,y,z
-x,y,-z
-x,-y,-z
x,-y,z
1/2+x,1/2+y,z
1/2-x,1/2+y,-z
1/2-x,1/2-y,-z
1/2+x,1/2-y,z
loop_
_atom_site_type_symbol
_atom_site_label
_atom_site_fract_x
_atom_site_fract_y
_atom_site_fract_z
Si Si1 0.117463 0.723522 0.061931
Si Si2 0.810197 0.721922 0.433182
Si Si3 0.076916 0.277161 0.299331
Si Si4 0.789137 0.281173 0.911294
Si Si5 0.958121 0.723113 0.075312
Si Si6 0.227494 0.289218 0.329064
Si Si7 0.520501 0.776730 0.685105
Si Si8 0.400865 0.777040 0.470811
O O1 0.117190 0.500000 0.059373
O O2 0.097884 0.780410 0.182279
O O3 0.166159 0.784312 0.048352
O O4 0.084943 0.783194 0.974827
O O5 0.808222 0.500000 0.432578
O O6 0.793820 0.787127 0.555970
O O7 0.777500 0.784586 0.347595
O O8 0.859035 0.778463 0.413568
O O9 0.076772 0.500000 0.297038
O O10 0.101766 0.221115 0.402602
O O11 0.028006 0.218197 0.319240
O O12 0.792801 0.500000 0.900402
O O13 0.781922 0.211152 0.788715
O O14 0.750000 0.250000 0.000000
O O15 0.958200 0.500000 0.073950
O O16 0.963211 0.778442 0.199053
O O17 0.000000 0.779885 0.000000
O O18 0.212791 0.500000 0.328802
O O19 0.554727 0.716761 0.589426
O O20 0.519602 0.000000 0.681656
O O21 0.401299 0.000000 0.469361
#
# Coordination Sequence:
#
# PCOD9205115 Si02
#       8
#     8   8   8   8   8   8   8   8
#     4   9  16  26  42  60  81 117 156 187 225 275
#     4   9  17  30  49  71  94 122 156 196 240 284
#     4   9  14  22  36  54  82 118 151 179 217 273
#     4  10  21  35  50  70  97 128 163 202 243 286
#     4   9  14  22  34  51  78 112 148 182 218 265
#     4   9  18  33  50  67  91 124 161 198 237 283
#     4   9  15  21  31  51  82 117 146 176 218 269
#     4   9  16  23  34  57  87 116 145 179 224 275
#
# _framework density 22.721050999999999
#
# number of rings (size 3 to 8) (size 9 to 14) (size 15 to 20)
#    0.000    2.875    1.250    1.125    0.000    6.000 
#    0.000    2.500    0.000    0.000    0.000    0.000 
#    0.000    3.500    0.000    0.250    0.000    0.000 
#
# Total GULP energy -178729.408848 kJ/mol
# GULP energy per Si atom -5585.294027 kJ/mol
# Density = 2.266934 g / cm^3
# Si number density = 22.721051 Si / 1000 Ang^3
#
#
#
# Elastic Constant Matrix: (Units=GPa)
#
#
# Indices 1 2 3 4 5 6 
#
# 1 138.8637 -7.4740 12.4037 0.0000 17.3359 0.0000
# 2 -7.4740 93.0404 -4.4931 0.0000 0.7545 0.0000
# 3 12.4037 -4.4931 52.1622 0.0000 22.5362 0.0000
# 4 0.0000 0.0000 0.0000 -6.7460 0.0000 1.9506
# 5 17.3359 0.7545 22.5362 0.0000 33.7092 0.0000
# 6 0.0000 0.0000 0.0000 1.9506 0.0000 -1.8122
#
#
#
# Elastic Compliance Matrix: (Units=1/GPa)
#
#
# Indices 1 2 3 4 5 6 
#
# 1 0.007735 0.000649 -0.000082 0.000000 -0.003938 0.000000
# 2 0.000649 0.010883 0.001452 0.000000 -0.001548 0.000000
# 3 -0.000082 0.001452 0.027155 0.000000 -0.018144 0.000000
# 4 0.000000 0.000000 0.000000 -0.215215 0.000000 -0.231647
# 5 -0.003938 -0.001548 -0.018144 0.000000 0.043856 0.000000
# 6 0.000000 0.000000 0.000000 -0.231647 0.000000 -0.801149
#
#
# Mechanical properties :
#
#
# Convention : Reuss Voigt Hill
#
# Bulk Modulus (GPa) = 20.07596 31.65993 25.86794
# Shear Modulus (GPa) = -5.46944 23.93885 9.23470
#
# Velocity S-wave (km/s) = -1.55320 3.24944 2.01822
# Velocity P-wave (km/s) = 2.37454 5.29555 4.10374
#
# Compressibility (1/GPa) = 0.04981083
#
# Stress axis : x y z
#
# Youngs Moduli (GPa) = 129.27959 91.88771 36.82594
#
# Poissons Ratio (x) = -0.05967 0.00303
# Poissons Ratio (y) = -0.08395 -0.05347
# Poissons Ratio (z) = 0.01063 -0.13341
#
# Static dielectric constant tensor:
#      x y z
#    x 1.820330 0.000000 0.005520 
#    y 0.000000 1.936620 0.000000 
#    z 0.005520 0.000000 1.789880 
# 
# From -- ./inp_files/182076.got.cif
#   From: 2010.05.17/outbox.cif.g08.bks.cpg/sg12_92_cif.got.tgz:182076.got - 2010.06.03 13:09:07.
