data_PCOD9205804
_publ_section_title
;
Structure prediction by ZEFSAII (Michael W. Deem and Ramdas Pophale) SiO2 
 PCOD9205804
Probable space group: C 2/M
;
_chemical_formula_sum "Si O2"
_cell_formula_units_Z 48
_cell_length_a 27.386178
_cell_length_b 8.398353
_cell_length_c 12.225255
_cell_angle_alpha 90.000000
_cell_angle_beta 106.515537
_cell_angle_gamma 90.000000
_cell_volume 2695.786788
_symmetry_space_group_name_H-M "C 2/M"
_symmetry_group_IT_number 12
_symmetry_cell_setting 'monoclinic'
loop_
_space_group_symop_operation_xyz
x,y,z
-x,y,-z
-x,-y,-z
x,-y,z
1/2+x,1/2+y,z
1/2-x,1/2+y,-z
1/2-x,1/2-y,-z
1/2+x,1/2-y,z
loop_
_atom_site_type_symbol
_atom_site_label
_atom_site_fract_x
_atom_site_fract_y
_atom_site_fract_z
Si Si1 0.692516 0.690272 0.955513
Si Si2 0.558268 0.311931 0.510188
Si Si3 0.029862 0.184702 0.867284
Si Si4 0.426282 0.814582 0.719047
Si Si5 0.887084 0.691785 0.917551
Si Si6 0.390710 0.186445 0.251729
O O1 0.690550 0.500000 0.948448
O O2 0.663586 0.762684 0.831528
O O3 0.750000 0.750000 0.000000
O O4 0.659921 0.747558 0.039997
O O5 0.500000 0.258629 0.500000
O O6 0.560557 0.500000 0.533948
O O7 0.571466 0.279542 0.392604
O O8 0.597219 0.222964 0.615140
O O9 0.068408 0.211381 0.790876
O O10 0.981296 0.291228 0.810480
O O11 0.015013 0.000000 0.865219
O O12 0.062648 0.236583 0.992640
O O13 0.387320 0.763347 0.789793
O O14 0.418094 0.000000 0.688845
O O15 0.889584 0.500000 0.926094
O O16 0.398775 0.000000 0.233459
#
# Coordination Sequence:
#
# PCOD9205804 Si02
#       6
#     8   8   8   8   8   8
#     4  11  22  39  63  87 111 139 178 227 282 330
#     4  11  22  35  53  78 111 151 192 229 267 320
#     4  11  20  31  49  75 108 146 185 224 270 322
#     4  11  22  34  51  75 108 150 187 224 268 322
#     4  10  21  36  53  78 109 141 182 226 275 328
#     4  11  21  35  56  81 111 145 186 229 274 323
#
# _framework density 17.805561999999998
#
# number of rings (size 3 to 8) (size 9 to 14) (size 15 to 20)
#    0.000    1.167    1.667    8.500    0.000    5.333 
#    0.000    0.000    0.000    1.000    0.000    0.000 
#    0.000    0.000    0.000    0.000    0.000    0.000 
#
# Total GULP energy -134083.582877 kJ/mol
# GULP energy per Si atom -5586.815953 kJ/mol
# Density = 1.776504 g / cm^3
# Si number density = 17.805562 Si / 1000 Ang^3
#
#
#
# Elastic Constant Matrix: (Units=GPa)
#
#
# Indices 1 2 3 4 5 6 
#
# 1 66.8692 4.9245 49.5918 0.0000 10.6353 0.0000
# 2 4.9245 70.7007 19.7406 0.0000 -1.4703 0.0000
# 3 49.5918 19.7406 113.3893 0.0000 -12.3454 0.0000
# 4 0.0000 0.0000 0.0000 29.4005 0.0000 -0.0060
# 5 10.6353 -1.4703 -12.3454 0.0000 20.4663 0.0000
# 6 0.0000 0.0000 0.0000 -0.0060 0.0000 21.9835
#
#
#
# Elastic Compliance Matrix: (Units=1/GPa)
#
#
# Indices 1 2 3 4 5 6 
#
# 1 0.031785 0.002023 -0.017163 0.000000 -0.026724 0.000000
# 2 0.002023 0.015001 -0.003739 0.000000 -0.002229 0.000000
# 3 -0.017163 -0.003739 0.019178 0.000000 0.020218 0.000000
# 4 0.000000 0.000000 0.000000 0.034013 0.000000 0.000009
# 5 -0.026724 -0.002229 0.020218 0.000000 0.074784 0.000000
# 6 0.000000 0.000000 0.000000 0.000009 0.000000 0.045489
#
#
# Mechanical properties :
#
#
# Convention : Reuss Voigt Hill
#
# Bulk Modulus (GPa) = 35.45526 44.38589 39.92058
# Shear Modulus (GPa) = 18.69794 26.15021 22.42407
#
# Velocity S-wave (km/s) = 3.24407 3.83646 3.55263
# Velocity P-wave (km/s) = 5.82989 6.67883 6.26875
#
# Compressibility (1/GPa) = 0.02820456
#
# Stress axis : x y z
#
# Youngs Moduli (GPa) = 31.46179 66.66302 52.14361
#
# Poissons Ratio (x) = -0.13483 0.89494
# Poissons Ratio (y) = -0.06363 0.19495
# Poissons Ratio (z) = 0.53998 0.24924
#
# Static dielectric constant tensor:
#      x y z
#    x 1.599230 0.000000 -0.028800 
#    y 0.000000 1.595360 0.000000 
#    z -0.028800 0.000000 1.632310 
# 
# From -- ./inp_files/185952.got.cif
#   From: 2010.05.17/outbox.cif.g08.bks.cpg/sg12_93_cif.got.tgz:185952.got - 2010.06.03 13:09:07.
