data_PCOD9205113
_publ_section_title
;
Structure prediction by ZEFSAII (Michael W. Deem and Ramdas Pophale) SiO2 
 PCOD9205113
Probable space group: C 2/M
;
_chemical_formula_sum "Si O2"
_cell_formula_units_Z 48
_cell_length_a 14.321458
_cell_length_b 18.721480
_cell_length_c 11.785569
_cell_angle_alpha 90.000000
_cell_angle_beta 115.511741
_cell_angle_gamma 90.000000
_cell_volume 2851.830803
_symmetry_space_group_name_H-M "C 2/M"
_symmetry_group_IT_number 12
_symmetry_cell_setting 'monoclinic'
loop_
_space_group_symop_operation_xyz
x,y,z
-x,y,-z
-x,-y,-z
x,-y,z
1/2+x,1/2+y,z
1/2-x,1/2+y,-z
1/2-x,1/2-y,-z
1/2+x,1/2-y,z
loop_
_atom_site_type_symbol
_atom_site_label
_atom_site_fract_x
_atom_site_fract_y
_atom_site_fract_z
Si Si1 0.472225 0.916764 0.721221
Si Si2 0.389482 0.415515 0.886306
Si Si3 0.180136 0.793831 0.304997
Si Si4 0.904349 0.290654 0.526033
Si Si5 0.388341 0.167119 0.888989
Si Si6 0.194895 0.416116 0.944540
O O1 0.436157 0.864982 0.602442
O O2 0.413310 0.891281 0.804590
O O3 0.593858 0.906142 0.812284
O O4 0.453987 0.000000 0.688784
O O5 0.386762 0.500000 0.858587
O O6 0.366963 0.366963 0.766073
O O7 0.298210 0.400651 0.928827
O O8 0.500000 0.398903 0.000000
O O9 0.122674 0.764088 0.386762
O O10 0.300548 0.800548 0.398904
O O11 0.163192 0.734366 0.198861
O O12 0.000000 0.266073 0.500000
O O13 0.500000 0.187716 0.000000
O O14 0.321386 0.132601 0.953986
O O15 0.195410 0.500000 0.977971
#
# Coordination Sequence:
#
# PCOD9205113 Si02
#       6
#     8   8   8   8   8   8
#     4   9  17  30  50  76 102 125 151 188 237 290
#     4  10  21  35  50  70  96 127 163 200 237 278
#     4  10  21  35  50  70  96 127 163 200 237 278
#     4  10  21  35  50  70  96 127 163 200 237 278
#     4   9  17  30  50  76 102 125 151 188 237 290
#     4   9  17  30  50  76 102 125 151 188 237 290
#
# _framework density 16.831292999999999
#
# number of rings (size 3 to 8) (size 9 to 14) (size 15 to 20)
#    0.000    2.500    0.000    2.000    0.000    5.000 
#    0.000    0.000    0.000    0.500    0.000    0.000 
#    0.000    0.000    0.000    0.000    0.000    0.000 
#
# Total GULP energy -133913.354676 kJ/mol
# GULP energy per Si atom -5579.723112 kJ/mol
# Density = 1.679298 g / cm^3
# Si number density = 16.831293 Si / 1000 Ang^3
#
#
#
# Elastic Constant Matrix: (Units=GPa)
#
#
# Indices 1 2 3 4 5 6 
#
# 1 97.2045 61.0795 57.2312 0.0000 12.4712 0.0000
# 2 61.0795 69.4576 60.4539 0.0000 6.4483 0.0000
# 3 57.2312 60.4539 104.8092 0.0000 8.8716 0.0000
# 4 0.0000 0.0000 0.0000 14.6629 0.0000 7.4106
# 5 12.4712 6.4483 8.8716 0.0000 12.2879 0.0000
# 6 0.0000 0.0000 0.0000 7.4106 0.0000 15.0465
#
#
#
# Elastic Compliance Matrix: (Units=1/GPa)
#
#
# Indices 1 2 3 4 5 6 
#
# 1 0.025352 -0.020018 -0.001074 0.000000 -0.014450 0.000000
# 2 -0.020018 0.044847 -0.015619 0.000000 0.008059 0.000000
# 3 -0.001074 -0.015619 0.019545 0.000000 -0.004825 0.000000
# 4 0.000000 0.000000 0.000000 0.090800 0.000000 -0.044720
# 5 -0.014450 0.008059 -0.004825 0.000000 0.095301 0.000000
# 6 0.000000 0.000000 0.000000 -0.044720 0.000000 0.088486
#
#
# Mechanical properties :
#
#
# Convention : Reuss Voigt Hill
#
# Bulk Modulus (GPa) = 61.26656 69.88896 65.57776
# Shear Modulus (GPa) = 11.28174 14.57992 12.93083
#
# Velocity S-wave (km/s) = 2.59179 2.94639 2.77476
# Velocity P-wave (km/s) = 6.74062 7.29303 7.02226
#
# Compressibility (1/GPa) = 0.01632212
#
# Stress axis : x y z
#
# Youngs Moduli (GPa) = 39.44385 22.29823 51.16367
#
# Poissons Ratio (x) = 0.44636 0.05497
# Poissons Ratio (y) = 0.78958 0.79912
# Poissons Ratio (z) = 0.04238 0.34827
#
# Static dielectric constant tensor:
#      x y z
#    x 1.553320 0.000000 -0.002800 
#    y 0.000000 1.555790 0.000000 
#    z -0.002800 0.000000 1.552620 
# 
# From -- ./inp_files/131668.got.cif
#   From: 2010.05.17/outbox.cif.g08.bks.cpg/sg12_66_cif.got.tgz:131668.got - 2010.06.03 13:09:07.
