data_PCOD9205335
_publ_section_title
;
Structure prediction by ZEFSAII (Michael W. Deem and Ramdas Pophale) SiO2 
 PCOD9205335
Probable space group: C 2/M
;
_chemical_formula_sum "Si O2"
_cell_formula_units_Z 48
_cell_length_a 17.832676
_cell_length_b 20.184628
_cell_length_c 12.883254
_cell_angle_alpha 90.000000
_cell_angle_beta 25.446292
_cell_angle_gamma 90.000000
_cell_volume 1992.473966
_symmetry_space_group_name_H-M "C 2/M"
_symmetry_group_IT_number 12
_symmetry_cell_setting 'monoclinic'
loop_
_space_group_symop_operation_xyz
x,y,z
-x,y,-z
-x,-y,-z
x,-y,z
1/2+x,1/2+y,z
1/2-x,1/2+y,-z
1/2-x,1/2-y,-z
1/2+x,1/2-y,z
loop_
_atom_site_type_symbol
_atom_site_label
_atom_site_fract_x
_atom_site_fract_y
_atom_site_fract_z
Si Si1 0.875821 0.579900 0.559863
Si Si2 0.705463 0.744911 0.231004
Si Si3 0.447735 0.575864 0.918562
Si Si4 0.855855 0.579703 0.364729
Si Si5 0.139222 0.840483 0.139861
Si Si6 0.239226 0.705225 0.618839
O O1 0.868295 0.500000 0.560462
O O2 0.946880 0.600527 0.359179
O O3 0.000000 0.595240 0.500000
O O4 0.684489 0.606295 0.831962
O O5 0.500000 0.760591 0.500000
O O6 0.713864 0.674273 0.159539
O O7 0.799775 0.742650 0.224097
O O8 0.781093 0.793974 0.049768
O O9 0.443767 0.500000 0.949745
O O10 0.651630 0.589707 0.652756
O O11 0.362655 0.588352 0.911734
O O12 0.881241 0.500000 0.308096
O O13 0.875624 0.639056 0.258142
O O14 0.936305 0.819161 0.396651
O O15 0.250000 0.750000 0.500000
#
# Coordination Sequence:
#
# PCOD9205335 Si02
#       6
#     8   8   8   8   8   8
#     4   9  17  29  46  74 108 139 174 215 260 316
#     4   9  19  37  55  76 105 139 180 222 266 315
#     4   9  17  30  51  77 104 135 174 217 265 319
#     4   9  18  34  52  74 106 141 176 218 269 317
#     4   9  19  36  56  76 106 141 174 221 272 315
#     4  10  21  35  54  81 106 138 182 222 262 322
#
# _framework density 24.090654000000001
#
# number of rings (size 3 to 8) (size 9 to 14) (size 15 to 20)
#    0.000    2.833    0.000    0.500    2.333    3.333 
#    6.000    0.833    0.000    5.000    0.000    2.333 
#    0.000    0.000    0.000    0.000    0.000    0.000 
#
# Total GULP energy -133705.922299 kJ/mol
# GULP energy per Si atom -5571.080096 kJ/mol
# Density = 2.403582 g / cm^3
# Si number density = 24.090654 Si / 1000 Ang^3
#
#
#
# Elastic Constant Matrix: (Units=GPa)
#
#
# Indices 1 2 3 4 5 6 
#
# 1 135.6498 40.3127 9.4906 0.0058 30.1343 0.0009
# 2 40.3127 85.2739 1.2753 0.0098 22.7255 -0.0039
# 3 9.4906 1.2753 55.8903 -0.0004 2.4649 -0.0021
# 4 0.0058 0.0098 -0.0004 16.9544 -0.0015 8.6033
# 5 30.1343 22.7255 2.4649 -0.0015 36.6021 0.0001
# 6 0.0009 -0.0039 -0.0021 8.6033 0.0001 14.2502
#
#
#
# Elastic Compliance Matrix: (Units=1/GPa)
#
#
# Indices 1 2 3 4 5 6 
#
# 1 0.009684 -0.002944 -0.001310 -0.000002 -0.006056 0.000000
# 2 -0.002944 0.014948 0.000463 -0.000015 -0.006888 0.000013
# 3 -0.001310 0.000463 0.018123 -0.000001 -0.000429 0.000004
# 4 -0.000002 -0.000015 -0.000001 0.085032 0.000015 -0.051336
# 5 -0.006056 -0.006888 -0.000429 0.000015 0.036612 -0.000011
# 6 0.000000 0.000013 0.000004 -0.051336 -0.000011 0.101168
#
#
# Mechanical properties :
#
#
# Convention : Reuss Voigt Hill
#
# Bulk Modulus (GPa) = 28.43265 42.10791 35.27028
# Shear Modulus (GPa) = 17.55161 28.61037 23.08099
#
# Velocity S-wave (km/s) = 2.70212 3.44991 3.09866
# Velocity P-wave (km/s) = 4.64363 5.77807 5.24163
#
# Compressibility (1/GPa) = 0.03517084
#
# Stress axis : x y z
#
# Youngs Moduli (GPa) = 103.26263 66.90072 55.17842
#
# Poissons Ratio (x) = 0.19698 0.07229
# Poissons Ratio (y) = 0.30405 -0.02553
# Poissons Ratio (z) = 0.13529 -0.03095
#
# Static dielectric constant tensor:
#      x y z
#    x 2.061150 0.000000 0.017930 
#    y 0.000000 2.023130 0.000010 
#    z 0.017930 0.000010 2.053780 
# 
# From -- ./inp_files/160423.got.cif
#   From: 2010.05.17/outbox.cif.g08.bks.cpg/sg12_81_cif.got.tgz:160423.got - 2010.06.03 13:09:07.
