data_PCOD9205205
_publ_section_title
;
Structure prediction by ZEFSAII (Michael W. Deem and Ramdas Pophale) SiO2 
 PCOD9205205
Probable space group: C 2/M
;
_chemical_formula_sum "Si O2"
_cell_formula_units_Z 56
_cell_length_a 19.019490
_cell_length_b 8.729752
_cell_length_c 29.914133
_cell_angle_alpha 90.000000
_cell_angle_beta 142.258435
_cell_angle_gamma 90.000000
_cell_volume 3040.186247
_symmetry_space_group_name_H-M "C 2/M"
_symmetry_group_IT_number 12
_symmetry_cell_setting 'monoclinic'
loop_
_space_group_symop_operation_xyz
x,y,z
-x,y,-z
-x,-y,-z
x,-y,z
1/2+x,1/2+y,z
1/2-x,1/2+y,-z
1/2-x,1/2-y,-z
1/2+x,1/2-y,z
loop_
_atom_site_type_symbol
_atom_site_label
_atom_site_fract_x
_atom_site_fract_y
_atom_site_fract_z
Si Si1 0.698548 0.815059 0.298090
Si Si2 0.964831 0.815560 0.431614
Si Si3 0.844572 0.315427 0.141208
Si Si4 0.878049 0.682662 0.567544
Si Si5 0.003311 0.682993 0.868096
Si Si6 0.581556 0.315314 0.001058
Si Si7 0.454474 0.317478 0.699958
O O1 0.831030 0.774226 0.358068
O O2 0.617772 0.772411 0.215550
O O3 0.642585 0.740808 0.313972
O O4 0.690826 0.000000 0.299587
O O5 0.000000 0.776458 0.500000
O O6 0.046526 0.737601 0.436544
O O7 0.975491 0.000000 0.432100
O O8 0.850870 0.500000 0.150525
O O9 0.712784 0.265244 0.074845
O O10 0.901361 0.281134 0.121634
O O11 0.924786 0.237018 0.218335
O O12 0.872204 0.500000 0.565571
O O13 0.750000 0.750000 0.500000
O O14 0.933269 0.744183 0.641129
O O15 0.002369 0.500000 0.874017
O O16 0.033506 0.761127 0.929539
O O17 0.582591 0.500000 0.001713
O O18 0.500000 0.261339 0.000000
O O19 0.450421 0.500000 0.694789
#
# Coordination Sequence:
#
# PCOD9205205 Si02
#       7
#     8   8   8   8   8   8   8
#     4   9  19  37  59  85 118 150 183 230 288 342
#     4  10  21  38  61  87 116 151 189 231 281 336
#     4   9  19  37  57  78 108 145 184 228 283 338
#     4  12  25  41  61  85 117 153 191 234 279 329
#     4   9  18  33  54  78 106 144 185 225 273 333
#     4  10  21  35  52  77 109 143 182 232 284 333
#     4  11  22  37  60  88 115 146 190 235 278 335
#
# _framework density 18.419923000000001
#
# number of rings (size 3 to 8) (size 9 to 14) (size 15 to 20)
#    0.000    2.000    0.000    4.714    0.000    6.286 
#    0.000    2.857    0.000    0.000    0.000    0.000 
#    0.000    0.000    0.000    0.000    0.000    0.000 
#
# Total GULP energy -156423.305918 kJ/mol
# GULP energy per Si atom -5586.546640 kJ/mol
# Density = 1.837800 g / cm^3
# Si number density = 18.419923 Si / 1000 Ang^3
#
#
#
# Elastic Constant Matrix: (Units=GPa)
#
#
# Indices 1 2 3 4 5 6 
#
# 1 155.8064 67.6268 132.8218 0.0000 6.7825 0.0000
# 2 67.6268 63.9917 63.9323 0.0000 -1.6494 -0.0001
# 3 132.8218 63.9323 167.1424 0.0000 2.4736 0.0000
# 4 0.0000 0.0000 0.0000 29.8417 0.0000 -6.6319
# 5 6.7825 -1.6494 2.4736 0.0000 36.7162 0.0000
# 6 0.0000 -0.0001 0.0000 -6.6319 0.0000 28.6419
#
#
#
# Elastic Compliance Matrix: (Units=1/GPa)
#
#
# Indices 1 2 3 4 5 6 
#
# 1 0.023730 -0.010349 -0.014842 0.000000 -0.003849 0.000000
# 2 -0.010349 0.029924 -0.003273 0.000000 0.003477 0.000000
# 3 -0.014842 -0.003273 0.019010 0.000000 0.001314 0.000000
# 4 0.000000 0.000000 0.000000 0.035328 0.000000 0.008180
# 5 -0.003849 0.003477 0.001314 0.000000 0.028015 0.000000
# 6 0.000000 0.000000 0.000000 0.008180 0.000000 0.036808
#
#
# Mechanical properties :
#
#
# Convention : Reuss Voigt Hill
#
# Bulk Modulus (GPa) = 63.55206 101.74470 82.64838
# Shear Modulus (GPa) = 21.27758 27.21059 24.24409
#
# Velocity S-wave (km/s) = 3.40242 3.84765 3.63187
# Velocity P-wave (km/s) = 7.07192 8.66576 7.90909
#
# Compressibility (1/GPa) = 0.01573513
#
# Stress axis : x y z
#
# Youngs Moduli (GPa) = 42.14013 33.41791 52.60419
#
# Poissons Ratio (x) = 0.34585 0.78075
# Poissons Ratio (y) = 0.43612 0.17219
# Poissons Ratio (z) = 0.62544 0.10938
#
# Static dielectric constant tensor:
#      x y z
#    x 1.605650 0.000000 0.015500 
#    y 0.000000 1.621180 0.000000 
#    z 0.015500 0.000000 1.618920 
# 
# From -- ./inp_files/363116.got.cif
#   From: 2010.05.17/outbox.cif.g08.bks.cpg/sg12_182_cif.got.tgz:363116.got - 2010.06.03 13:09:07.
