data_PCOD9205578
_publ_section_title
;
Structure prediction by ZEFSAII (Michael W. Deem and Ramdas Pophale) SiO2 
 PCOD9205578
Probable space group: C 2/M
;
_chemical_formula_sum "Si O2"
_cell_formula_units_Z 48
_cell_length_a 19.205749
_cell_length_b 13.591008
_cell_length_c 11.039219
_cell_angle_alpha 90.000000
_cell_angle_beta 44.081949
_cell_angle_gamma 90.000000
_cell_volume 2004.632894
_symmetry_space_group_name_H-M "C 2/M"
_symmetry_group_IT_number 12
_symmetry_cell_setting 'monoclinic'
loop_
_space_group_symop_operation_xyz
x,y,z
-x,y,-z
-x,-y,-z
x,-y,z
1/2+x,1/2+y,z
1/2-x,1/2+y,-z
1/2-x,1/2-y,-z
1/2+x,1/2-y,z
loop_
_atom_site_type_symbol
_atom_site_label
_atom_site_fract_x
_atom_site_fract_y
_atom_site_fract_z
Si Si1 0.257734 0.393319 0.395413
Si Si2 0.783631 0.890468 0.004207
Si Si3 0.045174 0.612206 0.575315
Si Si4 0.389846 0.388485 0.611879
Si Si5 0.301374 0.817981 0.281674
Si Si6 0.607451 0.199382 0.075854
O O1 0.307953 0.500000 0.323998
O O2 0.165045 0.387356 0.418627
O O3 0.320547 0.294161 0.299853
O O4 0.203116 0.384575 0.594177
O O5 0.840225 0.896093 0.804997
O O6 0.847016 0.808857 0.995828
O O7 0.779255 0.000000 0.061536
O O8 0.676469 0.849713 0.094835
O O9 0.016322 0.500000 0.647501
O O10 0.000000 0.630462 0.500000
O O11 0.001398 0.685561 0.731778
O O12 0.500000 0.348488 0.500000
O O13 0.400017 0.500000 0.548372
O O14 0.312163 0.328039 0.629049
O O15 0.372545 0.847558 0.080894
#
# Coordination Sequence:
#
# PCOD9205578 Si02
#       6
#     8   8   8   8   8   8
#     4  10  23  41  61  86 118 160 200 245 303 357
#     4   9  19  32  49  83 119 151 191 239 298 351
#     4  10  23  39  61  91 120 151 197 255 302 352
#     4   9  18  32  55  85 115 150 191 239 288 342
#     4  10  22  39  59  86 118 158 200 244 294 358
#     4  10  21  35  58  85 118 159 195 247 296 351
#
# _framework density 23.944533
#
# number of rings (size 3 to 8) (size 9 to 14) (size 15 to 20)
#    0.000    2.333    0.000    1.000    9.333    3.333 
#    0.000    1.667    0.000    0.000    0.000    3.500 
#    0.000    0.000    0.000    0.000    0.000    0.000 
#
# Total GULP energy -134083.543370 kJ/mol
# GULP energy per Si atom -5586.814307 kJ/mol
# Density = 2.389003 g / cm^3
# Si number density = 23.944533 Si / 1000 Ang^3
#
#
#
# Elastic Constant Matrix: (Units=GPa)
#
#
# Indices 1 2 3 4 5 6 
#
# 1 48.9180 -2.2096 6.3995 0.0000 14.3073 0.0000
# 2 -2.2096 131.4355 3.5671 0.0000 2.5637 0.0000
# 3 6.3995 3.5671 62.9218 0.0000 7.4793 0.0000
# 4 0.0000 0.0000 0.0000 20.4414 0.0000 -1.2613
# 5 14.3073 2.5637 7.4793 0.0000 39.5051 0.0000
# 6 0.0000 0.0000 0.0000 -1.2613 0.0000 15.7261
#
#
#
# Elastic Compliance Matrix: (Units=1/GPa)
#
#
# Indices 1 2 3 4 5 6 
#
# 1 0.023025 0.000584 -0.001411 0.000000 -0.008110 0.000000
# 2 0.000584 0.007642 -0.000418 0.000000 -0.000628 0.000000
# 3 -0.001411 -0.000418 0.016364 0.000000 -0.002560 0.000000
# 4 0.000000 0.000000 0.000000 0.049164 0.000000 0.003943
# 5 -0.008110 -0.000628 -0.002560 0.000000 0.028776 0.000000
# 6 0.000000 0.000000 0.000000 0.003943 0.000000 0.063905
#
#
# Mechanical properties :
#
#
# Convention : Reuss Voigt Hill
#
# Bulk Modulus (GPa) = 22.45142 28.75435 25.60289
# Shear Modulus (GPa) = 24.24683 30.83575 27.54129
#
# Velocity S-wave (km/s) = 3.18563 3.59248 3.39516
# Velocity P-wave (km/s) = 4.78829 5.40766 5.10737
#
# Compressibility (1/GPa) = 0.04454061
#
# Stress axis : x y z
#
# Youngs Moduli (GPa) = 43.43070 130.86097 61.10887
#
# Poissons Ratio (x) = -0.07637 0.08622
# Poissons Ratio (y) = -0.02534 0.02554
# Poissons Ratio (z) = 0.06128 0.05469
#
# Static dielectric constant tensor:
#      x y z
#    x 1.937500 0.000000 -0.000330 
#    y 0.000000 1.988870 0.000000 
#    z -0.000330 0.000000 1.884920 
# 
# From -- ./inp_files/167532.got.cif
#   From: 2010.05.17/outbox.cif.g08.bks.cpg/sg12_84_cif.got.tgz:167532.got - 2010.06.03 13:09:07.
