data_PCOD9205570
_publ_section_title
;
Structure prediction by ZEFSAII (Michael W. Deem and Ramdas Pophale) SiO2 
 PCOD9205570
Probable space group: C 2/M
;
_chemical_formula_sum "Si O2"
_cell_formula_units_Z 48
_cell_length_a 21.244595
_cell_length_b 18.902065
_cell_length_c 11.500251
_cell_angle_alpha 90.000000
_cell_angle_beta 27.538710
_cell_angle_gamma 90.000000
_cell_volume 2135.176649
_symmetry_space_group_name_H-M "C 2/M"
_symmetry_group_IT_number 12
_symmetry_cell_setting 'monoclinic'
loop_
_space_group_symop_operation_xyz
x,y,z
-x,y,-z
-x,-y,-z
x,-y,z
1/2+x,1/2+y,z
1/2-x,1/2+y,-z
1/2-x,1/2-y,-z
1/2+x,1/2-y,z
loop_
_atom_site_type_symbol
_atom_site_label
_atom_site_fract_x
_atom_site_fract_y
_atom_site_fract_z
Si Si1 0.890429 0.289673 0.754241
Si Si2 0.734700 0.584371 0.920098
Si Si3 0.442607 0.853218 0.912892
Si Si4 0.680858 0.420515 0.269934
Si Si5 0.713481 0.170259 0.591537
Si Si6 0.457553 0.585576 0.272760
O O1 0.856272 0.359427 0.730123
O O2 0.941599 0.304603 0.800431
O O3 0.000000 0.247835 0.500000
O O4 0.750000 0.250000 0.000000
O O5 0.769951 0.500000 0.856765
O O6 0.668197 0.598007 0.156607
O O7 0.618943 0.599824 0.013884
O O8 0.596911 0.863967 0.700410
O O9 0.342249 0.915874 0.035158
O O10 0.360597 0.826188 0.160540
O O11 0.632860 0.500000 0.355198
O O12 0.600903 0.386431 0.506990
O O13 0.750000 0.250000 0.500000
O O14 0.852033 0.124423 0.361303
O O15 0.442480 0.500000 0.285739
#
# Coordination Sequence:
#
# PCOD9205570 Si02
#       6
#     8   8   8   8   8   8
#     4  11  26  41  65  96 129 166 208 264 321 376
#     4   9  18  35  59  89 124 162 203 252 313 377
#     4   9  21  38  53  86 115 159 212 247 312 366
#     4   8  14  28  53  84 120 155 194 250 308 366
#     4  10  21  35  58  82 121 166 208 256 302 371
#     4   9  17  30  54  88 122 159 205 254 305 364
#
# _framework density 22.480575000000002
#
# number of rings (size 3 to 8) (size 9 to 14) (size 15 to 20)
#    0.000    2.667    0.000    0.500    4.667    5.667 
#    0.000    3.333    0.000    0.000    0.000    4.667 
#    0.000    0.000    0.000    0.000    0.000    0.000 
#
# Total GULP energy -133621.546377 kJ/mol
# GULP energy per Si atom -5567.564432 kJ/mol
# Density = 2.242941 g / cm^3
# Si number density = 22.480575 Si / 1000 Ang^3
#
#
#
# Elastic Constant Matrix: (Units=GPa)
#
#
# Indices 1 2 3 4 5 6 
#
# 1 135.4342 32.2911 41.3333 0.0001 -42.9122 -0.0001
# 2 32.2911 63.3626 20.5892 0.0002 -24.6441 -0.0001
# 3 41.3333 20.5892 69.5938 0.0002 -31.0021 -0.0002
# 4 0.0001 0.0002 0.0002 21.0359 -0.0002 -3.9404
# 5 -42.9122 -24.6441 -31.0021 -0.0002 45.3650 0.0001
# 6 -0.0001 -0.0001 -0.0002 -3.9404 0.0001 25.9187
#
#
#
# Elastic Compliance Matrix: (Units=1/GPa)
#
#
# Indices 1 2 3 4 5 6 
#
# 1 0.011042 -0.001789 -0.002601 0.000000 0.007696 0.000000
# 2 -0.001789 0.020417 -0.001137 0.000000 0.008622 0.000000
# 3 -0.002601 -0.001137 0.021391 0.000000 0.011541 0.000000
# 4 0.000000 0.000000 0.000000 0.048931 0.000000 0.007439
# 5 0.007696 0.008622 0.011541 0.000000 0.041894 0.000000
# 6 0.000000 0.000000 0.000000 0.007439 0.000000 0.039713
#
#
# Mechanical properties :
#
#
# Convention : Reuss Voigt Hill
#
# Bulk Modulus (GPa) = 23.92494 50.75753 37.34124
# Shear Modulus (GPa) = 23.99523 30.07572 27.03548
#
# Velocity S-wave (km/s) = 3.27062 3.66164 3.47164
# Velocity P-wave (km/s) = 4.99281 6.36429 5.71981
#
# Compressibility (1/GPa) = 0.04179739
#
# Stress axis : x y z
#
# Youngs Moduli (GPa) = 90.55957 48.97938 46.74826
#
# Poissons Ratio (x) = 0.08763 0.12157
# Poissons Ratio (y) = 0.16202 0.05315
# Poissons Ratio (z) = 0.23551 0.05568
#
# Static dielectric constant tensor:
#      x y z
#    x 1.931680 0.000000 0.003320 
#    y 0.000000 1.887350 0.000000 
#    z 0.003320 0.000000 1.888480 
# 
# From -- ./inp_files/169590.got.cif
#   From: 2010.05.17/outbox.cif.g08.bks.cpg/sg12_85_cif.got.tgz:169590.got - 2010.06.03 13:09:07.
