data_PCOD9205150
_publ_section_title
;
Structure prediction by ZEFSAII (Michael W. Deem and Ramdas Pophale) SiO2 
 PCOD9205150
Probable space group: C 2/M
;
_chemical_formula_sum "Si O2"
_cell_formula_units_Z 32
_cell_length_a 21.809227
_cell_length_b 9.692554
_cell_length_c 16.446591
_cell_angle_alpha 90.000000
_cell_angle_beta 154.737734
_cell_angle_gamma 90.000000
_cell_volume 1483.680881
_symmetry_space_group_name_H-M "C 2/M"
_symmetry_group_IT_number 12
_symmetry_cell_setting 'monoclinic'
loop_
_space_group_symop_operation_xyz
x,y,z
-x,y,-z
-x,-y,-z
x,-y,z
1/2+x,1/2+y,z
1/2-x,1/2+y,-z
1/2-x,1/2-y,-z
1/2+x,1/2-y,z
loop_
_atom_site_type_symbol
_atom_site_label
_atom_site_fract_x
_atom_site_fract_y
_atom_site_fract_z
Si Si1 0.242616 0.656160 0.681416
Si Si2 0.115633 0.838634 0.310081
Si Si3 0.205255 0.838467 0.063377
Si Si4 0.477006 0.657851 0.374132
O O1 0.184699 0.500000 0.601688
O O2 0.372376 0.670913 0.773867
O O3 0.283484 0.669957 0.824541
O O4 0.117520 0.764050 0.511073
O O5 0.250000 0.750000 0.500000
O O6 0.134833 0.000000 0.353833
O O7 0.958186 0.796346 0.151772
O O8 0.331623 0.741627 0.182460
O O9 0.227092 0.000000 0.068290
O O10 0.500000 0.657507 0.500000
O O11 0.467830 0.500000 0.336018
#
# Coordination Sequence:
#
# PCOD9205150 Si02
#       4
#     8   8   8   8
#     4   9  17  32  54  76  98 128 166 204 242 289
#     4  10  21  35  51  73 101 132 166 204 246 292
#     4   9  17  32  54  76  98 128 166 204 242 289
#     4   9  17  29  48  77 106 127 155 201 252 295
#
# _framework density 21.567979999999999
#
# number of rings (size 3 to 8) (size 9 to 14) (size 15 to 20)
#    0.000    2.750    0.000    1.500    0.000    8.000 
#    0.000    1.250    0.000    7.500    0.000    0.000 
#    0.000    0.000    0.000    0.000    0.000    0.000 
#
# Total GULP energy -89393.654645 kJ/mol
# GULP energy per Si atom -5587.103415 kJ/mol
# Density = 2.151889 g / cm^3
# Si number density = 21.567980 Si / 1000 Ang^3
#
#
#
# Elastic Constant Matrix: (Units=GPa)
#
#
# Indices 1 2 3 4 5 6 
#
# 1 69.8144 25.5495 21.4717 0.0000 13.0011 0.0000
# 2 25.5495 108.2362 88.6922 0.0000 29.9849 0.0000
# 3 21.4717 88.6922 153.2777 0.0000 29.8076 0.0000
# 4 0.0000 0.0000 0.0000 32.6171 0.0000 4.6445
# 5 13.0011 29.9849 29.8076 0.0000 44.2679 0.0000
# 6 0.0000 0.0000 0.0000 4.6445 0.0000 14.1017
#
#
#
# Elastic Compliance Matrix: (Units=1/GPa)
#
#
# Indices 1 2 3 4 5 6 
#
# 1 0.015922 -0.003083 0.000065 0.000000 -0.002632 0.000000
# 2 -0.003083 0.019573 -0.009771 0.000000 -0.005773 0.000000
# 3 0.000065 -0.009771 0.012526 0.000000 -0.001835 0.000000
# 4 0.000000 0.000000 0.000000 0.032167 0.000000 -0.010595
# 5 -0.002632 -0.005773 -0.001835 0.000000 0.028509 0.000000
# 6 0.000000 0.000000 0.000000 -0.010595 0.000000 0.074403
#
#
# Mechanical properties :
#
#
# Convention : Reuss Voigt Hill
#
# Bulk Modulus (GPa) = 44.55681 66.97279 55.76480
# Shear Modulus (GPa) = 23.13133 31.23833 27.18483
#
# Velocity S-wave (km/s) = 3.27843 3.80987 3.55410
# Velocity P-wave (km/s) = 5.91899 7.10442 6.53863
#
# Compressibility (1/GPa) = 0.02244326
#
# Stress axis : x y z
#
# Youngs Moduli (GPa) = 62.80641 51.09159 79.83614
#
# Poissons Ratio (x) = 0.15750 -0.00521
# Poissons Ratio (y) = 0.19361 0.78008
# Poissons Ratio (z) = -0.00409 0.49922
#
# Static dielectric constant tensor:
#      x y z
#    x 1.839110 0.000000 -0.061000 
#    y 0.000000 1.728830 0.000000 
#    z -0.061000 0.000000 1.760320 
# 
# From -- ./inp_files/37504.got.cif
#   From: 2010.05.17/outbox.cif.g08.bks.cpg/sg12_19_cif.got.tgz:37504.got - 2010.06.03 13:09:07.
