data_PCOD9205900
_publ_section_title
;
Structure prediction by ZEFSAII (Michael W. Deem and Ramdas Pophale) SiO2 
 PCOD9205900
Probable space group: C 2/M
;
_chemical_formula_sum "Si O2"
_cell_formula_units_Z 40
_cell_length_a 15.546315
_cell_length_b 13.287606
_cell_length_c 11.083377
_cell_angle_alpha 90.000000
_cell_angle_beta 40.635860
_cell_angle_gamma 90.000000
_cell_volume 1491.054713
_symmetry_space_group_name_H-M "C 2/M"
_symmetry_group_IT_number 12
_symmetry_cell_setting 'monoclinic'
loop_
_space_group_symop_operation_xyz
x,y,z
-x,y,-z
-x,-y,-z
x,-y,z
1/2+x,1/2+y,z
1/2-x,1/2+y,-z
1/2-x,1/2-y,-z
1/2+x,1/2-y,z
loop_
_atom_site_type_symbol
_atom_site_label
_atom_site_fract_x
_atom_site_fract_y
_atom_site_fract_z
Si Si1 0.350860 0.850508 0.143537
Si Si2 0.938901 0.671167 0.701032
Si Si3 0.200580 0.636177 0.541067
Si Si4 0.905599 0.107296 0.719445
Si Si5 0.184036 0.110005 0.842605
O O1 0.280178 0.890919 0.340933
O O2 0.248720 0.886510 0.151793
O O3 0.361593 0.727991 0.113406
O O4 0.500000 0.885226 0.000000
O O5 0.930240 0.786294 0.756948
O O6 0.801729 0.618781 0.816263
O O7 0.000000 0.675965 0.500000
O O8 0.046145 0.622250 0.673225
O O9 0.250000 0.750000 0.500000
O O10 0.270415 0.600006 0.345706
O O11 0.000000 0.110530 0.500000
O O12 0.935193 0.000000 0.746600
O O13 0.119560 0.000000 0.936669
#
# Coordination Sequence:
#
# PCOD9205900 Si02
#       5
#     8   8   8   8   8
#     4  10  21  36  54  80 114 144 173 220 276 322
#     4   8  15  29  49  73 100 130 172 223 264 303
#     4   9  17  31  51  75 104 139 180 222 263 313
#     4   9  17  32  53  73  99 140 183 217 255 312
#     4   9  18  33  54  78 104 140 183 221 262 319
#
# _framework density 26.826647999999999
#
# number of rings (size 3 to 8) (size 9 to 14) (size 15 to 20)
#    0.000    3.000    0.000    3.600    0.000    5.200 
#    0.000   10.000    0.000    2.400    0.000    0.000 
#    0.000    0.000    0.000    0.000    0.000    0.000 
#
# Total GULP energy -111386.088626 kJ/mol
# GULP energy per Si atom -5569.304431 kJ/mol
# Density = 2.676559 g / cm^3
# Si number density = 26.826648 Si / 1000 Ang^3
#
#
#
# Elastic Constant Matrix: (Units=GPa)
#
#
# Indices 1 2 3 4 5 6 
#
# 1 111.7730 13.3522 34.1560 0.0000 3.4674 0.0000
# 2 13.3522 208.0722 6.9803 0.0000 -3.9641 0.0000
# 3 34.1560 6.9803 79.3455 0.0000 16.9701 0.0000
# 4 0.0000 0.0000 0.0000 -61.4825 0.0000 41.4783
# 5 3.4674 -3.9641 16.9701 0.0000 62.2040 0.0000
# 6 0.0000 0.0000 0.0000 41.4783 0.0000 6.2344
#
#
#
# Elastic Compliance Matrix: (Units=1/GPa)
#
#
# Indices 1 2 3 4 5 6 
#
# 1 0.010380 -0.000501 -0.004560 0.000000 0.000633 0.000000
# 2 -0.000501 0.004856 -0.000301 0.000000 0.000420 0.000000
# 3 -0.004560 -0.000301 0.015443 0.000000 -0.003978 0.000000
# 4 0.000000 0.000000 0.000000 -0.002963 0.000000 0.019716
# 5 0.000633 0.000420 -0.003978 0.000000 0.017153 0.000000
# 6 0.000000 0.000000 0.000000 0.019716 0.000000 0.029225
#
#
# Mechanical properties :
#
#
# Convention : Reuss Voigt Hill
#
# Bulk Modulus (GPa) = 50.11130 56.46307 53.28718
# Shear Modulus (GPa) = 54.66234 24.37133 39.51683
#
# Velocity S-wave (km/s) = 4.51889 3.01736 3.84219
# Velocity P-wave (km/s) = 6.77845 5.76475 6.29205
#
# Compressibility (1/GPa) = 0.01995558
#
# Stress axis : x y z
#
# Youngs Moduli (GPa) = 96.33607 205.91897 64.75291
#
# Poissons Ratio (x) = 0.10318 0.29526
# Poissons Ratio (y) = 0.04827 0.01951
# Poissons Ratio (z) = 0.43928 0.06204
#
# Static dielectric constant tensor:
#      x y z
#    x 1.999330 0.000000 0.005590 
#    y 0.000000 2.131390 0.000000 
#    z 0.005590 0.000000 2.180650 
# 
# From -- ./inp_files/142536.got.cif
#   From: 2010.05.17/outbox.cif.g08.bks.cpg/sg12_72_cif.got.tgz:142536.got - 2010.06.03 13:09:07.
