data_PCOD9205236
_publ_section_title
;
Structure prediction by ZEFSAII (Michael W. Deem and Ramdas Pophale) SiO2 
 PCOD9205236
Probable space group: C 2/M
;
_chemical_formula_sum "Si O2"
_cell_formula_units_Z 56
_cell_length_a 21.594847
_cell_length_b 14.125587
_cell_length_c 8.334451
_cell_angle_alpha 90.000000
_cell_angle_beta 77.072388
_cell_angle_gamma 90.000000
_cell_volume 2477.900576
_symmetry_space_group_name_H-M "C 2/M"
_symmetry_group_IT_number 12
_symmetry_cell_setting 'monoclinic'
loop_
_space_group_symop_operation_xyz
x,y,z
-x,y,-z
-x,-y,-z
x,-y,z
1/2+x,1/2+y,z
1/2-x,1/2+y,-z
1/2-x,1/2-y,-z
1/2+x,1/2-y,z
loop_
_atom_site_type_symbol
_atom_site_label
_atom_site_fract_x
_atom_site_fract_y
_atom_site_fract_z
Si Si1 0.429996 0.885762 0.470079
Si Si2 0.196924 0.707451 0.320303
Si Si3 0.927533 0.604624 0.095667
Si Si4 0.902115 0.892565 0.197439
Si Si5 0.633295 0.267979 0.070261
Si Si6 0.473285 0.614240 0.693808
Si Si7 0.788744 0.894901 0.490678
O O1 0.500000 0.863301 0.500000
O O2 0.373124 0.829072 0.586443
O O3 0.425602 0.864420 0.282549
O O4 0.421635 0.000000 0.494886
O O5 0.192400 0.730329 0.136439
O O6 0.217378 0.807348 0.386920
O O7 0.243582 0.628924 0.366069
O O8 0.898095 0.500000 0.104494
O O9 0.897430 0.675093 0.987803
O O10 0.000000 0.597617 0.000000
O O11 0.860321 0.893782 0.382535
O O12 0.972047 0.859338 0.208049
O O13 0.908821 0.000000 0.135218
O O14 0.864450 0.834639 0.086306
O O15 0.588394 0.327195 0.219020
O O16 0.500000 0.634336 0.500000
O O17 0.462999 0.500000 0.707494
O O18 0.774606 0.000000 0.562485
#
# Coordination Sequence:
#
# PCOD9205236 Si02
#       7
#     8   8   8   8   8   8   8
#     4  10  21  39  63  90 122 159 199 244 293 346
#     4  11  24  39  63  91 115 151 199 247 295 352
#     4  10  21  35  52  80 119 159 195 233 282 341
#     4  10  21  38  60  86 120 159 194 234 290 352
#     4  12  23  35  58  89 123 152 188 240 298 353
#     4  10  21  37  59  90 124 157 194 236 288 351
#     4  10  23  44  64  83 113 154 201 249 293 345
#
# _framework density 22.599777
#
# number of rings (size 3 to 8) (size 9 to 14) (size 15 to 20)
#    0.000    1.571    0.000    4.714    0.000    9.143 
#    0.000    0.000    0.000    4.286    0.000    0.000 
#    0.000    0.000    0.000    0.000    0.000    0.000 
#
# Total GULP energy -156534.503244 kJ/mol
# GULP energy per Si atom -5590.517973 kJ/mol
# Density = 2.254834 g / cm^3
# Si number density = 22.599777 Si / 1000 Ang^3
#
#
#
# Elastic Constant Matrix: (Units=GPa)
#
#
# Indices 1 2 3 4 5 6 
#
# 1 63.5953 12.4727 7.4211 0.0000 11.2963 0.0000
# 2 12.4727 109.4552 22.4010 0.0000 10.5305 0.0000
# 3 7.4211 22.4010 87.3145 0.0000 9.6617 0.0000
# 4 0.0000 0.0000 0.0000 31.1382 0.0000 2.4227
# 5 11.2963 10.5305 9.6617 0.0000 38.2807 0.0000
# 6 0.0000 0.0000 0.0000 2.4227 0.0000 18.6163
#
#
#
# Elastic Compliance Matrix: (Units=1/GPa)
#
#
# Indices 1 2 3 4 5 6 
#
# 1 0.016852 -0.001372 -0.000588 0.000000 -0.004447 0.000000
# 2 -0.001372 0.009919 -0.002233 0.000000 -0.001760 0.000000
# 3 -0.000588 -0.002233 0.012333 0.000000 -0.002325 0.000000
# 4 0.000000 0.000000 0.000000 0.032443 0.000000 -0.004222
# 5 -0.004447 -0.001760 -0.002325 0.000000 0.028506 0.000000
# 6 0.000000 0.000000 0.000000 -0.004222 0.000000 0.054266
#
#
# Mechanical properties :
#
#
# Convention : Reuss Voigt Hill
#
# Bulk Modulus (GPa) = 32.55561 38.32830 35.44196
# Shear Modulus (GPa) = 28.91084 32.14506 30.52795
#
# Velocity S-wave (km/s) = 3.58055 3.77551 3.67932
# Velocity P-wave (km/s) = 5.61518 6.00020 5.81088
#
# Compressibility (1/GPa) = 0.03071667
#
# Stress axis : x y z
#
# Youngs Moduli (GPa) = 59.33983 100.81737 81.08275
#
# Poissons Ratio (x) = 0.13833 0.04769
# Poissons Ratio (y) = 0.08142 0.18109
# Poissons Ratio (z) = 0.03490 0.22516
#
# Static dielectric constant tensor:
#      x y z
#    x 1.825150 0.000000 -0.005140 
#    y 0.000000 1.884800 0.000000 
#    z -0.005140 0.000000 1.855620 
# 
# From -- ./inp_files/86327.got.cif
#   From: 2010.05.17/outbox.cif.g08.bks.cpg/sg12_44_cif.got.tgz:86327.got - 2010.06.03 13:09:07.
