data_PCOD9205158
_publ_section_title
;
Structure prediction by ZEFSAII (Michael W. Deem and Ramdas Pophale) SiO2 
 PCOD9205158
Probable space group: C 2/M
;
_chemical_formula_sum "Si O2"
_cell_formula_units_Z 40
_cell_length_a 18.644992
_cell_length_b 8.726387
_cell_length_c 26.949029
_cell_angle_alpha 90.000000
_cell_angle_beta 30.056028
_cell_angle_gamma 90.000000
_cell_volume 2196.061726
_symmetry_space_group_name_H-M "C 2/M"
_symmetry_group_IT_number 12
_symmetry_cell_setting 'monoclinic'
loop_
_space_group_symop_operation_xyz
x,y,z
-x,y,-z
-x,-y,-z
x,-y,z
1/2+x,1/2+y,z
1/2-x,1/2+y,-z
1/2-x,1/2-y,-z
1/2+x,1/2-y,z
loop_
_atom_site_type_symbol
_atom_site_label
_atom_site_fract_x
_atom_site_fract_y
_atom_site_fract_z
Si Si1 0.926236 0.315486 0.792052
Si Si2 0.409562 0.814713 0.405852
Si Si3 0.173078 0.683542 0.997049
Si Si4 0.420360 0.184952 0.597786
Si Si5 0.396549 0.184331 0.215174
O O1 0.915195 0.500000 0.799571
O O2 0.768149 0.247775 0.895436
O O3 0.001223 0.267384 0.696249
O O4 0.026660 0.270668 0.778796
O O5 0.250000 0.750000 0.500000
O O6 0.491038 0.765444 0.406933
O O7 0.402230 0.000000 0.410011
O O8 0.182143 0.500000 0.992228
O O9 0.250000 0.750000 0.000000
O O10 0.006973 0.726298 0.104729
O O11 0.500000 0.237223 0.500000
O O12 0.258473 0.243286 0.696433
O O13 0.418025 0.000000 0.598769
O O14 0.383537 0.000000 0.223462
#
# Coordination Sequence:
#
# PCOD9205158 Si02
#       5
#     8   8   8   8   8
#     4   9  18  33  52  75 103 134 171 211 249 296
#     4  10  21  36  53  75 102 132 169 212 256 303
#     4   9  17  30  50  77 105 133 169 208 247 296
#     4  10  21  35  51  74 102 131 166 207 252 304
#     4   9  18  32  51  75 100 129 166 205 246 295
#
# _framework density 18.214424000000001
#
# number of rings (size 3 to 8) (size 9 to 14) (size 15 to 20)
#    0.000    2.600    0.000    3.000    0.000    6.000 
#    0.000    1.000    0.000    6.000    0.000    0.000 
#    0.000    0.000    0.000    0.000    0.000    0.000 
#
# Total GULP energy -111520.511414 kJ/mol
# GULP energy per Si atom -5576.025571 kJ/mol
# Density = 1.817297 g / cm^3
# Si number density = 18.214424 Si / 1000 Ang^3
#
#
#
# Elastic Constant Matrix: (Units=GPa)
#
#
# Indices 1 2 3 4 5 6 
#
# 1 107.3751 24.0830 98.7800 0.0000 2.2323 -0.0001
# 2 24.0830 10.5674 40.3836 0.0001 1.3174 -0.0002
# 3 98.7800 40.3836 232.1776 0.0009 3.9460 -0.0001
# 4 0.0000 0.0001 0.0009 38.1886 0.0000 -6.8039
# 5 2.2323 1.3174 3.9460 0.0000 32.6332 0.0000
# 6 -0.0001 -0.0002 -0.0001 -6.8039 0.0000 15.3866
#
#
#
# Elastic Compliance Matrix: (Units=1/GPa)
#
#
# Indices 1 2 3 4 5 6 
#
# 1 0.019271 -0.037608 -0.001664 0.000000 0.000401 0.000000
# 2 -0.037608 0.356592 -0.045916 0.000001 -0.006271 0.000005
# 3 -0.001664 -0.045916 0.012995 0.000000 0.000396 -0.000001
# 4 0.000000 0.000001 0.000000 0.028425 0.000000 0.012569
# 5 0.000401 -0.006271 0.000396 0.000000 0.030821 0.000000
# 6 0.000000 0.000005 -0.000001 0.012569 0.000000 0.070550
#
#
# Mechanical properties :
#
#
# Convention : Reuss Voigt Hill
#
# Bulk Modulus (GPa) = 4.57709 75.17924 39.87816
# Shear Modulus (GPa) = 6.56290 29.69993 18.13142
#
# Velocity S-wave (km/s) = 1.90025 4.04241 3.15849
# Velocity P-wave (km/s) = 2.70794 7.94684 5.93655
#
# Compressibility (1/GPa) = 0.21847965
#
# Stress axis : x y z
#
# Youngs Moduli (GPa) = 51.89151 2.80433 76.95359
#
# Poissons Ratio (x) = 0.10547 0.12808
# Poissons Ratio (y) = 1.95154 3.53344
# Poissons Ratio (z) = 0.08636 0.12876
#
# Static dielectric constant tensor:
#      x y z
#    x 1.628770 0.000000 0.029290 
#    y 0.000000 1.620830 0.000000 
#    z 0.029290 0.000000 1.636930 
# 
# From -- ./inp_files/220185.got.cif
#   From: 2010.05.17/outbox.cif.g08.bks.cpg/sg12_111_cif.got.tgz:220185.got - 2010.06.03 13:09:07.
