data_PCOD9205399
_publ_section_title
;
Structure prediction by ZEFSAII (Michael W. Deem and Ramdas Pophale) SiO2 
 PCOD9205399
Probable space group: C 2/M
;
_chemical_formula_sum "Si O2"
_cell_formula_units_Z 64
_cell_length_a 17.884305
_cell_length_b 17.499085
_cell_length_c 17.456867
_cell_angle_alpha 90.000000
_cell_angle_beta 40.728865
_cell_angle_gamma 90.000000
_cell_volume 3564.684432
_symmetry_space_group_name_H-M "C 2/M"
_symmetry_group_IT_number 12
_symmetry_cell_setting 'monoclinic'
loop_
_space_group_symop_operation_xyz
x,y,z
-x,y,-z
-x,-y,-z
x,-y,z
1/2+x,1/2+y,z
1/2-x,1/2+y,-z
1/2-x,1/2-y,-z
1/2+x,1/2-y,z
loop_
_atom_site_type_symbol
_atom_site_label
_atom_site_fract_x
_atom_site_fract_y
_atom_site_fract_z
Si Si1 0.136184 0.083337 0.376711
Si Si2 0.131620 0.088646 0.807908
Si Si3 0.482256 0.911424 0.600615
Si Si4 0.737343 0.170538 0.161265
Si Si5 0.774774 0.637008 0.549115
Si Si6 0.884744 0.090981 0.921706
Si Si7 0.883552 0.829631 0.757653
Si Si8 0.645440 0.689242 0.506575
O O1 0.153780 0.107978 0.276013
O O2 0.174479 0.148635 0.404590
O O3 0.000000 0.078825 0.500000
O O4 0.185977 0.000000 0.354133
O O5 0.173423 0.146936 0.840762
O O6 0.210512 0.102256 0.672048
O O7 0.002193 0.099721 0.879272
O O8 0.144114 0.000000 0.824779
O O9 0.500000 0.880926 0.500000
O O10 0.381072 0.867912 0.720460
O O11 0.602052 0.902681 0.551372
O O12 0.450092 0.000000 0.618563
O O13 0.705211 0.259185 0.174875
O O14 0.785585 0.131726 0.047279
O O15 0.697774 0.636333 0.533077
O O16 0.800729 0.726969 0.538906
O O17 0.895956 0.132422 0.831172
O O18 0.865278 0.000000 0.927557
O O19 0.009891 0.803217 0.629794
#
# Coordination Sequence:
#
# PCOD9205399 Si02
#       8
#     8   8   8   8   8   8   8   8
#     4   9  19  33  54  81 109 145 188 234 281 334
#     4  11  22  37  60  87 120 154 189 236 293 350
#     4  11  22  34  54  84 117 153 185 226 286 350
#     4  12  23  38  58  85 120 153 194 236 285 354
#     4  11  20  35  55  85 117 152 189 231 286 352
#     4  11  24  41  61  84 115 154 198 245 289 342
#     4  11  21  39  58  83 113 152 195 238 292 338
#     4  10  21  35  55  82 118 152 189 237 287 341
#
# _framework density 17.953903
#
# number of rings (size 3 to 8) (size 9 to 14) (size 15 to 20)
#    0.000    1.250    3.750    3.375    0.000    2.500 
#    0.000    0.000    0.000    0.000    0.000    0.000 
#    0.000    9.000    0.000    0.000    0.000    0.000 
#
# Total GULP energy -178644.449501 kJ/mol
# GULP energy per Si atom -5582.639047 kJ/mol
# Density = 1.791304 g / cm^3
# Si number density = 17.953903 Si / 1000 Ang^3
#
#
#
# Elastic Constant Matrix: (Units=GPa)
#
#
# Indices 1 2 3 4 5 6 
#
# 1 64.8188 23.4938 15.5533 0.0000 7.8020 0.0000
# 2 23.4938 70.5586 22.8033 0.0000 -8.1898 0.0000
# 3 15.5533 22.8033 83.1370 0.0000 -5.7734 0.0000
# 4 0.0000 0.0000 0.0000 3.8923 0.0000 29.9447
# 5 7.8020 -8.1898 -5.7734 0.0000 15.0074 0.0000
# 6 0.0000 0.0000 0.0000 29.9447 0.0000 -30.6484
#
#
#
# Elastic Compliance Matrix: (Units=1/GPa)
#
#
# Indices 1 2 3 4 5 6 
#
# 1 0.020966 -0.007948 -0.002877 0.000000 -0.016344 0.000000
# 2 -0.007948 0.019322 -0.002870 0.000000 0.013572 0.000000
# 3 -0.002877 -0.002870 0.013715 0.000000 0.005206 0.000000
# 4 0.000000 0.000000 0.000000 0.030166 0.000000 0.029474
# 5 -0.016344 0.013572 0.005206 0.000000 0.084540 0.000000
# 6 0.000000 0.000000 0.000000 0.029474 0.000000 -0.003831
#
#
# Mechanical properties :
#
#
# Convention : Reuss Voigt Hill
#
# Bulk Modulus (GPa) = 37.57701 38.02393 37.80047
# Shear Modulus (GPa) = 24.85810 8.09452 16.47631
#
# Velocity S-wave (km/s) = 3.72499 2.12563 3.03264
# Velocity P-wave (km/s) = 6.28299 5.22006 5.77602
#
# Compressibility (1/GPa) = 0.02661201
#
# Stress axis : x y z
#
# Youngs Moduli (GPa) = 47.69579 51.75417 72.91061
#
# Poissons Ratio (x) = 0.41136 0.20979
# Poissons Ratio (y) = 0.37910 0.20927
# Poissons Ratio (z) = 0.13723 0.14855
#
# Static dielectric constant tensor:
#      x y z
#    x 1.639620 0.000000 0.002330 
#    y 0.000000 1.610130 0.000000 
#    z 0.002330 0.000000 1.592290 
# 
# From -- ./inp_files/226823.got.cif
#   From: 2010.05.17/outbox.cif.g08.bks.cpg/sg12_114_cif.got.tgz:226823.got - 2010.06.03 13:09:07.
