data_PCOD9205465
_publ_section_title
;
Structure prediction by ZEFSAII (Michael W. Deem and Ramdas Pophale) SiO2 
 PCOD9205465
Probable space group: C 2/M
;
_chemical_formula_sum "Si O2"
_cell_formula_units_Z 40
_cell_length_a 10.442656
_cell_length_b 27.021015
_cell_length_c 16.190461
_cell_angle_alpha 90.000000
_cell_angle_beta 154.270867
_cell_angle_gamma 90.000000
_cell_volume 1983.256264
_symmetry_space_group_name_H-M "C 2/M"
_symmetry_group_IT_number 12
_symmetry_cell_setting 'monoclinic'
loop_
_space_group_symop_operation_xyz
x,y,z
-x,y,-z
-x,-y,-z
x,-y,z
1/2+x,1/2+y,z
1/2-x,1/2+y,-z
1/2-x,1/2-y,-z
1/2+x,1/2-y,z
loop_
_atom_site_type_symbol
_atom_site_label
_atom_site_fract_x
_atom_site_fract_y
_atom_site_fract_z
Si Si1 0.909880 0.120422 0.533044
Si Si2 0.027460 0.443120 0.113947
Si Si3 0.778504 0.380268 0.104987
Si Si4 0.330364 0.769083 0.178217
Si Si5 0.791620 0.308860 0.448523
O O1 0.575093 0.103653 0.325355
O O2 0.904679 0.154464 0.610334
O O3 0.000000 0.148588 0.500000
O O4 0.146793 0.077274 0.676685
O O5 0.990582 0.500000 0.118143
O O6 0.799526 0.408085 0.030438
O O7 0.000000 0.439786 0.000000
O O8 0.798484 0.320590 0.109997
O O9 0.500000 0.391490 0.000000
O O10 0.565826 0.730790 0.278667
O O11 0.484131 0.784029 0.354857
O O12 0.000000 0.749258 0.000000
O O13 0.000000 0.332082 0.500000
#
# Coordination Sequence:
#
# PCOD9205465 Si02
#       5
#     8   8   8   8   8
#     4   9  20  38  59  80 112 152 187 225 279 338
#     4  10  22  39  60  86 113 143 183 232 285 336
#     4   9  19  37  60  83 112 147 188 230 274 331
#     4   9  20  36  53  79 115 152 187 226 277 334
#     4  10  21  35  56  83 112 146 192 237 272 317
#
# _framework density 20.168851
#
# number of rings (size 3 to 8) (size 9 to 14) (size 15 to 20)
#    0.000    2.600    0.000    0.000    0.000   22.400 
#    0.000    4.000    0.000    7.800    0.000    0.000 
#    0.000    0.000    0.000    0.000    0.000    0.000 
#
# Total GULP energy -111545.482334 kJ/mol
# GULP energy per Si atom -5577.274117 kJ/mol
# Density = 2.012295 g / cm^3
# Si number density = 20.168851 Si / 1000 Ang^3
#
#
#
# Elastic Constant Matrix: (Units=GPa)
#
#
# Indices 1 2 3 4 5 6 
#
# 1 137.1006 73.3564 25.1830 0.0003 24.9650 0.0002
# 2 73.3564 76.5011 24.5318 0.0000 8.9691 0.0000
# 3 25.1830 24.5318 70.0673 0.0028 26.4969 0.0033
# 4 0.0003 0.0000 0.0028 4.5964 0.0011 -7.4894
# 5 24.9650 8.9691 26.4969 0.0011 26.6991 0.0012
# 6 0.0002 0.0000 0.0033 -7.4894 0.0012 18.8691
#
#
#
# Elastic Compliance Matrix: (Units=1/GPa)
#
#
# Indices 1 2 3 4 5 6 
#
# 1 0.019279 -0.018404 0.006393 -0.000003 -0.018188 -0.000002
# 2 -0.018404 0.032295 -0.011361 0.000016 0.017635 0.000008
# 3 0.006393 -0.011361 0.026844 -0.000041 -0.028801 -0.000019
# 4 -0.000003 0.000016 -0.000041 0.615848 0.000001 0.244439
# 5 -0.018188 0.017635 -0.028801 0.000001 0.077121 0.000001
# 6 -0.000002 0.000008 -0.000019 0.244439 0.000001 0.150018
#
#
# Mechanical properties :
#
#
# Convention : Reuss Voigt Hill
#
# Bulk Modulus (GPa) = 31.57314 58.86793 45.22053
# Shear Modulus (GPa) = 5.10879 20.73945 12.92412
#
# Velocity S-wave (km/s) = 1.59327 3.21018 2.53414
# Velocity P-wave (km/s) = 4.36727 6.55677 5.57065
#
# Compressibility (1/GPa) = 0.03167250
#
# Stress axis : x y z
#
# Youngs Moduli (GPa) = 51.87072 30.96485 37.25249
#
# Poissons Ratio (x) = 0.56987 -0.23815
# Poissons Ratio (y) = 0.95462 0.42324
# Poissons Ratio (z) = -0.33160 0.35180
#
# Static dielectric constant tensor:
#      x y z
#    x 1.759850 0.000000 -0.033760 
#    y 0.000000 1.732330 0.000000 
#    z -0.033760 0.000000 1.730080 
# 
# From -- ./inp_files/201417.got.cif
#   From: 2010.05.17/outbox.cif.g08.bks.cpg/sg12_101_cif.got.tgz:201417.got - 2010.06.03 13:09:07.
