data_PCOD9205718
_publ_section_title
;
Structure prediction by ZEFSAII (Michael W. Deem and Ramdas Pophale) SiO2 
 PCOD9205718
Probable space group: C 2/M
;
_chemical_formula_sum "Si O2"
_cell_formula_units_Z 64
_cell_length_a 32.152206
_cell_length_b 9.129565
_cell_length_c 15.981449
_cell_angle_alpha 90.000000
_cell_angle_beta 49.165105
_cell_angle_gamma 90.000000
_cell_volume 3549.290988
_symmetry_space_group_name_H-M "C 2/M"
_symmetry_group_IT_number 12
_symmetry_cell_setting 'monoclinic'
loop_
_space_group_symop_operation_xyz
x,y,z
-x,y,-z
-x,-y,-z
x,-y,z
1/2+x,1/2+y,z
1/2-x,1/2+y,-z
1/2-x,1/2-y,-z
1/2+x,1/2-y,z
loop_
_atom_site_type_symbol
_atom_site_label
_atom_site_fract_x
_atom_site_fract_y
_atom_site_fract_z
Si Si1 0.088645 0.825226 0.597852
Si Si2 0.971234 0.673042 0.169004
Si Si3 0.822103 0.322513 0.633739
Si Si4 0.986033 0.159487 0.614781
Si Si5 0.622385 0.827549 0.264035
Si Si6 0.202208 0.324916 0.010689
Si Si7 0.915685 0.673174 0.059593
Si Si8 0.196909 0.824051 0.837574
O O1 0.063903 0.759453 0.715994
O O2 0.142609 0.749270 0.487397
O O3 0.039864 0.799197 0.595044
O O4 0.097303 0.000000 0.593971
O O5 0.972230 0.500000 0.189547
O O6 0.941721 0.686385 0.117755
O O7 0.035143 0.719485 0.069264
O O8 0.827095 0.500000 0.622495
O O9 0.848083 0.269761 0.689581
O O10 0.756757 0.287835 0.718532
O O11 0.000000 0.142395 0.500000
O O12 0.938565 0.276208 0.673240
O O13 0.966585 0.000000 0.672835
O O14 0.651914 0.794717 0.138260
O O15 0.624587 0.000000 0.272828
O O16 0.209491 0.500000 0.991809
O O17 0.250000 0.250000 0.000000
O O18 0.197789 0.247528 0.928000
O O19 0.905149 0.500000 0.057814
O O20 0.858710 0.760503 0.129906
O O21 0.193869 0.000000 0.846464
#
# Coordination Sequence:
#
# PCOD9205718 Si02
#       8
#     8   8   8   8   8   8   8   8
#     4  11  23  37  57  87 117 150 195 240 287 342
#     4   9  20  41  66  88 117 150 183 233 292 349
#     4  10  21  39  57  78 114 156 197 236 283 339
#     4  10  21  36  51  76 114 149 186 233 282 331
#     4  10  21  36  53  75 107 150 197 237 274 332
#     4  11  22  37  55  81 115 153 198 241 285 341
#     4   9  20  41  66  91 115 147 189 232 288 352
#     4  11  23  39  59  87 119 153 194 241 292 344
#
# _framework density 18.031770000000002
#
# number of rings (size 3 to 8) (size 9 to 14) (size 15 to 20)
#    0.000    1.875    2.500    1.875    1.750    4.250 
#    0.000    1.875    0.000    0.000    0.000    0.000 
#    0.000    0.000    0.000    0.000    0.000    0.000 
#
# Total GULP energy -178306.026729 kJ/mol
# GULP energy per Si atom -5572.063335 kJ/mol
# Density = 1.799073 g / cm^3
# Si number density = 18.031770 Si / 1000 Ang^3
#
#
#
# Elastic Constant Matrix: (Units=GPa)
#
#
# Indices 1 2 3 4 5 6 
#
# 1 100.7678 92.8804 38.9455 0.0000 -43.9440 0.0000
# 2 92.8804 152.9993 52.5983 0.0000 -62.0347 -0.0002
# 3 38.9455 52.5983 159.8747 0.0000 -11.7035 0.0000
# 4 0.0000 0.0000 0.0000 32.0149 0.0000 -0.6541
# 5 -43.9440 -62.0347 -11.7035 0.0000 48.3181 0.0000
# 6 0.0000 -0.0002 0.0000 -0.6541 0.0000 35.8906
#
#
#
# Elastic Compliance Matrix: (Units=1/GPa)
#
#
# Indices 1 2 3 4 5 6 
#
# 1 0.023806 -0.010981 -0.001663 0.000000 0.007149 0.000000
# 2 -0.010981 0.020602 -0.002950 0.000000 0.015749 0.000000
# 3 -0.001663 -0.002950 0.007373 0.000000 -0.003514 0.000000
# 4 0.000000 0.000000 0.000000 0.031247 0.000000 0.000569
# 5 0.007149 0.015749 -0.003514 0.000000 0.046567 0.000000
# 6 0.000000 0.000000 0.000000 0.000569 0.000000 0.027873
#
#
# Mechanical properties :
#
#
# Convention : Reuss Voigt Hill
#
# Bulk Modulus (GPa) = 48.56105 86.94334 67.75219
# Shear Modulus (GPa) = 25.57271 38.52591 32.04931
#
# Velocity S-wave (km/s) = 3.76999 4.62731 4.22047
# Velocity P-wave (km/s) = 6.77788 8.76759 7.83615
#
# Compressibility (1/GPa) = 0.02059264
#
# Stress axis : x y z
#
# Youngs Moduli (GPa) = 42.00593 48.53910 135.62418
#
# Poissons Ratio (x) = 0.53303 0.22554
# Poissons Ratio (y) = 0.46128 0.40010
# Poissons Ratio (z) = 0.06985 0.14319
#
# Static dielectric constant tensor:
#      x y z
#    x 1.611230 0.000000 -0.004330 
#    y 0.000000 1.645200 0.000000 
#    z -0.004330 0.000000 1.601280 
# 
# From -- ./inp_files/249864.got.cif
#   From: 2010.05.17/outbox.cif.g08.bks.cpg/sg12_125_cif.got.tgz:249864.got - 2010.06.03 13:09:07.
