data_PCOD9205443
_publ_section_title
;
Structure prediction by ZEFSAII (Michael W. Deem and Ramdas Pophale) SiO2 
 PCOD9205443
Probable space group: C 2/M
;
_chemical_formula_sum "Si O2"
_cell_formula_units_Z 64
_cell_length_a 26.813010
_cell_length_b 22.225827
_cell_length_c 12.572371
_cell_angle_alpha 90.000000
_cell_angle_beta 151.347382
_cell_angle_gamma 90.000000
_cell_volume 3592.588290
_symmetry_space_group_name_H-M "C 2/M"
_symmetry_group_IT_number 12
_symmetry_cell_setting 'monoclinic'
loop_
_space_group_symop_operation_xyz
x,y,z
-x,y,-z
-x,-y,-z
x,-y,z
1/2+x,1/2+y,z
1/2-x,1/2+y,-z
1/2-x,1/2-y,-z
1/2+x,1/2-y,z
loop_
_atom_site_type_symbol
_atom_site_label
_atom_site_fract_x
_atom_site_fract_y
_atom_site_fract_z
Si Si1 0.816760 0.324384 0.006091
Si Si2 0.167765 0.428231 0.546068
Si Si3 0.033093 0.431733 0.684449
Si Si4 0.406736 0.834530 0.757368
Si Si5 0.267077 0.216229 0.683215
Si Si6 0.615438 0.707028 0.756055
Si Si7 0.536113 0.291532 0.190017
Si Si8 0.667243 0.662824 0.084564
O O1 0.868939 0.388353 0.120770
O O2 0.881209 0.276623 0.198895
O O3 0.817194 0.313741 0.880714
O O4 0.698847 0.310129 0.822081
O O5 0.173659 0.500000 0.542926
O O6 0.147361 0.388885 0.403092
O O7 0.274247 0.399807 0.790215
O O8 0.068619 0.414324 0.436665
O O9 0.060122 0.500000 0.765794
O O10 0.000000 0.431005 0.500000
O O11 0.332827 0.797568 0.700417
O O12 0.458954 0.781195 0.784505
O O13 0.500000 0.861456 0.000000
O O14 0.152471 0.191759 0.442035
O O15 0.270279 0.286232 0.728567
O O16 0.500000 0.691919 0.500000
O O17 0.660034 0.675891 0.946021
O O18 0.500000 0.300464 0.000000
O O19 0.450162 0.326837 0.095514
#
# Coordination Sequence:
#
# PCOD9205443 Si02
#       8
#     8   8   8   8   8   8   8   8
#     4  10  21  35  56  84 119 153 185 239 296 354
#     4  11  24  39  59  85 120 159 195 243 288 347
#     4  10  21  38  60  83 112 156 201 237 282 351
#     4  11  20  35  58  87 116 144 195 242 291 344
#     4  11  20  34  56  87 113 150 191 243 297 344
#     4  10  21  35  55  88 121 149 183 241 308 345
#     4  11  20  32  55  84 110 147 190 240 283 340
#     4  11  21  35  58  83 117 152 193 237 291 357
#
# _framework density 17.814454000000001
#
# number of rings (size 3 to 8) (size 9 to 14) (size 15 to 20)
#    0.000    1.375    3.750    3.750    1.750    2.250 
#    0.000    0.625    0.000    7.125    0.000    0.000 
#    0.000    0.000    0.000    0.000    0.000    0.000 
#
# Total GULP energy -178321.782457 kJ/mol
# GULP energy per Si atom -5572.555702 kJ/mol
# Density = 1.777391 g / cm^3
# Si number density = 17.814454 Si / 1000 Ang^3
#
#
#
# Elastic Constant Matrix: (Units=GPa)
#
#
# Indices 1 2 3 4 5 6 
#
# 1 69.9444 26.2883 21.6822 0.0000 -1.9351 0.0000
# 2 26.2883 84.3642 34.0578 0.0000 -1.8873 0.0000
# 3 21.6822 34.0578 95.2761 0.0000 8.8668 0.0000
# 4 0.0000 0.0000 0.0000 25.3302 0.0000 3.8124
# 5 -1.9351 -1.8873 8.8668 0.0000 19.7164 0.0000
# 6 0.0000 0.0000 0.0000 3.8124 0.0000 13.5334
#
#
#
# Elastic Compliance Matrix: (Units=1/GPa)
#
#
# Indices 1 2 3 4 5 6 
#
# 1 0.016703 -0.004122 -0.002550 0.000000 0.002392 0.000000
# 2 -0.004122 0.015134 -0.004769 0.000000 0.003189 0.000000
# 3 -0.002550 -0.004769 0.013408 0.000000 -0.006736 0.000000
# 4 0.000000 0.000000 0.000000 0.041226 0.000000 -0.011614
# 5 0.002392 0.003189 -0.006736 0.000000 0.054289 0.000000
# 6 0.000000 0.000000 0.000000 -0.011614 0.000000 0.077163
#
#
# Mechanical properties :
#
#
# Convention : Reuss Voigt Hill
#
# Bulk Modulus (GPa) = 44.71583 45.96013 45.33798
# Shear Modulus (GPa) = 20.14028 22.88644 21.51336
#
# Velocity S-wave (km/s) = 3.36603 3.58818 3.47887
# Velocity P-wave (km/s) = 6.34525 6.55912 6.45307
#
# Compressibility (1/GPa) = 0.02236344
#
# Stress axis : x y z
#
# Youngs Moduli (GPa) = 59.86968 66.07572 74.58365
#
# Poissons Ratio (x) = 0.27234 0.19022
# Poissons Ratio (y) = 0.24676 0.35567
# Poissons Ratio (z) = 0.15269 0.31509
#
# Static dielectric constant tensor:
#      x y z
#    x 1.675490 0.000000 -0.001850 
#    y 0.000000 1.596580 0.000000 
#    z -0.001850 0.000000 1.634450 
# 
# From -- ./inp_files/178446.got.cif
#   From: 2010.05.17/outbox.cif.g08.bks.cpg/sg12_90_cif.got.tgz:178446.got - 2010.06.03 13:09:07.
