data_PCOD9205810
_publ_section_title
;
Structure prediction by ZEFSAII (Michael W. Deem and Ramdas Pophale) SiO2 
 PCOD9205810
Probable space group: C 2/M
;
_chemical_formula_sum "Si O2"
_cell_formula_units_Z 56
_cell_length_a 21.078419
_cell_length_b 7.678034
_cell_length_c 31.122535
_cell_angle_alpha 90.000000
_cell_angle_beta 146.481485
_cell_angle_gamma 90.000000
_cell_volume 2781.406616
_symmetry_space_group_name_H-M "C 2/M"
_symmetry_group_IT_number 12
_symmetry_cell_setting 'monoclinic'
loop_
_space_group_symop_operation_xyz
x,y,z
-x,y,-z
-x,-y,-z
x,-y,z
1/2+x,1/2+y,z
1/2-x,1/2+y,-z
1/2-x,1/2-y,-z
1/2+x,1/2-y,z
loop_
_atom_site_type_symbol
_atom_site_label
_atom_site_fract_x
_atom_site_fract_y
_atom_site_fract_z
Si Si1 0.672919 0.713394 0.237374
Si Si2 0.334993 0.701340 0.668630
Si Si3 0.697988 0.212026 0.905248
Si Si4 0.427261 0.293356 0.076619
Si Si5 0.916970 0.711631 0.336651
Si Si6 0.419574 0.704396 0.493257
Si Si7 0.557522 0.202231 0.745311
O O1 0.673060 0.500000 0.237700
O O2 0.667039 0.770673 0.283727
O O3 0.557127 0.773943 0.148272
O O4 0.792030 0.767650 0.283294
O O5 0.370115 0.500000 0.690787
O O6 0.206046 0.713130 0.578188
O O7 0.429743 0.789996 0.692533
O O8 0.619546 0.265549 0.901416
O O9 0.642404 0.276436 0.829663
O O10 0.698298 0.000000 0.905071
O O11 0.826960 0.274679 0.988812
O O12 0.433540 0.500000 0.072540
O O13 0.920231 0.500000 0.339046
O O14 0.936541 0.775942 0.299227
O O15 0.013107 0.771730 0.424428
O O16 0.500000 0.774747 0.500000
O O17 0.401930 0.500000 0.474992
O O18 0.590990 0.000000 0.759776
#
# Coordination Sequence:
#
# PCOD9205810 Si02
#       7
#     8   8   8   8   8   8   8
#     4   9  17  31  53  80 103 134 181 221 254 306
#     4  11  21  35  59  82 105 140 180 221 262 315
#     4   9  17  29  48  76 109 139 171 216 267 310
#     4   9  16  29  50  77 105 136 178 221 258 305
#     4  10  21  38  57  76 107 146 180 216 264 324
#     4  11  23  38  57  83 110 134 171 225 274 315
#     4  10  21  36  53  79 113 145 176 218 270 316
#
# _framework density 20.133699
#
# number of rings (size 3 to 8) (size 9 to 14) (size 15 to 20)
#    0.000    2.143    2.857    0.857    0.000    1.714 
#    0.000    1.429    0.000    4.286    0.000    0.000 
#    0.000    6.857    0.000    0.000    0.000    0.000 
#
# Total GULP energy -156295.964681 kJ/mol
# GULP energy per Si atom -5581.998739 kJ/mol
# Density = 2.008787 g / cm^3
# Si number density = 20.133699 Si / 1000 Ang^3
#
#
#
# Elastic Constant Matrix: (Units=GPa)
#
#
# Indices 1 2 3 4 5 6 
#
# 1 103.9390 -10.5857 65.1048 0.0000 -7.9715 0.0005
# 2 -10.5857 34.8625 -12.2805 0.0003 0.3383 0.0001
# 3 65.1048 -12.2805 167.7004 0.0000 1.3060 -0.0001
# 4 0.0000 0.0003 0.0000 2.3156 0.0000 -8.7558
# 5 -7.9715 0.3383 1.3060 0.0000 32.2865 -0.0002
# 6 0.0005 0.0001 -0.0001 -8.7558 -0.0002 5.1170
#
#
#
# Elastic Compliance Matrix: (Units=1/GPa)
#
#
# Indices 1 2 3 4 5 6 
#
# 1 0.013249 0.002226 -0.005007 0.000001 0.003450 0.000000
# 2 0.002226 0.029823 0.001318 0.000001 0.000184 0.000001
# 3 -0.005007 0.001318 0.008016 0.000000 -0.001574 0.000000
# 4 0.000001 0.000001 0.000000 -0.078947 -0.000001 -0.135088
# 5 0.003450 0.000184 -0.001574 -0.000001 0.031886 0.000000
# 6 0.000000 0.000001 0.000000 -0.135088 0.000000 -0.035725
#
#
# Mechanical properties :
#
#
# Convention : Reuss Voigt Hill
#
# Bulk Modulus (GPa) = 20.76396 43.44213 32.10305
# Shear Modulus (GPa) = -393.13283 25.56135 -183.78574
#
# Velocity S-wave (km/s) = -13.98875 3.56698 -9.56456
# Velocity P-wave (km/s) = 15.82965 6.21194 10.29538
#
# Compressibility (1/GPa) = 0.04816036
#
# Stress axis : x y z
#
# Youngs Moduli (GPa) = 75.47859 33.53166 124.75382
#
# Poissons Ratio (x) = -0.07463 0.62469
# Poissons Ratio (y) = -0.16798 -0.16448
# Poissons Ratio (z) = 0.37795 -0.04421
#
# Static dielectric constant tensor:
#      x y z
#    x 1.676960 0.000000 -0.002310 
#    y 0.000000 1.745170 0.000000 
#    z -0.002310 0.000000 1.720020 
# 
# From -- ./inp_files/342590.got.cif
#   From: 2010.05.17/outbox.cif.g08.bks.cpg/sg12_172_cif.got.tgz:342590.got - 2010.06.03 13:09:07.
