data_PCOD9205375
_publ_section_title
;
Structure prediction by ZEFSAII (Michael W. Deem and Ramdas Pophale) SiO2 
 PCOD9205375
Probable space group: C 2/M
;
_chemical_formula_sum "Si O2"
_cell_formula_units_Z 52
_cell_length_a 23.730940
_cell_length_b 18.753770
_cell_length_c 5.161086
_cell_angle_alpha 90.000000
_cell_angle_beta 109.901574
_cell_angle_gamma 90.000000
_cell_volume 2159.738926
_symmetry_space_group_name_H-M "C 2/M"
_symmetry_group_IT_number 12
_symmetry_cell_setting 'monoclinic'
loop_
_space_group_symop_operation_xyz
x,y,z
-x,y,-z
-x,-y,-z
x,-y,z
1/2+x,1/2+y,z
1/2-x,1/2+y,-z
1/2-x,1/2-y,-z
1/2+x,1/2-y,z
loop_
_atom_site_type_symbol
_atom_site_label
_atom_site_fract_x
_atom_site_fract_y
_atom_site_fract_z
Si Si1 0.936144 0.920278 0.040484
Si Si2 0.136048 0.580996 0.520201
Si Si3 0.000000 0.183866 0.500000
Si Si4 0.723184 0.420026 0.267590
Si Si5 0.396213 0.290753 0.688383
Si Si6 0.858103 0.672658 0.990006
Si Si7 0.717297 0.669498 0.771194
O O1 0.950551 0.869177 0.300846
O O2 0.918540 0.000000 0.086567
O O3 0.897676 0.873686 0.780114
O O4 0.000000 0.926230 0.000000
O O5 0.111512 0.500000 0.491191
O O6 0.206640 0.575786 0.695119
O O7 0.115669 0.635971 0.711329
O O8 0.133843 0.615356 0.231528
O O9 0.959194 0.224321 0.644203
O O10 0.699804 0.500000 0.220867
O O11 0.698269 0.367303 0.008925
O O12 0.722225 0.389935 0.554682
O O13 0.391407 0.241673 0.933007
O O14 0.335662 0.280051 0.423041
O O15 0.786831 0.694833 0.901569
#
# Coordination Sequence:
#
# PCOD9205375 Si02
#       7
#     8   8   4   8   8   8   8
#     4   9  20  40  61  82 112 155 210 262 306 350
#     4   9  18  35  59  88 123 163 198 236 293 364
#     4  10  23  42  62  82 115 156 216 264 313 358
#     4   9  18  33  52  80 118 159 202 244 289 351
#     4  11  24  38  59  87 119 158 206 255 313 366
#     4  10  21  36  61  90 128 161 201 246 301 367
#     4  10  21  35  54  85 122 161 196 247 303 368
#
# _framework density 24.076982000000001
#
# number of rings (size 3 to 8) (size 9 to 14) (size 15 to 20)
#    0.000    2.308    0.000    1.615    4.308    5.538 
#    0.000    4.615    0.000    0.000    0.000    3.231 
#    0.000    0.000    0.000    0.000    0.000    0.000 
#
# Total GULP energy -145295.286358 kJ/mol
# GULP energy per Si atom -5588.280245 kJ/mol
# Density = 2.402218 g / cm^3
# Si number density = 24.076982 Si / 1000 Ang^3
#
#
#
# Elastic Constant Matrix: (Units=GPa)
#
#
# Indices 1 2 3 4 5 6 
#
# 1 86.9570 32.5318 20.9184 0.0000 -20.7769 0.0000
# 2 32.5318 124.6856 27.1988 0.0000 -8.0527 0.0000
# 3 20.9184 27.1988 98.3012 0.0000 -14.7888 0.0000
# 4 0.0000 0.0000 0.0000 11.1554 0.0000 -1.7695
# 5 -20.7769 -8.0527 -14.7888 0.0000 39.8563 0.0000
# 6 0.0000 0.0000 0.0000 -1.7695 0.0000 -11.8171
#
#
#
# Elastic Compliance Matrix: (Units=1/GPa)
#
#
# Indices 1 2 3 4 5 6 
#
# 1 0.014505 -0.003092 -0.001258 0.000000 0.006470 0.000000
# 2 -0.003092 0.009225 -0.001966 0.000000 -0.000478 0.000000
# 3 -0.001258 -0.001966 0.011466 0.000000 0.003202 0.000000
# 4 0.000000 0.000000 0.000000 0.087563 0.000000 -0.013112
# 5 0.006470 -0.000478 0.003202 0.000000 0.029554 0.000000
# 6 0.000000 0.000000 0.000000 -0.013112 0.000000 -0.082660
#
#
# Mechanical properties :
#
#
# Convention : Reuss Voigt Hill
#
# Bulk Modulus (GPa) = 44.31875 52.36018 48.33947
# Shear Modulus (GPa) = 55.67433 23.12525 39.39979
#
# Velocity S-wave (km/s) = 4.81390 3.10251 4.04964
# Velocity P-wave (km/s) = 7.02462 5.88458 6.47972
#
# Compressibility (1/GPa) = 0.02256381
#
# Stress axis : x y z
#
# Youngs Moduli (GPa) = 68.94036 108.40021 87.21301
#
# Poissons Ratio (x) = 0.33521 0.10969
# Poissons Ratio (y) = 0.21319 0.17149
# Poissons Ratio (z) = 0.08671 0.21315
#
# Static dielectric constant tensor:
#      x y z
#    x 1.960920 0.000000 0.018060 
#    y 0.000000 2.007150 0.000000 
#    z 0.018060 0.000000 1.973400 
# 
# From -- ./inp_files/28581.got.cif
#   From: 2010.05.17/outbox.cif.g08.bks.cpg/sg12_15_cif.got.tgz:28581.got - 2010.06.03 13:09:07.
