data_PCOD9205500
_publ_section_title
;
Structure prediction by ZEFSAII (Michael W. Deem and Ramdas Pophale) SiO2 
 PCOD9205500
Probable space group: C 2/M
;
_chemical_formula_sum "Si O2"
_cell_formula_units_Z 56
_cell_length_a 8.461611
_cell_length_b 27.975997
_cell_length_c 12.460464
_cell_angle_alpha 90.000000
_cell_angle_beta 60.685099
_cell_angle_gamma 90.000000
_cell_volume 2571.937586
_symmetry_space_group_name_H-M "C 2/M"
_symmetry_group_IT_number 12
_symmetry_cell_setting 'monoclinic'
loop_
_space_group_symop_operation_xyz
x,y,z
-x,y,-z
-x,-y,-z
x,-y,z
1/2+x,1/2+y,z
1/2-x,1/2+y,-z
1/2-x,1/2-y,-z
1/2+x,1/2-y,z
loop_
_atom_site_type_symbol
_atom_site_label
_atom_site_fract_x
_atom_site_fract_y
_atom_site_fract_z
Si Si1 0.712588 0.701086 0.953449
Si Si2 0.360612 0.653836 0.824668
Si Si3 0.735122 0.706528 0.704821
Si Si4 0.992225 0.378878 0.613684
Si Si5 0.296810 0.313699 0.613717
Si Si6 0.947890 0.554611 0.834331
Si Si7 0.295596 0.553790 0.877613
O O1 0.798436 0.707480 0.808523
O O2 0.500000 0.692923 0.000000
O O3 0.750000 0.750000 0.000000
O O4 0.761585 0.662768 0.028560
O O5 0.527159 0.690575 0.770822
O O6 0.268952 0.666365 0.743491
O O7 0.422397 0.598932 0.811786
O O8 0.759754 0.756581 0.635845
O O9 0.845761 0.661167 0.630037
O O10 0.166606 0.347277 0.588312
O O11 0.000000 0.408730 0.500000
O O12 0.941237 0.409249 0.736761
O O13 0.500000 0.318909 0.500000
O O14 0.949764 0.500000 0.792921
O O15 0.128591 0.559882 0.848649
O O16 0.785307 0.557803 0.975178
O O17 0.368476 0.500000 0.840332
#
# Coordination Sequence:
#
# PCOD9205500 Si02
#       7
#     8   8   8   8   8   8   8
#     4  10  21  35  56  88 124 158 197 248 308 369
#     4  11  21  39  61  92 129 162 203 261 309 369
#     4  11  24  40  59  90 130 164 209 253 310 371
#     4  12  25  41  62  91 125 167 212 258 311 372
#     4  12  25  42  63  85 119 174 219 258 304 365
#     4   9  19  39  67  98 124 156 203 260 320 376
#     4   9  18  38  69  99 124 157 207 259 315 381
#
# _framework density 21.773468000000001
#
# number of rings (size 3 to 8) (size 9 to 14) (size 15 to 20)
#    0.000    1.429    2.857    3.857    2.000    2.000 
#    2.571    0.714    0.000    9.000    0.000    0.000 
#    0.000    0.000    0.000    0.000    0.000    0.000 
#
# Total GULP energy -156165.839887 kJ/mol
# GULP energy per Si atom -5577.351425 kJ/mol
# Density = 2.172391 g / cm^3
# Si number density = 21.773468 Si / 1000 Ang^3
#
#
#
# Elastic Constant Matrix: (Units=GPa)
#
#
# Indices 1 2 3 4 5 6 
#
# 1 43.8093 13.9617 39.4553 0.0000 24.9249 0.0000
# 2 13.9617 143.3021 32.7293 0.0000 12.5489 0.0000
# 3 39.4553 32.7293 82.6435 0.0000 43.9433 0.0000
# 4 0.0000 0.0000 0.0000 16.8366 0.0000 -6.7098
# 5 24.9249 12.5489 43.9433 0.0000 43.4992 0.0000
# 6 0.0000 0.0000 0.0000 -6.7098 0.0000 11.2282
#
#
#
# Elastic Compliance Matrix: (Units=1/GPa)
#
#
# Indices 1 2 3 4 5 6 
#
# 1 0.041330 0.000228 -0.015544 0.000000 -0.008045 0.000000
# 2 0.000228 0.007743 -0.004144 0.000000 0.001822 0.000000
# 3 -0.015544 -0.004144 0.034117 0.000000 -0.024362 0.000000
# 4 0.000000 0.000000 0.000000 0.077961 0.000000 0.046589
# 5 -0.008045 0.001822 -0.024362 0.000000 0.051684 0.000000
# 6 0.000000 0.000000 0.000000 0.046589 0.000000 0.116902
#
#
# Mechanical properties :
#
#
# Convention : Reuss Voigt Hill
#
# Bulk Modulus (GPa) = 22.58940 49.11637 35.85288
# Shear Modulus (GPa) = 13.04074 26.55338 19.79706
#
# Velocity S-wave (km/s) = 2.44996 3.49596 3.01861
# Velocity P-wave (km/s) = 4.28956 6.23719 5.35270
#
# Compressibility (1/GPa) = 0.04426855
#
# Stress axis : x y z
#
# Youngs Moduli (GPa) = 24.19549 129.14904 29.31129
#
# Poissons Ratio (x) = -0.02944 0.45562
# Poissons Ratio (y) = -0.00552 0.12147
# Poissons Ratio (z) = 0.37610 0.53521
#
# Static dielectric constant tensor:
#      x y z
#    x 1.828470 0.000000 0.017520 
#    y 0.000000 1.796430 0.000000 
#    z 0.017520 0.000000 1.957660 
# 
# From -- ./inp_files/124344.got.cif
#   From: 2010.05.17/outbox.cif.g08.bks.cpg/sg12_63_cif.got.tgz:124344.got - 2010.06.03 13:09:07.
