data_PCOD9205193
_publ_section_title
;
Structure prediction by ZEFSAII (Michael W. Deem and Ramdas Pophale) SiO2 
 PCOD9205193
Probable space group: C 2/M
;
_chemical_formula_sum "Si O2"
_cell_formula_units_Z 64
_cell_length_a 14.889612
_cell_length_b 7.888916
_cell_length_c 23.882583
_cell_angle_alpha 90.000000
_cell_angle_beta 99.601584
_cell_angle_gamma 90.000000
_cell_volume 2766.018923
_symmetry_space_group_name_H-M "C 2/M"
_symmetry_group_IT_number 12
_symmetry_cell_setting 'monoclinic'
loop_
_space_group_symop_operation_xyz
x,y,z
-x,y,-z
-x,-y,-z
x,-y,z
1/2+x,1/2+y,z
1/2-x,1/2+y,-z
1/2-x,1/2-y,-z
1/2+x,1/2-y,z
loop_
_atom_site_type_symbol
_atom_site_label
_atom_site_fract_x
_atom_site_fract_y
_atom_site_fract_z
Si Si1 0.234510 0.303571 0.418108
Si Si2 0.593240 0.294562 0.624472
Si Si3 0.979707 0.298954 0.209066
Si Si4 0.808394 0.797631 0.250139
Si Si5 0.520787 0.792595 0.089718
Si Si6 0.642517 0.308272 0.297154
Si Si7 0.566546 0.800135 0.460330
Si Si8 0.852410 0.703544 0.994341
O O1 0.247697 0.500000 0.433810
O O2 0.333626 0.230459 0.414468
O O3 0.182036 0.300277 0.352527
O O4 0.165014 0.225300 0.455738
O O5 0.588701 0.500000 0.621960
O O6 0.635422 0.246698 0.688196
O O7 0.495595 0.219608 0.601349
O O8 0.992910 0.500000 0.212773
O O9 0.873072 0.260170 0.206768
O O10 0.014544 0.234245 0.152794
O O11 0.041217 0.222567 0.264863
O O12 0.708993 0.722963 0.250893
O O13 0.799824 0.000000 0.247658
O O14 0.428838 0.740756 0.047252
O O15 0.521403 0.000000 0.091024
O O16 0.607764 0.738267 0.061761
O O17 0.651226 0.500000 0.317946
O O18 0.500000 0.720903 0.500000
O O19 0.577584 0.000000 0.473238
O O20 0.855993 0.500000 0.993853
O O21 0.750000 0.750000 0.000000
#
# Coordination Sequence:
#
# PCOD9205193 Si02
#       8
#     8   8   8   8   8   8   8   8
#     4   9  19  37  56  74 103 140 174 215 266 316
#     4   9  19  35  54  74  99 133 172 213 260 312
#     4  11  21  35  55  81 113 147 179 220 270 317
#     4  10  21  38  57  80 109 142 180 222 268 321
#     4   8  18  35  54  76 107 143 177 213 263 321
#     4  11  22  36  55  81 109 142 183 222 265 321
#     4  10  21  35  52  76 104 134 170 212 262 318
#     4   9  17  35  58  78 102 138 180 221 264 311
#
# _framework density 23.137948999999999
#
# number of rings (size 3 to 8) (size 9 to 14) (size 15 to 20)
#    0.000    2.375    0.000    4.125    0.000    6.750 
#    0.000    6.250    0.000    0.000    0.000    0.000 
#    0.000    0.000    0.000    0.000    0.000    0.000 
#
# Total GULP energy -178752.479938 kJ/mol
# GULP energy per Si atom -5586.014998 kJ/mol
# Density = 2.308529 g / cm^3
# Si number density = 23.137949 Si / 1000 Ang^3
#
#
#
# Elastic Constant Matrix: (Units=GPa)
#
#
# Indices 1 2 3 4 5 6 
#
# 1 144.0486 -4.0458 25.9328 0.0000 -37.3801 0.0000
# 2 -4.0458 44.1316 1.0625 0.0000 1.5931 0.0000
# 3 25.9328 1.0625 74.2414 0.0000 -24.3185 0.0000
# 4 0.0000 0.0000 0.0000 12.0731 0.0000 -3.3103
# 5 -37.3801 1.5931 -24.3185 0.0000 31.9382 0.0000
# 6 0.0000 0.0000 0.0000 -3.3103 0.0000 26.4140
#
#
#
# Elastic Compliance Matrix: (Units=1/GPa)
#
#
# Indices 1 2 3 4 5 6 
#
# 1 0.009991 0.000472 0.000434 0.000000 0.012001 0.000000
# 2 0.000472 0.022771 -0.000908 0.000000 -0.001275 0.000000
# 3 0.000434 -0.000908 0.018002 0.000000 0.014261 0.000000
# 4 0.000000 0.000000 0.000000 0.085776 0.000000 0.010750
# 5 0.012001 -0.001275 0.014261 0.000000 0.056278 0.000000
# 6 0.000000 0.000000 0.000000 0.010750 0.000000 0.039206
#
#
# Mechanical properties :
#
#
# Convention : Reuss Voigt Hill
#
# Bulk Modulus (GPa) = 19.70038 34.25783 26.97911
# Shear Modulus (GPa) = 20.08448 30.04986 25.06717
#
# Velocity S-wave (km/s) = 2.94943 3.60769 3.29504
# Velocity P-wave (km/s) = 4.48683 5.67380 5.11486
#
# Compressibility (1/GPa) = 0.05076044
#
# Stress axis : x y z
#
# Youngs Moduli (GPa) = 100.08627 43.91611 55.54892
#
# Poissons Ratio (x) = -0.02074 -0.02412
# Poissons Ratio (y) = -0.04727 0.05046
# Poissons Ratio (z) = -0.04346 0.03989
#
# Static dielectric constant tensor:
#      x y z
#    x 1.867570 0.000000 -0.047730 
#    y 0.000000 1.835860 0.000000 
#    z -0.047730 0.000000 1.937070 
# 
# From -- ./inp_files/359843.got.cif
#   From: 2010.05.17/outbox.cif.g08.bks.cpg/sg12_180_cif.got.tgz:359843.got - 2010.06.03 13:09:07.
