data_PCOD9205561
_publ_section_title
;
Structure prediction by ZEFSAII (Michael W. Deem and Ramdas Pophale) SiO2 
 PCOD9205561
Probable space group: C 2/M
;
_chemical_formula_sum "Si O2"
_cell_formula_units_Z 56
_cell_length_a 15.065105
_cell_length_b 22.767090
_cell_length_c 15.419813
_cell_angle_alpha 90.000000
_cell_angle_beta 30.113981
_cell_angle_gamma 90.000000
_cell_volume 2653.516505
_symmetry_space_group_name_H-M "C 2/M"
_symmetry_group_IT_number 12
_symmetry_cell_setting 'monoclinic'
loop_
_space_group_symop_operation_xyz
x,y,z
-x,y,-z
-x,-y,-z
x,-y,z
1/2+x,1/2+y,z
1/2-x,1/2+y,-z
1/2-x,1/2-y,-z
1/2+x,1/2-y,z
loop_
_atom_site_type_symbol
_atom_site_label
_atom_site_fract_x
_atom_site_fract_y
_atom_site_fract_z
Si Si1 0.385889 0.347049 0.513902
Si Si2 0.825600 0.227929 0.027104
Si Si3 0.010238 0.649978 0.083826
Si Si4 0.483373 0.393878 0.911101
Si Si5 0.112765 0.566307 0.149655
Si Si6 0.255526 0.890774 0.538160
Si Si7 0.521141 0.787748 0.582606
O O1 0.500000 0.368822 0.500000
O O2 0.370702 0.386037 0.440007
O O3 0.453086 0.282126 0.433007
O O4 0.186254 0.339211 0.715650
O O5 0.663760 0.199617 0.215370
O O6 0.750000 0.250000 0.000000
O O7 0.895467 0.287649 0.009988
O O8 0.967790 0.176206 0.903263
O O9 0.104760 0.612284 0.077467
O O10 0.000000 0.618712 0.000000
O O11 0.645844 0.414646 0.712954
O O12 0.500000 0.401317 0.000000
O O13 0.299143 0.423430 0.038965
O O14 0.103267 0.500000 0.124691
O O15 0.937797 0.576915 0.356848
O O16 0.326177 0.825262 0.501670
O O17 0.500000 0.803794 0.500000
#
# Coordination Sequence:
#
# PCOD9205561 Si02
#       7
#     8   8   8   8   8   8   8
#     4  10  21  35  57  97 134 172 209 252 321 403
#     4  12  20  37  64 101 138 171 209 260 330 403
#     4  11  22  39  67  96 134 178 216 268 335 396
#     4  12  25  42  71 103 134 170 219 272 335 398
#     4  11  27  49  67  93 128 173 233 282 325 387
#     4  11  23  42  67  90 131 175 214 269 329 384
#     4  11  20  34  60  95 137 171 206 254 320 397
#
# _framework density 21.104068999999999
#
# number of rings (size 3 to 8) (size 9 to 14) (size 15 to 20)
#    0.000    0.857    2.857    6.000    2.000    1.143 
#    0.000    0.714    0.000    1.714    0.000    0.000 
#    0.000    0.000    0.000    0.000    0.000    0.000 
#
# Total GULP energy -156532.032924 kJ/mol
# GULP energy per Si atom -5590.429747 kJ/mol
# Density = 2.105604 g / cm^3
# Si number density = 21.104069 Si / 1000 Ang^3
#
#
#
# Elastic Constant Matrix: (Units=GPa)
#
#
# Indices 1 2 3 4 5 6 
#
# 1 121.0325 0.4242 29.0988 0.0041 -0.6183 0.0037
# 2 0.4242 44.9042 5.7083 -0.0221 -6.9361 -0.0092
# 3 29.0988 5.7083 94.2881 -0.0422 7.0142 -0.0039
# 4 0.0041 -0.0221 -0.0422 9.2725 0.0086 -0.7716
# 5 -0.6183 -6.9361 7.0142 0.0086 32.3720 0.0136
# 6 0.0037 -0.0092 -0.0039 -0.7716 0.0136 -7.8245
#
#
#
# Elastic Compliance Matrix: (Units=1/GPa)
#
#
# Indices 1 2 3 4 5 6 
#
# 1 0.008951 0.000414 -0.002853 -0.000016 0.000878 0.000008
# 2 0.000414 0.023352 -0.001946 0.000040 0.005433 -0.000021
# 3 -0.002853 -0.001946 0.011830 0.000052 -0.003035 -0.000015
# 4 -0.000016 0.000040 0.000052 0.106968 -0.000027 -0.010549
# 5 0.000878 0.005433 -0.003035 -0.000027 0.032729 0.000055
# 6 0.000008 -0.000021 -0.000015 -0.010549 0.000055 -0.126763
#
#
# Mechanical properties :
#
#
# Convention : Reuss Voigt Hill
#
# Bulk Modulus (GPa) = 28.27757 36.74303 32.51030
# Shear Modulus (GPa) = 64.41252 21.76357 43.08805
#
# Velocity S-wave (km/s) = 5.53061 3.21479 4.52341
# Velocity P-wave (km/s) = 7.36286 5.58821 6.53604
#
# Compressibility (1/GPa) = 0.03536372
#
# Stress axis : x y z
#
# Youngs Moduli (GPa) = 111.71746 42.82246 84.53251
#
# Poissons Ratio (x) = -0.01771 0.24116
# Poissons Ratio (y) = -0.04621 0.16446
# Poissons Ratio (z) = 0.31871 0.08331
#
# Static dielectric constant tensor:
#      x y z
#    x 1.786790 -0.000010 -0.002960 
#    y -0.000010 1.750410 0.000000 
#    z -0.002960 0.000000 1.805750 
# 
# From -- ./inp_files/218651.got.cif
#   From: 2010.05.17/outbox.cif.g08.bks.cpg/sg12_110_cif.got.tgz:218651.got - 2010.06.03 13:09:07.
