data_PCOD9205590
_publ_section_title
;
Structure prediction by ZEFSAII (Michael W. Deem and Ramdas Pophale) SiO2 
 PCOD9205590
Probable space group: C 2/M
;
_chemical_formula_sum "Si O2"
_cell_formula_units_Z 42
_cell_length_a 25.927053
_cell_length_b 7.891569
_cell_length_c 24.810515
_cell_angle_alpha 90.000000
_cell_angle_beta 23.154975
_cell_angle_gamma 90.000000
_cell_volume 1996.123186
_symmetry_space_group_name_H-M "C 2/M"
_symmetry_group_IT_number 12
_symmetry_cell_setting 'monoclinic'
loop_
_space_group_symop_operation_xyz
x,y,z
-x,y,-z
-x,-y,-z
x,-y,z
1/2+x,1/2+y,z
1/2-x,1/2+y,-z
1/2-x,1/2-y,-z
1/2+x,1/2-y,z
loop_
_atom_site_type_symbol
_atom_site_label
_atom_site_fract_x
_atom_site_fract_y
_atom_site_fract_z
Si Si1 0.489191 0.316062 0.583791
Si Si2 0.572862 0.194522 0.615429
Si Si3 0.284882 0.702392 0.191539
Si Si4 0.000000 0.500000 0.500000
Si Si5 0.631984 0.801810 0.673982
Si Si6 0.952623 0.800065 0.130808
O O1 0.544375 0.500000 0.515406
O O2 0.506224 0.294059 0.631169
O O3 0.336670 0.303750 0.714331
O O4 0.546107 0.152507 0.498523
O O5 0.556316 0.256689 0.692877
O O6 0.729556 0.206750 0.455183
O O7 0.528837 0.000000 0.654346
O O8 0.241746 0.500000 0.235474
O O9 0.342560 0.757619 0.193700
O O10 0.407768 0.715815 0.032991
O O11 0.556985 0.783426 0.802023
O O12 0.662875 0.000000 0.635287
O O13 0.930261 0.000000 0.159650
#
# Coordination Sequence:
#
# PCOD9205590 Si02
#       6
#     8   8   8   2   8   8
#     4  12  25  40  63  90 120 159 201 240 297 357
#     4  10  21  40  58  81 121 161 193 250 301 348
#     4   9  19  39  58  84 121 158 194 245 298 349
#     4  12  26  44  60  88 128 160 190 246 300 358
#     4  10  21  35  58  87 117 153 202 248 298 355
#     4   9  19  35  61  84 114 158 198 239 298 357
#
# _framework density 21.040787000000002
#
# number of rings (size 3 to 8) (size 9 to 14) (size 15 to 20)
#    0.000    1.905    1.905    2.571    2.667    3.810 
#    0.000    2.857    0.000    0.000    0.000    0.000 
#    0.000    0.000    0.000    0.000    0.000    0.000 
#
# Total GULP energy -117099.166129 kJ/mol
# GULP energy per Si atom -5576.150768 kJ/mol
# Density = 2.099290 g / cm^3
# Si number density = 21.040787 Si / 1000 Ang^3
#
#
#
# Elastic Constant Matrix: (Units=GPa)
#
#
# Indices 1 2 3 4 5 6 
#
# 1 175.0633 49.5215 42.1217 -0.0112 23.3171 0.0011
# 2 49.5215 105.0588 29.8775 -0.0087 3.0922 0.0072
# 3 42.1217 29.8775 36.5485 -0.0044 8.9151 0.0051
# 4 -0.0112 -0.0087 -0.0044 15.9570 0.0066 3.5244
# 5 23.3171 3.0922 8.9151 0.0066 35.8597 -0.0022
# 6 0.0011 0.0072 0.0051 3.5244 -0.0022 27.3199
#
#
#
# Elastic Compliance Matrix: (Units=1/GPa)
#
#
# Indices 1 2 3 4 5 6 
#
# 1 0.008476 -0.001768 -0.007469 0.000004 -0.003502 0.000001
# 2 -0.001768 0.012851 -0.009025 0.000003 0.002285 -0.000002
# 3 -0.007469 -0.009025 0.044682 0.000006 -0.005474 -0.000007
# 4 0.000004 0.000003 0.000006 0.064506 -0.000017 -0.008322
# 5 -0.003502 0.002285 -0.005474 -0.000017 0.031327 0.000005
# 6 0.000001 -0.000002 -0.000007 -0.008322 0.000005 0.037677
#
#
# Mechanical properties :
#
#
# Convention : Reuss Voigt Hill
#
# Bulk Modulus (GPa) = 33.91610 62.19022 48.05316
# Shear Modulus (GPa) = 20.33578 28.83732 24.58655
#
# Velocity S-wave (km/s) = 3.11222 3.70610 3.42207
# Velocity P-wave (km/s) = 5.39155 6.92349 6.20498
#
# Compressibility (1/GPa) = 0.02948452
#
# Stress axis : x y z
#
# Youngs Moduli (GPa) = 117.98211 77.81263 22.38058
#
# Poissons Ratio (x) = 0.13759 0.16715
# Poissons Ratio (y) = 0.20862 0.20199
# Poissons Ratio (z) = 0.88117 0.70228
#
# Static dielectric constant tensor:
#      x y z
#    x 1.761580 0.000000 0.053620 
#    y 0.000000 1.794560 0.000000 
#    z 0.053620 0.000000 1.688500 
# 
# From -- ./inp_files/348408.got.cif
#   From: 2010.05.17/outbox.cif.g08.bks.cpg/sg12_175_cif.got.tgz:348408.got - 2010.06.03 13:09:07.
