data_PCOD9205255
_publ_section_title
;
Structure prediction by ZEFSAII (Michael W. Deem and Ramdas Pophale) SiO2 
 PCOD9205255
Probable space group: C 2/M
;
_chemical_formula_sum "Si O2"
_cell_formula_units_Z 64
_cell_length_a 28.062343
_cell_length_b 7.449753
_cell_length_c 13.820869
_cell_angle_alpha 90.000000
_cell_angle_beta 89.992131
_cell_angle_gamma 90.000000
_cell_volume 2889.356625
_symmetry_space_group_name_H-M "C 2/M"
_symmetry_group_IT_number 12
_symmetry_cell_setting 'monoclinic'
loop_
_space_group_symop_operation_xyz
x,y,z
-x,y,-z
-x,-y,-z
x,-y,z
1/2+x,1/2+y,z
1/2-x,1/2+y,-z
1/2-x,1/2-y,-z
1/2+x,1/2-y,z
loop_
_atom_site_type_symbol
_atom_site_label
_atom_site_fract_x
_atom_site_fract_y
_atom_site_fract_z
Si Si1 0.851329 0.211108 0.697638
Si Si2 0.148678 0.210948 0.697584
Si Si3 0.054354 0.717001 0.789061
Si Si4 0.693824 0.715277 0.499980
Si Si5 0.193019 0.214252 0.895014
Si Si6 0.445678 0.783084 0.789321
Si Si7 0.058126 0.290923 0.999948
Si Si8 0.693974 0.284687 0.105290
O O1 0.829840 0.286035 0.598759
O O2 0.907927 0.230136 0.708785
O O3 0.829671 0.288463 0.797183
O O4 0.839330 0.000000 0.698302
O O5 0.092046 0.229186 0.708542
O O6 0.170150 0.286042 0.598723
O O7 0.169995 0.289184 0.797259
O O8 0.160969 0.000000 0.698241
O O9 0.053538 0.500000 0.794491
O O10 0.000002 0.776266 0.772856
O O11 0.071536 0.785783 0.895235
O O12 0.686513 0.500000 0.499937
O O13 0.750000 0.750000 0.500000
O O14 0.249647 0.246928 0.890131
O O15 0.185229 0.000000 0.896191
O O16 0.176235 0.283612 0.000357
O O17 0.428466 0.713921 0.895406
O O18 0.446602 0.000000 0.795119
O O19 0.071748 0.500000 0.999895
O O20 0.000000 0.285780 0.000000
O O21 0.687698 0.500000 0.104041
#
# Coordination Sequence:
#
# PCOD9205255 Si02
#       8
#     8   8   8   8   8   8   8   8
#     4  10  21  35  53  77 106 138 175 217 265 316
#     4  10  21  35  53  77 106 138 175 217 265 316
#     4   9  18  33  53  78 108 141 179 219 258 307
#     4  10  22  40  59  80 105 137 178 223 267 314
#     4   9  18  32  49  72 102 132 164 207 259 314
#     4   9  18  33  53  78 108 141 179 219 258 307
#     4   7  12  26  47  71 102 137 170 209 254 299
#     4   9  18  32  49  72 102 132 164 207 259 314
#
# _framework density 22.150259999999999
#
# number of rings (size 3 to 8) (size 9 to 14) (size 15 to 20)
#    0.000    2.875    0.000    2.250    1.750    2.500 
#    0.000    0.625    0.000    6.000    0.000    0.000 
#    0.000    0.000    0.000    0.000    0.000    0.000 
#
# Total GULP energy -178650.337230 kJ/mol
# GULP energy per Si atom -5582.823038 kJ/mol
# Density = 2.209985 g / cm^3
# Si number density = 22.150260 Si / 1000 Ang^3
#
#
#
# Elastic Constant Matrix: (Units=GPa)
#
#
# Indices 1 2 3 4 5 6 
#
# 1 113.1823 -12.5900 107.9121 0.0000 0.9088 0.0000
# 2 -12.5900 71.9262 14.7633 0.0000 1.3725 0.0000
# 3 107.9121 14.7633 213.5910 0.0000 2.3016 0.0000
# 4 0.0000 0.0000 0.0000 -3.1190 0.0000 -0.0042
# 5 0.9088 1.3725 2.3016 0.0000 40.8547 0.0000
# 6 0.0000 0.0000 0.0000 -0.0042 0.0000 22.1080
#
#
#
# Elastic Compliance Matrix: (Units=1/GPa)
#
#
# Indices 1 2 3 4 5 6 
#
# 1 0.018870 0.005336 -0.009902 0.000000 -0.000041 0.000000
# 2 0.005336 0.015619 -0.003771 0.000000 -0.000431 0.000000
# 3 -0.009902 -0.003771 0.009948 0.000000 -0.000213 0.000000
# 4 0.000000 0.000000 0.000000 -0.320612 0.000000 -0.000061
# 5 -0.000041 -0.000431 -0.000213 0.000000 0.024504 0.000000
# 6 0.000000 0.000000 0.000000 -0.000061 0.000000 0.045232
#
#
# Mechanical properties :
#
#
# Convention : Reuss Voigt Hill
#
# Bulk Modulus (GPa) = 36.01825 68.76337 52.39081
# Shear Modulus (GPa) = -27.69935 31.20968 1.75516
#
# Velocity S-wave (km/s) = -3.54011 3.75773 0.89113
# Velocity P-wave (km/s) = 0.64314 7.06674 4.97621
#
# Compressibility (1/GPa) = 0.02776370
#
# Stress axis : x y z
#
# Youngs Moduli (GPa) = 52.99307 64.02261 100.52584
#
# Poissons Ratio (x) = -0.34165 0.99543
# Poissons Ratio (y) = -0.28279 0.37909
# Poissons Ratio (z) = 0.52475 0.24143
#
# Static dielectric constant tensor:
#      x y z
#    x 1.814030 0.000000 0.000170 
#    y 0.000000 1.835480 0.000000 
#    z 0.000170 0.000000 1.839530 
# 
# From -- ./inp_files/187623.got.cif
#   From: 2010.05.17/outbox.cif.g08.bks.cpg/sg12_94_cif.got.tgz:187623.got - 2010.06.03 13:09:07.
