data_PCOD9205436
_publ_section_title
;
Structure prediction by ZEFSAII (Michael W. Deem and Ramdas Pophale) SiO2 
 PCOD9205436
Probable space group: C 2/M
;
_chemical_formula_sum "Si O2"
_cell_formula_units_Z 56
_cell_length_a 25.840923
_cell_length_b 14.024015
_cell_length_c 8.035696
_cell_angle_alpha 90.000000
_cell_angle_beta 67.472053
_cell_angle_gamma 90.000000
_cell_volume 2689.870851
_symmetry_space_group_name_H-M "C 2/M"
_symmetry_group_IT_number 12
_symmetry_cell_setting 'monoclinic'
loop_
_space_group_symop_operation_xyz
x,y,z
-x,y,-z
-x,-y,-z
x,-y,z
1/2+x,1/2+y,z
1/2-x,1/2+y,-z
1/2-x,1/2-y,-z
1/2+x,1/2-y,z
loop_
_atom_site_type_symbol
_atom_site_label
_atom_site_fract_x
_atom_site_fract_y
_atom_site_fract_z
Si Si1 0.666567 0.197319 0.407398
Si Si2 0.122615 0.188809 0.858800
Si Si3 0.156016 0.606600 0.772460
Si Si4 0.570033 0.682520 0.567466
Si Si5 0.231069 0.110988 0.871226
Si Si6 0.050238 0.108700 0.247588
Si Si7 0.782102 0.893624 0.729680
O O1 0.671845 0.131847 0.562441
O O2 0.600658 0.219818 0.470827
O O3 0.706245 0.152188 0.219415
O O4 0.800628 0.000000 0.654529
O O5 0.118729 0.303852 0.874590
O O6 0.097218 0.158107 0.712620
O O7 0.188046 0.163383 0.801580
O O8 0.090102 0.138554 0.048711
O O9 0.132134 0.500000 0.815432
O O10 0.215084 0.608236 0.793931
O O11 0.578537 0.616050 0.394987
O O12 0.503681 0.677638 0.680546
O O13 0.232223 0.000000 0.827270
O O14 0.207728 0.120351 0.086464
O O15 0.191989 0.196067 0.396646
O O16 0.969156 0.000000 0.752312
#
# Coordination Sequence:
#
# PCOD9205436 Si02
#       7
#     8   8   8   8   8   8   8
#     4  11  21  38  59  87 124 166 203 252 311 373
#     4  11  23  40  66  92 128 172 211 256 317 377
#     4  10  22  39  59  87 121 163 211 256 311 368
#     4  10  24  39  64  90 124 168 209 255 313 368
#     4  11  23  36  57  95 132 167 208 254 310 376
#     4  11  24  44  65  95 130 163 209 263 314 375
#     4  10  21  35  55  85 124 165 206 252 304 368
#
# _framework density 20.818842
#
# number of rings (size 3 to 8) (size 9 to 14) (size 15 to 20)
#    0.000    1.429    1.429    3.857    4.000    5.143 
#    0.000    2.143    0.000    7.714    0.000   26.000 
#    0.000    0.000    0.000    0.000    0.000    0.000 
#
# Total GULP energy -156239.605358 kJ/mol
# GULP energy per Si atom -5579.985906 kJ/mol
# Density = 2.077146 g / cm^3
# Si number density = 20.818842 Si / 1000 Ang^3
#
#
#
# Elastic Constant Matrix: (Units=GPa)
#
#
# Indices 1 2 3 4 5 6 
#
# 1 81.0983 33.2564 30.0232 0.0000 2.0647 0.0000
# 2 33.2564 100.1679 30.2544 0.0000 7.2790 0.0000
# 3 30.0232 30.2544 78.6240 0.0000 -5.2681 0.0000
# 4 0.0000 0.0000 0.0000 27.4539 0.0000 -3.4433
# 5 2.0647 7.2790 -5.2681 0.0000 28.6254 0.0000
# 6 0.0000 0.0000 0.0000 -3.4433 0.0000 9.8131
#
#
#
# Elastic Compliance Matrix: (Units=1/GPa)
#
#
# Indices 1 2 3 4 5 6 
#
# 1 0.015578 -0.003711 -0.004589 0.000000 -0.001024 0.000000
# 2 -0.003711 0.012585 -0.003667 0.000000 -0.003607 0.000000
# 3 -0.004589 -0.003667 0.016166 0.000000 0.004239 0.000000
# 4 0.000000 0.000000 0.000000 0.038101 0.000000 0.013369
# 5 -0.001024 -0.003607 0.004239 0.000000 0.036705 0.000000
# 6 0.000000 0.000000 0.000000 0.013369 0.000000 0.106596
#
#
# Mechanical properties :
#
#
# Convention : Reuss Voigt Hill
#
# Bulk Modulus (GPa) = 49.03425 49.66201 49.34813
# Shear Modulus (GPa) = 19.49583 24.26889 21.88236
#
# Velocity S-wave (km/s) = 3.06347 3.41796 3.24556
# Velocity P-wave (km/s) = 6.00975 6.28353 6.14816
#
# Compressibility (1/GPa) = 0.02039391
#
# Stress axis : x y z
#
# Youngs Moduli (GPa) = 64.19479 79.45820 61.85729
#
# Poissons Ratio (x) = 0.29490 0.28386
# Poissons Ratio (y) = 0.23825 0.22685
# Poissons Ratio (z) = 0.29458 0.29139
#
# Static dielectric constant tensor:
#      x y z
#    x 1.779980 0.000000 -0.005050 
#    y 0.000000 1.744810 0.000000 
#    z -0.005050 0.000000 1.763750 
# 
# From -- ./inp_files/96297.got.cif
#   From: 2010.05.17/outbox.cif.g08.bks.cpg/sg12_49_cif.got.tgz:96297.got - 2010.06.03 13:09:07.
