data_PCOD9205634
_publ_section_title
;
Structure prediction by ZEFSAII (Michael W. Deem and Ramdas Pophale) SiO2 
 PCOD9205634
Probable space group: C 2/M
;
_chemical_formula_sum "Si O2"
_cell_formula_units_Z 52
_cell_length_a 21.089480
_cell_length_b 24.313608
_cell_length_c 8.072909
_cell_angle_alpha 90.000000
_cell_angle_beta 32.541653
_cell_angle_gamma 90.000000
_cell_volume 2226.676131
_symmetry_space_group_name_H-M "C 2/M"
_symmetry_group_IT_number 12
_symmetry_cell_setting 'monoclinic'
loop_
_space_group_symop_operation_xyz
x,y,z
-x,y,-z
-x,-y,-z
x,-y,z
1/2+x,1/2+y,z
1/2-x,1/2+y,-z
1/2-x,1/2-y,-z
1/2+x,1/2-y,z
loop_
_atom_site_type_symbol
_atom_site_label
_atom_site_fract_x
_atom_site_fract_y
_atom_site_fract_z
Si Si1 0.718147 0.383388 0.649317
Si Si2 0.894510 0.500000 0.063823
Si Si3 0.301131 0.500000 0.225734
Si Si4 0.671733 0.301803 0.220989
Si Si5 0.928721 0.789434 0.907105
Si Si6 0.072396 0.593102 0.558238
Si Si7 0.307954 0.000000 0.895868
Si Si8 0.641901 0.836287 0.961627
O O1 0.649447 0.441344 0.823084
O O2 0.815617 0.386645 0.582251
O O3 0.799783 0.371691 0.311780
O O4 0.627039 0.333046 0.847121
O O5 0.821277 0.500000 0.395746
O O6 0.802400 0.500000 0.108833
O O7 0.982838 0.551421 0.849413
O O8 0.283323 0.500000 0.063379
O O9 0.569534 0.287163 0.577641
O O10 0.612568 0.315697 0.177799
O O11 0.765542 0.342382 0.093203
O O12 0.750000 0.250000 0.000000
O O13 0.874061 0.728556 0.048619
O O14 0.119657 0.555066 0.306631
O O15 0.988642 0.644211 0.707216
#
# Coordination Sequence:
#
# PCOD9205634 Si02
#       8
#     8   4   4   8   8   8   4   8
#     4  11  23  40  62  93 130 173 210 272 331 390
#     4  11  20  40  58  95 139 179 225 284 331 395
#     4  10  22  41  62  92 137 173 228 286 335 387
#     4   9  22  44  62  87 123 169 214 265 322 387
#     4  10  23  43  62  87 130 166 213 269 326 394
#     4  10  21  35  59  92 135 167 216 269 326 392
#     4   9  22  36  58  95 131 185 220 272 339 397
#     4  11  22  36  63  94 124 171 212 263 328 401
#
# _framework density 23.353194999999999
#
# number of rings (size 3 to 8) (size 9 to 14) (size 15 to 20)
#    0.000    1.846    1.538    2.308    6.462    5.538 
#    8.308    0.000    0.000    5.538    0.000    0.000 
#    0.000    0.000    0.000    0.000    0.000    0.000 
#
# Total GULP energy -145019.006149 kJ/mol
# GULP energy per Si atom -5577.654083 kJ/mol
# Density = 2.330004 g / cm^3
# Si number density = 23.353195 Si / 1000 Ang^3
#
#
#
# Elastic Constant Matrix: (Units=GPa)
#
#
# Indices 1 2 3 4 5 6 
#
# 1 83.9908 18.8907 14.1085 -0.0001 8.6988 0.0001
# 2 18.8907 129.9744 21.0973 0.0000 -6.7384 0.0000
# 3 14.1085 21.0973 75.1916 -0.0002 -6.1534 0.0001
# 4 -0.0001 0.0000 -0.0002 31.5696 0.0001 3.1139
# 5 8.6988 -6.7384 -6.1534 0.0001 26.8193 -0.0001
# 6 0.0001 0.0000 0.0001 3.1139 -0.0001 24.9034
#
#
#
# Elastic Compliance Matrix: (Units=1/GPa)
#
#
# Indices 1 2 3 4 5 6 
#
# 1 0.013270 -0.001812 -0.002416 0.000000 -0.005314 0.000000
# 2 -0.001812 0.008371 -0.001823 0.000000 0.002273 0.000000
# 3 -0.002416 -0.001823 0.014564 0.000000 0.003667 0.000000
# 4 0.000000 0.000000 0.000000 0.032072 0.000000 -0.004010
# 5 -0.005314 0.002273 0.003667 0.000000 0.040423 0.000000
# 6 0.000000 0.000000 0.000000 -0.004010 0.000000 0.040657
#
#
# Mechanical properties :
#
#
# Convention : Reuss Voigt Hill
#
# Bulk Modulus (GPa) = 41.48865 44.14999 42.81932
# Shear Modulus (GPa) = 29.49989 32.32913 30.91451
#
# Velocity S-wave (km/s) = 3.55802 3.72473 3.64233
# Velocity P-wave (km/s) = 5.88928 6.11919 6.00534
#
# Compressibility (1/GPa) = 0.02410298
#
# Stress axis : x y z
#
# Youngs Moduli (GPa) = 75.35897 119.46206 68.66108
#
# Poissons Ratio (x) = 0.21646 0.16591
# Poissons Ratio (y) = 0.13654 0.12515
# Poissons Ratio (z) = 0.18209 0.21775
#
# Static dielectric constant tensor:
#      x y z
#    x 2.022050 0.000000 0.036410 
#    y 0.000000 1.958570 0.000000 
#    z 0.036410 0.000000 1.892060 
# 
# From -- ./inp_files/100040.got.cif
#   From: 2010.05.17/outbox.cif.g08.bks.cpg/sg12_51_cif.got.tgz:100040.got - 2010.06.03 13:09:07.
