data_PCOD9205319
_publ_section_title
;
Structure prediction by ZEFSAII (Michael W. Deem and Ramdas Pophale) SiO2 
 PCOD9205319
Probable space group: C 2/M
;
_chemical_formula_sum "Si O2"
_cell_formula_units_Z 64
_cell_length_a 10.055676
_cell_length_b 27.989436
_cell_length_c 14.700654
_cell_angle_alpha 90.000000
_cell_angle_beta 57.013577
_cell_angle_gamma 90.000000
_cell_volume 3470.565871
_symmetry_space_group_name_H-M "C 2/M"
_symmetry_group_IT_number 12
_symmetry_cell_setting 'monoclinic'
loop_
_space_group_symop_operation_xyz
x,y,z
-x,y,-z
-x,-y,-z
x,-y,z
1/2+x,1/2+y,z
1/2-x,1/2+y,-z
1/2-x,1/2-y,-z
1/2+x,1/2-y,z
loop_
_atom_site_type_symbol
_atom_site_label
_atom_site_fract_x
_atom_site_fract_y
_atom_site_fract_z
Si Si1 0.178539 0.899954 0.894749
Si Si2 0.344254 0.943965 0.675604
Si Si3 0.312184 0.702979 0.081441
Si Si4 0.156800 0.443064 0.662479
Si Si5 0.137644 0.057124 0.586924
Si Si6 0.309784 0.191834 0.078421
Si Si7 0.185324 0.098023 0.223419
Si Si8 0.343325 0.055261 0.004044
O O1 0.204345 0.933609 0.799175
O O2 0.217952 0.845389 0.852103
O O3 0.294723 0.916593 0.932346
O O4 0.000000 0.901798 0.000000
O O5 0.501604 0.924898 0.666548
O O6 0.282633 0.928708 0.600102
O O7 0.375868 0.000000 0.654234
O O8 0.263364 0.755406 0.133153
O O9 0.500000 0.706829 0.000000
O O10 0.246545 0.692849 0.005122
O O11 0.139429 0.500000 0.688577
O O12 0.302622 0.437744 0.538229
O O13 0.192245 0.416283 0.742641
O O14 0.986959 0.088490 0.670389
O O15 0.103735 0.000000 0.613382
O O16 0.227687 0.149736 0.165911
O O17 0.500000 0.185997 0.000000
O O18 0.207412 0.062549 0.129705
O O19 0.365234 0.000000 0.971730
O O20 0.500000 0.071866 0.000000
#
# Coordination Sequence:
#
# PCOD9205319 Si02
#       8
#     8   8   8   8   8   8   8   8
#     4  11  21  33  52  79 110 143 176 220 266 320
#     4  10  21  35  54  78 107 147 188 222 268 324
#     4   9  20  37  56  77 111 143 179 222 264 316
#     4  10  21  37  55  77 107 143 188 235 274 316
#     4  10  21  37  55  77 107 142 187 238 276 313
#     4  10  21  37  55  81 112 143 180 220 266 329
#     4  12  21  32  53  80 106 144 179 221 273 324
#     4  11  22  33  46  72 114 151 175 206 255 321
#
# _framework density 18.440795999999999
#
# number of rings (size 3 to 8) (size 9 to 14) (size 15 to 20)
#    0.000    1.625    1.250    4.125    3.500    6.500 
#    0.000    0.000    0.000    0.000    0.000    5.250 
#    0.000    0.000    0.000    0.000    0.000    0.000 
#
# Total GULP energy -178553.692593 kJ/mol
# GULP energy per Si atom -5579.802894 kJ/mol
# Density = 1.839882 g / cm^3
# Si number density = 18.440796 Si / 1000 Ang^3
#
#
#
# Elastic Constant Matrix: (Units=GPa)
#
#
# Indices 1 2 3 4 5 6 
#
# 1 83.1533 38.8332 16.1721 0.0000 -1.4801 0.0000
# 2 38.8332 77.7811 16.3308 0.0000 0.9649 0.0000
# 3 16.1721 16.3308 65.9593 0.0000 3.9657 0.0000
# 4 0.0000 0.0000 0.0000 21.3704 0.0000 0.4977
# 5 -1.4801 0.9649 3.9657 0.0000 26.2120 0.0000
# 6 0.0000 0.0000 0.0000 0.4977 0.0000 -8.5934
#
#
#
# Elastic Compliance Matrix: (Units=1/GPa)
#
#
# Indices 1 2 3 4 5 6 
#
# 1 0.015998 -0.007556 -0.002142 0.000000 0.001506 0.000000
# 2 -0.007556 0.017131 -0.002346 0.000000 -0.000702 0.000000
# 3 -0.002142 -0.002346 0.016418 0.000000 -0.002519 0.000000
# 4 0.000000 0.000000 0.000000 0.046731 0.000000 0.002706
# 5 0.001506 -0.000702 -0.002519 0.000000 0.038642 0.000000
# 6 0.000000 0.000000 0.000000 0.002706 0.000000 -0.116212
#
#
# Mechanical properties :
#
#
# Convention : Reuss Voigt Hill
#
# Bulk Modulus (GPa) = 39.28114 41.06287 40.17201
# Shear Modulus (GPa) = 97.49647 18.16830 57.83239
#
# Velocity S-wave (km/s) = 7.27906 3.14223 5.60617
# Velocity P-wave (km/s) = 9.59134 5.95656 7.98356
#
# Compressibility (1/GPa) = 0.02545751
#
# Stress axis : x y z
#
# Youngs Moduli (GPa) = 62.50698 58.37540 60.90699
#
# Poissons Ratio (x) = 0.44110 0.13047
# Poissons Ratio (y) = 0.47232 0.14291
# Poissons Ratio (z) = 0.13390 0.13697
#
# Static dielectric constant tensor:
#      x y z
#    x 1.686810 0.000000 -0.029260 
#    y 0.000000 1.674490 0.000000 
#    z -0.029260 0.000000 1.640760 
# 
# From -- ./inp_files/201293.got.cif
#   From: 2010.05.17/outbox.cif.g08.bks.cpg/sg12_101_cif.got.tgz:201293.got - 2010.06.03 13:09:07.
