data_PCOD9205528
_publ_section_title
;
Structure prediction by ZEFSAII (Michael W. Deem and Ramdas Pophale) SiO2 
 PCOD9205528
Probable space group: C 2/M
;
_chemical_formula_sum "Si O2"
_cell_formula_units_Z 58
_cell_length_a 23.840725
_cell_length_b 7.531128
_cell_length_c 14.613606
_cell_angle_alpha 90.000000
_cell_angle_beta 101.963679
_cell_angle_gamma 90.000000
_cell_volume 2566.845345
_symmetry_space_group_name_H-M "C 2/M"
_symmetry_group_IT_number 12
_symmetry_cell_setting 'monoclinic'
loop_
_space_group_symop_operation_xyz
x,y,z
-x,y,-z
-x,-y,-z
x,-y,z
1/2+x,1/2+y,z
1/2-x,1/2+y,-z
1/2-x,1/2-y,-z
1/2+x,1/2-y,z
loop_
_atom_site_type_symbol
_atom_site_label
_atom_site_fract_x
_atom_site_fract_y
_atom_site_fract_z
Si Si1 0.392160 0.214900 0.623900
Si Si2 0.000000 0.500000 0.000000
Si Si3 0.384203 0.703509 0.112505
Si Si4 0.484182 0.215746 0.283604
Si Si5 0.684690 0.704239 0.744598
Si Si6 0.916399 0.783741 0.921529
Si Si7 0.090213 0.703203 0.573868
Si Si8 0.812622 0.795076 0.753432
O O1 0.449820 0.270262 0.697140
O O2 0.398893 0.281111 0.522297
O O3 0.336174 0.275771 0.658751
O O4 0.390418 0.000000 0.622691
O O5 0.029129 0.658418 0.074396
O O6 0.368100 0.500000 0.088394
O O7 0.442046 0.713498 0.191768
O O8 0.335951 0.780206 0.164314
O O9 0.396006 0.778518 0.016502
O O10 0.457470 0.275715 0.372524
O O11 0.480560 0.000000 0.279839
O O12 0.664722 0.500000 0.736711
O O13 0.648937 0.794871 0.651853
O O14 0.752029 0.706605 0.751649
O O15 0.864931 0.737700 0.835752
O O16 0.927140 0.000000 0.923093
O O17 0.072389 0.500000 0.550817
O O18 0.802623 0.000000 0.770975
#
# Coordination Sequence:
#
# PCOD9205528 Si02
#       8
#     8   2   8   8   8   8   8   8
#     4  10  21  35  57  84 118 156 200 245 298 369
#     4  12  26  40  72  94 128 174 206 244 304 370
#     4   9  20  39  60  87 119 156 197 250 308 355
#     4   9  18  32  57  88 119 150 196 243 294 365
#     4  10  21  39  64  86 114 152 202 256 302 366
#     4  10  25  44  63  95 133 164 207 252 300 366
#     4   9  18  36  58  86 117 153 193 248 307 356
#     4  11  25  42  58  84 120 160 199 252 310 352
#
# _framework density 22.595828000000001
#
# number of rings (size 3 to 8) (size 9 to 14) (size 15 to 20)
#    0.000    2.207    0.000    1.448    4.828    4.414 
#    0.000    0.000    0.000    4.138    0.000    0.000 
#    0.000    0.000    0.000    0.000    0.000    0.000 
#
# Total GULP energy -161727.254375 kJ/mol
# GULP energy per Si atom -5576.801875 kJ/mol
# Density = 2.254440 g / cm^3
# Si number density = 22.595828 Si / 1000 Ang^3
#
#
#
# Elastic Constant Matrix: (Units=GPa)
#
#
# Indices 1 2 3 4 5 6 
#
# 1 120.2432 8.5435 25.9814 0.0000 -15.0919 0.0000
# 2 8.5435 74.1242 -9.0538 0.0000 7.2656 0.0000
# 3 25.9814 -9.0538 86.8773 0.0000 -24.9629 0.0000
# 4 0.0000 0.0000 0.0000 13.6106 0.0000 13.8709
# 5 -15.0919 7.2656 -24.9629 0.0000 30.0488 0.0000
# 6 0.0000 0.0000 0.0000 13.8709 0.0000 8.3491
#
#
#
# Elastic Compliance Matrix: (Units=1/GPa)
#
#
# Indices 1 2 3 4 5 6 
#
# 1 0.009288 -0.001647 -0.001963 0.000000 0.003432 0.000000
# 2 -0.001647 0.014137 0.000980 0.000000 -0.003431 0.000000
# 3 -0.001963 0.000980 0.015563 0.000000 0.011706 0.000000
# 4 0.000000 0.000000 0.000000 -0.105998 0.000000 0.176102
# 5 0.003432 -0.003431 0.011706 0.000000 0.045558 0.000000
# 6 0.000000 0.000000 0.000000 0.176102 0.000000 -0.172798
#
#
# Mechanical properties :
#
#
# Convention : Reuss Voigt Hill
#
# Bulk Modulus (GPa) = 29.64889 36.90967 33.27928
# Shear Modulus (GPa) = -28.12989 27.45328 -0.33831
#
# Velocity S-wave (km/s) = -3.53216 3.48942 -0.38736
# Velocity P-wave (km/s) = 1.86682 5.71008 3.81575
#
# Compressibility (1/GPa) = 0.03372808
#
# Stress axis : x y z
#
# Youngs Moduli (GPa) = 107.66023 70.73793 64.25372
#
# Poissons Ratio (x) = 0.11649 0.12614
# Poissons Ratio (y) = 0.17730 -0.06295
# Poissons Ratio (z) = 0.21135 -0.06931
#
# Static dielectric constant tensor:
#      x y z
#    x 1.845630 0.000000 -0.054150 
#    y 0.000000 1.879590 0.000000 
#    z -0.054150 0.000000 1.866610 
# 
# From -- ./inp_files/237694.got.cif
#   From: 2010.05.17/outbox.cif.g08.bks.cpg/sg12_119_cif.got.tgz:237694.got - 2010.06.03 13:09:07.
