data_PCOD9205333
_publ_section_title
;
Structure prediction by ZEFSAII (Michael W. Deem and Ramdas Pophale) SiO2 
 PCOD9205333
Probable space group: C 2/M
;
_chemical_formula_sum "Si O2"
_cell_formula_units_Z 52
_cell_length_a 11.987067
_cell_length_b 24.592855
_cell_length_c 9.380296
_cell_angle_alpha 90.000000
_cell_angle_beta 101.557205
_cell_angle_gamma 90.000000
_cell_volume 2709.210112
_symmetry_space_group_name_H-M "C 2/M"
_symmetry_group_IT_number 12
_symmetry_cell_setting 'monoclinic'
loop_
_space_group_symop_operation_xyz
x,y,z
-x,y,-z
-x,-y,-z
x,-y,z
1/2+x,1/2+y,z
1/2-x,1/2+y,-z
1/2-x,1/2-y,-z
1/2+x,1/2-y,z
loop_
_atom_site_type_symbol
_atom_site_label
_atom_site_fract_x
_atom_site_fract_y
_atom_site_fract_z
Si Si1 0.171634 0.185475 0.280437
Si Si2 0.659870 0.500000 0.215531
Si Si3 0.115831 0.911108 0.452324
Si Si4 0.892894 0.258644 0.367615
Si Si5 0.223588 0.856656 0.738211
Si Si6 0.636345 0.608009 0.024129
Si Si7 0.453970 0.203582 0.830397
O O1 0.100652 0.146075 0.364970
O O2 0.283505 0.206932 0.391651
O O3 0.196392 0.150877 0.145158
O O4 0.104178 0.237972 0.211897
O O5 0.653700 0.452923 0.341358
O O6 0.657433 0.548169 0.091861
O O7 0.201664 0.897480 0.602085
O O8 0.000000 0.928362 0.500000
O O9 0.845602 0.199929 0.306942
O O10 0.000000 0.253400 0.500000
O O11 0.941327 0.294496 0.250496
O O12 0.355796 0.840362 0.779679
O O13 0.178702 0.882143 0.874526
O O14 0.500000 0.618011 0.000000
O O15 0.500000 0.199200 0.000000
#
# Coordination Sequence:
#
# PCOD9205333 Si02
#       7
#     8   4   8   8   8   8   8
#     4  10  21  35  54  80 115 156 186 212 271 325
#     4  10  24  38  56  82 109 142 180 226 286 342
#     4  11  21  37  57  82 113 143 181 228 273 329
#     4  11  21  35  54  82 118 153 186 221 259 320
#     4  11  22  34  56  84 112 149 185 220 275 323
#     4  11  21  37  56  80 112 146 180 224 278 333
#     4  11  21  34  53  83 116 149 187 224 257 318
#
# _framework density 19.193787
#
# number of rings (size 3 to 8) (size 9 to 14) (size 15 to 20)
#    0.000    1.231    0.000    8.769    0.000    5.538 
#    0.000    0.000    0.000    0.000    0.000   67.846 
#    0.000    0.000    0.000    0.000    0.000    0.000 
#
# Total GULP energy -144734.621525 kJ/mol
# GULP energy per Si atom -5566.716212 kJ/mol
# Density = 1.915010 g / cm^3
# Si number density = 19.193787 Si / 1000 Ang^3
#
#
#
# Elastic Constant Matrix: (Units=GPa)
#
#
# Indices 1 2 3 4 5 6 
#
# 1 49.8896 25.8314 11.3929 0.0000 9.0292 0.0000
# 2 25.8314 98.2991 36.8830 0.0000 -2.6232 0.0000
# 3 11.3929 36.8830 115.4403 0.0000 -3.3511 0.0000
# 4 0.0000 0.0000 0.0000 16.1805 0.0000 -5.0343
# 5 9.0292 -2.6232 -3.3511 0.0000 28.2760 0.0000
# 6 0.0000 0.0000 0.0000 -5.0343 0.0000 0.3917
#
#
#
# Elastic Compliance Matrix: (Units=1/GPa)
#
#
# Indices 1 2 3 4 5 6 
#
# 1 0.025195 -0.006619 -0.000625 0.000000 -0.008734 0.000000
# 2 -0.006619 0.013309 -0.003514 0.000000 0.002932 0.000000
# 3 -0.000625 -0.003514 0.009877 0.000000 0.001044 0.000000
# 4 0.000000 0.000000 0.000000 -0.020608 0.000000 -0.264874
# 5 -0.008734 0.002932 0.001044 0.000000 0.038550 0.000000
# 6 0.000000 0.000000 0.000000 -0.264874 0.000000 -0.851318
#
#
# Mechanical properties :
#
#
# Convention : Reuss Voigt Hill
#
# Bulk Modulus (GPa) = 37.22378 45.76041 41.49209
# Shear Modulus (GPa) = -6.62670 21.60440 7.48885
#
# Velocity S-wave (km/s) = -1.86011 3.35863 1.97742
# Velocity P-wave (km/s) = 3.84999 6.23967 5.18440
#
# Compressibility (1/GPa) = 0.02686455
#
# Stress axis : x y z
#
# Youngs Moduli (GPa) = 39.69050 75.13609 101.24341
#
# Poissons Ratio (x) = 0.49735 0.06330
# Poissons Ratio (y) = 0.26272 0.35576
# Poissons Ratio (z) = 0.02481 0.26402
#
# Static dielectric constant tensor:
#      x y z
#    x 1.827540 0.000000 -0.123910 
#    y 0.000000 1.639580 0.000000 
#    z -0.123910 0.000000 1.822870 
# 
# From -- ./inp_files/52553.got.cif
#   From: 2010.05.17/outbox.cif.g08.bks.cpg/sg12_27_cif.got.tgz:52553.got - 2010.06.03 13:09:07.
