data_PCOD9205675
_publ_section_title
;
Structure prediction by ZEFSAII (Michael W. Deem and Ramdas Pophale) SiO2 
 PCOD9205675
Probable space group: C 2/M
;
_chemical_formula_sum "Si O2"
_cell_formula_units_Z 56
_cell_length_a 12.309280
_cell_length_b 20.182069
_cell_length_c 13.256055
_cell_angle_alpha 90.000000
_cell_angle_beta 66.570649
_cell_angle_gamma 90.000000
_cell_volume 3021.641071
_symmetry_space_group_name_H-M "C 2/M"
_symmetry_group_IT_number 12
_symmetry_cell_setting 'monoclinic'
loop_
_space_group_symop_operation_xyz
x,y,z
-x,y,-z
-x,-y,-z
x,-y,z
1/2+x,1/2+y,z
1/2-x,1/2+y,-z
1/2-x,1/2-y,-z
1/2+x,1/2-y,z
loop_
_atom_site_type_symbol
_atom_site_label
_atom_site_fract_x
_atom_site_fract_y
_atom_site_fract_z
Si Si1 0.495563 0.823097 0.725041
Si Si2 0.609395 0.209562 0.887329
Si Si3 0.689778 0.922603 0.279205
Si Si4 0.560877 0.634984 0.873480
Si Si5 0.638272 0.309594 0.429230
Si Si6 0.680271 0.164373 0.475783
Si Si7 0.631460 0.680330 0.208571
O O1 0.581951 0.823091 0.789158
O O2 0.399246 0.881027 0.758527
O O3 0.572289 0.827957 0.594247
O O4 0.427745 0.753027 0.757099
O O5 0.606043 0.289142 0.873406
O O6 0.736575 0.188732 0.883637
O O7 0.500000 0.193065 0.000000
O O8 0.825375 0.906816 0.200164
O O9 0.668509 0.892822 0.398827
O O10 0.665895 0.000000 0.283757
O O11 0.459159 0.639204 0.825675
O O12 0.500000 0.613007 0.000000
O O13 0.500000 0.304076 0.500000
O O14 0.690960 0.234483 0.412289
O O15 0.704693 0.344464 0.496867
O O16 0.650063 0.343088 0.316418
#
# Coordination Sequence:
#
# PCOD9205675 Si02
#       7
#     8   8   8   8   8   8   8
#     4  11  21  35  57  89 123 153 196 234 305 361
#     4  10  21  35  61  95 123 150 185 251 313 355
#     4  12  25  41  58  82 124 164 204 241 280 348
#     4  10  23  38  60  89 121 157 200 244 295 356
#     4  11  18  30  56  86 120 146 181 242 300 358
#     4  11  21  33  54  87 116 153 197 237 292 354
#     4  11  19  35  60  92 124 148 184 252 307 353
#
# _framework density 18.532975
#
# number of rings (size 3 to 8) (size 9 to 14) (size 15 to 20)
#    0.000    1.143    5.714    1.286    6.000    3.143 
#    0.000    0.000    0.000    5.143    0.000    0.000 
#    0.000    0.000    0.000    0.000    0.000    0.000 
#
# Total GULP energy -156395.407421 kJ/mol
# GULP energy per Si atom -5585.550265 kJ/mol
# Density = 1.849079 g / cm^3
# Si number density = 18.532975 Si / 1000 Ang^3
#
#
#
# Elastic Constant Matrix: (Units=GPa)
#
#
# Indices 1 2 3 4 5 6 
#
# 1 99.3823 8.8010 15.0220 0.0000 -7.6066 0.0000
# 2 8.8010 43.5985 13.2577 0.0000 3.2344 0.0000
# 3 15.0220 13.2577 87.2383 0.0000 -6.8276 0.0000
# 4 0.0000 0.0000 0.0000 11.6672 0.0000 -1.9717
# 5 -7.6066 3.2344 -6.8276 0.0000 32.6026 0.0000
# 6 0.0000 0.0000 0.0000 -1.9717 0.0000 10.3556
#
#
#
# Elastic Compliance Matrix: (Units=1/GPa)
#
#
# Indices 1 2 3 4 5 6 
#
# 1 0.010618 -0.001909 -0.001352 0.000000 0.002384 0.000000
# 2 -0.001909 0.024725 -0.003716 0.000000 -0.003677 0.000000
# 3 -0.001352 -0.003716 0.012469 0.000000 0.002665 0.000000
# 4 0.000000 0.000000 0.000000 0.088560 0.000000 0.016861
# 5 0.002384 -0.003677 0.002665 0.000000 0.032151 0.000000
# 6 0.000000 0.000000 0.000000 0.016861 0.000000 0.099777
#
#
# Mechanical properties :
#
#
# Convention : Reuss Voigt Hill
#
# Bulk Modulus (GPa) = 29.53590 33.82007 31.67798
# Shear Modulus (GPa) = 17.03346 23.80097 20.41722
#
# Velocity S-wave (km/s) = 3.03494 3.58753 3.32274
# Velocity P-wave (km/s) = 5.31532 5.95388 5.64364
#
# Compressibility (1/GPa) = 0.03385711
#
# Stress axis : x y z
#
# Youngs Moduli (GPa) = 94.17991 40.44513 80.19924
#
# Poissons Ratio (x) = 0.07722 0.10840
# Poissons Ratio (y) = 0.17981 0.29806
# Poissons Ratio (z) = 0.12730 0.15031
#
# Static dielectric constant tensor:
#      x y z
#    x 1.678540 0.000000 -0.001110 
#    y 0.000000 1.594230 0.000000 
#    z -0.001110 0.000000 1.697890 
# 
# From -- ./inp_files/206593.got.cif
#   From: 2010.05.17/outbox.cif.g08.bks.cpg/sg12_104_cif.got.tgz:206593.got - 2010.06.03 13:09:07.
