data_PCOD9205273
_publ_section_title
;
Structure prediction by ZEFSAII (Michael W. Deem and Ramdas Pophale) SiO2 
 PCOD9205273
Probable space group: C 2/M
;
_chemical_formula_sum "Si O2"
_cell_formula_units_Z 56
_cell_length_a 19.070355
_cell_length_b 8.726026
_cell_length_c 30.095242
_cell_angle_alpha 90.000000
_cell_angle_beta 37.448842
_cell_angle_gamma 90.000000
_cell_volume 3045.190229
_symmetry_space_group_name_H-M "C 2/M"
_symmetry_group_IT_number 12
_symmetry_cell_setting 'monoclinic'
loop_
_space_group_symop_operation_xyz
x,y,z
-x,y,-z
-x,-y,-z
x,-y,z
1/2+x,1/2+y,z
1/2-x,1/2+y,-z
1/2-x,1/2-y,-z
1/2+x,1/2-y,z
loop_
_atom_site_type_symbol
_atom_site_label
_atom_site_fract_x
_atom_site_fract_y
_atom_site_fract_z
Si Si1 0.453784 0.815734 0.300115
Si Si2 0.494447 0.815015 0.139684
Si Si3 0.878454 0.183933 0.431593
Si Si4 0.047041 0.815202 0.427558
Si Si5 0.080391 0.315172 0.999779
Si Si6 0.801064 0.182463 0.297901
Si Si7 0.834175 0.316550 0.867227
O O1 0.433794 0.746010 0.358380
O O2 0.358075 0.755570 0.313493
O O3 0.577795 0.773507 0.216569
O O4 0.446063 0.000000 0.305659
O O5 0.380471 0.739226 0.217208
O O6 0.598329 0.777132 0.121296
O O7 0.479706 0.000000 0.148136
O O8 0.528542 0.765548 0.073225
O O9 0.750000 0.250000 0.500000
O O10 0.956142 0.228203 0.435000
O O11 0.872638 0.000000 0.433176
O O12 0.170936 0.739531 0.358014
O O13 0.000000 0.773490 0.500000
O O14 0.060444 0.000000 0.419638
O O15 0.080573 0.500000 0.999918
O O16 0.210414 0.259775 0.928024
O O17 0.000000 0.261681 0.000000
O O18 0.805570 0.000000 0.299092
O O19 0.820413 0.500000 0.873054
#
# Coordination Sequence:
#
# PCOD9205273 Si02
#       7
#     8   8   8   8   8   8   8
#     4  10  21  39  60  83 116 151 184 229 286 341
#     4   9  19  37  57  78 109 147 184 224 279 339
#     4  11  23  38  60  88 116 150 191 233 278 331
#     4  10  22  40  60  82 113 153 188 224 279 336
#     4  10  21  35  53  79 110 144 182 228 279 331
#     4  11  22  36  59  88 113 143 189 238 280 330
#     4   9  19  35  56  79 104 142 185 226 274 328
#
# _framework density 18.389655999999999
#
# number of rings (size 3 to 8) (size 9 to 14) (size 15 to 20)
#    0.000    2.000    0.000    4.286    0.000    7.429 
#    0.000    4.286    0.000    0.000    0.000    0.000 
#    0.000    0.000    0.000    0.000    0.000    0.000 
#
# Total GULP energy -156425.090849 kJ/mol
# GULP energy per Si atom -5586.610387 kJ/mol
# Density = 1.834780 g / cm^3
# Si number density = 18.389656 Si / 1000 Ang^3
#
#
#
# Elastic Constant Matrix: (Units=GPa)
#
#
# Indices 1 2 3 4 5 6 
#
# 1 158.1739 56.0288 137.4981 0.0000 1.5331 0.0002
# 2 56.0288 44.1796 54.6532 0.0002 -2.3277 -0.0001
# 3 137.4981 54.6532 172.4318 0.0000 5.1624 0.0000
# 4 0.0000 0.0002 0.0000 30.8481 0.0000 -4.3918
# 5 1.5331 -2.3277 5.1624 0.0000 37.8363 0.0000
# 6 0.0002 -0.0001 0.0000 -4.3918 0.0000 26.5204
#
#
#
# Elastic Compliance Matrix: (Units=1/GPa)
#
#
# Indices 1 2 3 4 5 6 
#
# 1 0.023393 -0.010773 -0.015253 0.000000 0.000471 0.000000
# 2 -0.010773 0.042783 -0.005082 0.000000 0.003762 0.000000
# 3 -0.015253 -0.005082 0.019644 0.000000 -0.002375 0.000000
# 4 0.000000 0.000000 0.000000 0.033200 0.000000 0.005498
# 5 0.000471 0.003762 -0.002375 0.000000 0.026966 0.000000
# 6 0.000000 0.000000 0.000000 0.005498 0.000000 0.038617
#
#
# Mechanical properties :
#
#
# Convention : Reuss Voigt Hill
#
# Bulk Modulus (GPa) = 42.36774 96.79396 69.58085
# Shear Modulus (GPa) = 19.63181 27.48130 23.55656
#
# Velocity S-wave (km/s) = 3.27088 3.86993 3.58294
# Velocity P-wave (km/s) = 6.11177 8.52747 7.41861
#
# Compressibility (1/GPa) = 0.02360287
#
# Stress axis : x y z
#
# Youngs Moduli (GPa) = 42.74757 23.37388 50.90497
#
# Poissons Ratio (x) = 0.25181 0.77647
# Poissons Ratio (y) = 0.46052 0.25872
# Poissons Ratio (z) = 0.65204 0.11879
#
# Static dielectric constant tensor:
#      x y z
#    x 1.610810 0.000000 0.013690 
#    y 0.000000 1.618410 0.000000 
#    z 0.013690 0.000000 1.610030 
# 
# From -- ./inp_files/362938.got.cif
#   From: 2010.05.17/outbox.cif.g08.bks.cpg/sg12_182_cif.got.tgz:362938.got - 2010.06.03 13:09:07.
