data_PCOD9205211
_publ_section_title
;
Structure prediction by ZEFSAII (Michael W. Deem and Ramdas Pophale) SiO2 
 PCOD9205211
Probable space group: C 2/M
;
_chemical_formula_sum "Si O2"
_cell_formula_units_Z 64
_cell_length_a 19.084370
_cell_length_b 9.053374
_cell_length_c 31.776008
_cell_angle_alpha 90.000000
_cell_angle_beta 138.833185
_cell_angle_gamma 90.000000
_cell_volume 3613.939206
_symmetry_space_group_name_H-M "C 2/M"
_symmetry_group_IT_number 12
_symmetry_cell_setting 'monoclinic'
loop_
_space_group_symop_operation_xyz
x,y,z
-x,y,-z
-x,-y,-z
x,-y,z
1/2+x,1/2+y,z
1/2-x,1/2+y,-z
1/2-x,1/2-y,-z
1/2+x,1/2-y,z
loop_
_atom_site_type_symbol
_atom_site_label
_atom_site_fract_x
_atom_site_fract_y
_atom_site_fract_z
Si Si1 0.465841 0.178149 0.437535
Si Si2 0.365140 0.177937 0.557273
Si Si3 0.098771 0.824196 0.816963
Si Si4 0.761487 0.323942 0.675241
Si Si5 0.953206 0.676102 0.821349
Si Si6 0.324627 0.325506 0.926258
Si Si7 0.505934 0.325571 0.072199
Si Si8 0.065249 0.677235 0.317044
O O1 0.500000 0.224166 0.500000
O O2 0.553840 0.224186 0.442993
O O3 0.350072 0.241847 0.374996
O O4 0.460475 0.000000 0.434340
O O5 0.250000 0.250000 0.500000
O O6 0.411725 0.214971 0.624322
O O7 0.354223 0.000000 0.550455
O O8 0.037375 0.756874 0.829326
O O9 0.219406 0.768864 0.873197
O O10 0.035911 0.758885 0.748393
O O11 0.092514 0.000000 0.814323
O O12 0.743331 0.500000 0.666131
O O13 0.833059 0.285929 0.666534
O O14 0.836945 0.289584 0.749240
O O15 0.967952 0.500000 0.824664
O O16 0.968573 0.731526 0.875401
O O17 0.297659 0.500000 0.916870
O O18 0.402869 0.307357 0.921803
O O19 0.394861 0.286577 0.999049
O O20 0.501839 0.500000 0.081121
O O21 0.049227 0.500000 0.306282
#
# Coordination Sequence:
#
# PCOD9205211 Si02
#       8
#     8   8   8   8   8   8   8   8
#     4  10  21  35  52  78 109 137 169 212 261 310
#     4  10  21  36  55  79 106 139 177 216 262 314
#     4  11  22  35  55  82 108 140 184 225 267 325
#     4   9  19  35  54  75 100 135 175 212 257 312
#     4  10  21  37  56  80 112 144 176 222 274 320
#     4   9  19  37  57  78 109 144 178 223 275 322
#     4   9  19  36  58  81 105 141 185 222 266 326
#     4   9  19  37  56  75 104 140 177 219 269 318
#
# _framework density 17.709208
#
# number of rings (size 3 to 8) (size 9 to 14) (size 15 to 20)
#    0.000    2.375    0.000    3.750    0.000    6.250 
#    0.000    5.000    0.000    0.000    0.000    0.000 
#    0.000    0.000    0.000    0.000    0.000    0.000 
#
# Total GULP energy -178618.350646 kJ/mol
# GULP energy per Si atom -5581.823458 kJ/mol
# Density = 1.766890 g / cm^3
# Si number density = 17.709208 Si / 1000 Ang^3
#
#
#
# Elastic Constant Matrix: (Units=GPa)
#
#
# Indices 1 2 3 4 5 6 
#
# 1 97.9948 53.5788 99.7972 0.0000 -1.8428 0.0000
# 2 53.5788 60.1034 78.5796 0.0000 2.6612 0.0000
# 3 99.7972 78.5796 162.6067 0.0000 0.2875 0.0000
# 4 0.0000 0.0000 0.0000 36.1493 0.0000 2.6500
# 5 -1.8428 2.6612 0.2875 0.0000 38.8432 0.0000
# 6 0.0000 0.0000 0.0000 2.6500 0.0000 25.0337
#
#
#
# Elastic Compliance Matrix: (Units=1/GPa)
#
#
# Indices 1 2 3 4 5 6 
#
# 1 0.028351 -0.007077 -0.013983 0.000000 0.001933 0.000000
# 2 -0.007077 0.047291 -0.018504 0.000000 -0.003439 0.000000
# 3 -0.013983 -0.018504 0.023673 0.000000 0.000429 0.000000
# 4 0.000000 0.000000 0.000000 0.027879 0.000000 -0.002951
# 5 0.001933 -0.003439 0.000429 0.000000 0.026069 0.000000
# 6 0.000000 0.000000 0.000000 -0.002951 0.000000 0.040259
#
#
# Mechanical properties :
#
#
# Convention : Reuss Voigt Hill
#
# Bulk Modulus (GPa) = 49.53766 87.17959 68.35863
# Shear Modulus (GPa) = 17.89680 25.92184 21.90932
#
# Velocity S-wave (km/s) = 3.18243 3.83005 3.52116
# Velocity P-wave (km/s) = 6.44495 8.30026 7.43074
#
# Compressibility (1/GPa) = 0.02018666
#
# Stress axis : x y z
#
# Youngs Moduli (GPa) = 35.27229 21.14561 42.24168
#
# Poissons Ratio (x) = 0.14964 0.59069
# Poissons Ratio (y) = 0.24961 0.78165
# Poissons Ratio (z) = 0.49323 0.39128
#
# Static dielectric constant tensor:
#      x y z
#    x 1.587120 0.000000 -0.011790 
#    y 0.000000 1.588810 0.000000 
#    z -0.011790 0.000000 1.585530 
# 
# From -- ./inp_files/378470.got.cif
#   From: 2010.05.17/outbox.cif.g08.bks.cpg/sg12_190_cif.got.tgz:378470.got - 2010.06.03 13:09:07.
