data_PCOD9205398
_publ_section_title
;
Structure prediction by ZEFSAII (Michael W. Deem and Ramdas Pophale) SiO2 
 PCOD9205398
Probable space group: C 2/M
;
_chemical_formula_sum "Si O2"
_cell_formula_units_Z 56
_cell_length_a 14.161954
_cell_length_b 28.318989
_cell_length_c 6.657847
_cell_angle_alpha 90.000000
_cell_angle_beta 103.306717
_cell_angle_gamma 90.000000
_cell_volume 2598.456006
_symmetry_space_group_name_H-M "C 2/M"
_symmetry_group_IT_number 12
_symmetry_cell_setting 'monoclinic'
loop_
_space_group_symop_operation_xyz
x,y,z
-x,y,-z
-x,-y,-z
x,-y,z
1/2+x,1/2+y,z
1/2-x,1/2+y,-z
1/2-x,1/2-y,-z
1/2+x,1/2-y,z
loop_
_atom_site_type_symbol
_atom_site_label
_atom_site_fract_x
_atom_site_fract_y
_atom_site_fract_z
Si Si1 0.248844 0.105899 0.371147
Si Si2 0.241119 0.554317 0.014219
Si Si3 0.396417 0.229296 0.058649
Si Si4 0.894984 0.055549 0.392193
Si Si5 0.898216 0.182796 0.846659
Si Si6 0.340744 0.725052 0.427058
Si Si7 0.698321 0.146523 0.229158
O O1 0.181902 0.080250 0.502057
O O2 0.178782 0.141303 0.216401
O O3 0.324653 0.135073 0.546593
O O4 0.280343 0.067348 0.225448
O O5 0.214379 0.500000 0.046090
O O6 0.354134 0.559263 0.144874
O O7 0.193322 0.596112 0.118203
O O8 0.386288 0.238509 0.290089
O O9 0.500000 0.235548 0.000000
O O10 0.344232 0.275680 0.942977
O O11 0.360594 0.181330 0.943299
O O12 0.000000 0.075299 0.500000
O O13 0.896209 0.000000 0.440818
O O14 0.912984 0.205555 0.633232
O O15 0.000000 0.168565 0.000000
O O16 0.250000 0.750000 0.500000
O O17 0.298136 0.677008 0.304573
#
# Coordination Sequence:
#
# PCOD9205398 Si02
#       7
#     8   8   8   8   8   8   8
#     4  10  21  35  55  82 112 158 202 248 300 366
#     4  10  21  36  58  83 112 154 205 258 310 367
#     4  11  24  41  63  92 125 159 201 256 312 372
#     4   9  19  34  49  75 112 153 202 255 304 352
#     4  10  23  37  53  87 123 162 202 250 300 361
#     4  11  22  40  66  90 125 170 210 253 304 370
#     4  10  22  39  64  87 121 157 204 255 308 372
#
# _framework density 21.551259999999999
#
# number of rings (size 3 to 8) (size 9 to 14) (size 15 to 20)
#    0.000    1.857    1.429    1.714    6.000    2.857 
#    5.143    2.143    0.000    0.429    0.000    1.000 
#    0.000    0.000    0.000    0.000    0.000    0.000 
#
# Total GULP energy -155938.154525 kJ/mol
# GULP energy per Si atom -5569.219804 kJ/mol
# Density = 2.150221 g / cm^3
# Si number density = 21.551260 Si / 1000 Ang^3
#
#
#
# Elastic Constant Matrix: (Units=GPa)
#
#
# Indices 1 2 3 4 5 6 
#
# 1 25.2461 11.6631 21.4698 0.0000 -8.7462 0.0000
# 2 11.6631 130.0997 47.9695 0.0000 -6.8197 0.0000
# 3 21.4698 47.9695 114.9635 0.0000 -9.8759 0.0000
# 4 0.0000 0.0000 0.0000 47.7505 0.0000 -5.8345
# 5 -8.7462 -6.8197 -9.8759 0.0000 17.6023 0.0000
# 6 0.0000 0.0000 0.0000 -5.8345 0.0000 16.8042
#
#
#
# Elastic Compliance Matrix: (Units=1/GPa)
#
#
# Indices 1 2 3 4 5 6 
#
# 1 0.054436 -0.000791 -0.007921 0.000000 0.022298 0.000000
# 2 -0.000791 0.009131 -0.003564 0.000000 0.001145 0.000000
# 3 -0.007921 -0.003564 0.011776 0.000000 0.001290 0.000000
# 4 0.000000 0.000000 0.000000 0.021870 0.000000 0.007593
# 5 0.022298 0.001145 0.001290 0.000000 0.069058 0.000000
# 6 0.000000 0.000000 0.000000 0.007593 0.000000 0.062145
#
#
# Mechanical properties :
#
#
# Convention : Reuss Voigt Hill
#
# Bulk Modulus (GPa) = 19.68809 48.05714 33.87261
# Shear Modulus (GPa) = 18.52551 29.04521 23.78536
#
# Velocity S-wave (km/s) = 2.93508 3.67512 3.32575
# Velocity P-wave (km/s) = 4.54330 6.35265 5.52257
#
# Compressibility (1/GPa) = 0.05079214
#
# Stress axis : x y z
#
# Youngs Moduli (GPa) = 18.37011 109.51126 84.92105
#
# Poissons Ratio (x) = 0.08660 0.67264
# Poissons Ratio (y) = 0.01453 0.30267
# Poissons Ratio (z) = 0.14550 0.39031
#
# Static dielectric constant tensor:
#      x y z
#    x 1.860070 0.000000 0.028160 
#    y 0.000000 1.824740 0.000000 
#    z 0.028160 0.000000 1.915490 
# 
# From -- ./inp_files/18171.got.cif
#   From: 2010.05.17/outbox.cif.g08.bks.cpg/sg12_10_cif.got.tgz:18171.got - 2010.06.03 13:09:07.
