data_PCOD9205742
_publ_section_title
;
Structure prediction by ZEFSAII (Michael W. Deem and Ramdas Pophale) SiO2 
 PCOD9205742
Probable space group: C 2/M
;
_chemical_formula_sum "Si O2"
_cell_formula_units_Z 64
_cell_length_a 26.677590
_cell_length_b 14.288111
_cell_length_c 10.016952
_cell_angle_alpha 90.000000
_cell_angle_beta 109.463207
_cell_angle_gamma 90.000000
_cell_volume 3599.997602
_symmetry_space_group_name_H-M "C 2/M"
_symmetry_group_IT_number 12
_symmetry_cell_setting 'monoclinic'
loop_
_space_group_symop_operation_xyz
x,y,z
-x,y,-z
-x,-y,-z
x,-y,z
1/2+x,1/2+y,z
1/2-x,1/2+y,-z
1/2-x,1/2-y,-z
1/2+x,1/2-y,z
loop_
_atom_site_type_symbol
_atom_site_label
_atom_site_fract_x
_atom_site_fract_y
_atom_site_fract_z
Si Si1 0.874148 0.701733 0.041366
Si Si2 0.674701 0.109962 0.261142
Si Si3 0.948470 0.390602 0.546660
Si Si4 0.300974 0.394341 0.336306
Si Si5 0.327255 0.392728 0.047140
Si Si6 0.839978 0.703184 0.465178
Si Si7 0.484253 0.889862 0.138235
Si Si8 0.709582 0.888835 0.828021
O O1 0.859323 0.656702 0.885919
O O2 0.866864 0.813017 0.033372
O O3 0.932916 0.669512 0.131705
O O4 0.831407 0.660925 0.108359
O O5 0.737139 0.116597 0.279766
O O6 0.666670 0.160963 0.394233
O O7 0.660845 0.000000 0.260055
O O8 0.932257 0.500000 0.517166
O O9 0.899094 0.324822 0.470391
O O10 0.000000 0.376183 0.500000
O O11 0.967989 0.375191 0.715659
O O12 0.312666 0.500000 0.393327
O O13 0.320308 0.385167 0.200784
O O14 0.327610 0.312814 0.445590
O O15 0.341904 0.500000 0.028558
O O16 0.269431 0.373309 0.931672
O O17 0.799846 0.653287 0.326368
O O18 0.469916 0.000000 0.134787
O O19 0.500000 0.869870 0.000000
O O20 0.699504 0.000000 0.820012
#
# Coordination Sequence:
#
# PCOD9205742 Si02
#       8
#     8   8   8   8   8   8   8   8
#     4  12  20  35  60  82 107 150 190 220 272 330
#     4  11  22  35  54  85 121 147 175 221 278 336
#     4  10  21  36  52  76 111 141 175 229 281 322
#     4  10  21  38  56  80 113 148 186 230 272 317
#     4  10  21  37  56  83 114 142 186 238 269 309
#     4  12  22  36  56  81 112 152 185 221 275 335
#     4  10  21  36  55  80 109 141 179 223 273 331
#     4  11  20  32  55  85 113 143 185 226 268 331
#
# _framework density 17.777788999999999
#
# number of rings (size 3 to 8) (size 9 to 14) (size 15 to 20)
#    0.000    1.250    2.500    5.250    0.000    2.000 
#    0.000    1.875    0.000    1.500    0.000    0.000 
#    0.000    0.000    0.000    0.000    0.000    0.000 
#
# Total GULP energy -178902.212025 kJ/mol
# GULP energy per Si atom -5590.694126 kJ/mol
# Density = 1.773733 g / cm^3
# Si number density = 17.777789 Si / 1000 Ang^3
#
#
#
# Elastic Constant Matrix: (Units=GPa)
#
#
# Indices 1 2 3 4 5 6 
#
# 1 30.8632 32.1688 -7.9620 0.0000 12.2918 0.0000
# 2 32.1688 102.0793 19.2787 0.0000 12.7309 0.0000
# 3 -7.9620 19.2787 63.1223 0.0000 -9.4709 0.0000
# 4 0.0000 0.0000 0.0000 17.9141 0.0000 -2.0170
# 5 12.2918 12.7309 -9.4709 0.0000 15.2520 0.0000
# 6 0.0000 0.0000 0.0000 -2.0170 0.0000 26.1907
#
#
#
# Elastic Compliance Matrix: (Units=1/GPa)
#
#
# Indices 1 2 3 4 5 6 
#
# 1 0.067767 -0.019038 0.009431 0.000000 -0.032867 0.000000
# 2 -0.019038 0.018080 -0.008696 0.000000 -0.005149 0.000000
# 3 0.009431 -0.008696 0.021654 0.000000 0.013104 0.000000
# 4 0.000000 0.000000 0.000000 0.056310 0.000000 0.004337
# 5 -0.032867 -0.005149 0.013104 0.000000 0.104487 0.000000
# 6 0.000000 0.000000 0.000000 0.004337 0.000000 0.038515
#
#
# Mechanical properties :
#
#
# Convention : Reuss Voigt Hill
#
# Bulk Modulus (GPa) = 14.10520 31.44841 22.77681
# Shear Modulus (GPa) = 13.62204 22.04333 17.83268
#
# Velocity S-wave (km/s) = 2.77111 3.52509 3.17059
# Velocity P-wave (km/s) = 4.26499 5.85632 5.12282
#
# Compressibility (1/GPa) = 0.07089584
#
# Stress axis : x y z
#
# Youngs Moduli (GPa) = 14.75638 55.30890 46.18099
#
# Poissons Ratio (x) = 1.05297 -0.43554
# Poissons Ratio (y) = 0.28093 0.40159
# Poissons Ratio (z) = -0.13917 0.48096
#
# Static dielectric constant tensor:
#      x y z
#    x 1.595970 0.000000 -0.017170 
#    y 0.000000 1.605630 0.000000 
#    z -0.017170 0.000000 1.609110 
# 
# From -- ./inp_files/104497.got.cif
#   From: 2010.05.17/outbox.cif.g08.bks.cpg/sg12_53_cif.got.tgz:104497.got - 2010.06.03 13:09:07.
