data_PCOD9205382
_publ_section_title
;
Structure prediction by ZEFSAII (Michael W. Deem and Ramdas Pophale) SiO2 
 PCOD9205382
Probable space group: C 2/M
;
_chemical_formula_sum "Si O2"
_cell_formula_units_Z 56
_cell_length_a 13.737829
_cell_length_b 19.156521
_cell_length_c 20.715697
_cell_angle_alpha 90.000000
_cell_angle_beta 31.789604
_cell_angle_gamma 90.000000
_cell_volume 2871.979688
_symmetry_space_group_name_H-M "C 2/M"
_symmetry_group_IT_number 12
_symmetry_cell_setting 'monoclinic'
loop_
_space_group_symop_operation_xyz
x,y,z
-x,y,-z
-x,-y,-z
x,-y,z
1/2+x,1/2+y,z
1/2-x,1/2+y,-z
1/2-x,1/2-y,-z
1/2+x,1/2-y,z
loop_
_atom_site_type_symbol
_atom_site_label
_atom_site_fract_x
_atom_site_fract_y
_atom_site_fract_z
Si Si1 0.805026 0.330675 0.475588
Si Si2 0.598313 0.782484 0.845024
Si Si3 0.703521 0.137714 0.297677
Si Si4 0.208434 0.806414 0.128682
Si Si5 0.026304 0.332207 0.754444
Si Si6 0.083546 0.917267 0.701051
Si Si7 0.703743 0.579825 0.888685
O O1 0.750000 0.250000 0.500000
O O2 0.655911 0.378211 0.595871
O O3 0.992967 0.336340 0.411807
O O4 0.852636 0.353131 0.375550
O O5 0.666833 0.704809 0.789063
O O6 0.711292 0.805586 0.844125
O O7 0.627516 0.829848 0.765486
O O8 0.381605 0.787642 0.985498
O O9 0.770151 0.100946 0.324887
O O10 0.724267 0.086392 0.224936
O O11 0.054458 0.745863 0.210866
O O12 0.107723 0.879288 0.171568
O O13 0.844368 0.379904 0.854901
O O14 0.067456 0.000000 0.702261
O O15 0.687321 0.500000 0.918594
O O16 0.500000 0.612541 0.000000
#
# Coordination Sequence:
#
# PCOD9205382 Si02
#       7
#     8   8   8   8   8   8   8
#     4  11  21  40  62  89 127 165 214 262 312 380
#     4  11  21  38  67  98 124 164 215 268 321 384
#     4  11  21  37  64  93 127 162 211 263 324 384
#     4  11  22  40  64  94 131 167 214 266 316 386
#     4  11  21  36  63  89 122 159 210 258 318 376
#     4  12  26  42  62  93 133 177 217 268 330 382
#     4  10  21  35  54  88 129 159 196 250 316 388
#
# _framework density 19.498745
#
# number of rings (size 3 to 8) (size 9 to 14) (size 15 to 20)
#    0.000    1.000    5.714    2.143    2.000    3.429 
#    0.000    2.857    0.000    0.857    0.000    0.000 
#    0.000    0.000    0.000    0.000    0.000    0.000 
#
# Total GULP energy -156392.478428 kJ/mol
# GULP energy per Si atom -5585.445658 kJ/mol
# Density = 1.945437 g / cm^3
# Si number density = 19.498745 Si / 1000 Ang^3
#
#
#
# Elastic Constant Matrix: (Units=GPa)
#
#
# Indices 1 2 3 4 5 6 
#
# 1 64.4808 5.7063 -6.1297 0.0013 11.5802 0.0015
# 2 5.7063 98.5807 17.5743 -0.0010 -10.8401 0.0028
# 3 -6.1297 17.5743 57.6828 0.0052 -8.5138 -0.0027
# 4 0.0013 -0.0010 0.0052 17.5201 -0.0041 -0.5631
# 5 11.5802 -10.8401 -8.5138 -0.0041 25.3075 -0.0001
# 6 0.0015 0.0028 -0.0027 -0.5631 -0.0001 22.5166
#
#
#
# Elastic Compliance Matrix: (Units=1/GPa)
#
#
# Indices 1 2 3 4 5 6 
#
# 1 0.017333 -0.002154 0.001254 -0.000004 -0.008432 -0.000001
# 2 -0.002154 0.011330 -0.002966 0.000003 0.004841 -0.000002
# 3 0.001254 -0.002966 0.019047 -0.000005 0.004563 0.000002
# 4 -0.000004 0.000003 -0.000005 0.057123 0.000011 0.001429
# 5 -0.008432 0.004841 0.004563 0.000011 0.046981 0.000001
# 6 -0.000001 -0.000002 0.000002 0.001429 0.000001 0.044447
#
#
# Mechanical properties :
#
#
# Convention : Reuss Voigt Hill
#
# Bulk Modulus (GPa) = 25.01520 28.33846 26.67683
# Shear Modulus (GPa) = 23.00765 26.64174 24.82470
#
# Velocity S-wave (km/s) = 3.43877 3.70040 3.57198
# Velocity P-wave (km/s) = 5.35013 5.72908 5.54284
#
# Compressibility (1/GPa) = 0.03997570
#
# Stress axis : x y z
#
# Youngs Moduli (GPa) = 57.69478 88.26323 52.50256
#
# Poissons Ratio (x) = 0.19012 -0.06582
# Poissons Ratio (y) = 0.12427 0.15574
# Poissons Ratio (z) = -0.07232 0.26181
#
# Static dielectric constant tensor:
#      x y z
#    x 1.684140 0.000000 0.010260 
#    y 0.000000 1.659650 0.000000 
#    z 0.010260 0.000000 1.744040 
# 
# From -- ./inp_files/311695.got.cif
#   From: 2010.05.17/outbox.cif.g08.bks.cpg/sg12_156_cif.got.tgz:311695.got - 2010.06.03 13:09:07.
