data_PCOD9205039
_publ_section_title
;
Structure prediction by ZEFSAII (Michael W. Deem and Ramdas Pophale) SiO2 
 PCOD9205039
Probable space group: C 2/M
;
_chemical_formula_sum "Si O2"
_cell_formula_units_Z 48
_cell_length_a 17.068922
_cell_length_b 26.521017
_cell_length_c 5.552464
_cell_angle_alpha 90.000000
_cell_angle_beta 78.208241
_cell_angle_gamma 90.000000
_cell_volume 2460.474817
_symmetry_space_group_name_H-M "C 2/M"
_symmetry_group_IT_number 12
_symmetry_cell_setting 'monoclinic'
loop_
_space_group_symop_operation_xyz
x,y,z
-x,y,-z
-x,-y,-z
x,-y,z
1/2+x,1/2+y,z
1/2-x,1/2+y,-z
1/2-x,1/2-y,-z
1/2+x,1/2-y,z
loop_
_atom_site_type_symbol
_atom_site_label
_atom_site_fract_x
_atom_site_fract_y
_atom_site_fract_z
Si Si1 0.713122 0.784117 0.314470
Si Si2 0.174941 0.440323 0.352059
Si Si3 0.000000 0.775605 0.000000
Si Si4 0.778300 0.386838 0.173701
Si Si5 0.087249 0.319934 0.736163
Si Si6 0.000000 0.396007 0.500000
Si Si7 0.844417 0.814241 0.908086
O O1 0.750000 0.750000 0.500000
O O2 0.640235 0.815785 0.462024
O O3 0.676457 0.742345 0.163097
O O4 0.785833 0.817718 0.175143
O O5 0.187800 0.500000 0.350301
O O6 0.207016 0.416786 0.585759
O O7 0.079746 0.428132 0.409187
O O8 0.211469 0.418752 0.078046
O O9 0.947073 0.735313 0.185615
O O10 0.062147 0.811125 0.100554
O O11 0.847983 0.343389 0.122094
O O12 0.693626 0.357171 0.234624
O O13 0.018120 0.359180 0.715048
#
# Coordination Sequence:
#
# PCOD9205039 Si02
#       7
#     8   8   4   8   8   4   8
#     4  11  19  36  54  76 118 167 208 240 262 340
#     4  11  24  42  63  88 112 147 193 255 312 361
#     4  12  22  32  52  86 126 156 200 248 278 334
#     4  11  23  40  63  82 117 155 203 239 290 367
#     4  11  20  36  55  85 123 170 201 229 285 337
#     4  10  21  34  58  88 122 154 192 242 291 364
#     4  11  22  35  54  84 114 159 207 244 292 332
#
# _framework density 19.508430000000001
#
# number of rings (size 3 to 8) (size 9 to 14) (size 15 to 20)
#    0.000    1.000    3.333    5.750    0.000    2.000 
#    0.000    4.167    0.000    0.000    0.000    3.500 
#    0.000    0.000    0.000    0.000    0.000    0.000 
#
# Total GULP energy -133936.712534 kJ/mol
# GULP energy per Si atom -5580.696356 kJ/mol
# Density = 1.946403 g / cm^3
# Si number density = 19.508430 Si / 1000 Ang^3
#
#
#
# Elastic Constant Matrix: (Units=GPa)
#
#
# Indices 1 2 3 4 5 6 
#
# 1 135.4491 58.7652 30.1619 0.0000 23.1484 0.0000
# 2 58.7652 117.9686 45.6926 0.0000 10.8139 0.0000
# 3 30.1619 45.6926 92.3757 0.0000 8.9454 0.0000
# 4 0.0000 0.0000 0.0000 33.7944 0.0000 1.2346
# 5 23.1484 10.8139 8.9454 0.0000 22.7857 0.0000
# 6 0.0000 0.0000 0.0000 1.2346 0.0000 24.6177
#
#
#
# Elastic Compliance Matrix: (Units=1/GPa)
#
#
# Indices 1 2 3 4 5 6 
#
# 1 0.010925 -0.004434 -0.000523 0.000000 -0.008789 0.000000
# 2 -0.004434 0.012494 -0.004776 0.000000 0.000450 0.000000
# 3 -0.000523 -0.004776 0.013605 0.000000 -0.002543 0.000000
# 4 0.000000 0.000000 0.000000 0.029645 0.000000 -0.001487
# 5 -0.008789 0.000450 -0.002543 0.000000 0.053601 0.000000
# 6 0.000000 0.000000 0.000000 -0.001487 0.000000 0.040696
#
#
# Mechanical properties :
#
#
# Convention : Reuss Voigt Hill
#
# Bulk Modulus (GPa) = 56.95252 68.33698 62.64475
# Shear Modulus (GPa) = 26.84064 30.31780 28.57922
#
# Velocity S-wave (km/s) = 3.71327 3.94647 3.83164
# Velocity P-wave (km/s) = 6.90229 7.47473 7.19421
#
# Compressibility (1/GPa) = 0.01755849
#
# Stress axis : x y z
#
# Youngs Moduli (GPa) = 91.53214 80.03686 73.50398
#
# Poissons Ratio (x) = 0.35489 0.03843
# Poissons Ratio (y) = 0.40586 0.35105
# Poissons Ratio (z) = 0.04785 0.38225
#
# Static dielectric constant tensor:
#      x y z
#    x 1.718750 0.000000 0.008790 
#    y 0.000000 1.702750 0.000000 
#    z 0.008790 0.000000 1.824300 
# 
# From -- ./inp_files/12859.got.cif
#   From: 2010.05.17/outbox.cif.g08.bks.cpg/sg12_7_cif.got.tgz:12859.got - 2010.06.03 13:09:07.
