data_PCOD9205992
_publ_section_title
;
Structure prediction by ZEFSAII (Michael W. Deem and Ramdas Pophale) SiO2 
 PCOD9205992
Probable space group: C 2/M
;
_chemical_formula_sum "Si O2"
_cell_formula_units_Z 32
_cell_length_a 23.174553
_cell_length_b 11.000735
_cell_length_c 6.809759
_cell_angle_alpha 90.000000
_cell_angle_beta 124.062300
_cell_angle_gamma 90.000000
_cell_volume 1438.202803
_symmetry_space_group_name_H-M "C 2/M"
_symmetry_group_IT_number 12
_symmetry_cell_setting 'monoclinic'
loop_
_space_group_symop_operation_xyz
x,y,z
-x,y,-z
-x,-y,-z
x,-y,z
1/2+x,1/2+y,z
1/2-x,1/2+y,-z
1/2-x,1/2-y,-z
1/2+x,1/2-y,z
loop_
_atom_site_type_symbol
_atom_site_label
_atom_site_fract_x
_atom_site_fract_y
_atom_site_fract_z
Si Si1 0.943160 0.862295 0.676915
Si Si2 0.809243 0.630792 0.034706
Si Si3 0.801068 0.756236 0.413669
Si Si4 0.403891 0.360470 0.139337
O O1 0.879255 0.782683 0.632447
O O2 0.927152 0.862334 0.411994
O O3 0.025061 0.832760 0.845961
O O4 0.933790 0.000000 0.727502
O O5 0.841199 0.500000 0.050045
O O6 0.802946 0.647570 0.257977
O O7 0.851194 0.747260 0.032828
O O8 0.733336 0.639356 0.789890
O O9 0.750000 0.750000 0.500000
O O10 0.379945 0.500000 0.048983
#
# Coordination Sequence:
#
# PCOD9205992 Si02
#       4
#     8   8   8   8
#     4   8  14  29  54  78 101 139 189 231 267 320
#     4  10  21  36  57  85 113 143 182 232 285 331
#     4  10  21  36  55  80 114 151 187 226 276 336
#     4   8  15  31  55  79 105 141 184 228 275 329
#
# _framework density 22.249993
#
# number of rings (size 3 to 8) (size 9 to 14) (size 15 to 20)
#    0.000    3.000    0.000    2.250    0.000    8.000 
#    0.000   11.250    0.000    4.500    0.000    0.000 
#    0.000    0.000    0.000    0.000    0.000    0.000 
#
# Total GULP energy -89199.634086 kJ/mol
# GULP energy per Si atom -5574.977130 kJ/mol
# Density = 2.219935 g / cm^3
# Si number density = 22.249993 Si / 1000 Ang^3
#
#
#
# Elastic Constant Matrix: (Units=GPa)
#
#
# Indices 1 2 3 4 5 6 
#
# 1 159.1724 57.1914 33.1088 0.0000 -2.0110 0.0000
# 2 57.1914 143.1080 30.3289 0.0000 19.2673 0.0000
# 3 33.1088 30.3289 98.8143 0.0000 8.7257 0.0000
# 4 0.0000 0.0000 0.0000 6.1032 0.0000 7.3462
# 5 -2.0110 19.2673 8.7257 0.0000 41.4340 0.0000
# 6 0.0000 0.0000 0.0000 7.3462 0.0000 18.7580
#
#
#
# Elastic Compliance Matrix: (Units=1/GPa)
#
#
# Indices 1 2 3 4 5 6 
#
# 1 0.007779 -0.003003 -0.001876 0.000000 0.002169 0.000000
# 2 -0.003003 0.009032 -0.001408 0.000000 -0.004049 0.000000
# 3 -0.001876 -0.001408 0.011342 0.000000 -0.001825 0.000000
# 4 0.000000 0.000000 0.000000 0.309962 0.000000 -0.121391
# 5 0.002169 -0.004049 -0.001825 0.000000 0.026507 0.000000
# 6 0.000000 0.000000 0.000000 -0.121391 0.000000 0.100851
#
#
# Mechanical properties :
#
#
# Convention : Reuss Voigt Hill
#
# Bulk Modulus (GPa) = 64.19623 71.37254 67.78438
# Shear Modulus (GPa) = 10.34680 31.95675 21.15177
#
# Velocity S-wave (km/s) = 2.15878 3.79391 3.08659
# Velocity P-wave (km/s) = 5.92694 7.16512 6.57524
#
# Compressibility (1/GPa) = 0.01557724
#
# Stress axis : x y z
#
# Youngs Moduli (GPa) = 128.54645 110.72299 88.16778
#
# Poissons Ratio (x) = 0.33254 0.16543
# Poissons Ratio (y) = 0.38607 0.12416
# Poissons Ratio (z) = 0.24119 0.15592
#
# Static dielectric constant tensor:
#      x y z
#    x 1.930110 0.000000 -0.034720 
#    y 0.000000 1.806750 0.000000 
#    z -0.034720 0.000000 1.912790 
# 
# From -- ./inp_files/100743.got.cif
#   From: 2010.05.17/outbox.cif.g08.bks.cpg/sg12_51_cif.got.tgz:100743.got - 2010.06.03 13:09:07.
