data_PCOD9205773
_publ_section_title
;
Structure prediction by ZEFSAII (Michael W. Deem and Ramdas Pophale) SiO2 
 PCOD9205773
Probable space group: C 2/M
;
_chemical_formula_sum "Si O2"
_cell_formula_units_Z 56
_cell_length_a 27.816344
_cell_length_b 13.672772
_cell_length_c 13.574280
_cell_angle_alpha 90.000000
_cell_angle_beta 145.922857
_cell_angle_gamma 90.000000
_cell_volume 2892.682187
_symmetry_space_group_name_H-M "C 2/M"
_symmetry_group_IT_number 12
_symmetry_cell_setting 'monoclinic'
loop_
_space_group_symop_operation_xyz
x,y,z
-x,y,-z
-x,-y,-z
x,-y,z
1/2+x,1/2+y,z
1/2-x,1/2+y,-z
1/2-x,1/2-y,-z
1/2+x,1/2-y,z
loop_
_atom_site_type_symbol
_atom_site_label
_atom_site_fract_x
_atom_site_fract_y
_atom_site_fract_z
Si Si1 0.081458 0.384727 0.018779
Si Si2 0.033234 0.218374 0.244541
Si Si3 0.462115 0.764570 0.534849
Si Si4 0.850158 0.116159 0.920677
Si Si5 0.203430 0.382494 0.819337
Si Si6 0.371169 0.114808 0.112098
Si Si7 0.162767 0.226887 0.297185
O O1 0.070009 0.500000 0.018332
O O2 0.120194 0.322744 0.173963
O O3 0.143454 0.371458 0.028572
O O4 0.995140 0.329180 0.835618
O O5 0.066104 0.211025 0.412398
O O6 0.097141 0.185529 0.267323
O O7 0.944819 0.159176 0.092874
O O8 0.500000 0.712895 0.500000
O O9 0.382097 0.831394 0.367223
O O10 0.544324 0.826948 0.711182
O O11 0.786832 0.149596 0.900549
O O12 0.819345 0.154107 0.762592
O O13 0.853243 0.000000 0.927874
O O14 0.195812 0.500000 0.793332
O O15 0.203581 0.362373 0.936909
O O16 0.391319 0.000000 0.158055
O O17 0.250000 0.250000 0.500000
#
# Coordination Sequence:
#
# PCOD9205773 Si02
#       7
#     8   8   8   8   8   8   8
#     4   9  18  34  55  78 104 133 162 198 255 314
#     4  10  21  36  53  75 103 133 169 211 249 297
#     4   9  16  29  49  76 106 133 159 198 259 313
#     4  10  21  37  55  73  98 138 181 212 244 290
#     4   9  16  28  50  79 105 130 166 211 253 297
#     4   8  14  26  47  76 107 134 161 199 251 309
#     4  11  23  37  52  75 104 130 167 215 256 298
#
# _framework density 19.359196000000001
#
# number of rings (size 3 to 8) (size 9 to 14) (size 15 to 20)
#    0.000    2.571    0.000    3.000    0.000    5.143 
#    0.000   12.857    0.000    0.429    0.000    0.000 
#    0.000    0.000    0.000    0.000    0.000    0.000 
#
# Total GULP energy -155996.801325 kJ/mol
# GULP energy per Si atom -5571.314333 kJ/mol
# Density = 1.931513 g / cm^3
# Si number density = 19.359196 Si / 1000 Ang^3
#
#
#
# Elastic Constant Matrix: (Units=GPa)
#
#
# Indices 1 2 3 4 5 6 
#
# 1 189.8187 8.9512 35.3535 0.0000 4.6697 0.0000
# 2 8.9512 41.0532 -11.5187 0.0000 1.1105 0.0000
# 3 35.3535 -11.5187 39.5767 0.0000 -2.5246 0.0000
# 4 0.0000 0.0000 0.0000 9.3462 0.0000 1.9186
# 5 4.6697 1.1105 -2.5246 0.0000 36.2898 0.0000
# 6 0.0000 0.0000 0.0000 1.9186 0.0000 26.0441
#
#
#
# Elastic Compliance Matrix: (Units=1/GPa)
#
#
# Indices 1 2 3 4 5 6 
#
# 1 0.006795 -0.003455 -0.007157 0.000000 -0.001267 0.000000
# 2 -0.003455 0.028284 0.011342 0.000000 0.000368 0.000000
# 3 -0.007157 0.011342 0.035154 0.000000 0.003019 0.000000
# 4 0.000000 0.000000 0.000000 0.108638 0.000000 -0.008003
# 5 -0.001267 0.000368 0.003019 0.000000 0.027918 0.000000
# 6 0.000000 0.000000 0.000000 -0.008003 0.000000 0.038986
#
#
# Mechanical properties :
#
#
# Convention : Reuss Voigt Hill
#
# Bulk Modulus (GPa) = 13.94808 37.33562 25.64185
# Shear Modulus (GPa) = 18.64196 30.18022 24.41109
#
# Velocity S-wave (km/s) = 3.10651 3.95265 3.55485
# Velocity P-wave (km/s) = 4.48194 6.33710 5.48847
#
# Compressibility (1/GPa) = 0.07169444
#
# Stress axis : x y z
#
# Youngs Moduli (GPa) = 147.16319 35.35509 28.44626
#
# Poissons Ratio (x) = 0.12216 0.20358
# Poissons Ratio (y) = 0.50850 -0.32264
# Poissons Ratio (z) = 1.05318 -0.40101
#
# Static dielectric constant tensor:
#      x y z
#    x 1.779740 0.000000 -0.016570 
#    y 0.000000 1.692330 0.000000 
#    z -0.016570 0.000000 1.654780 
# 
# From -- ./inp_files/246623.got.cif
#   From: 2010.05.17/outbox.cif.g08.bks.cpg/sg12_124_cif.got.tgz:246623.got - 2010.06.03 13:09:07.
