data_PCOD9205886
_publ_section_title
;
Structure prediction by ZEFSAII (Michael W. Deem and Ramdas Pophale) SiO2 
 PCOD9205886
Probable space group: C 2/M
;
_chemical_formula_sum "Si O2"
_cell_formula_units_Z 48
_cell_length_a 8.560426
_cell_length_b 19.645432
_cell_length_c 20.079291
_cell_angle_alpha 90.000000
_cell_angle_beta 129.754276
_cell_angle_gamma 90.000000
_cell_volume 2596.063918
_symmetry_space_group_name_H-M "C 2/M"
_symmetry_group_IT_number 12
_symmetry_cell_setting 'monoclinic'
loop_
_space_group_symop_operation_xyz
x,y,z
-x,y,-z
-x,-y,-z
x,-y,z
1/2+x,1/2+y,z
1/2-x,1/2+y,-z
1/2-x,1/2-y,-z
1/2+x,1/2-y,z
loop_
_atom_site_type_symbol
_atom_site_label
_atom_site_fract_x
_atom_site_fract_y
_atom_site_fract_z
Si Si1 0.791292 0.824311 0.403316
Si Si2 0.418657 0.824311 0.403316
Si Si3 0.571547 0.578700 0.254874
Si Si4 0.193074 0.578700 0.254874
Si Si5 0.336937 0.675200 0.098955
Si Si6 0.959927 0.324800 0.098955
O O1 0.608481 0.821833 0.405654
O O2 0.814209 0.750000 0.376139
O O3 0.749710 0.880967 0.336834
O O4 0.000000 0.837228 0.500000
O O5 0.500000 0.837228 0.500000
O O6 0.260793 0.880967 0.336834
O O7 0.617790 0.500000 0.253510
O O8 0.388196 0.580751 0.258797
O O9 0.491104 0.619043 0.168277
O O10 0.142741 0.500000 0.253510
O O11 0.013729 0.619044 0.168278
O O12 0.434510 0.750000 0.123006
O O13 0.149170 0.677240 0.099447
O O14 0.239285 0.660813 1.000000
#
# Coordination Sequence:
#
# PCOD9205886 Si02
#       6
#     8   8   8   8   8   8
#     4  11  22  38  60  83 108 139 179 224 270 321
#     4  11  22  38  60  83 108 139 179 224 270 321
#     4  10  21  36  54  79 112 147 182 222 269 320
#     4  10  21  36  54  79 112 147 182 222 269 320
#     4   9  18  33  54  79 106 140 182 225 268 315
#     4   9  18  33  54  79 106 140 182 225 268 315
#
# _framework density 18.489528
#
# number of rings (size 3 to 8) (size 9 to 14) (size 15 to 20)
#    0.000    2.000    0.000    5.000    0.000    6.000 
#    0.000    3.333    0.000    0.000    0.000    7.000 
#    0.000    0.000    0.000    0.000    0.000    0.000 
#
# Total GULP energy -134061.177245 kJ/mol
# GULP energy per Si atom -5585.882385 kJ/mol
# Density = 1.844745 g / cm^3
# Si number density = 18.489528 Si / 1000 Ang^3
#
#
#
# Elastic Constant Matrix: (Units=GPa)
#
#
# Indices 1 2 3 4 5 6 
#
# 1 47.0887 50.1469 38.2447 -0.0001 0.0016 0.0000
# 2 50.1469 203.9064 131.4006 0.0000 0.0037 0.0000
# 3 38.2447 131.4006 123.1967 -0.0002 0.0020 0.0000
# 4 -0.0001 0.0000 -0.0002 53.0674 -0.0001 0.0002
# 5 0.0016 0.0037 0.0020 -0.0001 22.4840 0.0000
# 6 0.0000 0.0000 0.0000 0.0002 0.0000 25.6266
#
#
#
# Elastic Compliance Matrix: (Units=1/GPa)
#
#
# Indices 1 2 3 4 5 6 
#
# 1 0.029548 -0.004336 -0.004548 0.000000 -0.000001 0.000000
# 2 -0.004336 0.016321 -0.016062 0.000000 -0.000001 0.000000
# 3 -0.004548 -0.016062 0.026661 0.000000 0.000001 0.000000
# 4 0.000000 0.000000 0.000000 0.018844 0.000000 0.000000
# 5 -0.000001 -0.000001 0.000001 0.000000 0.044476 0.000000
# 6 0.000000 0.000000 0.000000 0.000000 0.000000 0.039022
#
#
# Mechanical properties :
#
#
# Convention : Reuss Voigt Hill
#
# Bulk Modulus (GPa) = 44.17423 90.41960 67.29692
# Shear Modulus (GPa) = 21.52301 30.52890 26.02595
#
# Velocity S-wave (km/s) = 3.41554 4.06784 3.75588
# Velocity P-wave (km/s) = 6.28474 8.43044 7.43540
#
# Compressibility (1/GPa) = 0.02263763
#
# Stress axis : x y z
#
# Youngs Moduli (GPa) = 33.84338 61.27028 37.50855
#
# Poissons Ratio (x) = 0.26566 0.17060
# Poissons Ratio (y) = 0.14674 0.60246
# Poissons Ratio (z) = 0.15393 0.98412
#
# Static dielectric constant tensor:
#      x y z
#    x 1.629110 0.000000 0.000000 
#    y 0.000000 1.604840 0.000000 
#    z 0.000000 0.000000 1.632930 
# 
# From -- ./inp_files/197196.got.cif
#   From: 2010.05.17/outbox.cif.g08.bks.cpg/sg12_99_cif.got.tgz:197196.got - 2010.06.03 13:09:07.
