data_PCOD9205892
_publ_section_title
;
Structure prediction by ZEFSAII (Michael W. Deem and Ramdas Pophale) SiO2 
 PCOD9205892
Probable space group: C 2/M
;
_chemical_formula_sum "Si O2"
_cell_formula_units_Z 60
_cell_length_a 23.127631
_cell_length_b 29.790243
_cell_length_c 12.377084
_cell_angle_alpha 90.000000
_cell_angle_beta 157.475418
_cell_angle_gamma 90.000000
_cell_volume 3266.726368
_symmetry_space_group_name_H-M "C 2/M"
_symmetry_group_IT_number 12
_symmetry_cell_setting 'monoclinic'
loop_
_space_group_symop_operation_xyz
x,y,z
-x,y,-z
-x,-y,-z
x,-y,z
1/2+x,1/2+y,z
1/2-x,1/2+y,-z
1/2-x,1/2-y,-z
1/2+x,1/2-y,z
loop_
_atom_site_type_symbol
_atom_site_label
_atom_site_fract_x
_atom_site_fract_y
_atom_site_fract_z
Si Si1 0.825036 0.858939 0.226642
Si Si2 0.418975 0.049338 0.741816
Si Si3 0.267732 0.947282 0.817604
Si Si4 0.778937 0.194195 0.369586
Si Si5 0.114519 0.783357 0.040389
Si Si6 0.318985 0.207197 0.183164
Si Si7 0.707093 0.395503 0.497991
Si Si8 0.000000 0.150863 0.000000
O O1 0.785231 0.910192 0.188771
O O2 0.803132 0.827193 0.293195
O O3 0.000000 0.856681 0.500000
O O4 0.726235 0.837218 0.961447
O O5 0.293091 0.085869 0.542423
O O6 0.353365 0.000000 0.610838
O O7 0.500000 0.048787 0.000000
O O8 0.551408 0.057195 0.885839
O O9 0.204197 0.930567 0.591224
O O10 0.233563 0.000000 0.777472
O O11 0.659109 0.233803 0.155841
O O12 0.722428 0.151206 0.339706
O O13 0.942558 0.211324 0.697136
O O14 0.234857 0.794356 0.153686
O O15 0.122504 0.815954 0.158116
O O16 0.500000 0.212146 0.500000
O O17 0.250000 0.250000 0.000000
O O18 0.545940 0.380412 0.178202
#
# Coordination Sequence:
#
# PCOD9205892 Si02
#       8
#     8   8   8   8   8   8   8   4
#     4  11  21  37  59  85 113 149 191 238 298 343
#     4   8  14  30  53  77 104 132 170 224 273 324
#     4   9  19  36  60  87 111 138 186 245 293 346
#     4  10  21  36  54  79 113 151 190 236 280 338
#     4  11  22  39  53  78 116 157 194 239 283 337
#     4  12  23  37  61  88 117 157 201 242 284 342
#     4   9  18  34  53  80 112 147 186 228 282 342
#     4  10  24  38  51  76 122 160 181 238 290 340
#
# _framework density 18.367011000000002
#
# number of rings (size 3 to 8) (size 9 to 14) (size 15 to 20)
#    0.000    2.000    2.667    2.400    0.000    3.467 
#   13.200    1.333    0.000    0.400    0.000    0.000 
#    0.000    0.000    0.000    0.000    0.000    0.000 
#
# Total GULP energy -167112.277761 kJ/mol
# GULP energy per Si atom -5570.409259 kJ/mol
# Density = 1.832521 g / cm^3
# Si number density = 18.367011 Si / 1000 Ang^3
#
#
#
# Elastic Constant Matrix: (Units=GPa)
#
#
# Indices 1 2 3 4 5 6 
#
# 1 57.9949 23.9707 15.2142 0.0000 6.4191 0.0000
# 2 23.9707 115.0854 43.9903 0.0000 6.0073 0.0000
# 3 15.2142 43.9903 56.5210 0.0000 8.7267 0.0000
# 4 0.0000 0.0000 0.0000 16.0450 0.0000 8.4877
# 5 6.4191 6.0073 8.7267 0.0000 20.9746 0.0000
# 6 0.0000 0.0000 0.0000 8.4877 0.0000 26.3354
#
#
#
# Elastic Compliance Matrix: (Units=1/GPa)
#
#
# Indices 1 2 3 4 5 6 
#
# 1 0.019537 -0.002972 -0.002302 0.000000 -0.004170 0.000000
# 2 -0.002972 0.012826 -0.009357 0.000000 0.001129 0.000000
# 3 -0.002302 -0.009357 0.026793 0.000000 -0.007763 0.000000
# 4 0.000000 0.000000 0.000000 0.075135 0.000000 -0.024215
# 5 -0.004170 0.001129 -0.007763 0.000000 0.051860 0.000000
# 6 0.000000 0.000000 0.000000 -0.024215 0.000000 0.045776
#
#
# Mechanical properties :
#
#
# Convention : Reuss Voigt Hill
#
# Bulk Modulus (GPa) = 33.45082 43.99463 38.72272
# Shear Modulus (GPa) = 18.43987 22.43273 20.43630
#
# Velocity S-wave (km/s) = 3.17198 3.49859 3.33928
# Velocity P-wave (km/s) = 5.62737 6.35021 5.99969
#
# Compressibility (1/GPa) = 0.02989464
#
# Stress axis : x y z
#
# Youngs Moduli (GPa) = 51.18590 77.96837 37.32290
#
# Poissons Ratio (x) = 0.23169 0.08593
# Poissons Ratio (y) = 0.15210 0.34922
# Poissons Ratio (z) = 0.11784 0.72953
#
# Static dielectric constant tensor:
#      x y z
#    x 1.679480 0.000000 -0.002630 
#    y 0.000000 1.649240 0.000000 
#    z -0.002630 0.000000 1.660440 
# 
# From -- ./inp_files/247487.got.cif
#   From: 2010.05.17/outbox.cif.g08.bks.cpg/sg12_124_cif.got.tgz:247487.got - 2010.06.03 13:09:07.
