data_PCOD9205176
_publ_section_title
;
Structure prediction by ZEFSAII (Michael W. Deem and Ramdas Pophale) SiO2 
 PCOD9205176
Probable space group: C 2/M
;
_chemical_formula_sum "Si O2"
_cell_formula_units_Z 64
_cell_length_a 29.194402
_cell_length_b 8.667101
_cell_length_c 19.456621
_cell_angle_alpha 90.000000
_cell_angle_beta 40.840633
_cell_angle_gamma 90.000000
_cell_volume 3219.513443
_symmetry_space_group_name_H-M "C 2/M"
_symmetry_group_IT_number 12
_symmetry_cell_setting 'monoclinic'
loop_
_space_group_symop_operation_xyz
x,y,z
-x,y,-z
-x,-y,-z
x,-y,z
1/2+x,1/2+y,z
1/2-x,1/2+y,-z
1/2-x,1/2-y,-z
1/2+x,1/2-y,z
loop_
_atom_site_type_symbol
_atom_site_label
_atom_site_fract_x
_atom_site_fract_y
_atom_site_fract_z
Si Si1 0.099807 0.816282 0.619121
Si Si2 0.639387 0.323909 0.951266
Si Si3 0.547889 0.184168 0.165750
Si Si4 0.698322 0.687766 0.388809
Si Si5 0.786534 0.817997 0.784808
Si Si6 0.571713 0.321117 0.883483
Si Si7 0.321286 0.183474 0.886082
Si Si8 0.829308 0.317945 0.333939
O O1 0.129907 0.770775 0.510450
O O2 0.158351 0.770132 0.609053
O O3 0.027217 0.736682 0.721560
O O4 0.090584 0.000000 0.631311
O O5 0.655996 0.500000 0.952465
O O6 0.704659 0.214861 0.892653
O O7 0.625507 0.319964 0.885961
O O8 0.570966 0.268081 0.069474
O O9 0.610211 0.227691 0.147956
O O10 0.548297 0.000000 0.155587
O O11 0.702594 0.500000 0.381318
O O12 0.699189 0.741203 0.308899
O O13 0.765083 0.736979 0.358986
O O14 0.827162 0.738693 0.800861
O O15 0.799755 0.000000 0.771641
O O16 0.563156 0.500000 0.869852
O O17 0.601405 0.216729 0.789692
O O18 0.500000 0.269325 0.000000
O O19 0.315588 0.000000 0.894511
O O20 0.250000 0.250000 0.000000
O O21 0.821684 0.500000 0.355443
#
# Coordination Sequence:
#
# PCOD9205176 Si02
#       8
#     8   8   8   8   8   8   8   8
#     4  11  23  41  62  86 119 159 205 252 298 355
#     4  11  21  34  57  87 121 157 195 241 298 356
#     4  11  24  41  61  88 122 158 197 247 304 361
#     4   9  21  40  62  88 120 160 204 250 297 350
#     4  11  21  38  62  89 121 155 196 245 295 353
#     4  10  21  35  51  79 118 158 198 242 293 352
#     4  11  23  39  62  92 123 155 197 244 302 366
#     4  11  21  37  60  87 119 156 202 249 298 354
#
# _framework density 19.878779999999999
#
# number of rings (size 3 to 8) (size 9 to 14) (size 15 to 20)
#    0.000    1.375    2.500    3.375    0.000    3.250 
#    0.000    5.000    0.000    3.750    0.000    0.000 
#    0.000    0.000    0.000    0.000    0.000    0.000 
#
# Total GULP energy -178830.723296 kJ/mol
# GULP energy per Si atom -5588.460103 kJ/mol
# Density = 1.983354 g / cm^3
# Si number density = 19.878780 Si / 1000 Ang^3
#
#
#
# Elastic Constant Matrix: (Units=GPa)
#
#
# Indices 1 2 3 4 5 6 
#
# 1 78.6079 17.5218 31.6677 -0.0004 15.4414 -0.0015
# 2 17.5218 36.2862 13.3306 0.0017 4.5461 -0.0050
# 3 31.6677 13.3306 108.8279 0.0057 15.8426 -0.0021
# 4 -0.0004 0.0017 0.0057 21.6335 -0.0022 0.6023
# 5 15.4414 4.5461 15.8426 -0.0022 27.1025 0.0008
# 6 -0.0015 -0.0050 -0.0021 0.6023 0.0008 28.9876
#
#
#
# Elastic Compliance Matrix: (Units=1/GPa)
#
#
# Indices 1 2 3 4 5 6 
#
# 1 0.016635 -0.006051 -0.003134 0.000001 -0.006631 0.000000
# 2 -0.006051 0.031288 -0.001978 -0.000002 -0.000645 0.000005
# 3 -0.003134 -0.001978 0.010968 -0.000003 -0.004294 0.000000
# 4 0.000001 -0.000002 -0.000003 0.046251 0.000005 -0.000961
# 5 -0.006631 -0.000645 -0.004294 0.000005 0.043293 -0.000002
# 6 0.000000 0.000005 0.000000 -0.000961 -0.000002 0.034517
#
#
# Mechanical properties :
#
#
# Convention : Reuss Voigt Hill
#
# Bulk Modulus (GPa) = 27.34816 38.75134 33.04975
# Shear Modulus (GPa) = 22.99195 26.29150 24.64173
#
# Velocity S-wave (km/s) = 3.40458 3.64069 3.52461
# Velocity P-wave (km/s) = 5.40761 6.09992 5.76417
#
# Compressibility (1/GPa) = 0.03656554
#
# Stress axis : x y z
#
# Youngs Moduli (GPa) = 60.11334 31.96129 91.17241
#
# Poissons Ratio (x) = 0.19339 0.28576
# Poissons Ratio (y) = 0.36372 0.18034
# Poissons Ratio (z) = 0.18841 0.06322
#
# Static dielectric constant tensor:
#      x y z
#    x 1.727580 0.000000 0.006270 
#    y 0.000000 1.676050 0.000000 
#    z 0.006270 0.000000 1.700070 
# 
# From -- ./inp_files/295519.got.cif
#   From: 2010.05.17/outbox.cif.g08.bks.cpg/sg12_148_cif.got.tgz:295519.got - 2010.06.03 13:09:07.
