data_PCOD9205553
_publ_section_title
;
Structure prediction by ZEFSAII (Michael W. Deem and Ramdas Pophale) SiO2 
 PCOD9205553
Probable space group: C 2/M
;
_chemical_formula_sum "Si O2"
_cell_formula_units_Z 64
_cell_length_a 24.994072
_cell_length_b 21.539773
_cell_length_c 18.943921
_cell_angle_alpha 90.000000
_cell_angle_beta 19.602483
_cell_angle_gamma 90.000000
_cell_volume 3421.611465
_symmetry_space_group_name_H-M "C 2/M"
_symmetry_group_IT_number 12
_symmetry_cell_setting 'monoclinic'
loop_
_space_group_symop_operation_xyz
x,y,z
-x,y,-z
-x,-y,-z
x,-y,z
1/2+x,1/2+y,z
1/2-x,1/2+y,-z
1/2-x,1/2-y,-z
1/2+x,1/2-y,z
loop_
_atom_site_type_symbol
_atom_site_label
_atom_site_fract_x
_atom_site_fract_y
_atom_site_fract_z
Si Si1 0.202740 0.931404 0.027624
Si Si2 0.651719 0.572842 0.767002
Si Si3 0.259223 0.783061 0.412602
Si Si4 0.899898 0.261272 0.527279
Si Si5 0.525102 0.097098 0.549600
Si Si6 0.047601 0.868910 0.754748
Si Si7 0.790165 0.194892 0.893738
Si Si8 0.604957 0.757959 0.998475
O O1 0.195273 0.871679 0.087881
O O2 0.075101 0.918591 0.123992
O O3 0.175430 0.000000 0.092493
O O4 0.378638 0.928559 0.776049
O O5 0.626921 0.500000 0.784011
O O6 0.808304 0.579911 0.620348
O O7 0.648686 0.607516 0.695887
O O8 0.500000 0.597052 0.000000
O O9 0.250000 0.750000 0.500000
O O10 0.170393 0.743202 0.464162
O O11 0.162651 0.845794 0.548598
O O12 0.445128 0.785879 0.162878
O O13 0.975736 0.328066 0.447495
O O14 0.753514 0.248986 0.761582
O O15 0.043213 0.212437 0.350455
O O16 0.500000 0.077156 0.500000
O O17 0.942785 0.810061 0.911900
O O18 0.655119 0.199951 0.002313
O O19 0.750000 0.250000 0.000000
#
# Coordination Sequence:
#
# PCOD9205553 Si02
#       8
#     8   8   8   8   8   8   8   8
#     4  12  25  40  62  89 125 167 212 257 309 377
#     4  11  24  39  57  84 127 174 213 251 300 376
#     4  10  21  35  57  91 126 159 195 258 314 368
#     4  12  21  38  61  92 125 160 205 256 316 375
#     4  12  24  38  61  92 128 170 209 253 308 371
#     4  11  21  40  60  89 123 168 206 257 316 369
#     4  12  21  40  62  90 123 159 206 260 313 367
#     4  11  22  35  62  95 123 158 202 263 318 368
#
# _framework density 18.704637999999999
#
# number of rings (size 3 to 8) (size 9 to 14) (size 15 to 20)
#    0.000    0.625    3.750    6.750    1.750    2.000 
#    0.000    0.000    0.000    1.500    0.000    0.875 
#    0.000    0.000    0.000    0.000    0.000    0.000 
#
# Total GULP energy -178826.072614 kJ/mol
# GULP energy per Si atom -5588.314769 kJ/mol
# Density = 1.866207 g / cm^3
# Si number density = 18.704638 Si / 1000 Ang^3
#
#
#
# Elastic Constant Matrix: (Units=GPa)
#
#
# Indices 1 2 3 4 5 6 
#
# 1 94.8135 30.1634 -0.0544 0.0114 -16.4080 -0.0063
# 2 30.1634 100.2958 34.9096 0.0122 5.0704 -0.0059
# 3 -0.0544 34.9096 94.8917 0.0209 -6.7968 -0.0026
# 4 0.0114 0.0122 0.0209 6.0386 -0.0177 10.5316
# 5 -16.4080 5.0704 -6.7968 -0.0177 35.0069 0.0077
# 6 -0.0063 -0.0059 -0.0026 10.5316 0.0077 3.5961
#
#
#
# Elastic Compliance Matrix: (Units=1/GPa)
#
#
# Indices 1 2 3 4 5 6 
#
# 1 0.013567 -0.005342 0.002519 0.000001 0.007622 -0.000001
# 2 -0.005342 0.013760 -0.005463 0.000013 -0.005558 -0.000016
# 3 0.002519 -0.005463 0.012870 0.000004 0.004471 -0.000017
# 4 0.000001 0.000013 0.000004 -0.040316 -0.000047 0.118069
# 5 0.007622 -0.005558 0.004471 -0.000047 0.033811 0.000073
# 6 -0.000001 -0.000016 -0.000017 0.118069 0.000073 -0.067698
#
#
# Mechanical properties :
#
#
# Convention : Reuss Voigt Hill
#
# Bulk Modulus (GPa) = 42.33028 46.67090 44.50059
# Shear Modulus (GPa) = -523.08978 23.92716 -249.58131
#
# Velocity S-wave (km/s) = -16.74111 3.58048 -11.56385
# Velocity P-wave (km/s) = 18.73517 6.48836 12.42795
#
# Compressibility (1/GPa) = 0.02362375
#
# Stress axis : x y z
#
# Youngs Moduli (GPa) = 73.70790 72.67607 77.70103
#
# Poissons Ratio (x) = 0.38826 -0.19574
# Poissons Ratio (y) = 0.39377 0.42449
# Poissons Ratio (z) = -0.18568 0.39704
#
# Static dielectric constant tensor:
#      x y z
#    x 1.669920 0.000000 -0.015880 
#    y 0.000000 1.663690 0.000000 
#    z -0.015880 0.000000 1.680620 
# 
# From -- ./inp_files/290911.got.cif
#   From: 2010.05.17/outbox.cif.g08.bks.cpg/sg12_146_cif.got.tgz:290911.got - 2010.06.03 13:09:07.
