data_PCOD9205232
_publ_section_title
;
Structure prediction by ZEFSAII (Michael W. Deem and Ramdas Pophale) SiO2 
 PCOD9205232
Probable space group: C 2/M
;
_chemical_formula_sum "Si O2"
_cell_formula_units_Z 64
_cell_length_a 25.419295
_cell_length_b 8.504235
_cell_length_c 29.485923
_cell_angle_alpha 90.000000
_cell_angle_beta 29.412537
_cell_angle_gamma 90.000000
_cell_volume 3130.245787
_symmetry_space_group_name_H-M "C 2/M"
_symmetry_group_IT_number 12
_symmetry_cell_setting 'monoclinic'
loop_
_space_group_symop_operation_xyz
x,y,z
-x,y,-z
-x,-y,-z
x,-y,z
1/2+x,1/2+y,z
1/2-x,1/2+y,-z
1/2-x,1/2-y,-z
1/2+x,1/2-y,z
loop_
_atom_site_type_symbol
_atom_site_label
_atom_site_fract_x
_atom_site_fract_y
_atom_site_fract_z
Si Si1 0.911992 0.191621 0.783283
Si Si2 0.675962 0.184808 0.992077
Si Si3 0.319301 0.183156 0.261246
Si Si4 0.259402 0.822967 0.767915
Si Si5 0.028208 0.816367 0.362258
Si Si6 0.493901 0.686356 0.816278
Si Si7 0.415967 0.317580 0.025980
Si Si8 0.596011 0.185868 0.463032
O O1 0.792167 0.242463 0.887800
O O2 0.951643 0.244520 0.704099
O O3 0.988226 0.235071 0.767930
O O4 0.907035 0.000000 0.784631
O O5 0.597370 0.215514 0.008514
O O6 0.682498 0.000000 0.997486
O O7 0.621105 0.274134 0.074828
O O8 0.318267 0.280116 0.215116
O O9 0.413679 0.231834 0.224228
O O10 0.203981 0.222809 0.369695
O O11 0.327682 0.000000 0.244455
O O12 0.358150 0.705759 0.697661
O O13 0.194777 0.818101 0.863095
O O14 0.301478 0.000000 0.729227
O O15 0.943542 0.726099 0.456781
O O16 0.999974 0.000000 0.381597
O O17 0.510615 0.500000 0.805939
O O18 0.442446 0.500000 0.994386
O O19 0.500000 0.259424 0.000000
O O20 0.500000 0.226947 0.500000
O O21 0.616249 0.000000 0.443314
#
# Coordination Sequence:
#
# PCOD9205232 Si02
#       8
#     8   8   8   8   8   8   8   8
#     4   9  21  40  63  90 123 163 206 255 305 355
#     4  11  21  37  60  90 122 157 208 257 302 356
#     4  12  25  41  63  92 123 159 203 253 308 362
#     4  11  21  35  57  87 123 161 198 242 302 367
#     4  11  21  38  63  92 123 156 199 250 301 355
#     4  11  23  42  63  86 122 166 207 252 307 361
#     4  10  21  35  52  79 118 163 204 243 298 363
#     4  11  23  40  64  94 126 159 200 245 299 370
#
# _framework density 20.445678999999998
#
# number of rings (size 3 to 8) (size 9 to 14) (size 15 to 20)
#    0.000    1.250    2.500    4.125    0.000    2.250 
#    0.000    5.000    0.000    0.000    0.000    0.000 
#    0.000    0.000    0.000    0.000    0.000    0.000 
#
# Total GULP energy -178884.673898 kJ/mol
# GULP energy per Si atom -5590.146059 kJ/mol
# Density = 2.039914 g / cm^3
# Si number density = 20.445679 Si / 1000 Ang^3
#
#
#
# Elastic Constant Matrix: (Units=GPa)
#
#
# Indices 1 2 3 4 5 6 
#
# 1 105.6152 5.4278 24.5987 -0.0232 17.0429 0.0418
# 2 5.4278 37.4953 6.1217 -0.0233 2.9524 0.0362
# 3 24.5987 6.1217 63.0750 -0.0067 16.4483 0.0226
# 4 -0.0232 -0.0233 -0.0067 28.4872 0.0252 -0.5466
# 5 17.0429 2.9524 16.4483 0.0252 30.3846 -0.0473
# 6 0.0418 0.0362 0.0226 -0.5466 -0.0473 21.8099
#
#
#
# Elastic Compliance Matrix: (Units=1/GPa)
#
#
# Indices 1 2 3 4 5 6 
#
# 1 0.010926 -0.000738 -0.003039 0.000011 -0.004412 -0.000026
# 2 -0.000738 0.027201 -0.002062 0.000021 -0.001113 -0.000044
# 3 -0.003039 -0.002062 0.019495 0.000008 -0.008648 -0.000029
# 4 0.000011 0.000021 0.000008 0.035120 -0.000040 0.000880
# 5 -0.004412 -0.001113 -0.008648 -0.000040 0.040176 0.000105
# 6 -0.000026 -0.000044 -0.000029 0.000880 0.000105 0.045873
#
#
# Mechanical properties :
#
#
# Convention : Reuss Voigt Hill
#
# Bulk Modulus (GPa) = 21.76561 30.94244 26.35403
# Shear Modulus (GPa) = 24.29733 27.47216 25.88475
#
# Velocity S-wave (km/s) = 3.45104 3.66958 3.56198
# Velocity P-wave (km/s) = 5.15250 5.75511 5.46212
#
# Compressibility (1/GPa) = 0.04594403
#
# Stress axis : x y z
#
# Youngs Moduli (GPa) = 91.52503 36.76313 51.29601
#
# Poissons Ratio (x) = 0.02713 0.15589
# Poissons Ratio (y) = 0.06755 0.10577
# Poissons Ratio (z) = 0.27814 0.07580
#
# Static dielectric constant tensor:
#      x y z
#    x 1.732990 0.000000 0.006420 
#    y 0.000000 1.695880 0.000000 
#    z 0.006420 0.000000 1.743260 
# 
# From -- ./inp_files/238723.got.cif
#   From: 2010.05.17/outbox.cif.g08.bks.cpg/sg12_120_cif.got.tgz:238723.got - 2010.06.03 13:09:07.
