data_PCOD9205481
_publ_section_title
;
Structure prediction by ZEFSAII (Michael W. Deem and Ramdas Pophale) SiO2 
 PCOD9205481
Probable space group: C 2/M
;
_chemical_formula_sum "Si O2"
_cell_formula_units_Z 56
_cell_length_a 21.481022
_cell_length_b 13.699384
_cell_length_c 22.784660
_cell_angle_alpha 90.000000
_cell_angle_beta 23.216239
_cell_angle_gamma 90.000000
_cell_volume 2643.125558
_symmetry_space_group_name_H-M "C 2/M"
_symmetry_group_IT_number 12
_symmetry_cell_setting 'monoclinic'
loop_
_space_group_symop_operation_xyz
x,y,z
-x,y,-z
-x,-y,-z
x,-y,z
1/2+x,1/2+y,z
1/2-x,1/2+y,-z
1/2-x,1/2-y,-z
1/2+x,1/2-y,z
loop_
_atom_site_type_symbol
_atom_site_label
_atom_site_fract_x
_atom_site_fract_y
_atom_site_fract_z
Si Si1 0.639942 0.611706 0.643053
Si Si2 0.094769 0.113594 0.055309
Si Si3 0.812743 0.387600 0.333759
Si Si4 0.738879 0.231729 0.861042
Si Si5 0.422982 0.238916 0.399005
Si Si6 0.178261 0.886532 0.324339
Si Si7 0.322003 0.115835 0.967438
O O1 0.607435 0.500000 0.653530
O O2 0.556124 0.693791 0.676472
O O3 0.822077 0.641221 0.478061
O O4 0.573193 0.621712 0.766500
O O5 0.113117 0.184258 0.984338
O O6 0.221308 0.145291 0.996907
O O7 0.123392 0.000000 0.016838
O O8 0.772973 0.500000 0.384618
O O9 0.688232 0.310906 0.466688
O O10 0.793505 0.382339 0.280375
O O11 0.990260 0.366888 0.200795
O O12 0.746707 0.174287 0.793566
O O13 0.910707 0.281286 0.716921
O O14 0.723956 0.159683 0.929786
O O15 0.000000 0.856323 0.500000
O O16 0.161448 0.000000 0.320310
O O17 0.297194 0.000000 0.992530
#
# Coordination Sequence:
#
# PCOD9205481 Si02
#       7
#     8   8   8   8   8   8   8
#     4  10  22  38  55  82 120 156 191 231 281 344
#     4  10  22  39  57  81 118 157 191 231 284 340
#     4  10  21  37  57  85 120 152 191 235 281 340
#     4  12  22  35  59  84 119 149 194 236 283 341
#     4  11  22  33  58  87 113 152 194 232 288 336
#     4  10  21  38  59  85 117 152 188 233 288 343
#     4  10  21  35  56  86 120 154 186 230 285 345
#
# _framework density 21.187038999999999
#
# number of rings (size 3 to 8) (size 9 to 14) (size 15 to 20)
#    0.000    1.571    2.857    2.143    4.000    2.286 
#    0.000    2.143    0.000    1.286    0.000    3.000 
#    0.000    0.000    0.000    0.000    0.000    0.000 
#
# Total GULP energy -156401.947558 kJ/mol
# GULP energy per Si atom -5585.783841 kJ/mol
# Density = 2.113882 g / cm^3
# Si number density = 21.187039 Si / 1000 Ang^3
#
#
#
# Elastic Constant Matrix: (Units=GPa)
#
#
# Indices 1 2 3 4 5 6 
#
# 1 38.2171 24.4995 20.2729 -0.0015 21.3719 0.0020
# 2 24.4995 92.6013 37.0174 -0.0129 28.9145 0.0097
# 3 20.2729 37.0174 87.2705 0.0001 22.3523 0.0031
# 4 -0.0015 -0.0129 0.0001 29.6170 0.0001 5.4962
# 5 21.3719 28.9145 22.3523 0.0001 38.3553 -0.0003
# 6 0.0020 0.0097 0.0031 5.4962 -0.0003 20.7683
#
#
#
# Elastic Compliance Matrix: (Units=1/GPa)
#
#
# Indices 1 2 3 4 5 6 
#
# 1 0.040186 -0.003854 -0.003185 0.000001 -0.017631 -0.000002
# 2 -0.003854 0.015677 -0.003853 0.000008 -0.007426 -0.000009
# 3 -0.003185 -0.003853 0.014851 -0.000002 -0.003976 0.000000
# 4 0.000001 0.000008 -0.000002 0.035508 -0.000006 -0.009397
# 5 -0.017631 -0.007426 -0.003976 -0.000006 0.043811 0.000008
# 6 -0.000002 -0.000009 0.000000 -0.009397 0.000008 0.050637
#
#
# Mechanical properties :
#
#
# Convention : Reuss Voigt Hill
#
# Bulk Modulus (GPa) = 20.43664 42.40760 31.42212
# Shear Modulus (GPa) = 20.94124 26.83472 23.88798
#
# Velocity S-wave (km/s) = 3.14729 3.56274 3.36144
# Velocity P-wave (km/s) = 4.78268 6.08140 5.47072
#
# Compressibility (1/GPa) = 0.04893173
#
# Stress axis : x y z
#
# Youngs Moduli (GPa) = 24.88453 63.78598 67.33601
#
# Poissons Ratio (x) = 0.24581 0.21445
# Poissons Ratio (y) = 0.09590 0.25942
# Poissons Ratio (z) = 0.07925 0.24574
#
# Static dielectric constant tensor:
#      x y z
#    x 1.775340 0.000000 -0.007360 
#    y 0.000000 1.780160 0.000000 
#    z -0.007360 0.000000 1.804480 
# 
# From -- ./inp_files/96295.got.cif
#   From: 2010.05.17/outbox.cif.g08.bks.cpg/sg12_49_cif.got.tgz:96295.got - 2010.06.03 13:09:07.
