data_PCOD9205409
_publ_section_title
;
Structure prediction by ZEFSAII (Michael W. Deem and Ramdas Pophale) SiO2 
 PCOD9205409
Probable space group: C 2/M
;
_chemical_formula_sum "Si O2"
_cell_formula_units_Z 56
_cell_length_a 19.492276
_cell_length_b 19.456854
_cell_length_c 14.012751
_cell_angle_alpha 90.000000
_cell_angle_beta 146.357521
_cell_angle_gamma 90.000000
_cell_volume 2944.254430
_symmetry_space_group_name_H-M "C 2/M"
_symmetry_group_IT_number 12
_symmetry_cell_setting 'monoclinic'
loop_
_space_group_symop_operation_xyz
x,y,z
-x,y,-z
-x,-y,-z
x,-y,z
1/2+x,1/2+y,z
1/2-x,1/2+y,-z
1/2-x,1/2-y,-z
1/2+x,1/2-y,z
loop_
_atom_site_type_symbol
_atom_site_label
_atom_site_fract_x
_atom_site_fract_y
_atom_site_fract_z
Si Si1 0.798555 0.826752 0.301300
Si Si2 0.679595 0.423568 0.959765
Si Si3 0.146863 0.925877 0.147276
Si Si4 0.697094 0.708735 0.319099
Si Si5 0.444131 0.202296 0.720280
Si Si6 0.045436 0.806010 0.695993
Si Si7 0.122066 0.580164 0.976506
O O1 0.729087 0.771829 0.286059
O O2 0.851932 0.793806 0.265963
O O3 0.923430 0.839738 0.506545
O O4 0.714036 0.889346 0.165274
O O5 0.628648 0.500000 0.877336
O O6 0.683449 0.420405 0.078409
O O7 0.803844 0.417927 0.039203
O O8 0.595915 0.361800 0.827199
O O9 0.193012 0.859845 0.254703
O O10 0.196237 0.000000 0.238804
O O11 0.000000 0.926944 0.000000
O O12 0.571135 0.734749 0.222825
O O13 0.803454 0.692882 0.520946
O O14 0.514723 0.234954 0.712175
O O15 0.510015 0.134840 0.837049
O O16 0.089876 0.500000 0.957319
#
# Coordination Sequence:
#
# PCOD9205409 Si02
#       7
#     8   8   8   8   8   8   8
#     4   9  20  34  56  83 111 145 192 236 272 330
#     4   9  19  34  55  85 116 147 185 229 281 338
#     4  10  21  35  55  84 113 144 184 228 280 341
#     4  10  22  38  56  81 110 145 188 233 284 336
#     4  10  22  38  56  80 111 147 190 233 280 340
#     4   9  18  35  55  82 111 149 190 228 279 328
#     4  10  22  38  57  84 115 150 190 232 285 339
#
# _framework density 19.020095999999999
#
# number of rings (size 3 to 8) (size 9 to 14) (size 15 to 20)
#    0.000    2.429    0.000    0.857    6.000    2.286 
#    0.000    4.286    0.000    7.714    0.000    0.000 
#    0.000    0.000    0.000    0.000    0.000    0.000 
#
# Total GULP energy -155902.095234 kJ/mol
# GULP energy per Si atom -5567.931973 kJ/mol
# Density = 1.897681 g / cm^3
# Si number density = 19.020096 Si / 1000 Ang^3
#
#
#
# Elastic Constant Matrix: (Units=GPa)
#
#
# Indices 1 2 3 4 5 6 
#
# 1 49.8270 17.9099 8.3419 0.0000 -6.1161 0.0000
# 2 17.9099 83.2182 33.7914 0.0000 -5.7045 0.0000
# 3 8.3419 33.7914 35.4054 0.0000 -3.3095 0.0000
# 4 0.0000 0.0000 0.0000 -44.3145 0.0000 -36.6801
# 5 -6.1161 -5.7045 -3.3095 0.0000 16.8018 0.0000
# 6 0.0000 0.0000 0.0000 -36.6801 0.0000 8.8679
#
#
#
# Elastic Compliance Matrix: (Units=1/GPa)
#
#
# Indices 1 2 3 4 5 6 
#
# 1 0.022478 -0.004055 -0.000804 0.000000 0.006647 0.000000
# 2 -0.004055 0.020505 -0.018441 0.000000 0.001853 0.000000
# 3 -0.000804 -0.018441 0.046274 0.000000 0.002561 0.000000
# 4 0.000000 0.000000 0.000000 -0.005101 0.000000 -0.021100
# 5 0.006647 0.001853 0.002561 0.000000 0.063070 0.000000
# 6 0.000000 0.000000 0.000000 -0.021100 0.000000 0.025491
#
#
# Mechanical properties :
#
#
# Convention : Reuss Voigt Hill
#
# Bulk Modulus (GPa) = 23.44416 32.05966 27.75191
# Shear Modulus (GPa) = 21.40994 3.49819 12.45407
#
# Velocity S-wave (km/s) = 3.35871 1.35765 2.56165
# Velocity P-wave (km/s) = 5.23393 4.39885 4.83445
#
# Compressibility (1/GPa) = 0.04265455
#
# Stress axis : x y z
#
# Youngs Moduli (GPa) = 44.48866 48.76947 21.61052
#
# Poissons Ratio (x) = 0.19778 0.01738
# Poissons Ratio (y) = 0.18042 0.39852
# Poissons Ratio (z) = 0.03577 0.89937
#
# Static dielectric constant tensor:
#      x y z
#    x 1.713350 0.000000 0.001010 
#    y 0.000000 1.651840 0.000000 
#    z 0.001010 0.000000 1.683620 
# 
# From -- ./inp_files/158334.got.cif
#   From: 2010.05.17/outbox.cif.g08.bks.cpg/sg12_80_cif.got.tgz:158334.got - 2010.06.03 13:09:07.
