data_PCOD9205964
_publ_section_title
;
Structure prediction by ZEFSAII (Michael W. Deem and Ramdas Pophale) SiO2 
 PCOD9205964
Probable space group: C 2/M
;
_chemical_formula_sum "Si O2"
_cell_formula_units_Z 64
_cell_length_a 16.299540
_cell_length_b 7.732786
_cell_length_c 19.694774
_cell_angle_alpha 90.000000
_cell_angle_beta 98.742128
_cell_angle_gamma 90.000000
_cell_volume 2453.507248
_symmetry_space_group_name_H-M "C 2/M"
_symmetry_group_IT_number 12
_symmetry_cell_setting 'monoclinic'
loop_
_space_group_symop_operation_xyz
x,y,z
-x,y,-z
-x,-y,-z
x,-y,z
1/2+x,1/2+y,z
1/2-x,1/2+y,-z
1/2-x,1/2-y,-z
1/2+x,1/2-y,z
loop_
_atom_site_type_symbol
_atom_site_label
_atom_site_fract_x
_atom_site_fract_y
_atom_site_fract_z
Si Si1 0.675446 0.699303 0.079187
Si Si2 0.339354 0.793202 0.545872
Si Si3 0.846438 0.199157 0.164277
Si Si4 0.469921 0.708210 0.288397
Si Si5 0.066844 0.302100 0.954206
Si Si6 0.742206 0.701236 0.332453
Si Si7 0.910655 0.707958 0.419775
Si Si8 0.618207 0.287654 0.211717
O O1 0.657002 0.500000 0.062433
O O2 0.767033 0.709443 0.122260
O O3 0.652757 0.798208 0.008265
O O4 0.618133 0.766344 0.133979
O O5 0.250000 0.750000 0.500000
O O6 0.329035 0.711285 0.618358
O O7 0.406282 0.732348 0.497673
O O8 0.346627 0.000000 0.555409
O O9 0.886710 0.270272 0.238647
O O10 0.824111 0.000000 0.171356
O O11 0.917093 0.207381 0.114382
O O12 0.469021 0.500000 0.285306
O O13 0.475406 0.757876 0.367918
O O14 0.544098 0.771169 0.250216
O O15 0.045518 0.500000 0.936568
O O16 0.000000 0.230844 0.000000
O O17 0.760365 0.500000 0.323783
O O18 0.825536 0.779369 0.374394
O O19 0.702296 0.773416 0.259478
O O20 0.906575 0.500000 0.425765
O O21 0.619079 0.500000 0.211751
#
# Coordination Sequence:
#
# PCOD9205964 Si02
#       8
#     8   8   8   8   8   8   8   8
#     4  11  22  39  63  85 111 148 187 228 275 325
#     4   9  17  30  49  75 105 136 175 219 265 318
#     4  11  23  39  59  85 116 147 186 231 273 322
#     4  10  21  36  55  79 107 141 181 224 269 323
#     4  11  24  41  61  87 118 149 183 224 271 325
#     4   9  17  32  54  77 103 136 177 222 265 317
#     4   9  18  32  51  76 105 138 175 219 272 324
#     4   9  19  36  56  79 107 141 181 223 272 327
#
# _framework density 26.085106
#
# number of rings (size 3 to 8) (size 9 to 14) (size 15 to 20)
#    0.000    2.125    0.000    4.125    0.000    6.500 
#    0.000    3.750    0.000    3.750    0.000    0.000 
#    0.000    0.000    0.000    0.000    0.000    0.000 
#
# Total GULP energy -178976.735338 kJ/mol
# GULP energy per Si atom -5593.022979 kJ/mol
# Density = 2.602574 g / cm^3
# Si number density = 26.085106 Si / 1000 Ang^3
#
#
#
# Elastic Constant Matrix: (Units=GPa)
#
#
# Indices 1 2 3 4 5 6 
#
# 1 75.7374 -0.8607 11.7029 0.0000 -14.6132 0.0000
# 2 -0.8607 72.6388 1.7595 0.0000 1.2557 0.0000
# 3 11.7029 1.7595 161.5881 0.0000 -10.5412 0.0000
# 4 0.0000 0.0000 0.0000 21.2053 0.0000 -8.7033
# 5 -14.6132 1.2557 -10.5412 0.0000 50.8964 0.0000
# 6 0.0000 0.0000 0.0000 -8.7033 0.0000 19.1338
#
#
#
# Elastic Compliance Matrix: (Units=1/GPa)
#
#
# Indices 1 2 3 4 5 6 
#
# 1 0.014072 0.000118 -0.000767 0.000000 0.003878 0.000000
# 2 0.000118 0.013778 -0.000181 0.000000 -0.000343 0.000000
# 3 -0.000767 -0.000181 0.006317 0.000000 0.001093 0.000000
# 4 0.000000 0.000000 0.000000 0.057983 0.000000 0.026374
# 5 0.003878 -0.000343 0.001093 0.000000 0.020996 0.000000
# 6 0.000000 0.000000 0.000000 0.026374 0.000000 0.064260
#
#
# Mechanical properties :
#
#
# Convention : Reuss Voigt Hill
#
# Bulk Modulus (GPa) = 30.76230 37.24087 34.00158
# Shear Modulus (GPa) = 26.32927 38.07127 32.20027
#
# Velocity S-wave (km/s) = 3.18049 3.82449 3.51726
# Velocity P-wave (km/s) = 5.03051 5.81463 5.43672
#
# Compressibility (1/GPa) = 0.03250732
#
# Stress axis : x y z
#
# Youngs Moduli (GPa) = 71.06434 72.57701 158.29311
#
# Poissons Ratio (x) = -0.00858 0.12148
# Poissons Ratio (y) = -0.00840 0.02865
# Poissons Ratio (z) = 0.05454 0.01314
#
# Static dielectric constant tensor:
#      x y z
#    x 2.260660 0.000000 -0.001270 
#    y 0.000000 1.929820 0.000000 
#    z -0.001270 0.000000 2.016170 
# 
# From -- ./inp_files/313982.got.cif
#   From: 2010.05.17/outbox.cif.g08.bks.cpg/sg12_157_cif.got.tgz:313982.got - 2010.06.03 13:09:07.
