data_PCOD9205523
_publ_section_title
;
Structure prediction by ZEFSAII (Michael W. Deem and Ramdas Pophale) SiO2 
 PCOD9205523
Probable space group: C 2/M
;
_chemical_formula_sum "Si O2"
_cell_formula_units_Z 64
_cell_length_a 8.806765
_cell_length_b 29.508715
_cell_length_c 12.230112
_cell_angle_alpha 90.000000
_cell_angle_beta 79.631935
_cell_angle_gamma 90.000000
_cell_volume 3126.420720
_symmetry_space_group_name_H-M "C 2/M"
_symmetry_group_IT_number 12
_symmetry_cell_setting 'monoclinic'
loop_
_space_group_symop_operation_xyz
x,y,z
-x,y,-z
-x,-y,-z
x,-y,z
1/2+x,1/2+y,z
1/2-x,1/2+y,-z
1/2-x,1/2-y,-z
1/2+x,1/2-y,z
loop_
_atom_site_type_symbol
_atom_site_label
_atom_site_fract_x
_atom_site_fract_y
_atom_site_fract_z
Si Si1 0.968225 0.576221 0.132868
Si Si2 0.394080 0.830013 0.245896
Si Si3 0.359097 0.447865 0.891683
Si Si4 0.897689 0.720640 0.616104
Si Si5 0.859862 0.260675 0.083900
Si Si6 0.896314 0.829534 0.613822
Si Si7 0.301283 0.582537 0.137426
Si Si8 0.626963 0.324446 0.762705
O O1 0.958781 0.628414 0.170349
O O2 0.789917 0.558799 0.168730
O O3 0.129314 0.560125 0.170407
O O4 0.000000 0.569494 0.000000
O O5 0.518056 0.796740 0.285265
O O6 0.301041 0.797177 0.176746
O O7 0.277853 0.846880 0.354694
O O8 0.350793 0.500000 0.930468
O O9 0.539014 0.439343 0.835949
O O10 0.329479 0.416739 0.002452
O O11 0.884452 0.774608 0.608241
O O12 0.730919 0.698207 0.652669
O O13 0.000000 0.705554 0.500000
O O14 0.900963 0.215160 0.145351
O O15 0.750000 0.250000 0.000000
O O16 0.000000 0.282311 0.000000
O O17 0.000000 0.845708 0.500000
O O18 0.978989 0.841490 0.716612
O O19 0.296652 0.632743 0.188800
#
# Coordination Sequence:
#
# PCOD9205523 Si02
#       8
#     8   8   8   8   8   8   8   8
#     4  10  22  36  58  86 121 165 191 238 291 359
#     4  12  21  38  52  77 115 152 204 252 293 346
#     4  10  22  40  61  89 121 159 197 233 292 368
#     4  11  21  37  56  76 106 152 206 260 304 338
#     4  12  25  33  50  74 110 161 204 242 276 347
#     4  11  22  37  55  76 105 155 214 265 305 334
#     4  10  21  35  57  83 120 155 190 240 289 346
#     4  12  22  37  51  80 112 153 204 243 297 346
#
# _framework density 20.470694000000002
#
# number of rings (size 3 to 8) (size 9 to 14) (size 15 to 20)
#    0.000    1.000    3.750    4.125    5.250    4.750 
#    0.000    0.000    0.000    0.000    0.000    0.000 
#    0.000   30.000    0.000    0.000    0.000    0.000 
#
# Total GULP energy -178339.548537 kJ/mol
# GULP energy per Si atom -5573.110892 kJ/mol
# Density = 2.042410 g / cm^3
# Si number density = 20.470694 Si / 1000 Ang^3
#
#
#
# Elastic Constant Matrix: (Units=GPa)
#
#
# Indices 1 2 3 4 5 6 
#
# 1 133.8156 2.7046 4.4555 0.0000 8.7169 0.0000
# 2 2.7046 45.8474 10.7008 0.0000 5.5309 0.0000
# 3 4.4555 10.7008 45.9807 0.0000 -0.4201 0.0000
# 4 0.0000 0.0000 0.0000 4.8175 0.0000 1.8155
# 5 8.7169 5.5309 -0.4201 0.0000 29.5616 0.0000
# 6 0.0000 0.0000 0.0000 1.8155 0.0000 14.5339
#
#
#
# Elastic Compliance Matrix: (Units=1/GPa)
#
#
# Indices 1 2 3 4 5 6 
#
# 1 0.007646 0.000000 -0.000762 0.000000 -0.002265 0.000000
# 2 0.000000 0.023649 -0.005545 0.000000 -0.004503 0.000000
# 3 -0.000762 -0.005545 0.023127 0.000000 0.001591 0.000000
# 4 0.000000 0.000000 0.000000 0.217829 0.000000 -0.027211
# 5 -0.002265 -0.004503 0.001591 0.000000 0.035361 0.000000
# 6 0.000000 0.000000 0.000000 -0.027211 0.000000 0.072204
#
#
# Mechanical properties :
#
#
# Convention : Reuss Voigt Hill
#
# Bulk Modulus (GPa) = 23.91828 29.04062 26.47945
# Shear Modulus (GPa) = 12.30423 23.63481 17.96952
#
# Velocity S-wave (km/s) = 2.45432 3.40158 2.96601
# Velocity P-wave (km/s) = 4.44310 5.44471 4.96921
#
# Compressibility (1/GPa) = 0.04180903
#
# Stress axis : x y z
#
# Youngs Moduli (GPa) = 130.78916 42.28523 43.23948
#
# Poissons Ratio (x) = 0.00000 0.03293
# Poissons Ratio (y) = 0.00000 0.23975
# Poissons Ratio (z) = 0.09961 0.23446
#
# Static dielectric constant tensor:
#      x y z
#    x 1.863640 0.000000 0.005410 
#    y 0.000000 1.695890 0.000000 
#    z 0.005410 0.000000 1.741780 
# 
# From -- ./inp_files/125762.got.cif
#   From: 2010.05.17/outbox.cif.g08.bks.cpg/sg12_63_cif.got.tgz:125762.got - 2010.06.03 13:09:07.
