data_PCOD9205349
_publ_section_title
;
Structure prediction by ZEFSAII (Michael W. Deem and Ramdas Pophale) SiO2 
 PCOD9205349
Probable space group: C 2/M
;
_chemical_formula_sum "Si O2"
_cell_formula_units_Z 48
_cell_length_a 9.097981
_cell_length_b 24.242370
_cell_length_c 11.832157
_cell_angle_alpha 90.000000
_cell_angle_beta 103.287280
_cell_angle_gamma 90.000000
_cell_volume 2539.799756
_symmetry_space_group_name_H-M "C 2/M"
_symmetry_group_IT_number 12
_symmetry_cell_setting 'monoclinic'
loop_
_space_group_symop_operation_xyz
x,y,z
-x,y,-z
-x,-y,-z
x,-y,z
1/2+x,1/2+y,z
1/2-x,1/2+y,-z
1/2-x,1/2-y,-z
1/2+x,1/2-y,z
loop_
_atom_site_type_symbol
_atom_site_label
_atom_site_fract_x
_atom_site_fract_y
_atom_site_fract_z
Si Si1 0.057059 0.642524 0.390363
Si Si2 0.333401 0.564765 0.418651
Si Si3 0.741797 0.151939 0.761950
Si Si4 0.074077 0.143969 0.737423
Si Si5 0.269915 0.267280 0.371562
Si Si6 0.329071 0.691406 0.010660
O O1 0.192126 0.599900 0.440384
O O2 0.127072 0.691939 0.329069
O O3 0.000000 0.665350 0.500000
O O4 0.907803 0.620168 0.303552
O O5 0.500000 0.576499 0.500000
O O6 0.305974 0.500000 0.422294
O O7 0.350401 0.588794 0.295993
O O8 0.728426 0.214037 0.707532
O O9 0.900376 0.132543 0.737707
O O10 0.753281 0.155324 0.898751
O O11 0.093993 0.191966 0.644639
O O12 0.158676 0.165338 0.863624
O O13 0.250000 0.250000 0.500000
O O14 0.500000 0.699944 0.000000
O O15 0.250000 0.750000 0.000000
#
# Coordination Sequence:
#
# PCOD9205349 Si02
#       6
#     8   8   8   8   8   8
#     4  11  22  35  55  86 116 152 195 241 288 351
#     4  10  23  43  64  84 110 149 197 253 311 356
#     4  11  21  34  54  84 122 157 194 232 283 346
#     4  10  22  37  57  83 118 158 197 238 286 350
#     4  11  21  32  50  82 125 162 187 225 283 355
#     4  10  21  35  54  81 120 163 197 229 275 338
#
# _framework density 18.899128999999999
#
# number of rings (size 3 to 8) (size 9 to 14) (size 15 to 20)
#    0.000    1.500    3.333    2.000    4.667    0.333 
#    0.000    0.833    0.000    6.500    0.000    0.000 
#    0.000    0.000    0.000    0.000    0.000    0.000 
#
# Total GULP energy -133842.850924 kJ/mol
# GULP energy per Si atom -5576.785455 kJ/mol
# Density = 1.885611 g / cm^3
# Si number density = 18.899129 Si / 1000 Ang^3
#
#
#
# Elastic Constant Matrix: (Units=GPa)
#
#
# Indices 1 2 3 4 5 6 
#
# 1 90.1761 20.9107 35.4920 0.0000 5.7628 0.0000
# 2 20.9107 45.5635 9.3957 0.0000 -2.8924 0.0000
# 3 35.4920 9.3957 102.3432 0.0000 0.6486 0.0000
# 4 0.0000 0.0000 0.0000 14.4149 0.0000 3.6190
# 5 5.7628 -2.8924 0.6486 0.0000 29.0417 0.0000
# 6 0.0000 0.0000 0.0000 3.6190 0.0000 20.6801
#
#
#
# Elastic Compliance Matrix: (Units=1/GPa)
#
#
# Indices 1 2 3 4 5 6 
#
# 1 0.014422 -0.005917 -0.004437 0.000000 -0.003352 0.000000
# 2 -0.005917 0.024949 -0.000262 0.000000 0.003665 0.000000
# 3 -0.004437 -0.000262 0.011330 0.000000 0.000601 0.000000
# 4 0.000000 0.000000 0.000000 0.072561 0.000000 -0.012698
# 5 -0.003352 0.003665 0.000601 0.000000 0.035450 0.000000
# 6 0.000000 0.000000 0.000000 -0.012698 0.000000 0.050578
#
#
# Mechanical properties :
#
#
# Convention : Reuss Voigt Hill
#
# Bulk Modulus (GPa) = 33.93242 41.07552 37.50397
# Shear Modulus (GPa) = 20.80349 24.31297 22.55823
#
# Velocity S-wave (km/s) = 3.32138 3.59062 3.45862
# Velocity P-wave (km/s) = 5.71858 6.24270 5.98638
#
# Compressibility (1/GPa) = 0.02947034
#
# Stress axis : x y z
#
# Youngs Moduli (GPa) = 69.33878 40.08119 88.26121
#
# Poissons Ratio (x) = 0.23714 0.39162
# Poissons Ratio (y) = 0.41025 0.02312
# Poissons Ratio (z) = 0.30766 0.01050
#
# Static dielectric constant tensor:
#      x y z
#    x 1.725580 0.000000 0.023180 
#    y 0.000000 1.637760 0.000000 
#    z 0.023180 0.000000 1.720670 
# 
# From -- ./inp_files/121844.got.cif
#   From: 2010.05.17/outbox.cif.g08.bks.cpg/sg12_61_cif.got.tgz:121844.got - 2010.06.03 13:09:07.
