data_PCOD9205403
_publ_section_title
;
Structure prediction by ZEFSAII (Michael W. Deem and Ramdas Pophale) SiO2 
 PCOD9205403
Probable space group: C 2/M
;
_chemical_formula_sum "Si O2"
_cell_formula_units_Z 48
_cell_length_a 12.407965
_cell_length_b 23.379472
_cell_length_c 7.643335
_cell_angle_alpha 90.000000
_cell_angle_beta 76.413140
_cell_angle_gamma 90.000000
_cell_volume 2155.217359
_symmetry_space_group_name_H-M "C 2/M"
_symmetry_group_IT_number 12
_symmetry_cell_setting 'monoclinic'
loop_
_space_group_symop_operation_xyz
x,y,z
-x,y,-z
-x,-y,-z
x,-y,z
1/2+x,1/2+y,z
1/2-x,1/2+y,-z
1/2-x,1/2-y,-z
1/2+x,1/2-y,z
loop_
_atom_site_type_symbol
_atom_site_label
_atom_site_fract_x
_atom_site_fract_y
_atom_site_fract_z
Si Si1 0.872200 0.935200 0.497807
Si Si2 0.989835 0.564335 0.717093
Si Si3 0.034629 0.256690 0.787444
Si Si4 0.334809 0.836453 0.751315
Si Si5 0.689724 0.855528 0.655436
Si Si6 0.098463 0.858934 0.829247
O O1 0.805448 0.887803 0.634928
O O2 0.868344 0.913474 0.298769
O O3 0.000000 0.936257 0.500000
O O4 0.826210 0.000000 0.532149
O O5 0.980033 0.500000 0.782511
O O6 0.887849 0.604969 0.801465
O O7 0.000000 0.563433 0.500000
O O8 0.097982 0.597399 0.740535
O O9 0.145007 0.296032 0.748150
O O10 0.058909 0.192620 0.715272
O O11 0.930584 0.289057 0.739982
O O12 0.000000 0.249085 0.000000
O O13 0.320074 0.843090 0.548699
O O14 0.210601 0.832695 0.873156
O O15 0.000000 0.872641 0.000000
#
# Coordination Sequence:
#
# PCOD9205403 Si02
#       6
#     8   8   8   8   8   8
#     4  10  22  38  57  83 112 145 186 226 267 321
#     4   8  13  25  49  75  96 124 166 220 268 303
#     4  10  21  35  55  83 112 142 179 228 280 325
#     4   9  19  34  52  78 107 137 185 228 266 328
#     4   9  18  34  56  79 108 140 178 227 274 325
#     4  10  23  38  55  79 110 150 186 221 271 327
#
# _framework density 22.271533999999999
#
# number of rings (size 3 to 8) (size 9 to 14) (size 15 to 20)
#    0.000    2.667    0.000    2.000    0.000   13.667 
#    0.000    0.000    0.000   14.500    0.000    0.000 
#    0.000    0.000    0.000    0.000    0.000    0.000 
#
# Total GULP energy -133826.035891 kJ/mol
# GULP energy per Si atom -5576.084829 kJ/mol
# Density = 2.222084 g / cm^3
# Si number density = 22.271534 Si / 1000 Ang^3
#
#
#
# Elastic Constant Matrix: (Units=GPa)
#
#
# Indices 1 2 3 4 5 6 
#
# 1 85.7485 9.6416 13.2315 0.0000 -24.3290 0.0000
# 2 9.6416 61.7845 10.9417 0.0000 -3.7444 0.0000
# 3 13.2315 10.9417 28.9028 0.0000 -19.6955 0.0000
# 4 0.0000 0.0000 0.0000 5.6400 0.0000 -9.2289
# 5 -24.3290 -3.7444 -19.6955 0.0000 30.0364 0.0000
# 6 0.0000 0.0000 0.0000 -9.2289 0.0000 14.5959
#
#
#
# Elastic Compliance Matrix: (Units=1/GPa)
#
#
# Indices 1 2 3 4 5 6 
#
# 1 0.015519 -0.002200 0.003809 0.000000 0.014794 0.000000
# 2 -0.002200 0.017913 -0.009883 0.000000 -0.006029 0.000000
# 3 0.003809 -0.009883 0.068441 0.000000 0.046732 0.000000
# 4 0.000000 0.000000 0.000000 -5.117616 0.000000 -3.235839
# 5 0.014794 -0.006029 0.046732 0.000000 0.075167 0.000000
# 6 0.000000 0.000000 0.000000 -3.235839 0.000000 -1.977490
#
#
# Mechanical properties :
#
#
# Convention : Reuss Voigt Hill
#
# Bulk Modulus (GPa) = 11.71965 27.11837 19.41901
# Shear Modulus (GPa) = -0.72748 19.56252 9.41752
#
# Velocity S-wave (km/s) = -0.57214 2.96694 2.05856
# Velocity P-wave (km/s) = 2.19935 4.89281 3.79320
#
# Compressibility (1/GPa) = 0.08532679
#
# Stress axis : x y z
#
# Youngs Moduli (GPa) = 64.43761 55.82422 14.61109
#
# Poissons Ratio (x) = 0.12280 -0.05566
# Poissons Ratio (y) = 0.14175 0.14440
# Poissons Ratio (z) = -0.24546 0.55170
#
# Static dielectric constant tensor:
#      x y z
#    x 1.883860 0.000000 -0.007700 
#    y 0.000000 1.859430 0.000000 
#    z -0.007700 0.000000 1.844230 
# 
# From -- ./inp_files/51329.got.cif
#   From: 2010.05.17/outbox.cif.g08.bks.cpg/sg12_26_cif.got.tgz:51329.got - 2010.06.03 13:09:07.
