data_PCOD9205821
_publ_section_title
;
Structure prediction by ZEFSAII (Michael W. Deem and Ramdas Pophale) SiO2 
 PCOD9205821
Probable space group: C 2/M
;
_chemical_formula_sum "Si O2"
_cell_formula_units_Z 58
_cell_length_a 26.994513
_cell_length_b 15.454098
_cell_length_c 7.112313
_cell_angle_alpha 90.000000
_cell_angle_beta 76.828066
_cell_angle_gamma 90.000000
_cell_volume 2889.023111
_symmetry_space_group_name_H-M "C 2/M"
_symmetry_group_IT_number 12
_symmetry_cell_setting 'monoclinic'
loop_
_space_group_symop_operation_xyz
x,y,z
-x,y,-z
-x,-y,-z
x,-y,z
1/2+x,1/2+y,z
1/2-x,1/2+y,-z
1/2-x,1/2-y,-z
1/2+x,1/2-y,z
loop_
_atom_site_type_symbol
_atom_site_label
_atom_site_fract_x
_atom_site_fract_y
_atom_site_fract_z
Si Si1 0.659938 0.895704 0.437502
Si Si2 0.946764 0.310523 0.530363
Si Si3 0.105273 0.221355 0.079842
Si Si4 0.443626 0.350020 0.258782
Si Si5 0.752830 0.598955 0.363772
Si Si6 0.295098 0.180199 0.983897
Si Si7 0.500000 0.500000 0.000000
Si Si8 0.143215 0.100245 0.381432
O O1 0.603291 0.857345 0.508088
O O2 0.701593 0.864071 0.552117
O O3 0.656579 0.000000 0.444394
O O4 0.683695 0.861313 0.223664
O O5 0.929348 0.280130 0.753528
O O6 0.959048 0.229120 0.382079
O O7 0.000000 0.360994 0.500000
O O8 0.124382 0.148025 0.210239
O O9 0.076943 0.185900 0.922344
O O10 0.155739 0.272109 0.973009
O O11 0.397626 0.391816 0.417907
O O12 0.484054 0.423390 0.168342
O O13 0.746455 0.500000 0.432894
O O14 0.772784 0.606360 0.135472
O O15 0.696628 0.639264 0.409380
O O16 0.250000 0.250000 0.000000
O O17 0.151417 0.000000 0.327142
#
# Coordination Sequence:
#
# PCOD9205821 Si02
#       8
#     8   8   8   8   8   8   2   8
#     4  10  23  41  64  93 122 163 209 256 316 372
#     4  10  22  43  64  87 122 154 204 267 315 366
#     4  10  22  38  58  87 119 159 205 248 302 368
#     4  11  23  40  59  90 120 163 210 253 308 367
#     4  10  21  37  59  87 127 164 198 251 301 360
#     4  11  21  36  58  90 123 164 204 242 306 371
#     4  12  24  40  62  88 118 166 212 252 308 352
#     4  10  21  36  53  85 124 158 203 246 288 357
#
# _framework density 20.075990000000001
#
# number of rings (size 3 to 8) (size 9 to 14) (size 15 to 20)
#    0.000    1.655    2.069    2.069    2.897    0.828 
#    0.000    1.724    0.000    0.000    0.000    8.207 
#    0.000    0.000    0.000    0.000    0.000    0.000 
#
# Total GULP energy -161474.649093 kJ/mol
# GULP energy per Si atom -5568.091348 kJ/mol
# Density = 2.003030 g / cm^3
# Si number density = 20.075990 Si / 1000 Ang^3
#
#
#
# Elastic Constant Matrix: (Units=GPa)
#
#
# Indices 1 2 3 4 5 6 
#
# 1 95.6618 -0.8805 14.7938 0.0000 -10.9034 0.0000
# 2 -0.8805 37.2418 4.6216 0.0000 -6.5692 0.0000
# 3 14.7938 4.6216 67.1676 0.0000 0.1834 0.0000
# 4 0.0000 0.0000 0.0000 17.6878 0.0000 -7.5312
# 5 -10.9034 -6.5692 0.1834 0.0000 33.4356 0.0000
# 6 0.0000 0.0000 0.0000 -7.5312 0.0000 15.5266
#
#
#
# Elastic Compliance Matrix: (Units=1/GPa)
#
#
# Indices 1 2 3 4 5 6 
#
# 1 0.011317 0.001287 -0.002592 0.000000 0.003958 0.000000
# 2 0.001287 0.028214 -0.002241 0.000000 0.005975 0.000000
# 3 -0.002592 -0.002241 0.015617 0.000000 -0.001371 0.000000
# 4 0.000000 0.000000 0.000000 0.071251 0.000000 0.034560
# 5 0.003958 0.005975 -0.001371 0.000000 0.032380 0.000000
# 6 0.000000 0.000000 0.000000 0.034560 0.000000 0.081169
#
#
# Mechanical properties :
#
#
# Convention : Reuss Voigt Hill
#
# Bulk Modulus (GPa) = 20.80879 26.34901 23.57890
# Shear Modulus (GPa) = 19.00708 25.43242 22.21975
#
# Velocity S-wave (km/s) = 3.08028 3.56309 3.33044
# Velocity P-wave (km/s) = 4.79983 5.48458 5.15359
#
# Compressibility (1/GPa) = 0.04805660
#
# Stress axis : x y z
#
# Youngs Moduli (GPa) = 88.36035 35.44323 64.03287
#
# Poissons Ratio (x) = -0.04563 0.16598
# Poissons Ratio (y) = -0.11375 0.14351
# Poissons Ratio (z) = 0.22903 0.07944
#
# Static dielectric constant tensor:
#      x y z
#    x 1.784510 0.000000 0.033980 
#    y 0.000000 1.733540 0.000000 
#    z 0.033980 0.000000 1.676620 
# 
# From -- ./inp_files/28814.got.cif
#   From: 2010.05.17/outbox.cif.g08.bks.cpg/sg12_15_cif.got.tgz:28814.got - 2010.06.03 13:09:07.
