data_PCOD9205346
_publ_section_title
;
Structure prediction by ZEFSAII (Michael W. Deem and Ramdas Pophale) SiO2 
 PCOD9205346
Probable space group: C 2/M
;
_chemical_formula_sum "Si O2"
_cell_formula_units_Z 64
_cell_length_a 25.676221
_cell_length_b 9.037049
_cell_length_c 32.278142
_cell_angle_alpha 90.000000
_cell_angle_beta 153.768039
_cell_angle_gamma 90.000000
_cell_volume 3310.508646
_symmetry_space_group_name_H-M "C 2/M"
_symmetry_group_IT_number 12
_symmetry_cell_setting 'monoclinic'
loop_
_space_group_symop_operation_xyz
x,y,z
-x,y,-z
-x,-y,-z
x,-y,z
1/2+x,1/2+y,z
1/2-x,1/2+y,-z
1/2-x,1/2-y,-z
1/2+x,1/2-y,z
loop_
_atom_site_type_symbol
_atom_site_label
_atom_site_fract_x
_atom_site_fract_y
_atom_site_fract_z
Si Si1 0.609318 0.168270 0.603801
Si Si2 0.242641 0.822520 0.449830
Si Si3 0.830309 0.676504 0.795217
Si Si4 0.505658 0.833367 0.621675
Si Si5 0.725335 0.324398 0.810160
Si Si6 0.773763 0.676330 0.103799
Si Si7 0.966605 0.822870 0.109792
Si Si8 0.992619 0.820891 0.766122
O O1 0.500000 0.231161 0.500000
O O2 0.727823 0.261236 0.691935
O O3 0.561235 0.158626 0.616033
O O4 0.633851 0.000000 0.606005
O O5 0.250000 0.750000 0.500000
O O6 0.369755 0.790062 0.520559
O O7 0.129387 0.773678 0.342723
O O8 0.233426 0.000000 0.447324
O O9 0.833429 0.500000 0.795422
O O10 0.794863 0.716359 0.817417
O O11 0.950952 0.745283 0.865145
O O12 0.588659 0.722308 0.705910
O O13 0.511561 0.000000 0.644399
O O14 0.734974 0.500000 0.822870
O O15 0.765371 0.238237 0.879417
O O16 0.788859 0.500000 0.116722
O O17 0.895166 0.752153 0.176830
O O18 0.669593 0.710413 0.997035
O O19 0.001964 0.778542 0.181582
O O20 0.982528 0.000000 0.117611
O O21 0.000208 0.000000 0.769430
#
# Coordination Sequence:
#
# PCOD9205346 Si02
#       8
#     8   8   8   8   8   8   8   8
#     4   9  18  32  56  82 109 149 190 228 278 340
#     4  10  21  35  54  81 113 146 186 229 275 331
#     4  10  22  38  57  85 120 154 193 243 294 342
#     4   9  18  33  53  81 111 144 187 233 275 329
#     4  10  21  38  59  84 117 156 194 238 292 349
#     4  11  23  39  61  88 114 147 194 247 297 347
#     4  10  23  41  62  86 116 153 194 241 292 351
#     4  10  22  40  62  86 116 154 192 237 290 351
#
# _framework density 19.332377000000001
#
# number of rings (size 3 to 8) (size 9 to 14) (size 15 to 20)
#    0.000    2.125    0.000    2.250    1.750    6.750 
#    0.000    2.500    0.000    0.000    0.000    0.000 
#    0.000    0.000    0.000    0.000    0.000    0.000 
#
# Total GULP energy -178604.234536 kJ/mol
# GULP energy per Si atom -5581.382329 kJ/mol
# Density = 1.928838 g / cm^3
# Si number density = 19.332377 Si / 1000 Ang^3
#
#
#
# Elastic Constant Matrix: (Units=GPa)
#
#
# Indices 1 2 3 4 5 6 
#
# 1 68.1885 25.5001 38.6632 0.0002 3.5857 -0.0002
# 2 25.5001 19.1080 21.7852 0.0003 -1.2951 -0.0017
# 3 38.6632 21.7852 102.8585 0.0003 -9.5032 0.0000
# 4 0.0002 0.0003 0.0003 23.6020 0.0001 4.6654
# 5 3.5857 -1.2951 -9.5032 0.0001 32.5867 0.0000
# 6 -0.0002 -0.0017 0.0000 4.6654 0.0000 27.6667
#
#
#
# Elastic Compliance Matrix: (Units=1/GPa)
#
#
# Indices 1 2 3 4 5 6 
#
# 1 0.031520 -0.037337 -0.004520 0.000001 -0.006270 -0.000002
# 2 -0.037337 0.113299 -0.009420 -0.000002 0.005864 0.000007
# 3 -0.004520 -0.009420 0.013799 0.000000 0.004147 -0.000001
# 4 0.000001 -0.000002 0.000000 0.043830 0.000000 -0.007391
# 5 -0.006270 0.005864 0.004147 0.000000 0.032820 0.000000
# 6 -0.000002 0.000007 -0.000001 -0.007391 0.000000 0.037391
#
#
# Mechanical properties :
#
#
# Convention : Reuss Voigt Hill
#
# Bulk Modulus (GPa) = 17.83638 40.22799 29.03218
# Shear Modulus (GPa) = 12.69355 23.71818 18.20587
#
# Velocity S-wave (km/s) = 2.56519 3.50646 3.07209
# Velocity P-wave (km/s) = 4.24498 6.10307 5.25677
#
# Compressibility (1/GPa) = 0.05606519
#
# Stress axis : x y z
#
# Youngs Moduli (GPa) = 31.72564 8.82622 72.46780
#
# Poissons Ratio (x) = 0.32954 0.32752
# Poissons Ratio (y) = 1.18454 0.68266
# Poissons Ratio (z) = 0.14338 0.08314
#
# Static dielectric constant tensor:
#      x y z
#    x 1.692500 0.000000 -0.000860 
#    y 0.000000 1.662870 0.000000 
#    z -0.000860 0.000000 1.682440 
# 
# From -- ./inp_files/382474.got.cif
#   From: 2010.05.17/outbox.cif.g08.bks.cpg/sg12_192_cif.got.tgz:382474.got - 2010.06.03 13:09:07.
