data_PCOD9205613
_publ_section_title
;
Structure prediction by ZEFSAII (Michael W. Deem and Ramdas Pophale) SiO2 
 PCOD9205613
Probable space group: C 2/M
;
_chemical_formula_sum "Si O2"
_cell_formula_units_Z 64
_cell_length_a 18.413376
_cell_length_b 22.350400
_cell_length_c 20.369646
_cell_angle_alpha 90.000000
_cell_angle_beta 22.466307
_cell_angle_gamma 90.000000
_cell_volume 3203.500440
_symmetry_space_group_name_H-M "C 2/M"
_symmetry_group_IT_number 12
_symmetry_cell_setting 'monoclinic'
loop_
_space_group_symop_operation_xyz
x,y,z
-x,y,-z
-x,-y,-z
x,-y,z
1/2+x,1/2+y,z
1/2-x,1/2+y,-z
1/2-x,1/2-y,-z
1/2+x,1/2-y,z
loop_
_atom_site_type_symbol
_atom_site_label
_atom_site_fract_x
_atom_site_fract_y
_atom_site_fract_z
Si Si1 0.214773 0.430797 0.407904
Si Si2 0.249021 0.569495 0.856882
Si Si3 0.292957 0.068510 0.253322
Si Si4 0.349708 0.858661 0.329097
Si Si5 0.396359 0.071710 0.777688
Si Si6 0.551203 0.262776 0.130428
Si Si7 0.996759 0.134957 0.924418
Si Si8 0.547797 0.366775 0.689959
O O1 0.202066 0.500000 0.397958
O O2 0.309032 0.391324 0.270981
O O3 0.361219 0.422020 0.346219
O O4 0.016634 0.413359 0.610183
O O5 0.311148 0.500000 0.811867
O O6 0.285047 0.589263 0.751696
O O7 0.351862 0.611706 0.822521
O O8 0.022853 0.569966 0.055600
O O9 0.253669 0.104629 0.351024
O O10 0.234635 0.000000 0.310365
O O11 0.503439 0.896571 0.243451
O O12 0.440462 0.799170 0.223616
O O13 0.186094 0.845566 0.517488
O O14 0.404353 0.000000 0.778872
O O15 0.181102 0.094617 0.951468
O O16 0.550215 0.297960 0.062317
O O17 0.460695 0.312724 0.252777
O O18 0.750000 0.250000 0.000000
O O19 0.000000 0.132502 0.000000
#
# Coordination Sequence:
#
# PCOD9205613 Si02
#       8
#     8   8   8   8   8   8   8   8
#     4   9  20  37  60  93 126 155 193 243 298 358
#     4   9  18  34  54  84 121 156 192 237 291 346
#     4   9  19  34  55  84 120 157 193 236 291 351
#     4  11  21  38  58  85 116 153 199 243 295 351
#     4  10  21  38  63  94 124 154 193 244 299 361
#     4  11  22  42  63  82 109 154 200 246 290 337
#     4  11  24  42  63  90 119 159 201 242 298 359
#     4  10  21  35  59  85 116 152 197 246 295 347
#
# _framework density 19.978147
#
# number of rings (size 3 to 8) (size 9 to 14) (size 15 to 20)
#    0.000    2.000    1.250    3.000    1.750    3.500 
#    4.500    2.500    0.000    0.000    0.000    0.000 
#    0.000    0.000    0.000    0.000    0.000    0.000 
#
# Total GULP energy -178558.714049 kJ/mol
# GULP energy per Si atom -5579.959814 kJ/mol
# Density = 1.993268 g / cm^3
# Si number density = 19.978147 Si / 1000 Ang^3
#
#
#
# Elastic Constant Matrix: (Units=GPa)
#
#
# Indices 1 2 3 4 5 6 
#
# 1 47.4706 14.2088 2.5330 -0.0357 13.3871 0.0323
# 2 14.2088 64.2554 17.0699 -0.0396 5.4312 -0.0073
# 3 2.5330 17.0699 52.3769 0.0089 4.0867 -0.0262
# 4 -0.0357 -0.0396 0.0089 14.1503 0.0085 11.9686
# 5 13.3871 5.4312 4.0867 0.0085 22.6802 0.0054
# 6 0.0323 -0.0073 -0.0262 11.9686 0.0054 5.0153
#
#
#
# Elastic Compliance Matrix: (Units=1/GPa)
#
#
# Indices 1 2 3 4 5 6 
#
# 1 0.026671 -0.005048 0.001511 -0.000189 -0.014806 0.000296
# 2 -0.005048 0.018214 -0.005664 -0.000016 -0.000362 0.000069
# 3 0.001511 -0.005664 0.021126 0.000102 -0.003342 -0.000149
# 4 -0.000189 -0.000016 0.000102 -0.069388 0.000084 0.165588
# 5 -0.014806 -0.000362 -0.003342 0.000084 0.053520 -0.000180
# 6 0.000296 0.000069 -0.000149 0.165588 -0.000180 -0.195772
#
#
# Mechanical properties :
#
#
# Convention : Reuss Voigt Hill
#
# Bulk Modulus (GPa) = 21.00417 25.74737 23.37577
# Shear Modulus (GPa) = -44.90032 17.05524 -13.92254
#
# Velocity S-wave (km/s) = -4.74589 2.92498 -2.64273
# Velocity P-wave (km/s) = 4.41531 4.93184 1.55372
#
# Compressibility (1/GPa) = 0.04760959
#
# Stress axis : x y z
#
# Youngs Moduli (GPa) = 37.49387 54.90194 47.33535
#
# Poissons Ratio (x) = 0.27713 -0.07151
# Poissons Ratio (y) = 0.18926 0.26810
# Poissons Ratio (z) = -0.05664 0.31095
#
# Static dielectric constant tensor:
#      x y z
#    x 1.731210 -0.000010 0.022910 
#    y -0.000010 1.710770 0.000060 
#    z 0.022910 0.000060 1.753040 
# 
# From -- ./inp_files/286451.got.cif
#   From: 2010.05.17/outbox.cif.g08.bks.cpg/sg12_144_cif.got.tgz:286451.got - 2010.06.03 13:09:07.
