data_PCOD9205937
_publ_section_title
;
Structure prediction by ZEFSAII (Michael W. Deem and Ramdas Pophale) SiO2 
 PCOD9205937
Probable space group: C 2/M
;
_chemical_formula_sum "Si O2"
_cell_formula_units_Z 56
_cell_length_a 19.212284
_cell_length_b 19.426305
_cell_length_c 22.096821
_cell_angle_alpha 90.000000
_cell_angle_beta 160.367670
_cell_angle_gamma 90.000000
_cell_volume 2770.871678
_symmetry_space_group_name_H-M "C 2/M"
_symmetry_group_IT_number 12
_symmetry_cell_setting 'monoclinic'
loop_
_space_group_symop_operation_xyz
x,y,z
-x,y,-z
-x,-y,-z
x,-y,z
1/2+x,1/2+y,z
1/2-x,1/2+y,-z
1/2-x,1/2-y,-z
1/2+x,1/2-y,z
loop_
_atom_site_type_symbol
_atom_site_label
_atom_site_fract_x
_atom_site_fract_y
_atom_site_fract_z
Si Si1 0.448777 0.672381 0.282783
Si Si2 0.699677 0.166342 0.340036
Si Si3 0.036709 0.416563 0.957234
Si Si4 0.182250 0.077804 0.104736
Si Si5 0.402335 0.077680 0.477671
Si Si6 0.895043 0.816289 0.715941
Si Si7 0.176229 0.315345 0.875655
O O1 0.577224 0.651514 0.447639
O O2 0.255918 0.620120 0.119959
O O3 0.615925 0.672209 0.364900
O O4 0.367538 0.751196 0.206030
O O5 0.709209 0.249223 0.340107
O O6 0.521422 0.161537 0.246537
O O7 0.627234 0.122199 0.222381
O O8 0.036951 0.500000 0.947422
O O9 0.000000 0.405404 0.000000
O O10 0.406243 0.075667 0.320040
O O11 0.225379 0.124802 0.083585
O O12 0.122567 0.000000 0.039431
O O13 0.000000 0.103675 0.000000
O O14 0.500000 0.114174 0.500000
O O15 0.204730 0.117213 0.337852
O O16 0.342352 0.000000 0.412284
O O17 0.135450 0.803239 0.924115
#
# Coordination Sequence:
#
# PCOD9205937 Si02
#       7
#     8   8   8   8   8   8   8
#     4  11  22  42  69  96 127 164 211 267 329 391
#     4  11  22  43  68  96 128 163 213 271 331 388
#     4  11  26  48  68  93 130 167 216 281 339 396
#     4  10  21  36  54  84 127 172 212 254 309 379
#     4  10  21  37  54  84 130 171 209 252 303 369
#     4  11  20  39  65  94 130 167 211 265 317 376
#     4  11  20  38  66  93 130 169 209 270 323 377
#
# _framework density 20.210246999999999
#
# number of rings (size 3 to 8) (size 9 to 14) (size 15 to 20)
#    0.000    1.286    2.857    5.143    0.000    4.571 
#    5.143    1.429    0.000    0.000    0.000    0.000 
#    0.000    0.000    0.000    0.000    0.000    0.000 
#
# Total GULP energy -155973.370907 kJ/mol
# GULP energy per Si atom -5570.477532 kJ/mol
# Density = 2.016425 g / cm^3
# Si number density = 20.210247 Si / 1000 Ang^3
#
#
#
# Elastic Constant Matrix: (Units=GPa)
#
#
# Indices 1 2 3 4 5 6 
#
# 1 72.7302 54.1258 19.4754 -0.0026 -9.9612 0.0032
# 2 54.1258 90.6096 27.6647 -0.0610 -0.3295 -0.0016
# 3 19.4754 27.6647 119.8965 -0.0630 -23.3575 0.0022
# 4 -0.0026 -0.0610 -0.0630 31.8677 -0.0042 7.6954
# 5 -9.9612 -0.3295 -23.3575 -0.0042 36.8910 0.0069
# 6 0.0032 -0.0016 0.0022 7.6954 0.0069 39.3213
#
#
#
# Elastic Compliance Matrix: (Units=1/GPa)
#
#
# Indices 1 2 3 4 5 6 
#
# 1 0.026520 -0.016082 0.000878 -0.000026 0.007573 0.000001
# 2 -0.016082 0.021738 -0.003664 0.000033 -0.006468 -0.000003
# 3 0.000878 -0.003664 0.010361 0.000016 0.006765 -0.000005
# 4 -0.000026 0.000033 0.000016 0.032936 0.000008 -0.006446
# 5 0.007573 -0.006468 0.006765 0.000008 0.033377 -0.000009
# 6 0.000001 -0.000003 -0.000005 -0.006446 -0.000009 0.026693
#
#
# Mechanical properties :
#
#
# Convention : Reuss Voigt Hill
#
# Bulk Modulus (GPa) = 47.88301 53.97422 50.92862
# Shear Modulus (GPa) = 25.46833 33.74737 29.60785
#
# Velocity S-wave (km/s) = 3.55374 4.09077 3.83167
# Velocity P-wave (km/s) = 6.37045 7.00549 6.69550
#
# Compressibility (1/GPa) = 0.02088423
#
# Stress axis : x y z
#
# Youngs Moduli (GPa) = 37.70731 46.00179 96.51593
#
# Poissons Ratio (x) = 0.73982 -0.08479
# Poissons Ratio (y) = 0.60643 0.35359
# Poissons Ratio (z) = -0.03312 0.16853
#
# Static dielectric constant tensor:
#      x y z
#    x 1.959640 -0.000030 -0.437440 
#    y -0.000030 1.737190 0.000010 
#    z -0.437440 0.000010 2.452810 
# 
# From -- ./inp_files/318053.got.cif
#   From: 2010.05.17/outbox.cif.g08.bks.cpg/sg12_160_cif.got.tgz:318053.got - 2010.06.03 13:09:07.
