data_PCOD9205943
_publ_section_title
;
Structure prediction by ZEFSAII (Michael W. Deem and Ramdas Pophale) SiO2 
 PCOD9205943
Probable space group: C 2/M
;
_chemical_formula_sum "Si O2"
_cell_formula_units_Z 56
_cell_length_a 20.977018
_cell_length_b 8.499499
_cell_length_c 29.106326
_cell_angle_alpha 90.000000
_cell_angle_beta 31.300191
_cell_angle_gamma 90.000000
_cell_volume 2696.052701
_symmetry_space_group_name_H-M "C 2/M"
_symmetry_group_IT_number 12
_symmetry_cell_setting 'monoclinic'
loop_
_space_group_symop_operation_xyz
x,y,z
-x,y,-z
-x,-y,-z
x,-y,z
1/2+x,1/2+y,z
1/2-x,1/2+y,-z
1/2-x,1/2-y,-z
1/2+x,1/2-y,z
loop_
_atom_site_type_symbol
_atom_site_label
_atom_site_fract_x
_atom_site_fract_y
_atom_site_fract_z
Si Si1 0.060750 0.178549 0.318577
Si Si2 0.405892 0.692311 0.598581
Si Si3 0.668156 0.809873 0.691870
Si Si4 0.158046 0.828840 0.999698
Si Si5 0.206665 0.500000 0.846620
Si Si6 0.953126 0.500000 0.962175
Si Si7 0.897424 0.826058 0.859300
Si Si8 0.662870 0.185975 0.592945
O O1 0.060945 0.246148 0.370292
O O2 0.200682 0.146768 0.216448
O O3 0.975711 0.265168 0.334571
O O4 0.008118 0.000000 0.354375
O O5 0.500000 0.736903 0.500000
O O6 0.406123 0.500000 0.600487
O O7 0.270076 0.741069 0.665756
O O8 0.533467 0.739361 0.779637
O O9 0.705705 0.761707 0.617003
O O10 0.660518 0.000000 0.698662
O O11 0.084915 0.667687 0.035454
O O12 0.298027 0.790861 0.898784
O O13 0.118170 0.000000 0.004944
O O14 0.148968 0.845350 0.060083
O O15 0.126194 0.500000 0.941923
O O16 0.100209 0.500000 0.874350
O O17 0.895334 0.000000 0.838146
O O18 0.750000 0.250000 0.500000
O O19 0.669479 0.000000 0.588830
#
# Coordination Sequence:
#
# PCOD9205943 Si02
#       8
#     8   8   8   8   4   4   8   8
#     4   9  20  38  61  83 121 162 201 252 312 374
#     4   9  17  33  58  86 114 153 202 253 303 369
#     4  10  22  35  60  91 117 152 209 259 306 373
#     4  10  22  37  60  90 123 162 203 256 316 374
#     4   9  24  40  61  94 114 170 213 248 324 380
#     4  11  22  42  66  86 126 166 218 257 312 385
#     4  10  21  36  54  89 124 157 198 250 323 376
#     4  11  23  39  59  90 122 163 208 257 315 375
#
# _framework density 20.771108000000002
#
# number of rings (size 3 to 8) (size 9 to 14) (size 15 to 20)
#    0.429    1.714    0.714    1.714    6.000    3.429 
#    0.000    2.857    0.000    1.714    0.000    0.000 
#    0.000    0.000    0.000    0.000    0.000    0.000 
#
# Total GULP energy -156053.809014 kJ/mol
# GULP energy per Si atom -5573.350322 kJ/mol
# Density = 2.072383 g / cm^3
# Si number density = 20.771108 Si / 1000 Ang^3
#
#
#
# Elastic Constant Matrix: (Units=GPa)
#
#
# Indices 1 2 3 4 5 6 
#
# 1 50.5934 17.0674 -14.6350 -0.0016 -5.3554 -0.0013
# 2 17.0674 67.4380 3.4705 -0.0033 -8.2999 0.0003
# 3 -14.6350 3.4705 54.1107 0.0005 -11.4021 0.0023
# 4 -0.0016 -0.0033 0.0005 -15.0618 0.0001 -11.3838
# 5 -5.3554 -8.2999 -11.4021 0.0001 34.1080 0.0010
# 6 -0.0013 0.0003 0.0023 -11.3838 0.0010 17.9417
#
#
#
# Elastic Compliance Matrix: (Units=1/GPa)
#
#
# Indices 1 2 3 4 5 6 
#
# 1 0.024704 -0.006040 0.008151 -0.000001 0.005134 0.000000
# 2 -0.006040 0.016765 -0.002204 -0.000002 0.002394 -0.000002
# 3 0.008151 -0.002204 0.022573 0.000002 0.008289 -0.000002
# 4 -0.000001 -0.000002 0.000002 -0.044874 0.000001 -0.028472
# 5 0.005134 0.002394 0.008289 0.000001 0.033478 -0.000002
# 6 0.000000 -0.000002 -0.000002 -0.028472 -0.000002 0.037671
#
#
# Mechanical properties :
#
#
# Convention : Reuss Voigt Hill
#
# Bulk Modulus (GPa) = 15.66029 20.43867 18.04948
# Shear Modulus (GPa) = 44.72672 18.48019 31.60345
#
# Velocity S-wave (km/s) = 4.64542 2.98603 3.90489
# Velocity P-wave (km/s) = 6.02736 4.66367 5.38882
#
# Compressibility (1/GPa) = 0.06385576
#
# Stress axis : x y z
#
# Youngs Moduli (GPa) = 40.47919 59.64760 44.30028
#
# Poissons Ratio (x) = 0.36026 -0.36108
# Poissons Ratio (y) = 0.24449 0.09765
# Poissons Ratio (z) = -0.32993 0.13148
#
# Static dielectric constant tensor:
#      x y z
#    x 1.794510 0.000000 0.016890 
#    y 0.000000 1.790820 0.000000 
#    z 0.016890 0.000000 1.767980 
# 
# From -- ./inp_files/380690.got.cif
#   From: 2010.05.17/outbox.cif.g08.bks.cpg/sg12_191_cif.got.tgz:380690.got - 2010.06.03 13:09:07.
