data_PCOD9205282
_publ_section_title
;
Structure prediction by ZEFSAII (Michael W. Deem and Ramdas Pophale) SiO2 
 PCOD9205282
Probable space group: C 2/M
;
_chemical_formula_sum "Si O2"
_cell_formula_units_Z 56
_cell_length_a 30.154348
_cell_length_b 16.376977
_cell_length_c 6.640261
_cell_angle_alpha 90.000000
_cell_angle_beta 113.678329
_cell_angle_gamma 90.000000
_cell_volume 3003.145500
_symmetry_space_group_name_H-M "C 2/M"
_symmetry_group_IT_number 12
_symmetry_cell_setting 'monoclinic'
loop_
_space_group_symop_operation_xyz
x,y,z
-x,y,-z
-x,-y,-z
x,-y,z
1/2+x,1/2+y,z
1/2-x,1/2+y,-z
1/2-x,1/2-y,-z
1/2+x,1/2-y,z
loop_
_atom_site_type_symbol
_atom_site_label
_atom_site_fract_x
_atom_site_fract_y
_atom_site_fract_z
Si Si1 0.803125 0.590163 0.430398
Si Si2 0.545359 0.907267 0.734576
Si Si3 0.716361 0.593278 0.950222
Si Si4 0.269677 0.189691 0.711202
Si Si5 0.108749 0.686655 0.561894
Si Si6 0.860395 0.204472 0.031703
Si Si7 0.447200 0.762107 0.928997
O O1 0.824699 0.500000 0.455620
O O2 0.784993 0.608284 0.620998
O O3 0.841952 0.658459 0.449528
O O4 0.759212 0.595996 0.193341
O O5 0.500000 0.899098 0.500000
O O6 0.590886 0.885037 0.677201
O O7 0.546963 0.000000 0.813881
O O8 0.545059 0.840331 0.909984
O O9 0.713174 0.500000 0.868523
O O10 0.731364 0.660228 0.808841
O O11 0.667477 0.620919 0.973529
O O12 0.250000 0.250000 0.500000
O O13 0.317031 0.232732 0.891631
O O14 0.116779 0.763700 0.719158
O O15 0.070880 0.706148 0.318956
O O16 0.903511 0.209602 0.947421
O O17 0.500000 0.721798 0.000000
#
# Coordination Sequence:
#
# PCOD9205282 Si02
#       7
#     8   8   8   8   8   8   8
#     4  11  22  35  55  84 121 161 196 236 283 344
#     4  10  21  35  53  79 115 156 199 245 294 347
#     4  11  24  41  59  88 125 155 191 243 298 356
#     4  12  21  37  60  87 120 156 197 235 287 357
#     4  11  21  38  55  79 118 159 200 244 289 343
#     4  11  23  38  62  86 113 158 201 243 297 355
#     4  11  23  39  58  83 113 154 206 254 296 345
#
# _framework density 18.647113999999998
#
# number of rings (size 3 to 8) (size 9 to 14) (size 15 to 20)
#    0.000    1.000    5.714    2.143    0.000    1.429 
#    0.000    0.000    0.000    0.429    0.000    1.000 
#    0.000    0.000    0.000    0.000    0.000    0.000 
#
# Total GULP energy -156291.989778 kJ/mol
# GULP energy per Si atom -5581.856778 kJ/mol
# Density = 1.860467 g / cm^3
# Si number density = 18.647114 Si / 1000 Ang^3
#
#
#
# Elastic Constant Matrix: (Units=GPa)
#
#
# Indices 1 2 3 4 5 6 
#
# 1 108.5231 24.3453 11.2988 0.0000 -1.1281 0.0000
# 2 24.3453 51.2804 15.6140 0.0000 3.1970 0.0000
# 3 11.2988 15.6140 81.8552 0.0000 1.9573 0.0000
# 4 0.0000 0.0000 0.0000 19.6933 0.0000 4.3098
# 5 -1.1281 3.1970 1.9573 0.0000 25.3484 0.0000
# 6 0.0000 0.0000 0.0000 4.3098 0.0000 14.7961
#
#
#
# Elastic Compliance Matrix: (Units=1/GPa)
#
#
# Indices 1 2 3 4 5 6 
#
# 1 0.010365 -0.004827 -0.000537 0.000000 0.001111 0.000000
# 2 -0.004827 0.023087 -0.003670 0.000000 -0.002843 0.000000
# 3 -0.000537 -0.003670 0.013004 0.000000 -0.000565 0.000000
# 4 0.000000 0.000000 0.000000 0.054236 0.000000 -0.015798
# 5 0.001111 -0.002843 -0.000565 0.000000 0.039902 0.000000
# 6 0.000000 0.000000 0.000000 -0.015798 0.000000 0.072187
#
#
# Mechanical properties :
#
#
# Convention : Reuss Voigt Hill
#
# Bulk Modulus (GPa) = 35.22346 38.24163 36.73254
# Shear Modulus (GPa) = 20.80652 24.66095 22.73373
#
# Velocity S-wave (km/s) = 3.34399 3.64057 3.49543
# Velocity P-wave (km/s) = 5.81723 6.18258 6.00269
#
# Compressibility (1/GPa) = 0.02839017
#
# Stress axis : x y z
#
# Youngs Moduli (GPa) = 96.48030 43.31514 76.89785
#
# Poissons Ratio (x) = 0.20906 0.04126
# Poissons Ratio (y) = 0.46567 0.28218
# Poissons Ratio (z) = 0.05177 0.15895
#
# Static dielectric constant tensor:
#      x y z
#    x 1.690210 0.000000 -0.008190 
#    y 0.000000 1.645420 0.000000 
#    z -0.008190 0.000000 1.637600 
# 
# From -- ./inp_files/28741.got.cif
#   From: 2010.05.17/outbox.cif.g08.bks.cpg/sg12_15_cif.got.tgz:28741.got - 2010.06.03 13:09:07.
