data_PCOD9205712
_publ_section_title
;
Structure prediction by ZEFSAII (Michael W. Deem and Ramdas Pophale) SiO2 
 PCOD9205712
Probable space group: C 2/M
;
_chemical_formula_sum "Si O2"
_cell_formula_units_Z 56
_cell_length_a 25.317315
_cell_length_b 8.461063
_cell_length_c 19.499378
_cell_angle_alpha 90.000000
_cell_angle_beta 49.505912
_cell_angle_gamma 90.000000
_cell_volume 3176.487252
_symmetry_space_group_name_H-M "C 2/M"
_symmetry_group_IT_number 12
_symmetry_cell_setting 'monoclinic'
loop_
_space_group_symop_operation_xyz
x,y,z
-x,y,-z
-x,-y,-z
x,-y,z
1/2+x,1/2+y,z
1/2-x,1/2+y,-z
1/2-x,1/2-y,-z
1/2+x,1/2-y,z
loop_
_atom_site_type_symbol
_atom_site_label
_atom_site_fract_x
_atom_site_fract_y
_atom_site_fract_z
Si Si1 0.539484 0.189807 0.252180
Si Si2 0.446090 0.808992 0.603536
Si Si3 0.563560 0.321924 0.000407
Si Si4 0.198423 0.310486 0.103012
Si Si5 0.293430 0.312960 0.750044
Si Si6 0.840613 0.191892 0.196366
Si Si7 0.461070 0.690935 0.195809
O O1 0.530351 0.233228 0.339363
O O2 0.617435 0.242978 0.163511
O O3 0.478303 0.258313 0.257430
O O4 0.538580 0.000000 0.247718
O O5 0.500000 0.757918 0.500000
O O6 0.369575 0.738340 0.661432
O O7 0.440251 0.000000 0.605622
O O8 0.586432 0.500000 0.000527
O O9 0.526894 0.244610 0.096092
O O10 0.500000 0.337130 0.000000
O O11 0.623489 0.246909 0.904564
O O12 0.199171 0.500000 0.100284
O O13 0.218724 0.258936 0.163320
O O14 0.250000 0.250000 0.000000
O O15 0.288943 0.500000 0.759746
O O16 0.237091 0.250546 0.743359
O O17 0.889979 0.241135 0.218060
O O18 0.842386 0.000000 0.192842
O O19 0.462883 0.500000 0.188961
#
# Coordination Sequence:
#
# PCOD9205712 Si02
#       7
#     8   8   8   8   8   8   8
#     4   9  19  33  50  76 105 129 162 211 265 315
#     4   9  19  39  63  80  97 129 172 216 267 325
#     4   7  12  24  41  62  88 126 176 214 237 271
#     4  10  21  36  51  71 103 143 181 218 261 308
#     4  11  22  34  51  79 109 136 171 214 265 316
#     4   9  17  31  49  70 101 141 182 217 247 295
#     4   9  17  29  48  73 101 138 179 213 251 301
#
# _framework density 17.629536999999999
#
# number of rings (size 3 to 8) (size 9 to 14) (size 15 to 20)
#    0.000    2.857    0.000    4.286    2.000    3.714 
#    0.000    0.000    0.000    3.429    0.000    0.000 
#    0.000    0.000    0.000    0.000    0.000    0.000 
#
# Total GULP energy -155932.736167 kJ/mol
# GULP energy per Si atom -5569.026292 kJ/mol
# Density = 1.758941 g / cm^3
# Si number density = 17.629537 Si / 1000 Ang^3
#
#
#
# Elastic Constant Matrix: (Units=GPa)
#
#
# Indices 1 2 3 4 5 6 
#
# 1 148.0174 29.3929 63.1622 0.0003 -0.1369 -0.0038
# 2 29.3929 25.7233 30.7650 -0.0028 0.0022 -0.0022
# 3 63.1622 30.7650 111.1847 0.0005 -1.1358 -0.0007
# 4 0.0003 -0.0028 0.0005 18.0882 -0.0002 2.3061
# 5 -0.1369 0.0022 -1.1358 -0.0002 11.6923 0.0014
# 6 -0.0038 -0.0022 -0.0007 2.3061 0.0014 24.3612
#
#
#
# Elastic Compliance Matrix: (Units=1/GPa)
#
#
# Indices 1 2 3 4 5 6 
#
# 1 0.009627 -0.006661 -0.003628 -0.000001 -0.000238 0.000001
# 2 -0.006661 0.062741 -0.013591 0.000010 -0.001410 0.000003
# 3 -0.003628 -0.013591 0.014830 -0.000002 0.001401 -0.000001
# 4 -0.000001 0.000010 -0.000002 0.055960 0.000001 -0.005297
# 5 -0.000238 -0.001410 0.001401 0.000001 0.085660 -0.000005
# 6 0.000001 0.000003 -0.000001 -0.005297 -0.000005 0.041550
#
#
# Mechanical properties :
#
#
# Convention : Reuss Voigt Hill
#
# Bulk Modulus (GPa) = 25.35623 59.06283 42.20953
# Shear Modulus (GPa) = 15.09325 21.60204 18.34765
#
# Velocity S-wave (km/s) = 2.92915 3.50427 3.22954
# Velocity P-wave (km/s) = 5.08468 7.06740 6.15638
#
# Compressibility (1/GPa) = 0.03943805
#
# Stress axis : x y z
#
# Youngs Moduli (GPa) = 103.87891 15.93848 67.43027
#
# Poissons Ratio (x) = 0.10616 0.24465
# Poissons Ratio (y) = 0.69190 0.91646
# Poissons Ratio (z) = 0.37689 0.21662
#
# Static dielectric constant tensor:
#      x y z
#    x 1.617400 0.000000 0.000510 
#    y 0.000000 1.616890 0.000000 
#    z 0.000510 0.000000 1.615560 
# 
# From -- ./inp_files/288163.got.cif
#   From: 2010.05.17/outbox.cif.g08.bks.cpg/sg12_145_cif.got.tgz:288163.got - 2010.06.03 13:09:07.
