data_PCOD9205057
_publ_section_title
;
Structure prediction by ZEFSAII (Michael W. Deem and Ramdas Pophale) SiO2 
 PCOD9205057
Probable space group: C 2/M
;
_chemical_formula_sum "Si O2"
_cell_formula_units_Z 56
_cell_length_a 8.854939
_cell_length_b 18.218083
_cell_length_c 17.405532
_cell_angle_alpha 90.000000
_cell_angle_beta 111.565184
_cell_angle_gamma 90.000000
_cell_volume 2611.310432
_symmetry_space_group_name_H-M "C 2/M"
_symmetry_group_IT_number 12
_symmetry_cell_setting 'monoclinic'
loop_
_space_group_symop_operation_xyz
x,y,z
-x,y,-z
-x,-y,-z
x,-y,z
1/2+x,1/2+y,z
1/2-x,1/2+y,-z
1/2-x,1/2-y,-z
1/2+x,1/2-y,z
loop_
_atom_site_type_symbol
_atom_site_label
_atom_site_fract_x
_atom_site_fract_y
_atom_site_fract_z
Si Si1 0.494672 0.347616 0.724003
Si Si2 0.789905 0.581364 0.852460
Si Si3 0.191366 0.733748 0.683440
Si Si4 0.153148 0.690957 0.429938
Si Si5 0.543258 0.794480 0.917384
Si Si6 0.859680 0.861549 0.026432
Si Si7 0.129860 0.916704 0.455597
O O1 0.617985 0.407957 0.777341
O O2 0.326317 0.325167 0.732279
O O3 0.606717 0.275337 0.737414
O O4 0.434366 0.368530 0.627045
O O5 0.857679 0.500000 0.850037
O O6 0.913860 0.648708 0.856897
O O7 0.736730 0.588671 0.931694
O O8 0.278989 0.792181 0.643032
O O9 0.039529 0.700316 0.608347
O O10 0.250000 0.750000 0.500000
O O11 0.207684 0.614614 0.476046
O O12 0.563313 0.706769 0.909561
O O13 0.500000 0.797256 0.000000
O O14 0.723974 0.826783 0.945074
O O15 0.000000 0.894761 0.000000
O O16 0.000000 0.912313 0.500000
O O17 0.146508 0.000000 0.432698
#
# Coordination Sequence:
#
# PCOD9205057 Si02
#       7
#     8   8   8   8   8   8   8
#     4  11  23  38  54  86 115 152 189 241 287 345
#     4  11  24  39  58  86 125 159 190 236 293 352
#     4  10  21  34  60  81 107 146 196 245 288 333
#     4  11  17  34  58  83 102 135 192 249 277 336
#     4   8  17  36  62  90 117 152 192 232 278 344
#     4   9  18  37  64  93 117 147 193 242 280 334
#     4  11  21  34  56  82 113 150 188 235 295 351
#
# _framework density 21.445170999999998
#
# number of rings (size 3 to 8) (size 9 to 14) (size 15 to 20)
#    0.000    1.857    4.286    1.714    2.000    2.857 
#    0.000    2.143    0.000    0.000    0.000    0.000 
#    0.000    0.000    0.000    0.000    0.000    0.000 
#
# Total GULP energy -156155.714093 kJ/mol
# GULP energy per Si atom -5576.989789 kJ/mol
# Density = 2.139636 g / cm^3
# Si number density = 21.445171 Si / 1000 Ang^3
#
#
#
# Elastic Constant Matrix: (Units=GPa)
#
#
# Indices 1 2 3 4 5 6 
#
# 1 91.2632 12.3925 11.4683 0.0000 27.5010 0.0000
# 2 12.3925 81.6339 12.1177 0.0000 25.5547 0.0000
# 3 11.4683 12.1177 63.2245 0.0000 29.2790 0.0000
# 4 0.0000 0.0000 0.0000 18.3253 0.0000 2.6721
# 5 27.5010 25.5547 29.2790 0.0000 31.7601 0.0000
# 6 0.0000 0.0000 0.0000 2.6721 0.0000 16.5120
#
#
#
# Elastic Compliance Matrix: (Units=1/GPa)
#
#
# Indices 1 2 3 4 5 6 
#
# 1 0.017047 0.004189 0.007855 0.000000 -0.025373 0.000000
# 2 0.004189 0.018433 0.007425 0.000000 -0.025304 0.000000
# 3 0.007855 0.007425 0.032954 0.000000 -0.043156 0.000000
# 4 0.000000 0.000000 0.000000 0.055888 0.000000 -0.009044
# 5 -0.025373 -0.025304 -0.043156 0.000000 0.113601 0.000000
# 6 0.000000 0.000000 0.000000 -0.009044 0.000000 0.062026
#
#
# Mechanical properties :
#
#
# Convention : Reuss Voigt Hill
#
# Bulk Modulus (GPa) = 9.31330 34.23095 21.77213
# Shear Modulus (GPa) = 16.84627 26.66233 21.75430
#
# Velocity S-wave (km/s) = 2.80581 3.52984 3.18844
# Velocity P-wave (km/s) = 3.85344 5.71050 4.87128
#
# Compressibility (1/GPa) = 0.10737329
#
# Stress axis : x y z
#
# Youngs Moduli (GPa) = 58.66027 54.25109 30.34528
#
# Poissons Ratio (x) = -0.22725 -0.23837
# Poissons Ratio (y) = -0.24572 -0.22533
# Poissons Ratio (z) = -0.46079 -0.40284
#
# Static dielectric constant tensor:
#      x y z
#    x 1.809920 0.000000 0.007980 
#    y 0.000000 1.819480 0.000000 
#    z 0.007980 0.000000 1.832630 
# 
# From -- ./inp_files/300887.got.cif
#   From: 2010.05.17/outbox.cif.g08.bks.cpg/sg12_151_cif.got.tgz:300887.got - 2010.06.03 13:09:07.
