data_PCOD9205339
_publ_section_title
;
Structure prediction by ZEFSAII (Michael W. Deem and Ramdas Pophale) SiO2 
 PCOD9205339
Probable space group: C 2/M
;
_chemical_formula_sum "Si O2"
_cell_formula_units_Z 64
_cell_length_a 15.254832
_cell_length_b 8.398705
_cell_length_c 31.871385
_cell_angle_alpha 90.000000
_cell_angle_beta 51.379851
_cell_angle_gamma 90.000000
_cell_volume 3190.355565
_symmetry_space_group_name_H-M "C 2/M"
_symmetry_group_IT_number 12
_symmetry_cell_setting 'monoclinic'
loop_
_space_group_symop_operation_xyz
x,y,z
-x,y,-z
-x,-y,-z
x,-y,z
1/2+x,1/2+y,z
1/2-x,1/2+y,-z
1/2-x,1/2-y,-z
1/2+x,1/2-y,z
loop_
_atom_site_type_symbol
_atom_site_label
_atom_site_fract_x
_atom_site_fract_y
_atom_site_fract_z
Si Si1 0.489427 0.808077 0.570948
Si Si2 0.982604 0.309380 0.173084
Si Si3 0.470840 0.316246 0.057202
Si Si4 0.653318 0.821850 0.057652
Si Si5 0.217295 0.186587 0.826001
Si Si6 0.434305 0.307954 0.366124
Si Si7 0.464845 0.312152 0.752107
Si Si8 0.179999 0.694000 0.450583
O O1 0.489457 0.744674 0.617822
O O2 0.386117 0.759630 0.572043
O O3 0.602715 0.754413 0.512712
O O4 0.490330 0.000000 0.571774
O O5 0.979159 0.500000 0.168127
O O6 0.876254 0.235293 0.180542
O O7 0.987715 0.269552 0.220351
O O8 0.098864 0.249371 0.116143
O O9 0.499606 0.500000 0.061522
O O10 0.545685 0.190735 0.059560
O O11 0.344102 0.291885 0.110524
O O12 0.500000 0.303423 0.000000
O O13 0.689837 0.000000 0.056953
O O14 0.750000 0.750000 0.000000
O O15 0.331817 0.282042 0.788817
O O16 0.243309 0.000000 0.813566
O O17 0.432326 0.500000 0.365865
O O18 0.478698 0.252923 0.307796
O O19 0.307456 0.249783 0.412543
O O20 0.486598 0.500000 0.749330
O O21 0.181088 0.500000 0.451148
#
# Coordination Sequence:
#
# PCOD9205339 Si02
#       8
#     8   8   8   8   8   8   8   8
#     4   9  17  32  57  84 110 146 189 231 276 331
#     4  10  22  41  61  82 112 148 189 237 286 341
#     4   9  19  35  55  80 108 136 171 219 277 339
#     4  10  21  35  54  81 110 140 175 219 275 336
#     4  10  21  39  61  83 111 147 186 234 290 344
#     4  10  21  36  53  79 114 148 185 232 282 330
#     4  11  24  39  57  82 114 156 200 240 284 337
#     4   8  16  33  55  80 113 150 185 225 279 335
#
# _framework density 20.060459000000002
#
# number of rings (size 3 to 8) (size 9 to 14) (size 15 to 20)
#    0.000    2.375    0.000    2.625    1.750    4.250 
#    0.000    3.125    0.000    0.000    0.000    0.000 
#    0.000    0.000    0.000    0.000    0.000    0.000 
#
# Total GULP energy -178488.310775 kJ/mol
# GULP energy per Si atom -5577.759712 kJ/mol
# Density = 2.001480 g / cm^3
# Si number density = 20.060459 Si / 1000 Ang^3
#
#
#
# Elastic Constant Matrix: (Units=GPa)
#
#
# Indices 1 2 3 4 5 6 
#
# 1 49.8126 -4.2718 23.1852 0.0000 16.2025 -0.0003
# 2 -4.2718 13.7783 6.2344 0.0000 5.1559 -0.0003
# 3 23.1852 6.2344 62.4618 -0.0001 30.9323 -0.0001
# 4 0.0000 0.0000 -0.0001 20.5001 0.0000 4.5323
# 5 16.2025 5.1559 30.9323 0.0000 34.9599 0.0000
# 6 -0.0003 -0.0003 -0.0001 4.5323 0.0000 27.0796
#
#
#
# Elastic Compliance Matrix: (Units=1/GPa)
#
#
# Indices 1 2 3 4 5 6 
#
# 1 0.027629 0.015125 -0.007688 0.000000 -0.008233 0.000000
# 2 0.015125 0.085571 -0.007892 0.000000 -0.012647 0.000001
# 3 -0.007688 -0.007892 0.030810 0.000000 -0.022534 0.000000
# 4 0.000000 0.000000 0.000000 0.050655 0.000000 -0.008478
# 5 -0.008233 -0.012647 -0.022534 0.000000 0.054223 0.000000
# 6 0.000000 0.000001 0.000000 -0.008478 0.000000 0.038347
#
#
# Mechanical properties :
#
#
# Convention : Reuss Voigt Hill
#
# Bulk Modulus (GPa) = 6.98810 19.59426 13.29118
# Shear Modulus (GPa) = 14.88783 23.23491 19.06137
#
# Velocity S-wave (km/s) = 2.72719 3.40699 3.08587
# Velocity P-wave (km/s) = 3.66168 5.02649 4.39735
#
# Compressibility (1/GPa) = 0.14310045
#
# Stress axis : x y z
#
# Youngs Moduli (GPa) = 36.19424 11.68620 32.45652
#
# Poissons Ratio (x) = -0.17676 0.24952
# Poissons Ratio (y) = -0.54745 0.25616
# Poissons Ratio (z) = 0.27826 0.09223
#
# Static dielectric constant tensor:
#      x y z
#    x 1.685260 0.000000 -0.009710 
#    y 0.000000 1.709270 0.000000 
#    z -0.009710 0.000000 1.734710 
# 
# From -- ./inp_files/375417.got.cif
#   From: 2010.05.17/outbox.cif.g08.bks.cpg/sg12_188_cif.got.tgz:375417.got - 2010.06.03 13:09:07.
