data_PCOD9205896
_publ_section_title
;
Structure prediction by ZEFSAII (Michael W. Deem and Ramdas Pophale) SiO2 
 PCOD9205896
Probable space group: C 2/M
;
_chemical_formula_sum "Si O2"
_cell_formula_units_Z 58
_cell_length_a 19.296314
_cell_length_b 7.537264
_cell_length_c 18.395605
_cell_angle_alpha 90.000000
_cell_angle_beta 102.567276
_cell_angle_gamma 90.000000
_cell_volume 2611.381407
_symmetry_space_group_name_H-M "C 2/M"
_symmetry_group_IT_number 12
_symmetry_cell_setting 'monoclinic'
loop_
_space_group_symop_operation_xyz
x,y,z
-x,y,-z
-x,-y,-z
x,-y,z
1/2+x,1/2+y,z
1/2-x,1/2+y,-z
1/2-x,1/2-y,-z
1/2+x,1/2-y,z
loop_
_atom_site_type_symbol
_atom_site_label
_atom_site_fract_x
_atom_site_fract_y
_atom_site_fract_z
Si Si1 0.996723 0.208947 0.784350
Si Si2 0.357699 0.195816 0.504014
Si Si3 0.346912 0.291425 0.202131
Si Si4 0.866109 0.204449 0.669514
Si Si5 0.779599 0.712754 0.926599
Si Si6 0.712940 0.783762 0.657984
Si Si7 0.938990 0.285000 0.930308
Si Si8 0.000000 0.500000 0.500000
O O1 0.939981 0.285308 0.713803
O O2 0.961697 0.229402 0.854978
O O3 0.076167 0.285673 0.800653
O O4 0.005751 0.000000 0.769367
O O5 0.358587 0.290252 0.581192
O O6 0.317039 0.277205 0.426506
O O7 0.324367 0.000000 0.510582
O O8 0.437790 0.151319 0.497962
O O9 0.348200 0.500000 0.183386
O O10 0.278948 0.216521 0.143665
O O11 0.333994 0.272042 0.284763
O O12 0.793703 0.280795 0.685963
O O13 0.867386 0.000000 0.693864
O O14 0.784126 0.500000 0.918771
O O15 0.859888 0.779148 0.932585
O O16 0.750000 0.750000 0.000000
O O17 0.711972 0.000000 0.655684
O O18 0.938438 0.500000 0.932217
O O19 0.000000 0.224382 0.000000
#
# Coordination Sequence:
#
# PCOD9205896 Si02
#       8
#     8   8   8   8   8   8   8   2
#     4  10  22  37  54  79 110 142 177 219 263 316
#     4   9  20  35  56  77 107 138 178 220 265 316
#     4  10  22  37  54  79 110 141 178 219 263 315
#     4  10  21  36  54  80 109 139 179 222 266 315
#     4  10  21  37  57  81 110 139 176 218 262 315
#     4  10  21  36  55  79 108 140 179 223 265 316
#     4  10  21  37  57  82 109 137 177 221 261 313
#     4   8  20  36  54  80 108 132 182 224 266 312
#
# _framework density 22.210467999999999
#
# number of rings (size 3 to 8) (size 9 to 14) (size 15 to 20)
#    0.414    1.793    0.000    2.069    1.931    3.586 
#    0.000    0.345    0.000    0.000    0.000    0.000 
#    0.000    0.000    0.000    0.000    0.000    0.000 
#
# Total GULP energy -161620.858731 kJ/mol
# GULP energy per Si atom -5573.133060 kJ/mol
# Density = 2.215992 g / cm^3
# Si number density = 22.210468 Si / 1000 Ang^3
#
#
#
# Elastic Constant Matrix: (Units=GPa)
#
#
# Indices 1 2 3 4 5 6 
#
# 1 213.9268 5.0975 64.0644 0.0000 -0.2063 0.0000
# 2 5.0975 48.5304 -17.0046 0.0000 4.2088 0.0000
# 3 64.0644 -17.0046 110.2688 0.0000 14.3330 0.0000
# 4 0.0000 0.0000 0.0000 21.9944 0.0000 -12.9225
# 5 -0.2063 4.2088 14.3330 0.0000 24.6299 0.0000
# 6 0.0000 0.0000 0.0000 -12.9225 0.0000 -12.4506
#
#
#
# Elastic Compliance Matrix: (Units=1/GPa)
#
#
# Indices 1 2 3 4 5 6 
#
# 1 0.006000 -0.002365 -0.004230 0.000000 0.002916 0.000000
# 2 -0.002365 0.023609 0.005995 0.000000 -0.007543 0.000000
# 3 -0.004230 0.005995 0.013619 0.000000 -0.008985 0.000000
# 4 0.000000 0.000000 0.000000 0.028243 0.000000 -0.029314
# 5 0.002916 -0.007543 -0.008985 0.000000 0.047143 0.000000
# 6 0.000000 0.000000 0.000000 -0.029314 0.000000 -0.049892
#
#
# Mechanical properties :
#
#
# Convention : Reuss Voigt Hill
#
# Bulk Modulus (GPa) = 23.79335 53.00452 38.39893
# Shear Modulus (GPa) = 59.57264 28.20598 43.88931
#
# Velocity S-wave (km/s) = 5.18460 3.56749 4.45012
# Velocity P-wave (km/s) = 6.82467 6.39420 6.61294
#
# Compressibility (1/GPa) = 0.04202855
#
# Stress axis : x y z
#
# Youngs Moduli (GPa) = 166.65568 42.35675 73.42836
#
# Poissons Ratio (x) = 0.10019 0.31060
# Poissons Ratio (y) = 0.39419 -0.44023
# Poissons Ratio (z) = 0.70494 -0.25395
#
# Static dielectric constant tensor:
#      x y z
#    x 1.835190 0.000000 0.043510 
#    y 0.000000 2.092690 0.000000 
#    z 0.043510 0.000000 1.774200 
# 
# From -- ./inp_files/275472.got.cif
#   From: 2010.05.17/outbox.cif.g08.bks.cpg/sg12_138_cif.got.tgz:275472.got - 2010.06.03 13:09:07.
