data_PCOD9205381
_publ_section_title
;
Structure prediction by ZEFSAII (Michael W. Deem and Ramdas Pophale) SiO2 
 PCOD9205381
Probable space group: C 2/M
;
_chemical_formula_sum "Si O2"
_cell_formula_units_Z 56
_cell_length_a 9.558153
_cell_length_b 19.943076
_cell_length_c 11.381540
_cell_angle_alpha 90.000000
_cell_angle_beta 83.623343
_cell_angle_gamma 90.000000
_cell_volume 2156.115066
_symmetry_space_group_name_H-M "C 2/M"
_symmetry_group_IT_number 12
_symmetry_cell_setting 'monoclinic'
loop_
_space_group_symop_operation_xyz
x,y,z
-x,y,-z
-x,-y,-z
x,-y,z
1/2+x,1/2+y,z
1/2-x,1/2+y,-z
1/2-x,1/2-y,-z
1/2+x,1/2-y,z
loop_
_atom_site_type_symbol
_atom_site_label
_atom_site_fract_x
_atom_site_fract_y
_atom_site_fract_z
Si Si1 0.701157 0.573056 0.854736
Si Si2 0.042610 0.260259 0.121548
Si Si3 0.141559 0.823755 0.371633
Si Si4 0.340340 0.307420 0.310276
Si Si5 0.293684 0.366726 0.893924
Si Si6 0.489247 0.900104 0.188089
Si Si7 0.858883 0.423855 0.447372
O O1 0.634074 0.500000 0.842419
O O2 0.695230 0.617878 0.735070
O O3 0.867852 0.565521 0.857665
O O4 0.653018 0.602636 0.987131
O O5 0.174932 0.212296 0.095974
O O6 0.044846 0.323947 0.204545
O O7 0.916116 0.217349 0.183726
O O8 0.000000 0.285757 0.000000
O O9 0.229494 0.752752 0.352681
O O10 0.149417 0.868796 0.247691
O O11 0.230903 0.870313 0.454386
O O12 0.974250 0.808106 0.387025
O O13 0.137572 0.394570 0.891409
O O14 0.417349 0.927823 0.310174
O O15 0.822249 0.500000 0.491038
O O16 0.000000 0.399352 0.500000
#
# Coordination Sequence:
#
# PCOD9205381 Si02
#       7
#     8   8   8   8   8   8   8
#     4  12  25  38  56  89 134 177 220 264 313 373
#     4  11  19  34  58  87 122 168 214 258 303 366
#     4  10  23  40  66  95 126 168 219 264 320 378
#     4  11  22  40  63  90 131 173 219 265 315 370
#     4  10  21  35  54  88 125 171 211 261 306 366
#     4  11  23  36  61  91 124 165 217 264 317 387
#     4  10  22  44  71  98 129 164 205 260 330 397
#
# _framework density 25.972639999999998
#
# number of rings (size 3 to 8) (size 9 to 14) (size 15 to 20)
#    0.000    1.286    4.286    3.429    0.000    5.714 
#    0.000    5.714    0.000    0.000    0.000    3.000 
#    0.000    0.000    0.000    0.000    0.000    0.000 
#
# Total GULP energy -155908.969546 kJ/mol
# GULP energy per Si atom -5568.177484 kJ/mol
# Density = 2.591353 g / cm^3
# Si number density = 25.972640 Si / 1000 Ang^3
#
#
#
# Elastic Constant Matrix: (Units=GPa)
#
#
# Indices 1 2 3 4 5 6 
#
# 1 152.3475 53.9110 30.6348 0.0000 31.4957 0.0000
# 2 53.9110 142.2026 34.1926 0.0000 22.2438 0.0000
# 3 30.6348 34.1926 96.6251 0.0000 33.0905 0.0000
# 4 0.0000 0.0000 0.0000 23.7051 0.0000 -5.0936
# 5 31.4957 22.2438 33.0905 0.0000 31.9341 0.0000
# 6 0.0000 0.0000 0.0000 -5.0936 0.0000 4.2348
#
#
#
# Elastic Compliance Matrix: (Units=1/GPa)
#
#
# Indices 1 2 3 4 5 6 
#
# 1 0.008862 -0.002297 0.000695 0.000000 -0.007861 0.000000
# 2 -0.002297 0.008614 -0.001614 0.000000 -0.002062 0.000000
# 3 0.000695 -0.001614 0.016353 0.000000 -0.016507 0.000000
# 4 0.000000 0.000000 0.000000 0.056888 0.000000 0.068425
# 5 -0.007861 -0.002062 -0.016507 0.000000 0.057608 0.000000
# 6 0.000000 0.000000 0.000000 0.068425 0.000000 0.318442
#
#
# Mechanical properties :
#
#
# Convention : Reuss Voigt Hill
#
# Bulk Modulus (GPa) = 36.50004 69.85024 53.17514
# Shear Modulus (GPa) = 10.36635 30.13726 20.25180
#
# Velocity S-wave (km/s) = 1.99998 3.41008 2.79540
# Velocity P-wave (km/s) = 4.40647 6.51591 5.56211
#
# Compressibility (1/GPa) = 0.02739723
#
# Stress axis : x y z
#
# Youngs Moduli (GPa) = 112.83898 116.09390 61.15180
#
# Poissons Ratio (x) = 0.26671 -0.04251
# Poissons Ratio (y) = 0.25923 0.09867
# Poissons Ratio (z) = -0.07845 0.18733
#
# Static dielectric constant tensor:
#      x y z
#    x 2.120830 0.000000 0.011820 
#    y 0.000000 2.152050 0.000000 
#    z 0.011820 0.000000 2.177790 
# 
# From -- ./inp_files/207304.got.cif
#   From: 2010.05.17/outbox.cif.g08.bks.cpg/sg12_104_cif.got.tgz:207304.got - 2010.06.03 13:09:07.
