data_PCOD9205618
_publ_section_title
;
Structure prediction by ZEFSAII (Michael W. Deem and Ramdas Pophale) SiO2 
 PCOD9205618
Probable space group: C 2/M
;
_chemical_formula_sum "Si O2"
_cell_formula_units_Z 56
_cell_length_a 22.430154
_cell_length_b 13.985312
_cell_length_c 22.956561
_cell_angle_alpha 90.000000
_cell_angle_beta 159.715608
_cell_angle_gamma 90.000000
_cell_volume 2496.549703
_symmetry_space_group_name_H-M "C 2/M"
_symmetry_group_IT_number 12
_symmetry_cell_setting 'monoclinic'
loop_
_space_group_symop_operation_xyz
x,y,z
-x,y,-z
-x,-y,-z
x,-y,z
1/2+x,1/2+y,z
1/2-x,1/2+y,-z
1/2-x,1/2-y,-z
1/2+x,1/2-y,z
loop_
_atom_site_type_symbol
_atom_site_label
_atom_site_fract_x
_atom_site_fract_y
_atom_site_fract_z
Si Si1 0.776331 0.109219 0.975881
Si Si2 0.237592 0.889137 0.722151
Si Si3 0.198266 0.750828 0.589022
Si Si4 0.366773 0.111361 0.960338
Si Si5 0.900170 0.608482 0.303004
Si Si6 0.345847 0.611257 0.816827
Si Si7 0.975810 0.707572 0.175958
O O1 0.751605 0.115768 0.883621
O O2 0.593964 0.142954 0.835854
O O3 0.812959 0.000000 0.024743
O O4 0.914867 0.183397 0.127323
O O5 0.141511 0.828783 0.585064
O O6 0.251074 0.852093 0.800771
O O7 0.187532 0.000000 0.677699
O O8 0.435991 0.887371 0.881337
O O9 0.317317 0.677590 0.735538
O O10 0.323297 0.796385 0.655388
O O11 0.042032 0.688462 0.422948
O O12 0.322611 0.000000 0.930513
O O13 0.369932 0.169604 0.022445
O O14 0.971240 0.500000 0.362313
O O15 0.821839 0.616487 0.295718
O O16 0.375246 0.500000 0.828281
O O17 0.500000 0.643738 0.000000
#
# Coordination Sequence:
#
# PCOD9205618 Si02
#       7
#     8   8   8   8   8   8   8
#     4  10  22  40  58  80 114 152 195 245 286 337
#     4   8  16  28  47  78 112 147 183 228 282 336
#     4  11  21  32  58  85 117 152 189 238 285 350
#     4   8  14  28  50  78 110 140 184 237 283 335
#     4  10  22  39  57  83 120 156 188 228 288 348
#     4  10  21  36  57  86 117 150 188 231 283 342
#     4  10  21  35  59  87 108 145 198 243 293 340
#
# _framework density 22.430958
#
# number of rings (size 3 to 8) (size 9 to 14) (size 15 to 20)
#    0.000    2.429    0.000    3.000    6.000    4.571 
#    0.000    0.000    0.000    6.000    0.000    0.000 
#    0.000    0.000    0.000    0.000    0.000    0.000 
#
# Total GULP energy -156542.293470 kJ/mol
# GULP energy per Si atom -5590.796195 kJ/mol
# Density = 2.237990 g / cm^3
# Si number density = 22.430958 Si / 1000 Ang^3
#
#
#
# Elastic Constant Matrix: (Units=GPa)
#
#
# Indices 1 2 3 4 5 6 
#
# 1 63.6975 1.6985 -5.8893 -0.0031 8.8168 -0.0006
# 2 1.6985 93.6947 4.3200 0.0027 -8.6977 0.0005
# 3 -5.8893 4.3200 49.2085 -0.0007 2.9759 -0.0006
# 4 -0.0031 0.0027 -0.0007 23.2393 0.0006 -2.4447
# 5 8.8168 -8.6977 2.9759 0.0006 20.6295 -0.0006
# 6 -0.0006 0.0005 -0.0006 -2.4447 -0.0006 25.1129
#
#
#
# Elastic Compliance Matrix: (Units=1/GPa)
#
#
# Indices 1 2 3 4 5 6 
#
# 1 0.017111 -0.001193 0.002648 0.000003 -0.008198 0.000001
# 2 -0.001193 0.011270 -0.001463 -0.000002 0.005473 0.000000
# 3 0.002648 -0.001463 0.021057 0.000001 -0.004786 0.000001
# 4 0.000003 -0.000002 0.000001 0.043476 -0.000003 0.004232
# 5 -0.008198 0.005473 -0.004786 -0.000003 0.054976 0.000001
# 6 0.000001 0.000000 0.000001 0.004232 0.000001 0.040232
#
#
# Mechanical properties :
#
#
# Convention : Reuss Voigt Hill
#
# Bulk Modulus (GPa) = 20.23431 22.98433 21.60932
# Shear Modulus (GPa) = 24.43660 27.56111 25.99885
#
# Velocity S-wave (km/s) = 3.30421 3.50910 3.40819
# Velocity P-wave (km/s) = 4.85771 5.16597 5.01421
#
# Compressibility (1/GPa) = 0.04942101
#
# Stress axis : x y z
#
# Youngs Moduli (GPa) = 58.44327 88.73036 47.49113
#
# Poissons Ratio (x) = 0.10588 -0.12577
# Poissons Ratio (y) = 0.06974 0.06949
# Poissons Ratio (z) = -0.15478 0.12983
#
# Static dielectric constant tensor:
#      x y z
#    x 1.827870 0.000000 0.015940 
#    y 0.000000 1.840160 0.000000 
#    z 0.015940 0.000000 1.840610 
# 
# From -- ./inp_files/349807.got.cif
#   From: 2010.05.17/outbox.cif.g08.bks.cpg/sg12_175_cif.got.tgz:349807.got - 2010.06.03 13:09:07.
