data_PCOD9205237
_publ_section_title
;
Structure prediction by ZEFSAII (Michael W. Deem and Ramdas Pophale) SiO2 
 PCOD9205237
Probable space group: C 2/M
;
_chemical_formula_sum "Si O2"
_cell_formula_units_Z 48
_cell_length_a 19.699680
_cell_length_b 18.847324
_cell_length_c 19.797481
_cell_angle_alpha 90.000000
_cell_angle_beta 160.193498
_cell_angle_gamma 90.000000
_cell_volume 2490.688914
_symmetry_space_group_name_H-M "C 2/M"
_symmetry_group_IT_number 12
_symmetry_cell_setting 'monoclinic'
loop_
_space_group_symop_operation_xyz
x,y,z
-x,y,-z
-x,-y,-z
x,-y,z
1/2+x,1/2+y,z
1/2-x,1/2+y,-z
1/2-x,1/2-y,-z
1/2+x,1/2-y,z
loop_
_atom_site_type_symbol
_atom_site_label
_atom_site_fract_x
_atom_site_fract_y
_atom_site_fract_z
Si Si1 0.248391 0.920017 0.018262
Si Si2 0.266173 0.577638 0.267159
Si Si3 0.570934 0.129227 0.220326
Si Si4 0.647252 0.778921 0.080963
Si Si5 0.629976 0.338328 0.375970
Si Si6 0.028867 0.705421 0.697119
O O1 0.387859 0.912185 0.082782
O O2 0.340803 0.859834 0.153195
O O3 0.262460 0.000000 0.057596
O O4 0.022359 0.898816 0.788523
O O5 0.500000 0.580656 0.500000
O O6 0.218793 0.500000 0.194045
O O7 0.163070 0.588896 0.243014
O O8 0.209749 0.643798 0.167894
O O9 0.739357 0.141669 0.435163
O O10 0.481185 0.202715 0.106166
O O11 0.847564 0.736778 0.249790
O O12 0.500000 0.747052 0.000000
O O13 0.497348 0.270196 0.273793
O O14 0.798238 0.320411 0.477270
#
# Coordination Sequence:
#
# PCOD9205237 Si02
#       6
#     8   8   8   8   8   8
#     4  11  23  37  58  86 116 148 185 234 294 342
#     4  10  21  35  52  80 120 161 192 222 263 324
#     4  10  21  36  57  84 118 151 190 225 271 338
#     4  10  21  37  57  81 114 154 195 229 273 327
#     4  10  21  35  62  83 114 151 188 233 286 335
#     4  10  21  38  58  84 113 146 191 240 280 334
#
# _framework density 19.271777
#
# number of rings (size 3 to 8) (size 9 to 14) (size 15 to 20)
#    0.000    1.833    1.667    2.000    4.667    7.000 
#    0.000    0.000    0.000    0.500    0.000    1.167 
#    0.000    0.000    0.000    0.000    0.000    0.000 
#
# Total GULP energy -133953.117233 kJ/mol
# GULP energy per Si atom -5581.379885 kJ/mol
# Density = 1.922791 g / cm^3
# Si number density = 19.271777 Si / 1000 Ang^3
#
#
#
# Elastic Constant Matrix: (Units=GPa)
#
#
# Indices 1 2 3 4 5 6 
#
# 1 103.1479 50.5847 41.9548 -0.0184 34.0668 -0.0050
# 2 50.5847 96.2801 42.3738 -0.0257 9.8256 -0.0149
# 3 41.9548 42.3738 109.2602 -0.0348 22.5192 -0.0194
# 4 -0.0184 -0.0257 -0.0348 10.0964 -0.0144 -5.4223
# 5 34.0668 9.8256 22.5192 -0.0144 32.2294 -0.0086
# 6 -0.0050 -0.0149 -0.0194 -5.4223 -0.0086 12.9468
#
#
#
# Elastic Compliance Matrix: (Units=1/GPa)
#
#
# Indices 1 2 3 4 5 6 
#
# 1 0.020115 -0.008395 -0.000717 -0.000027 -0.018201 -0.000027
# 2 -0.008395 0.016035 -0.004458 0.000035 0.007101 0.000028
# 3 -0.000717 -0.004458 0.012524 0.000033 -0.006634 0.000023
# 4 -0.000027 0.000035 0.000033 0.127789 0.000066 0.053520
# 5 -0.018201 0.007101 -0.006634 0.000066 0.052737 0.000054
# 6 -0.000027 0.000028 0.000023 0.053520 0.000054 0.099655
#
#
# Mechanical properties :
#
#
# Convention : Reuss Voigt Hill
#
# Bulk Modulus (GPa) = 46.44030 64.27942 55.35986
# Shear Modulus (GPa) = 13.76755 22.63951 18.20353
#
# Velocity S-wave (km/s) = 2.67571 3.43118 3.07672
# Velocity P-wave (km/s) = 5.80480 7.00885 6.43505
#
# Compressibility (1/GPa) = 0.02153302
#
# Stress axis : x y z
#
# Youngs Moduli (GPa) = 49.71457 62.36447 79.84632
#
# Poissons Ratio (x) = 0.52357 0.05721
# Poissons Ratio (y) = 0.41737 0.35599
# Poissons Ratio (z) = 0.03562 0.27805
#
# Static dielectric constant tensor:
#      x y z
#    x 1.690970 0.000000 -0.002260 
#    y 0.000000 1.684350 -0.000010 
#    z -0.002260 -0.000010 1.719980 
# 
# From -- ./inp_files/322585.got.cif
#   From: 2010.05.17/outbox.cif.g08.bks.cpg/sg12_162_cif.got.tgz:322585.got - 2010.06.03 13:09:07.
