data_PCOD9205252
_publ_section_title
;
Structure prediction by ZEFSAII (Michael W. Deem and Ramdas Pophale) SiO2 
 PCOD9205252
Probable space group: C 2/M
;
_chemical_formula_sum "Si O2"
_cell_formula_units_Z 64
_cell_length_a 10.427020
_cell_length_b 28.090157
_cell_length_c 15.274052
_cell_angle_alpha 90.000000
_cell_angle_beta 120.227924
_cell_angle_gamma 90.000000
_cell_volume 3865.424820
_symmetry_space_group_name_H-M "C 2/M"
_symmetry_group_IT_number 12
_symmetry_cell_setting 'monoclinic'
loop_
_space_group_symop_operation_xyz
x,y,z
-x,y,-z
-x,-y,-z
x,-y,z
1/2+x,1/2+y,z
1/2-x,1/2+y,-z
1/2-x,1/2-y,-z
1/2+x,1/2-y,z
loop_
_atom_site_type_symbol
_atom_site_label
_atom_site_fract_x
_atom_site_fract_y
_atom_site_fract_z
Si Si1 0.574939 0.806540 0.430981
Si Si2 0.428527 0.311105 0.880402
Si Si3 0.610821 0.351638 0.781729
Si Si4 0.070477 0.698029 0.119670
Si Si5 0.762707 0.555165 0.878399
Si Si6 0.925232 0.195641 0.568870
Si Si7 0.075445 0.555387 0.884825
Si Si8 0.897339 0.647250 0.215643
O O1 0.500000 0.812280 0.500000
O O2 0.750599 0.813981 0.500562
O O3 0.554051 0.751056 0.396022
O O4 0.499979 0.840273 0.333668
O O5 0.537644 0.330561 0.843877
O O6 0.409911 0.254440 0.862079
O O7 0.269067 0.336093 0.821068
O O8 0.500000 0.319163 0.000000
O O9 0.770619 0.327302 0.820717
O O10 0.642327 0.407309 0.805561
O O11 0.504258 0.338049 0.665495
O O12 0.961986 0.677456 0.156169
O O13 0.000000 0.689000 0.000000
O O14 0.717225 0.500000 0.858515
O O15 0.910868 0.560472 0.869985
O O16 0.813947 0.565718 0.995766
O O17 0.000000 0.190583 0.500000
O O18 0.094463 0.500000 0.866552
O O19 0.097491 0.592866 0.815250
#
# Coordination Sequence:
#
# PCOD9205252 Si02
#       8
#     8   8   8   8   8   8   8   8
#     4  10  21  37  53  73 105 145 187 226 265 317
#     4  11  23  33  47  80 119 144 171 213 268 336
#     4  12  21  35  56  78 110 147 181 225 278 321
#     4  11  21  33  51  78 111 147 181 212 259 333
#     4   9  18  34  57  83 110 140 178 224 272 326
#     4  10  21  35  53  77 104 138 186 235 270 308
#     4   9  18  34  57  84 108 137 184 228 262 322
#     4  12  21  35  58  78 105 149 187 219 270 323
#
# _framework density 16.557043
#
# number of rings (size 3 to 8) (size 9 to 14) (size 15 to 20)
#    0.000    1.500    1.250    6.750    0.000    4.000 
#    0.000    0.625    0.000    3.750    0.000    0.000 
#    0.000    0.000    0.000    0.000    0.000    0.000 
#
# Total GULP energy -178801.613160 kJ/mol
# GULP energy per Si atom -5587.550411 kJ/mol
# Density = 1.651936 g / cm^3
# Si number density = 16.557043 Si / 1000 Ang^3
#
#
#
# Elastic Constant Matrix: (Units=GPa)
#
#
# Indices 1 2 3 4 5 6 
#
# 1 40.4833 11.6476 0.1456 0.0000 11.9468 0.0000
# 2 11.6476 97.4441 62.3259 0.0000 13.6747 0.0000
# 3 0.1456 62.3259 70.4820 0.0000 11.1399 0.0000
# 4 0.0000 0.0000 0.0000 27.4516 0.0000 10.6264
# 5 11.9468 13.6747 11.1399 0.0000 18.2226 0.0000
# 6 0.0000 0.0000 0.0000 10.6264 0.0000 -1.8104
#
#
#
# Elastic Compliance Matrix: (Units=1/GPa)
#
#
# Indices 1 2 3 4 5 6 
#
# 1 0.033334 -0.007037 0.009712 0.000000 -0.022510 0.000000
# 2 -0.007037 0.025616 -0.022502 0.000000 -0.000853 0.000000
# 3 0.009712 -0.022502 0.035869 0.000000 -0.011409 0.000000
# 4 0.000000 0.000000 0.000000 0.011133 0.000000 0.065345
# 5 -0.022510 -0.000853 -0.011409 0.000000 0.077249 0.000000
# 6 0.000000 0.000000 0.000000 0.065345 0.000000 -0.168808
#
#
# Mechanical properties :
#
#
# Convention : Reuss Voigt Hill
#
# Bulk Modulus (GPa) = 18.12770 39.62750 28.87760
# Shear Modulus (GPa) = 69.02559 17.72543 43.37551
#
# Velocity S-wave (km/s) = 6.46375 3.27550 5.12391
# Velocity P-wave (km/s) = 8.16573 6.18798 7.24466
#
# Compressibility (1/GPa) = 0.05516419
#
# Stress axis : x y z
#
# Youngs Moduli (GPa) = 29.99922 39.03861 27.87899
#
# Poissons Ratio (x) = 0.27473 -0.27076
# Poissons Ratio (y) = 0.21111 0.62734
# Poissons Ratio (z) = -0.29135 0.87845
#
# Static dielectric constant tensor:
#      x y z
#    x 1.537650 0.000000 -0.001750 
#    y 0.000000 1.554940 0.000000 
#    z -0.001750 0.000000 1.542170 
# 
# From -- ./inp_files/199904.got.cif
#   From: 2010.05.17/outbox.cif.g08.bks.cpg/sg12_100_cif.got.tgz:199904.got - 2010.06.03 13:09:07.
