data_PCOD9205776
_publ_section_title
;
Structure prediction by ZEFSAII (Michael W. Deem and Ramdas Pophale) SiO2 
 PCOD9205776
Probable space group: C 2/M
;
_chemical_formula_sum "Si O2"
_cell_formula_units_Z 64
_cell_length_a 22.130791
_cell_length_b 31.314390
_cell_length_c 15.583972
_cell_angle_alpha 90.000000
_cell_angle_beta 159.736733
_cell_angle_gamma 90.000000
_cell_volume 3740.369810
_symmetry_space_group_name_H-M "C 2/M"
_symmetry_group_IT_number 12
_symmetry_cell_setting 'monoclinic'
loop_
_space_group_symop_operation_xyz
x,y,z
-x,y,-z
-x,-y,-z
x,-y,z
1/2+x,1/2+y,z
1/2-x,1/2+y,-z
1/2-x,1/2-y,-z
1/2+x,1/2-y,z
loop_
_atom_site_type_symbol
_atom_site_label
_atom_site_fract_x
_atom_site_fract_y
_atom_site_fract_z
Si Si1 0.006788 0.948665 0.674901
Si Si2 0.348418 0.090854 0.865441
Si Si3 0.644210 0.192395 0.926829
Si Si4 0.288342 0.948418 0.384622
Si Si5 0.500928 0.744570 0.402651
Si Si6 0.646075 0.807271 0.126067
Si Si7 0.993841 0.948293 0.128026
Si Si8 0.634428 0.090966 0.912940
O O1 0.831587 0.932576 0.395953
O O2 0.000077 0.934454 0.765770
O O3 0.014436 0.000000 0.681947
O O4 0.180365 0.929523 0.864181
O O5 0.319168 0.141947 0.819525
O O6 0.500000 0.078834 0.000000
O O7 0.401858 0.081999 0.034729
O O8 0.529168 0.217829 0.705062
O O9 0.643588 0.141822 0.912309
O O10 0.587832 0.200398 0.950200
O O11 0.839348 0.211603 0.179107
O O12 0.477314 0.928442 0.648239
O O13 0.161884 0.935605 0.295531
O O14 0.303083 0.000000 0.404463
O O15 0.180645 0.935532 0.156043
O O16 0.500000 0.760354 0.500000
O O17 0.678863 0.719151 0.625205
O O18 0.500000 0.795566 0.000000
O O19 0.994254 0.000000 0.128216
#
# Coordination Sequence:
#
# PCOD9205776 Si02
#       8
#     8   8   8   8   8   8   8   8
#     4  11  22  34  50  75 106 136 172 218 257 293
#     4  10  21  36  53  75 103 137 172 205 255 313
#     4   9  19  34  52  75 101 136 167 202 245 308
#     4   9  17  33  55  72  96 136 176 210 248 304
#     4   9  17  34  56  73 100 134 170 197 243 306
#     4   9  18  33  56  79 100 129 165 210 254 297
#     4   8  17  34  53  71  93 134 181 209 247 302
#     4  11  21  33  51  77 107 131 167 215 261 294
#
# _framework density 17.110607000000002
#
# number of rings (size 3 to 8) (size 9 to 14) (size 15 to 20)
#    0.000    2.500    0.000    3.000    0.000    4.750 
#    2.250    1.875    2.750    0.000    0.000    0.000 
#    0.000    0.000    0.000    0.000    0.000    0.000 
#
# Total GULP energy -178485.206288 kJ/mol
# GULP energy per Si atom -5577.662697 kJ/mol
# Density = 1.707166 g / cm^3
# Si number density = 17.110607 Si / 1000 Ang^3
#
#
#
# Elastic Constant Matrix: (Units=GPa)
#
#
# Indices 1 2 3 4 5 6 
#
# 1 41.9402 21.8696 12.8287 -0.0001 3.5572 0.0001
# 2 21.8696 45.5396 29.7593 -0.0001 -3.1577 0.0000
# 3 12.8287 29.7593 89.2801 -0.0002 -0.2521 0.0002
# 4 -0.0001 -0.0001 -0.0002 20.6588 -0.0001 -0.0372
# 5 3.5572 -3.1577 -0.2521 -0.0001 24.6929 0.0001
# 6 0.0001 0.0000 0.0002 -0.0372 0.0001 17.5865
#
#
#
# Elastic Compliance Matrix: (Units=1/GPa)
#
#
# Indices 1 2 3 4 5 6 
#
# 1 0.032963 -0.016876 0.000869 0.000000 -0.006898 0.000000
# 2 -0.016876 0.037019 -0.009895 0.000000 0.007064 0.000000
# 3 0.000869 -0.009895 0.014370 0.000000 -0.001244 0.000000
# 4 0.000000 0.000000 0.000000 0.048406 0.000000 0.000102
# 5 -0.006898 0.007064 -0.001244 0.000000 0.042382 0.000000
# 6 0.000000 0.000000 0.000000 0.000102 0.000000 0.056862
#
#
# Mechanical properties :
#
#
# Convention : Reuss Voigt Hill
#
# Bulk Modulus (GPa) = 30.72244 33.96391 32.34318
# Shear Modulus (GPa) = 16.96904 20.07445 18.52175
#
# Velocity S-wave (km/s) = 3.15259 3.42894 3.29366
# Velocity P-wave (km/s) = 5.58980 5.96402 5.77994
#
# Compressibility (1/GPa) = 0.03254949
#
# Stress axis : x y z
#
# Youngs Moduli (GPa) = 30.33736 27.01307 69.58764
#
# Poissons Ratio (x) = 0.45588 -0.06050
# Poissons Ratio (y) = 0.51198 0.68854
# Poissons Ratio (z) = -0.02637 0.26728
#
# Static dielectric constant tensor:
#      x y z
#    x 1.589360 0.000000 -0.009850 
#    y 0.000000 1.551000 0.000000 
#    z -0.009850 0.000000 1.554220 
# 
# From -- ./inp_files/235999.got.cif
#   From: 2010.05.17/outbox.cif.g08.bks.cpg/sg12_118_cif.got.tgz:235999.got - 2010.06.03 13:09:07.
