data_PCOD9205246
_publ_section_title
;
Structure prediction by ZEFSAII (Michael W. Deem and Ramdas Pophale) SiO2 
 PCOD9205246
Probable space group: C 2/M
;
_chemical_formula_sum "Si O2"
_cell_formula_units_Z 56
_cell_length_a 19.766031
_cell_length_b 7.801925
_cell_length_c 28.351828
_cell_angle_alpha 90.000000
_cell_angle_beta 139.799967
_cell_angle_gamma 90.000000
_cell_volume 2822.086899
_symmetry_space_group_name_H-M "C 2/M"
_symmetry_group_IT_number 12
_symmetry_cell_setting 'monoclinic'
loop_
_space_group_symop_operation_xyz
x,y,z
-x,y,-z
-x,-y,-z
x,-y,z
1/2+x,1/2+y,z
1/2-x,1/2+y,-z
1/2-x,1/2-y,-z
1/2+x,1/2-y,z
loop_
_atom_site_type_symbol
_atom_site_label
_atom_site_fract_x
_atom_site_fract_y
_atom_site_fract_z
Si Si1 0.114647 0.201288 0.551514
Si Si2 0.487898 0.711821 0.740218
Si Si3 0.934644 0.206185 0.920558
Si Si4 0.789062 0.194990 0.572559
Si Si5 0.689912 0.704703 0.790857
Si Si6 0.460535 0.306869 0.831501
Si Si7 0.268674 0.300480 0.288055
O O1 0.188355 0.287985 0.552591
O O2 0.170703 0.210371 0.631496
O O3 0.000000 0.273803 0.500000
O O4 0.104186 0.000000 0.532004
O O5 0.483147 0.500000 0.739465
O O6 0.388154 0.771962 0.655152
O O7 0.596880 0.768345 0.774460
O O8 0.486411 0.771209 0.794132
O O9 0.810758 0.240603 0.861768
O O10 0.977743 0.272939 0.892773
O O11 0.945977 0.000000 0.924291
O O12 0.000000 0.270727 0.000000
O O13 0.750000 0.250000 0.500000
O O14 0.821365 0.000000 0.583217
O O15 0.688628 0.500000 0.795480
O O16 0.665807 0.746498 0.723316
O O17 0.505026 0.500000 0.855629
O O18 0.334422 0.311982 0.763912
O O19 0.235278 0.500000 0.264018
#
# Coordination Sequence:
#
# PCOD9205246 Si02
#       7
#     8   8   8   8   8   8   8
#     4  10  21  35  53  75 103 138 176 220 272 321
#     4   9  18  33  54  75 100 134 172 215 258 307
#     4   9  18  33  53  77 106 136 165 204 255 307
#     4  11  23  38  55  76 106 142 181 224 271 319
#     4   9  18  32  52  76 100 131 171 209 252 305
#     4   9  16  31  53  73  96 131 170 204 247 302
#     4   9  17  30  49  72  96 126 167 213 254 300
#
# _framework density 19.843471000000001
#
# number of rings (size 3 to 8) (size 9 to 14) (size 15 to 20)
#    0.000    2.571    1.429    0.429    2.000    0.571 
#    0.000    2.857    0.000    0.000    0.000    0.000 
#    0.000    0.000    0.000    0.000    0.000    0.000 
#
# Total GULP energy -155872.615608 kJ/mol
# GULP energy per Si atom -5566.879129 kJ/mol
# Density = 1.979831 g / cm^3
# Si number density = 19.843471 Si / 1000 Ang^3
#
#
#
# Elastic Constant Matrix: (Units=GPa)
#
#
# Indices 1 2 3 4 5 6 
#
# 1 180.8318 6.9892 75.0278 -0.0001 -29.6416 -0.0002
# 2 6.9892 17.9509 10.6845 0.0000 -11.4265 -0.0002
# 3 75.0278 10.6845 95.1497 0.0000 -26.3501 0.0000
# 4 -0.0001 0.0000 0.0000 19.9322 0.0000 2.4606
# 5 -29.6416 -11.4265 -26.3501 0.0000 28.2223 0.0000
# 6 -0.0002 -0.0002 0.0000 2.4606 0.0000 18.5885
#
#
#
# Elastic Compliance Matrix: (Units=1/GPa)
#
#
# Indices 1 2 3 4 5 6 
#
# 1 0.008619 0.003249 -0.005786 0.000000 0.004966 0.000000
# 2 0.003249 0.076274 -0.002198 0.000000 0.032242 0.000001
# 3 -0.005786 -0.002198 0.018059 0.000000 0.009894 0.000000
# 4 0.000000 0.000000 0.000000 0.051004 0.000000 -0.006751
# 5 0.004966 0.032242 0.009894 0.000000 0.062940 0.000000
# 6 0.000000 0.000001 0.000000 -0.006751 0.000000 0.054691
#
#
# Mechanical properties :
#
#
# Convention : Reuss Voigt Hill
#
# Bulk Modulus (GPa) = 10.69727 53.25951 31.97839
# Shear Modulus (GPa) = 16.01451 26.76398 21.38924
#
# Velocity S-wave (km/s) = 2.84393 3.67652 3.28670
# Velocity P-wave (km/s) = 4.02324 6.70228 5.52752
#
# Compressibility (1/GPa) = 0.09348183
#
# Stress axis : x y z
#
# Youngs Moduli (GPa) = 116.02249 13.11062 55.37423
#
# Poissons Ratio (x) = -0.04260 0.32039
# Poissons Ratio (y) = -0.37695 0.12172
# Poissons Ratio (z) = 0.67130 0.02882
#
# Static dielectric constant tensor:
#      x y z
#    x 1.706510 0.000000 -0.037650 
#    y 0.000000 1.789050 0.000000 
#    z -0.037650 0.000000 1.712870 
# 
# From -- ./inp_files/342288.got.cif
#   From: 2010.05.17/outbox.cif.g08.bks.cpg/sg12_172_cif.got.tgz:342288.got - 2010.06.03 13:09:07.
