data_PCOD9205822
_publ_section_title
;
Structure prediction by ZEFSAII (Michael W. Deem and Ramdas Pophale) SiO2 
 PCOD9205822
Probable space group: C 2/M
;
_chemical_formula_sum "Si O2"
_cell_formula_units_Z 64
_cell_length_a 23.418717
_cell_length_b 7.754156
_cell_length_c 22.965718
_cell_angle_alpha 90.000000
_cell_angle_beta 53.513682
_cell_angle_gamma 90.000000
_cell_volume 3352.996526
_symmetry_space_group_name_H-M "C 2/M"
_symmetry_group_IT_number 12
_symmetry_cell_setting 'monoclinic'
loop_
_space_group_symop_operation_xyz
x,y,z
-x,y,-z
-x,-y,-z
x,-y,z
1/2+x,1/2+y,z
1/2-x,1/2+y,-z
1/2-x,1/2-y,-z
1/2+x,1/2-y,z
loop_
_atom_site_type_symbol
_atom_site_label
_atom_site_fract_x
_atom_site_fract_y
_atom_site_fract_z
Si Si1 0.300169 0.293435 0.914939
Si Si2 0.415231 0.788301 0.252357
Si Si3 0.212501 0.293895 0.443539
Si Si4 0.939026 0.702457 0.893195
Si Si5 0.077614 0.801617 0.967667
Si Si6 0.763428 0.291539 0.292693
Si Si7 0.135691 0.301811 0.597682
Si Si8 0.769242 0.298224 0.161331
O O1 0.303307 0.500000 0.909758
O O2 0.378130 0.225173 0.882263
O O3 0.267077 0.224443 0.874700
O O4 0.250000 0.250000 0.000000
O O5 0.485368 0.733294 0.175950
O O6 0.342544 0.734432 0.264650
O O7 0.411969 0.726058 0.321576
O O8 0.415352 0.000000 0.253603
O O9 0.220043 0.500000 0.448016
O O10 0.209849 0.260584 0.376535
O O11 0.149620 0.230833 0.524436
O O12 0.285208 0.205789 0.421791
O O13 0.945552 0.500000 0.903154
O O14 0.915444 0.792779 0.966907
O O15 0.145690 0.714037 0.897914
O O16 0.078030 0.000000 0.947690
O O17 0.000000 0.726655 0.000000
O O18 0.765051 0.500000 0.290110
O O19 0.748561 0.225342 0.236856
O O20 0.113183 0.500000 0.604259
O O21 0.750482 0.500000 0.173877
#
# Coordination Sequence:
#
# PCOD9205822 Si02
#       8
#     8   8   8   8   8   8   8   8
#     4  11  22  37  55  74  94 121 162 210 253 290
#     4   8  15  28  47  69  94 125 160 194 230 279
#     4   9  15  23  40  67  96 126 157 191 234 280
#     4  11  21  34  53  73  94 127 166 202 243 291
#     4  11  23  35  49  72 101 128 155 196 246 290
#     4   9  17  31  48  68  96 127 159 196 235 287
#     4   8  14  26  42  62  93 130 163 192 224 275
#     4  10  21  36  54  71  90 126 168 200 239 294
#
# _framework density 19.087405
#
# number of rings (size 3 to 8) (size 9 to 14) (size 15 to 20)
#    0.000    2.375    1.250    3.000    0.000    3.500 
#    0.000    6.250    0.000    0.000    0.000    0.875 
#    0.000    7.000    0.000    0.000    0.000    0.000 
#
# Total GULP energy -178380.772348 kJ/mol
# GULP energy per Si atom -5574.399136 kJ/mol
# Density = 1.904396 g / cm^3
# Si number density = 19.087405 Si / 1000 Ang^3
#
#
#
# Elastic Constant Matrix: (Units=GPa)
#
#
# Indices 1 2 3 4 5 6 
#
# 1 65.1855 -0.0879 14.5925 -0.0006 26.5129 0.0025
# 2 -0.0879 36.3302 1.3745 -0.0049 0.7917 -0.0068
# 3 14.5925 1.3745 98.4403 -0.0004 42.7836 -0.0011
# 4 -0.0006 -0.0049 -0.0004 15.9077 -0.0001 2.0857
# 5 26.5129 0.7917 42.7836 -0.0001 29.0818 0.0003
# 6 0.0025 -0.0068 -0.0011 2.0857 0.0003 14.7321
#
#
#
# Elastic Compliance Matrix: (Units=1/GPa)
#
#
# Indices 1 2 3 4 5 6 
#
# 1 0.041297 0.000757 0.028394 0.000003 -0.079442 -0.000003
# 2 0.000757 0.027556 0.000358 0.000007 -0.001967 0.000012
# 3 0.028394 0.000358 0.047693 0.000002 -0.096060 0.000000
# 4 0.000003 0.000007 0.000002 0.064052 -0.000005 -0.009068
# 5 -0.079442 -0.001967 -0.096060 -0.000005 0.248182 0.000001
# 6 -0.000003 0.000012 0.000000 -0.009068 0.000001 0.069163
#
#
# Mechanical properties :
#
#
# Convention : Reuss Voigt Hill
#
# Bulk Modulus (GPa) = 5.69592 25.74603 15.72098
# Shear Modulus (GPa) = 10.05134 24.21612 17.13373
#
# Velocity S-wave (km/s) = 2.29726 3.56574 2.99932
# Velocity P-wave (km/s) = 3.16656 5.52000 4.49986
#
# Compressibility (1/GPa) = 0.17556420
#
# Stress axis : x y z
#
# Youngs Moduli (GPa) = 24.21497 36.28913 20.96729
#
# Poissons Ratio (x) = -0.02747 -0.59535
# Poissons Ratio (y) = -0.01833 -0.00750
# Poissons Ratio (z) = -0.68756 -0.01298
#
# Static dielectric constant tensor:
#      x y z
#    x 1.655380 0.000000 0.042910 
#    y 0.000000 1.724480 0.000000 
#    z 0.042910 0.000000 1.705220 
# 
# From -- ./inp_files/348538.got.cif
#   From: 2010.05.17/outbox.cif.g08.bks.cpg/sg12_175_cif.got.tgz:348538.got - 2010.06.03 13:09:07.
