data_PCOD9205489
_publ_section_title
;
Structure prediction by ZEFSAII (Michael W. Deem and Ramdas Pophale) SiO2 
 PCOD9205489
Probable space group: C 2/M
;
_chemical_formula_sum "Si O2"
_cell_formula_units_Z 56
_cell_length_a 14.483313
_cell_length_b 10.760173
_cell_length_c 24.885055
_cell_angle_alpha 90.000000
_cell_angle_beta 48.410993
_cell_angle_gamma 90.000000
_cell_volume 2900.574954
_symmetry_space_group_name_H-M "C 2/M"
_symmetry_group_IT_number 12
_symmetry_cell_setting 'monoclinic'
loop_
_space_group_symop_operation_xyz
x,y,z
-x,y,-z
-x,-y,-z
x,-y,z
1/2+x,1/2+y,z
1/2-x,1/2+y,-z
1/2-x,1/2-y,-z
1/2+x,1/2-y,z
loop_
_atom_site_type_symbol
_atom_site_label
_atom_site_fract_x
_atom_site_fract_y
_atom_site_fract_z
Si Si1 0.427750 0.852721 0.081841
Si Si2 0.415664 0.358486 0.252053
Si Si3 0.791633 0.140305 0.415956
Si Si4 0.070496 0.352887 0.569968
Si Si5 0.832193 0.285378 0.824737
Si Si6 0.833926 0.639828 0.943562
Si Si7 0.684003 0.856193 0.288972
O O1 0.295435 0.788618 0.133817
O O2 0.525644 0.832595 0.092064
O O3 0.406474 0.000000 0.086512
O O4 0.500000 0.812259 0.000000
O O5 0.445064 0.500000 0.224592
O O6 0.337275 0.357634 0.337563
O O7 0.545426 0.294575 0.211969
O O8 0.318074 0.298189 0.248385
O O9 0.856593 0.255982 0.420341
O O10 0.645461 0.152002 0.484983
O O11 0.825550 0.000000 0.423662
O O12 0.075147 0.500000 0.585070
O O13 0.928742 0.311441 0.630504
O O14 0.819474 0.360825 0.884921
O O15 0.851702 0.349449 0.759596
O O16 0.803718 0.500000 0.976106
O O17 0.750000 0.750000 0.000000
O O18 0.700269 0.000000 0.297302
#
# Coordination Sequence:
#
# PCOD9205489 Si02
#       7
#     8   8   8   8   8   8   8
#     4  10  21  39  61  84 112 149 190 232 286 349
#     4  10  21  35  56  87 119 153 196 243 286 339
#     4   9  17  32  55  84 113 150 202 243 278 335
#     4   9  17  32  56  81 114 158 194 236 290 338
#     4  12  21  38  61  84 114 154 191 238 291 347
#     4  11  24  42  64  90 117 149 191 239 289 350
#     4  10  21  36  54  83 119 153 191 237 292 343
#
# _framework density 19.306516999999999
#
# number of rings (size 3 to 8) (size 9 to 14) (size 15 to 20)
#    0.000    1.857    2.857    1.714    0.000    1.143 
#    0.000    5.000    0.000    2.571    0.000    4.000 
#    0.000    0.000    0.000    0.000    0.000    0.000 
#
# Total GULP energy -155879.355183 kJ/mol
# GULP energy per Si atom -5567.119828 kJ/mol
# Density = 1.926257 g / cm^3
# Si number density = 19.306517 Si / 1000 Ang^3
#
#
#
# Elastic Constant Matrix: (Units=GPa)
#
#
# Indices 1 2 3 4 5 6 
#
# 1 105.3068 38.1156 37.0812 0.0000 -25.2042 0.0000
# 2 38.1156 70.2098 38.4903 0.0000 -17.2451 0.0000
# 3 37.0812 38.4903 98.3978 0.0000 -24.6770 0.0000
# 4 0.0000 0.0000 0.0000 -33.8184 0.0000 -21.1839
# 5 -25.2042 -17.2451 -24.6770 0.0000 33.8923 0.0000
# 6 0.0000 0.0000 0.0000 -21.1839 0.0000 17.0784
#
#
#
# Elastic Compliance Matrix: (Units=1/GPa)
#
#
# Indices 1 2 3 4 5 6 
#
# 1 0.013295 -0.004823 -0.001541 0.000000 0.006311 0.000000
# 2 -0.004823 0.020591 -0.005516 0.000000 0.002874 0.000000
# 3 -0.001541 -0.005516 0.014571 0.000000 0.006656 0.000000
# 4 0.000000 0.000000 0.000000 -0.016640 0.000000 -0.020641
# 5 0.006311 0.002874 0.006656 0.000000 0.040507 0.000000
# 6 0.000000 0.000000 0.000000 -0.020641 0.000000 0.032951
#
#
# Mechanical properties :
#
#
# Convention : Reuss Voigt Hill
#
# Bulk Modulus (GPa) = 40.49116 55.69871 48.09494
# Shear Modulus (GPa) = 36.42540 14.11227 25.26884
#
# Velocity S-wave (km/s) = 4.34832 2.70656 3.62169
# Velocity P-wave (km/s) = 6.79918 6.21929 6.51569
#
# Compressibility (1/GPa) = 0.02469675
#
# Stress axis : x y z
#
# Youngs Moduli (GPa) = 75.21837 48.56411 68.63092
#
# Poissons Ratio (x) = 0.23420 0.10576
# Poissons Ratio (y) = 0.36274 0.37860
# Poissons Ratio (z) = 0.11591 0.26790
#
# Static dielectric constant tensor:
#      x y z
#    x 1.698020 0.000000 0.000080 
#    y 0.000000 1.691540 0.000000 
#    z 0.000080 0.000000 1.706460 
# 
# From -- ./inp_files/268843.got.cif
#   From: 2010.05.17/outbox.cif.g08.bks.cpg/sg12_135_cif.got.tgz:268843.got - 2010.06.03 13:09:07.
