data_PCOD9205420
_publ_section_title
;
Structure prediction by ZEFSAII (Michael W. Deem and Ramdas Pophale) SiO2 
 PCOD9205420
Probable space group: C 2/M
;
_chemical_formula_sum "Si O2"
_cell_formula_units_Z 40
_cell_length_a 7.744662
_cell_length_b 25.065477
_cell_length_c 11.054673
_cell_angle_alpha 90.000000
_cell_angle_beta 55.192975
_cell_angle_gamma 90.000000
_cell_volume 1762.014217
_symmetry_space_group_name_H-M "C 2/M"
_symmetry_group_IT_number 12
_symmetry_cell_setting 'monoclinic'
loop_
_space_group_symop_operation_xyz
x,y,z
-x,y,-z
-x,-y,-z
x,-y,z
1/2+x,1/2+y,z
1/2-x,1/2+y,-z
1/2-x,1/2-y,-z
1/2+x,1/2-y,z
loop_
_atom_site_type_symbol
_atom_site_label
_atom_site_fract_x
_atom_site_fract_y
_atom_site_fract_z
Si Si1 0.684180 0.334960 0.509600
Si Si2 0.973859 0.291822 0.769088
Si Si3 0.325760 0.325828 0.824535
Si Si4 0.425125 0.939559 0.389258
Si Si5 0.736372 0.610322 0.917281
O O1 0.500000 0.311701 0.500000
O O2 0.888173 0.297860 0.408949
O O3 0.551852 0.344574 0.682778
O O4 0.757711 0.392968 0.435406
O O5 0.138551 0.314394 0.803130
O O6 0.890558 0.234170 0.837755
O O7 0.781504 0.332510 0.835571
O O8 0.246228 0.369886 0.950739
O O9 0.500000 0.932419 0.500000
O O10 0.604640 0.928417 0.216570
O O11 0.348605 0.000000 0.408367
O O12 0.500000 0.590774 0.000000
#
# Coordination Sequence:
#
# PCOD9205420 Si02
#       5
#     8   8   8   8   8
#     4   9  20  37  59  85 115 150 188 229 273 331
#     4  10  21  35  55  84 120 157 188 221 267 327
#     4  11  20  35  56  85 119 151 189 227 270 326
#     4  10  22  41  62  83 107 139 185 240 293 342
#     4  11  22  36  56  81 112 149 185 228 280 333
#
# _framework density 22.701291999999999
#
# number of rings (size 3 to 8) (size 9 to 14) (size 15 to 20)
#    0.000    1.800    0.000    4.200    0.000    2.400 
#    0.000    2.000    0.000   15.600    0.000    0.000 
#    0.000    0.000    0.000    0.000    0.000    0.000 
#
# Total GULP energy -111438.916119 kJ/mol
# GULP energy per Si atom -5571.945806 kJ/mol
# Density = 2.264962 g / cm^3
# Si number density = 22.701292 Si / 1000 Ang^3
#
#
#
# Elastic Constant Matrix: (Units=GPa)
#
#
# Indices 1 2 3 4 5 6 
#
# 1 59.2070 5.6670 22.4701 0.0000 14.8467 0.0000
# 2 5.6670 85.0787 16.0798 0.0000 9.4157 0.0000
# 3 22.4701 16.0798 152.5038 0.0000 -11.8095 0.0000
# 4 0.0000 0.0000 0.0000 26.1168 0.0000 6.4300
# 5 14.8467 9.4157 -11.8095 0.0000 29.8867 0.0000
# 6 0.0000 0.0000 0.0000 6.4300 0.0000 25.6748
#
#
#
# Elastic Compliance Matrix: (Units=1/GPa)
#
#
# Indices 1 2 3 4 5 6 
#
# 1 0.021598 0.000763 -0.004242 0.000000 -0.012645 0.000000
# 2 0.000763 0.012612 -0.001835 0.000000 -0.005077 0.000000
# 3 -0.004242 -0.001835 0.007823 0.000000 0.005777 0.000000
# 4 0.000000 0.000000 0.000000 0.040806 0.000000 -0.010219
# 5 -0.012645 -0.005077 0.005777 0.000000 0.043624 0.000000
# 6 0.000000 0.000000 0.000000 -0.010219 0.000000 0.041508
#
#
# Mechanical properties :
#
#
# Convention : Reuss Voigt Hill
#
# Bulk Modulus (GPa) = 31.84372 42.80260 37.32316
# Shear Modulus (GPa) = 26.44569 33.17384 29.80976
#
# Velocity S-wave (km/s) = 3.41683 3.82687 3.62765
# Velocity P-wave (km/s) = 5.44279 6.19856 5.83293
#
# Compressibility (1/GPa) = 0.03140337
#
# Stress axis : x y z
#
# Youngs Moduli (GPa) = 46.30119 79.29082 127.82734
#
# Poissons Ratio (x) = -0.06046 0.54223
# Poissons Ratio (y) = -0.03531 0.23460
# Poissons Ratio (z) = 0.19640 0.14552
#
# Static dielectric constant tensor:
#      x y z
#    x 1.874770 0.000000 0.087870 
#    y 0.000000 1.773870 0.000000 
#    z 0.087870 0.000000 2.071280 
# 
# From -- ./inp_files/39153.got.cif
#   From: 2010.05.17/outbox.cif.g08.bks.cpg/sg12_20_cif.got.tgz:39153.got - 2010.06.03 13:09:07.
