data_PCOD9205721
_publ_section_title
;
Structure prediction by ZEFSAII (Michael W. Deem and Ramdas Pophale) SiO2 
 PCOD9205721
Probable space group: C 2/M
;
_chemical_formula_sum "Si O2"
_cell_formula_units_Z 56
_cell_length_a 15.975326
_cell_length_b 7.900004
_cell_length_c 17.205973
_cell_angle_alpha 90.000000
_cell_angle_beta 100.671005
_cell_angle_gamma 90.000000
_cell_volume 2133.929971
_symmetry_space_group_name_H-M "C 2/M"
_symmetry_group_IT_number 12
_symmetry_cell_setting 'monoclinic'
loop_
_space_group_symop_operation_xyz
x,y,z
-x,y,-z
-x,-y,-z
x,-y,z
1/2+x,1/2+y,z
1/2-x,1/2+y,-z
1/2-x,1/2-y,-z
1/2+x,1/2-y,z
loop_
_atom_site_type_symbol
_atom_site_label
_atom_site_fract_x
_atom_site_fract_y
_atom_site_fract_z
Si Si1 0.805321 0.801189 0.693095
Si Si2 0.059960 0.797247 0.167694
Si Si3 0.795649 0.702723 0.115789
Si Si4 0.615352 0.805262 0.017640
Si Si5 0.915358 0.794731 0.263198
Si Si6 0.956963 0.798298 0.590111
Si Si7 0.323690 0.300273 0.451622
O O1 0.852871 0.730422 0.777200
O O2 0.880837 0.784171 0.641001
O O3 0.719208 0.733846 0.639015
O O4 0.790598 0.000000 0.701580
O O5 0.054542 0.760130 0.075668
O O6 0.984136 0.736846 0.209566
O O7 0.062666 0.000000 0.175952
O O8 0.785068 0.500000 0.104864
O O9 0.707881 0.786141 0.074885
O O10 0.828415 0.735596 0.208240
O O11 0.864557 0.770089 0.063892
O O12 0.595024 0.000000 0.001591
O O13 0.958551 0.733375 0.351104
O O14 0.913361 0.000000 0.265744
O O15 0.911514 0.729403 0.504100
O O16 0.972563 0.000000 0.582242
O O17 0.334422 0.500000 0.457122
O O18 0.250000 0.250000 0.500000
#
# Coordination Sequence:
#
# PCOD9205721 Si02
#       7
#     8   8   8   8   8   8   8
#     4   8  14  25  39  59  89 122 154 188 228 272
#     4   9  18  32  50  72 100 130 158 194 238 283
#     4  10  21  36  52  71  95 122 156 199 241 281
#     4  10  21  36  53  71  93 123 159 197 236 285
#     4   9  17  31  50  71  97 129 161 192 233 284
#     4   7  12  23  38  58  87 121 154 187 223 267
#     4   9  14  21  35  56  85 121 157 191 227 268
#
# _framework density 26.242660000000001
#
# number of rings (size 3 to 8) (size 9 to 14) (size 15 to 20)
#    0.000    3.143    0.000    3.857    0.000    3.429 
#    0.000    9.286    0.000    0.000    0.000    1.000 
#    0.000    8.000    0.000    0.000    0.000    0.000 
#
# Total GULP energy -156394.869921 kJ/mol
# GULP energy per Si atom -5585.531069 kJ/mol
# Density = 2.618293 g / cm^3
# Si number density = 26.242660 Si / 1000 Ang^3
#
#
#
# Elastic Constant Matrix: (Units=GPa)
#
#
# Indices 1 2 3 4 5 6 
#
# 1 92.1480 -9.9058 24.1600 0.0000 16.5791 0.0000
# 2 -9.9058 28.4428 -5.8019 0.0000 3.1061 0.0000
# 3 24.1600 -5.8019 224.0768 0.0000 12.3038 0.0000
# 4 0.0000 0.0000 0.0000 30.5299 0.0000 6.1167
# 5 16.5791 3.1061 12.3038 0.0000 63.8662 0.0000
# 6 0.0000 0.0000 0.0000 6.1167 0.0000 4.8895
#
#
#
# Elastic Compliance Matrix: (Units=1/GPa)
#
#
# Indices 1 2 3 4 5 6 
#
# 1 0.012161 0.004373 -0.001024 0.000000 -0.003172 0.000000
# 2 0.004373 0.037151 0.000659 0.000000 -0.003069 0.000000
# 3 -0.001024 0.000659 0.004626 0.000000 -0.000658 0.000000
# 4 0.000000 0.000000 0.000000 0.043710 0.000000 -0.054681
# 5 -0.003172 -0.003069 -0.000658 0.000000 0.016757 0.000000
# 6 0.000000 0.000000 0.000000 -0.054681 0.000000 0.272927
#
#
# Mechanical properties :
#
#
# Convention : Reuss Voigt Hill
#
# Bulk Modulus (GPa) = 16.14076 40.17468 28.15772
# Shear Modulus (GPa) = 12.50100 42.27146 27.38623
#
# Velocity S-wave (km/s) = 2.18494 4.01782 3.23395
# Velocity P-wave (km/s) = 3.53966 6.07174 4.96967
#
# Compressibility (1/GPa) = 0.06195496
#
# Stress axis : x y z
#
# Youngs Moduli (GPa) = 82.22725 26.91726 216.15504
#
# Poissons Ratio (x) = -0.11771 0.22130
# Poissons Ratio (y) = -0.35958 -0.14243
# Poissons Ratio (z) = 0.08419 -0.01774
#
# Static dielectric constant tensor:
#      x y z
#    x 2.220060 0.000000 -0.020300 
#    y 0.000000 1.937640 0.000000 
#    z -0.020300 0.000000 2.108770 
# 
# From -- ./inp_files/323416.got.cif
#   From: 2010.05.17/outbox.cif.g08.bks.cpg/sg12_162_cif.got.tgz:323416.got - 2010.06.03 13:09:07.
