data_PCOD9205250
_publ_section_title
;
Structure prediction by ZEFSAII (Michael W. Deem and Ramdas Pophale) SiO2 
 PCOD9205250
Probable space group: C 2/M
;
_chemical_formula_sum "Si O2"
_cell_formula_units_Z 48
_cell_length_a 20.198644
_cell_length_b 7.315233
_cell_length_c 14.184667
_cell_angle_alpha 90.000000
_cell_angle_beta 105.845120
_cell_angle_gamma 90.000000
_cell_volume 2016.257864
_symmetry_space_group_name_H-M "C 2/M"
_symmetry_group_IT_number 12
_symmetry_cell_setting 'monoclinic'
loop_
_space_group_symop_operation_xyz
x,y,z
-x,y,-z
-x,-y,-z
x,-y,z
1/2+x,1/2+y,z
1/2-x,1/2+y,-z
1/2-x,1/2-y,-z
1/2+x,1/2-y,z
loop_
_atom_site_type_symbol
_atom_site_label
_atom_site_fract_x
_atom_site_fract_y
_atom_site_fract_z
Si Si1 0.458737 0.722451 0.681515
Si Si2 0.164440 0.792435 0.858277
Si Si3 0.669040 0.281905 0.480964
Si Si4 0.460524 0.721716 0.891049
Si Si5 0.322205 0.721342 0.927750
Si Si6 0.594795 0.723455 0.641612
O O1 0.458554 0.500000 0.684981
O O2 0.382557 0.782662 0.621507
O O3 0.481067 0.783511 0.794780
O O4 0.515030 0.773675 0.624843
O O5 0.246734 0.793335 0.877231
O O6 0.131196 0.713134 0.752142
O O7 0.137445 0.000000 0.854006
O O8 0.154599 0.713933 0.958987
O O9 0.661812 0.500000 0.479693
O O10 0.750000 0.250000 0.500000
O O11 0.636408 0.213511 0.566523
O O12 0.466847 0.500000 0.894335
O O13 0.380563 0.767282 0.876193
O O14 0.500000 0.785791 0.000000
O O15 0.316518 0.500000 0.930223
O O16 0.597204 0.500000 0.640057
#
# Coordination Sequence:
#
# PCOD9205250 Si02
#       6
#     8   8   8   8   8   8
#     4   9  17  30  50  74  99 129 168 210 247 288
#     4   9  17  29  46  68  95 130 164 196 240 293
#     4  10  21  35  53  77 102 130 166 209 254 298
#     4   9  16  26  44  71 100 126 158 204 252 288
#     4   9  17  28  44  69  99 127 160 201 243 287
#     4   9  17  31  51  72  97 130 169 206 244 292
#
# _framework density 23.806477999999998
#
# number of rings (size 3 to 8) (size 9 to 14) (size 15 to 20)
#    0.000    2.833    0.000    1.500    2.333    6.000 
#    0.000    0.000    0.000    3.500    0.000    0.000 
#    0.000    0.000    0.000    0.000    0.000    0.000 
#
# Total GULP energy -134032.580736 kJ/mol
# GULP energy per Si atom -5584.690864 kJ/mol
# Density = 2.375229 g / cm^3
# Si number density = 23.806478 Si / 1000 Ang^3
#
#
#
# Elastic Constant Matrix: (Units=GPa)
#
#
# Indices 1 2 3 4 5 6 
#
# 1 147.6164 -4.3446 81.1528 0.0000 -14.6743 0.0000
# 2 -4.3446 93.5290 2.1266 0.0000 -1.6467 0.0000
# 3 81.1528 2.1266 138.6730 0.0000 2.2312 0.0000
# 4 0.0000 0.0000 0.0000 -15.0700 0.0000 4.0570
# 5 -14.6743 -1.6467 2.2312 0.0000 37.9671 0.0000
# 6 0.0000 0.0000 0.0000 4.0570 0.0000 13.3877
#
#
#
# Elastic Compliance Matrix: (Units=1/GPa)
#
#
# Indices 1 2 3 4 5 6 
#
# 1 0.010756 0.000725 -0.006379 0.000000 0.004564 0.000000
# 2 0.000725 0.010753 -0.000602 0.000000 0.000782 0.000000
# 3 -0.006379 -0.000602 0.011004 0.000000 -0.003138 0.000000
# 4 0.000000 0.000000 0.000000 -0.061352 0.000000 0.018592
# 5 0.004564 0.000782 -0.003138 0.000000 0.028321 0.000000
# 6 0.000000 0.000000 0.000000 0.018592 0.000000 0.069061
#
#
# Mechanical properties :
#
#
# Convention : Reuss Voigt Hill
#
# Bulk Modulus (GPa) = 49.99631 59.74312 54.86972
# Shear Modulus (GPa) = 56.99764 27.31586 42.15675
#
# Velocity S-wave (km/s) = 4.89837 3.39102 4.21266
# Velocity P-wave (km/s) = 7.28277 6.36254 6.83815
#
# Compressibility (1/GPa) = 0.02000147
#
# Stress axis : x y z
#
# Youngs Moduli (GPa) = 92.96827 92.99735 90.87479
#
# Poissons Ratio (x) = -0.06743 0.57972
# Poissons Ratio (y) = -0.06741 0.05469
# Poissons Ratio (z) = 0.59307 0.05596
#
# Static dielectric constant tensor:
#      x y z
#    x 1.871810 0.000000 0.006180 
#    y 0.000000 1.780950 0.000000 
#    z 0.006180 0.000000 1.890900 
# 
# From -- ./inp_files/164317.got.cif
#   From: 2010.05.17/outbox.cif.g08.bks.cpg/sg12_83_cif.got.tgz:164317.got - 2010.06.03 13:09:07.
