data_PCOD9205052
_publ_section_title
;
Structure prediction by ZEFSAII (Michael W. Deem and Ramdas Pophale) SiO2 
 PCOD9205052
Probable space group: C 2/M
;
_chemical_formula_sum "Si O2"
_cell_formula_units_Z 48
_cell_length_a 30.105315
_cell_length_b 13.903052
_cell_length_c 14.726025
_cell_angle_alpha 90.000000
_cell_angle_beta 160.217142
_cell_angle_gamma 90.000000
_cell_volume 2086.131100
_symmetry_space_group_name_H-M "C 2/M"
_symmetry_group_IT_number 12
_symmetry_cell_setting 'monoclinic'
loop_
_space_group_symop_operation_xyz
x,y,z
-x,y,-z
-x,-y,-z
x,-y,z
1/2+x,1/2+y,z
1/2-x,1/2+y,-z
1/2-x,1/2-y,-z
1/2+x,1/2-y,z
loop_
_atom_site_type_symbol
_atom_site_label
_atom_site_fract_x
_atom_site_fract_y
_atom_site_fract_z
Si Si1 0.648859 0.886715 0.264555
Si Si2 0.121800 0.396318 0.537105
Si Si3 0.775365 0.259176 0.756687
Si Si4 0.611325 0.388887 0.139793
Si Si5 0.672374 0.608075 0.905862
Si Si6 0.629704 0.816340 0.865965
O O1 0.713266 0.834416 0.302447
O O2 0.749959 0.873597 0.541873
O O3 0.641604 0.000000 0.231373
O O4 0.500000 0.853955 0.000000
O O5 0.111916 0.500000 0.470610
O O6 0.144596 0.305528 0.516159
O O7 0.244670 0.396915 0.841409
O O8 0.997985 0.378941 0.362545
O O9 0.885562 0.180385 0.940081
O O10 0.801748 0.307358 0.903978
O O11 0.599297 0.500000 0.089343
O O12 0.500000 0.369477 0.000000
O O13 0.617122 0.500000 0.786441
O O14 0.773210 0.635054 0.019114
O O15 0.590998 0.707224 0.760979
#
# Coordination Sequence:
#
# PCOD9205052 Si02
#       6
#     8   8   8   8   8   8
#     4  10  23  41  61  88 125 167 210 259 316 373
#     4  10  21  37  61  90 120 157 201 249 305 372
#     4  11  23  36  58  89 121 153 199 256 311 361
#     4  10  22  40  63  87 118 167 215 254 309 378
#     4   9  19  39  60  84 119 159 203 247 302 369
#     4  10  21  34  59  91 117 155 200 251 303 368
#
# _framework density 23.009101000000001
#
# number of rings (size 3 to 8) (size 9 to 14) (size 15 to 20)
#    0.000    2.000    0.000    2.500    4.667    3.333 
#    0.000    0.833    0.000   14.000    0.000    0.000 
#    0.000    0.000    0.000    0.000    0.000    0.000 
#
# Total GULP energy -134087.628119 kJ/mol
# GULP energy per Si atom -5586.984505 kJ/mol
# Density = 2.295673 g / cm^3
# Si number density = 23.009101 Si / 1000 Ang^3
#
#
#
# Elastic Constant Matrix: (Units=GPa)
#
#
# Indices 1 2 3 4 5 6 
#
# 1 106.7833 25.4154 -1.0244 0.0000 6.6326 0.0000
# 2 25.4154 112.8283 17.1931 0.0000 -10.7611 0.0000
# 3 -1.0244 17.1931 47.5645 0.0000 11.4819 0.0000
# 4 0.0000 0.0000 0.0000 12.0226 0.0000 4.4924
# 5 6.6326 -10.7611 11.4819 0.0000 22.6848 0.0000
# 6 0.0000 0.0000 0.0000 4.4924 0.0000 13.6905
#
#
#
# Elastic Compliance Matrix: (Units=1/GPa)
#
#
# Indices 1 2 3 4 5 6 
#
# 1 0.010598 -0.003435 0.002975 0.000000 -0.006234 0.000000
# 2 -0.003435 0.011590 -0.006645 0.000000 0.009866 0.000000
# 3 0.002975 -0.006645 0.027866 0.000000 -0.018126 0.000000
# 4 0.000000 0.000000 0.000000 0.094801 0.000000 -0.031108
# 5 -0.006234 0.009866 -0.018126 0.000000 0.059760 0.000000
# 6 0.000000 0.000000 0.000000 -0.031108 0.000000 0.083251
#
#
# Mechanical properties :
#
#
# Convention : Reuss Voigt Hill
#
# Bulk Modulus (GPa) = 27.89924 38.92716 33.41320
# Shear Modulus (GPa) = 15.92230 24.71904 20.32067
#
# Velocity S-wave (km/s) = 2.63344 3.28123 2.97502
# Velocity P-wave (km/s) = 4.62583 5.59555 5.13364
#
# Compressibility (1/GPa) = 0.03584327
#
# Stress axis : x y z
#
# Youngs Moduli (GPa) = 94.35646 86.27812 35.88618
#
# Poissons Ratio (x) = 0.29638 -0.10676
# Poissons Ratio (y) = 0.32413 0.23847
# Poissons Ratio (z) = -0.28069 0.57334
#
# Static dielectric constant tensor:
#      x y z
#    x 1.839930 0.000000 -0.014150 
#    y 0.000000 1.925240 0.000000 
#    z -0.014150 0.000000 1.908700 
# 
# From -- ./inp_files/204381.got.cif
#   From: 2010.05.17/outbox.cif.g08.bks.cpg/sg12_103_cif.got.tgz:204381.got - 2010.06.03 13:09:07.
