data_PCOD9205793
_publ_section_title
;
Structure prediction by ZEFSAII (Michael W. Deem and Ramdas Pophale) SiO2 
 PCOD9205793
Probable space group: C 2/M
;
_chemical_formula_sum "Si O2"
_cell_formula_units_Z 64
_cell_length_a 22.304893
_cell_length_b 13.748984
_cell_length_c 12.040871
_cell_angle_alpha 90.000000
_cell_angle_beta 107.008045
_cell_angle_gamma 90.000000
_cell_volume 3531.069957
_symmetry_space_group_name_H-M "C 2/M"
_symmetry_group_IT_number 12
_symmetry_cell_setting 'monoclinic'
loop_
_space_group_symop_operation_xyz
x,y,z
-x,y,-z
-x,-y,-z
x,-y,z
1/2+x,1/2+y,z
1/2-x,1/2+y,-z
1/2-x,1/2-y,-z
1/2+x,1/2-y,z
loop_
_atom_site_type_symbol
_atom_site_label
_atom_site_fract_x
_atom_site_fract_y
_atom_site_fract_z
Si Si1 0.945929 0.200006 0.216285
Si Si2 0.185662 0.616149 0.956768
Si Si3 0.677048 0.883130 0.692084
Si Si4 0.430765 0.757536 0.455343
Si Si5 0.926747 0.114776 0.663239
Si Si6 0.816526 0.882291 0.767339
Si Si7 0.451669 0.114876 0.075130
Si Si8 0.675153 0.616880 0.970828
O O1 0.930659 0.202102 0.338025
O O2 0.964365 0.306832 0.178894
O O3 0.007192 0.132858 0.239230
O O4 0.884682 0.161661 0.120864
O O5 0.191759 0.500000 0.953961
O O6 0.172389 0.645445 0.820833
O O7 0.122308 0.633960 0.991877
O O8 0.255077 0.647608 0.033062
O O9 0.624664 0.834235 0.588261
O O10 0.746836 0.852323 0.694388
O O11 0.671825 0.000000 0.684903
O O12 0.500000 0.804391 0.500000
O O13 0.424771 0.682192 0.553059
O O14 0.871105 0.147349 0.714569
O O15 0.920296 0.000000 0.633496
O O16 0.826783 0.854277 0.900635
O O17 0.816269 0.000000 0.768037
O O18 0.456222 0.000000 0.110344
O O19 0.500000 0.130144 0.000000
O O20 0.670806 0.500000 0.960306
#
# Coordination Sequence:
#
# PCOD9205793 Si02
#       8
#     8   8   8   8   8   8   8   8
#     4  11  22  34  55  83 106 144 191 221 262 326
#     4   8  15  32  55  77 109 144 172 217 275 324
#     4   9  16  33  58  80 105 135 175 228 274 317
#     4  10  22  36  51  79 105 141 192 223 270 325
#     4  10  22  39  55  75 113 150 179 226 276 321
#     4   8  17  34  56  81 107 140 174 215 281 331
#     4  10  21  36  53  76 111 149 178 213 270 327
#     4   9  18  32  54  86 113 135 175 226 271 322
#
# _framework density 18.124817
#
# number of rings (size 3 to 8) (size 9 to 14) (size 15 to 20)
#    0.000    2.625    1.250    1.875    1.750    4.000 
#    0.000    3.750    0.000    0.000    0.000   11.375 
#    0.000    0.000    0.000    0.000    0.000    0.000 
#
# Total GULP energy -178239.478421 kJ/mol
# GULP energy per Si atom -5569.983701 kJ/mol
# Density = 1.808356 g / cm^3
# Si number density = 18.124817 Si / 1000 Ang^3
#
#
#
# Elastic Constant Matrix: (Units=GPa)
#
#
# Indices 1 2 3 4 5 6 
#
# 1 174.3217 42.0651 72.8173 0.0000 12.0945 0.0000
# 2 42.0651 64.9743 22.9498 0.0000 8.9863 0.0000
# 3 72.8173 22.9498 81.0143 0.0000 23.3811 0.0000
# 4 0.0000 0.0000 0.0000 25.7137 0.0000 4.1362
# 5 12.0945 8.9863 23.3811 0.0000 33.0450 0.0000
# 6 0.0000 0.0000 0.0000 4.1362 0.0000 17.8655
#
#
#
# Elastic Compliance Matrix: (Units=1/GPa)
#
#
# Indices 1 2 3 4 5 6 
#
# 1 0.010271 -0.003921 -0.009229 0.000000 0.003837 0.000000
# 2 -0.003921 0.018661 -0.000894 0.000000 -0.003007 0.000000
# 3 -0.009229 -0.000894 0.024940 0.000000 -0.014025 0.000000
# 4 0.000000 0.000000 0.000000 0.040394 0.000000 -0.009352
# 5 0.003837 -0.003007 -0.014025 0.000000 0.039599 0.000000
# 6 0.000000 0.000000 0.000000 -0.009352 0.000000 0.058139
#
#
# Mechanical properties :
#
#
# Convention : Reuss Voigt Hill
#
# Bulk Modulus (GPa) = 38.78382 66.21940 52.50161
# Shear Modulus (GPa) = 21.86401 27.49007 24.67704
#
# Velocity S-wave (km/s) = 3.47695 3.89872 3.69386
# Velocity P-wave (km/s) = 6.12891 7.54196 6.87186
#
# Compressibility (1/GPa) = 0.02578395
#
# Stress axis : x y z
#
# Youngs Moduli (GPa) = 97.35680 53.58821 40.09674
#
# Poissons Ratio (x) = 0.21011 0.37005
# Poissons Ratio (y) = 0.38171 0.03586
# Poissons Ratio (z) = 0.89849 0.04793
#
# Static dielectric constant tensor:
#      x y z
#    x 1.668350 0.000000 0.010250 
#    y 0.000000 1.648840 0.000000 
#    z 0.010250 0.000000 1.594990 
# 
# From -- ./inp_files/167314.got.cif
#   From: 2010.05.17/outbox.cif.g08.bks.cpg/sg12_84_cif.got.tgz:167314.got - 2010.06.03 13:09:07.
