data_PCOD9205914
_publ_section_title
;
Structure prediction by ZEFSAII (Michael W. Deem and Ramdas Pophale) SiO2 
 PCOD9205914
Probable space group: C 2/M
;
_chemical_formula_sum "Si O2"
_cell_formula_units_Z 50
_cell_length_a 10.109426
_cell_length_b 7.563360
_cell_length_c 29.625141
_cell_angle_alpha 90.000000
_cell_angle_beta 113.475296
_cell_angle_gamma 90.000000
_cell_volume 2077.690501
_symmetry_space_group_name_H-M "C 2/M"
_symmetry_group_IT_number 12
_symmetry_cell_setting 'monoclinic'
loop_
_space_group_symop_operation_xyz
x,y,z
-x,y,-z
-x,-y,-z
x,-y,z
1/2+x,1/2+y,z
1/2-x,1/2+y,-z
1/2-x,1/2-y,-z
1/2+x,1/2-y,z
loop_
_atom_site_type_symbol
_atom_site_label
_atom_site_fract_x
_atom_site_fract_y
_atom_site_fract_z
Si Si1 0.204896 0.699292 0.044946
Si Si2 0.633908 0.292089 0.362964
Si Si3 0.681382 0.714065 0.695366
Si Si4 0.522193 0.795964 0.860905
Si Si5 0.297531 0.714910 0.197899
Si Si6 0.841693 0.711848 0.468281
Si Si7 0.500000 0.500000 0.000000
O O1 0.150517 0.500000 0.039700
O O2 0.349841 0.707055 0.093930
O O3 0.086563 0.844673 0.040150
O O4 0.250000 0.750000 0.000000
O O5 0.622288 0.500000 0.371705
O O6 0.472204 0.220216 0.344885
O O7 0.690979 0.273071 0.319879
O O8 0.753372 0.216782 0.413275
O O9 0.681285 0.500000 0.695442
O O10 0.693199 0.770788 0.748855
O O11 0.574486 0.783972 0.816058
O O12 0.359173 0.728378 0.842249
O O13 0.520295 0.000000 0.875184
O O14 0.301623 0.500000 0.197006
O O15 0.856423 0.500000 0.463773
O O16 0.750000 0.750000 0.500000
O O17 0.000000 0.784471 0.500000
#
# Coordination Sequence:
#
# PCOD9205914 Si02
#       7
#     8   8   8   8   8   8   2
#     4  12  26  46  71 101 137 177 222 278 327 397
#     4  10  21  36  57  84 116 154 201 252 307 370
#     4  10  21  38  59  86 118 155 203 253 307 371
#     4  11  24  42  64  95 127 166 213 259 318 388
#     4  10  23  41  62  90 125 161 204 260 316 374
#     4  10  21  36  54  81 116 153 198 251 306 370
#     4  12  26  48  72 100 136 180 226 268 338 390
#
# _framework density 24.065180000000002
#
# number of rings (size 3 to 8) (size 9 to 14) (size 15 to 20)
#    0.000    1.440    1.600    2.640    2.240    3.520 
#    0.000    0.000    0.000    0.000    0.000    0.000 
#    0.000    0.000    0.000    0.000    0.000    0.000 
#
# Total GULP energy -139692.886848 kJ/mol
# GULP energy per Si atom -5587.715474 kJ/mol
# Density = 2.401041 g / cm^3
# Si number density = 24.065180 Si / 1000 Ang^3
#
#
#
# Elastic Constant Matrix: (Units=GPa)
#
#
# Indices 1 2 3 4 5 6 
#
# 1 85.8790 -7.5016 -15.6205 0.0000 10.5966 0.0000
# 2 -7.5016 119.0731 2.5408 0.0000 22.3184 0.0000
# 3 -15.6205 2.5408 77.3082 0.0000 7.5592 0.0000
# 4 0.0000 0.0000 0.0000 10.6925 0.0000 -15.7261
# 5 10.5966 22.3184 7.5592 0.0000 46.6052 0.0000
# 6 0.0000 0.0000 0.0000 -15.7261 0.0000 3.1989
#
#
#
# Elastic Compliance Matrix: (Units=1/GPa)
#
#
# Indices 1 2 3 4 5 6 
#
# 1 0.012820 0.001517 0.002943 0.000000 -0.004119 0.000000
# 2 0.001517 0.009407 0.000479 0.000000 -0.004928 0.000000
# 3 0.002943 0.000479 0.013821 0.000000 -0.003140 0.000000
# 4 0.000000 0.000000 0.000000 -0.015011 0.000000 -0.073795
# 5 -0.004119 -0.004928 -0.003140 0.000000 0.025262 0.000000
# 6 0.000000 0.000000 0.000000 -0.073795 0.000000 -0.050175
#
#
# Mechanical properties :
#
#
# Convention : Reuss Voigt Hill
#
# Bulk Modulus (GPa) = 21.77354 26.78866 24.28110
# Shear Modulus (GPa) = 3212.37422 32.28875 1622.33149
#
# Velocity S-wave (km/s) = 36.57543 3.66692 25.99239
# Velocity P-wave (km/s) = 42.34088 5.39299 30.18140
#
# Compressibility (1/GPa) = 0.04592730
#
# Stress axis : x y z
#
# Youngs Moduli (GPa) = 78.00100 106.30243 72.35227
#
# Poissons Ratio (x) = -0.16125 -0.21295
# Poissons Ratio (y) = -0.11832 -0.03467
# Poissons Ratio (z) = -0.22958 -0.05093
#
# Static dielectric constant tensor:
#      x y z
#    x 1.953930 0.000000 -0.017200 
#    y 0.000000 1.928880 0.000000 
#    z -0.017200 0.000000 1.939390 
# 
# From -- ./inp_files/357553.got.cif
#   From: 2010.05.17/outbox.cif.g08.bks.cpg/sg12_179_cif.got.tgz:357553.got - 2010.06.03 13:09:07.
