data_PCOD9205394
_publ_section_title
;
Structure prediction by ZEFSAII (Michael W. Deem and Ramdas Pophale) SiO2 
 PCOD9205394
Probable space group: C 2/M
;
_chemical_formula_sum "Si O2"
_cell_formula_units_Z 58
_cell_length_a 18.188331
_cell_length_b 7.478987
_cell_length_c 21.174945
_cell_angle_alpha 90.000000
_cell_angle_beta 54.918027
_cell_angle_gamma 90.000000
_cell_volume 2357.147203
_symmetry_space_group_name_H-M "C 2/M"
_symmetry_group_IT_number 12
_symmetry_cell_setting 'monoclinic'
loop_
_space_group_symop_operation_xyz
x,y,z
-x,y,-z
-x,-y,-z
x,-y,z
1/2+x,1/2+y,z
1/2-x,1/2+y,-z
1/2-x,1/2-y,-z
1/2+x,1/2-y,z
loop_
_atom_site_type_symbol
_atom_site_label
_atom_site_fract_x
_atom_site_fract_y
_atom_site_fract_z
Si Si1 0.688071 0.794101 0.755734
Si Si2 0.919067 0.281864 0.453392
Si Si3 0.604921 0.795970 0.669879
Si Si4 0.378662 0.216372 0.612800
Si Si5 0.790637 0.719465 0.117704
Si Si6 0.412922 0.713587 0.808291
Si Si7 0.000000 0.500000 0.000000
Si Si8 0.564390 0.298506 0.055781
O O1 0.643609 0.711151 0.715017
O O2 0.794844 0.791379 0.691519
O O3 0.674809 0.714993 0.831576
O O4 0.657108 0.000000 0.773683
O O5 0.918624 0.500000 0.451529
O O6 0.877950 0.216215 0.407814
O O7 0.872530 0.230273 0.541977
O O8 0.023780 0.228709 0.409459
O O9 0.497194 0.797762 0.731414
O O10 0.639192 0.000000 0.651626
O O11 0.375154 0.000000 0.617274
O O12 0.802512 0.500000 0.109379
O O13 0.685993 0.765311 0.165033
O O14 0.844426 0.788837 0.030847
O O15 0.420397 0.500000 0.796104
O O16 0.419468 0.750463 0.879672
O O17 0.003180 0.655103 0.052515
O O18 0.529634 0.500000 0.070480
#
# Coordination Sequence:
#
# PCOD9205394 Si02
#       8
#     8   8   8   8   8   8   2   8
#     4  10  22  35  53  82 117 153 190 237 306 371
#     4   8  16  33  55  80 107 144 196 244 291 355
#     4  10  21  35  55  81 114 155 196 241 302 371
#     4   9  17  33  57  78 105 147 194 246 296 348
#     4  10  21  41  62  85 123 164 199 255 316 363
#     4  10  23  40  61  89 120 154 204 257 304 366
#     4  12  26  44  68  94 136 164 196 264 324 358
#     4  11  25  42  67  97 124 167 214 251 306 378
#
# _framework density 24.606017000000001
#
# number of rings (size 3 to 8) (size 9 to 14) (size 15 to 20)
#    0.000    2.207    0.690    2.276    2.897    2.207 
#    0.000    2.069    0.000    0.000    0.000    0.000 
#    0.000    0.000    0.000    0.000    0.000    0.000 
#
# Total GULP energy -162006.785844 kJ/mol
# GULP energy per Si atom -5586.440891 kJ/mol
# Density = 2.455001 g / cm^3
# Si number density = 24.606017 Si / 1000 Ang^3
#
#
#
# Elastic Constant Matrix: (Units=GPa)
#
#
# Indices 1 2 3 4 5 6 
#
# 1 44.9309 25.3950 20.2867 0.0001 21.4812 0.0008
# 2 25.3950 81.4322 -1.7482 -0.0002 20.2485 0.0013
# 3 20.2867 -1.7482 77.4918 0.0001 26.0921 -0.0001
# 4 0.0001 -0.0002 0.0001 4.0154 -0.0001 -9.1563
# 5 21.4812 20.2485 26.0921 -0.0001 57.8244 0.0000
# 6 0.0008 0.0013 -0.0001 -9.1563 0.0000 21.2273
#
#
#
# Elastic Compliance Matrix: (Units=1/GPa)
#
#
# Indices 1 2 3 4 5 6 
#
# 1 0.033409 -0.009040 -0.006883 -0.000154 -0.006140 -0.000067
# 2 -0.009040 0.016232 0.004146 -0.000035 -0.004196 -0.000016
# 3 -0.006883 0.004146 0.017013 0.000005 -0.006571 0.000002
# 4 -0.000154 -0.000035 0.000005 15.185296 0.000089 6.550091
# 5 -0.006140 -0.004196 -0.006571 0.000089 0.024009 0.000039
# 6 -0.000067 -0.000016 0.000002 6.550091 0.000039 2.872454
#
#
# Mechanical properties :
#
#
# Convention : Reuss Voigt Hill
#
# Bulk Modulus (GPa) = 23.20214 32.41353 27.80784
# Shear Modulus (GPa) = 0.27493 27.27484 13.77488
#
# Velocity S-wave (km/s) = 0.33463 3.33297 2.36861
# Velocity P-wave (km/s) = 3.09826 5.29275 4.33661
#
# Compressibility (1/GPa) = 0.04309946
#
# Stress axis : x y z
#
# Youngs Moduli (GPa) = 29.93229 61.60795 58.77992
#
# Poissons Ratio (x) = 0.55692 0.40456
# Poissons Ratio (y) = 0.27058 -0.24368
# Poissons Ratio (z) = 0.20602 -0.25540
#
# Static dielectric constant tensor:
#      x y z
#    x 1.998970 0.000000 -0.011940 
#    y 0.000000 1.912870 0.000000 
#    z -0.011940 0.000000 1.941730 
# 
# From -- ./inp_files/313897.got.cif
#   From: 2010.05.17/outbox.cif.g08.bks.cpg/sg12_157_cif.got.tgz:313897.got - 2010.06.03 13:09:07.
