data_PCOD9205223
_publ_section_title
;
Structure prediction by ZEFSAII (Michael W. Deem and Ramdas Pophale) SiO2 
 PCOD9205223
Probable space group: C 2/M
;
_chemical_formula_sum "Si O2"
_cell_formula_units_Z 52
_cell_length_a 8.540268
_cell_length_b 13.348167
_cell_length_c 29.061283
_cell_angle_alpha 90.000000
_cell_angle_beta 42.005214
_cell_angle_gamma 90.000000
_cell_volume 2216.984714
_symmetry_space_group_name_H-M "C 2/M"
_symmetry_group_IT_number 12
_symmetry_cell_setting 'monoclinic'
loop_
_space_group_symop_operation_xyz
x,y,z
-x,y,-z
-x,-y,-z
x,-y,z
1/2+x,1/2+y,z
1/2-x,1/2+y,-z
1/2-x,1/2-y,-z
1/2+x,1/2-y,z
loop_
_atom_site_type_symbol
_atom_site_label
_atom_site_fract_x
_atom_site_fract_y
_atom_site_fract_z
Si Si1 0.496520 0.202616 0.902019
Si Si2 0.159499 0.618058 0.672811
Si Si3 0.000000 0.690011 0.000000
Si Si4 0.333252 0.616298 0.267799
Si Si5 0.144222 0.378736 0.401739
Si Si6 0.341598 0.620570 0.460914
Si Si7 0.453264 0.194634 0.812708
O O1 0.232788 0.242998 0.954227
O O2 0.538324 0.152519 0.843016
O O3 0.673461 0.298440 0.867414
O O4 0.517099 0.141753 0.945354
O O5 0.203646 0.500000 0.667663
O O6 0.392433 0.658877 0.596986
O O7 0.090699 0.651185 0.739289
O O8 0.932482 0.630109 0.691090
O O9 0.396857 0.500000 0.250682
O O10 0.487353 0.687032 0.202767
O O11 0.322282 0.653281 0.322969
O O12 0.132114 0.500000 0.397968
O O13 0.872463 0.344082 0.460143
O O14 0.250971 0.363487 0.428672
O O15 0.350871 0.500000 0.467227
#
# Coordination Sequence:
#
# PCOD9205223 Si02
#       7
#     8   8   4   8   8   8   8
#     4   9  18  32  58  84 115 138 184 214 261 310
#     4  10  21  35  52  78 112 146 183 228 276 324
#     4   8  16  34  56  90 108 142 182 220 242 322
#     4  10  21  35  52  78 112 146 183 228 276 324
#     4   8  15  29  49  72 100 139 187 234 277 321
#     4   8  15  29  49  72 100 139 187 234 277 321
#     4  11  20  35  53  86 113 148 172 224 267 330
#
# _framework density 23.455279999999998
#
# number of rings (size 3 to 8) (size 9 to 14) (size 15 to 20)
#    0.000    2.769    1.538    0.923    2.154    0.615 
#    0.000    3.846    0.000    0.000    0.000   75.385 
#    0.000    0.000    0.000    0.000    0.000    0.000 
#
# Total GULP energy -145007.337155 kJ/mol
# GULP energy per Si atom -5577.205275 kJ/mol
# Density = 2.340189 g / cm^3
# Si number density = 23.455280 Si / 1000 Ang^3
#
#
#
# Elastic Constant Matrix: (Units=GPa)
#
#
# Indices 1 2 3 4 5 6 
#
# 1 46.0944 15.9288 22.4546 0.0001 10.0701 0.0002
# 2 15.9288 38.9996 20.1592 0.0000 -4.2855 0.0000
# 3 22.4546 20.1592 95.1103 -0.0008 1.8476 0.0007
# 4 0.0001 0.0000 -0.0008 1.1384 -0.0003 -2.5668
# 5 10.0701 -4.2855 1.8476 -0.0003 52.7888 -0.0002
# 6 0.0002 0.0000 0.0007 -2.5668 -0.0002 11.7552
#
#
#
# Elastic Compliance Matrix: (Units=1/GPa)
#
#
# Indices 1 2 3 4 5 6 
#
# 1 0.028719 -0.010064 -0.004528 -0.000016 -0.006137 -0.000004
# 2 -0.010064 0.032671 -0.004641 -0.000003 0.004734 0.000000
# 3 -0.004528 -0.004641 0.012566 0.000016 0.000047 0.000003
# 4 -0.000016 -0.000003 0.000016 1.730373 0.000013 0.377831
# 5 -0.006137 0.004734 0.000047 0.000013 0.020497 0.000003
# 6 -0.000004 0.000000 0.000003 0.377831 0.000003 0.167569
#
#
# Mechanical properties :
#
#
# Convention : Reuss Voigt Hill
#
# Bulk Modulus (GPa) = 28.17646 33.03216 30.60431
# Shear Modulus (GPa) = 2.44775 21.24726 11.84751
#
# Velocity S-wave (km/s) = 1.02267 3.01302 2.24990
# Velocity P-wave (km/s) = 3.66516 5.12035 4.45261
#
# Compressibility (1/GPa) = 0.03549062
#
# Stress axis : x y z
#
# Youngs Moduli (GPa) = 34.82047 30.60841 79.58077
#
# Poissons Ratio (x) = 0.30803 0.36034
# Poissons Ratio (y) = 0.35042 0.36932
# Poissons Ratio (z) = 0.15767 0.14205
#
# Static dielectric constant tensor:
#      x y z
#    x 1.925090 0.000000 -0.019080 
#    y 0.000000 1.928140 0.000000 
#    z -0.019080 0.000000 1.959000 
# 
# From -- ./inp_files/372720.got.cif
#   From: 2010.05.17/outbox.cif.g08.bks.cpg/sg12_187_cif.got.tgz:372720.got - 2010.06.03 13:09:07.
