data_PCOD9205987
_publ_section_title
;
Structure prediction by ZEFSAII (Michael W. Deem and Ramdas Pophale) SiO2 
 PCOD9205987
Probable space group: C 2/M
;
_chemical_formula_sum "Si O2"
_cell_formula_units_Z 56
_cell_length_a 17.046335
_cell_length_b 7.706686
_cell_length_c 18.995076
_cell_angle_alpha 90.000000
_cell_angle_beta 66.444670
_cell_angle_gamma 90.000000
_cell_volume 2287.467365
_symmetry_space_group_name_H-M "C 2/M"
_symmetry_group_IT_number 12
_symmetry_cell_setting 'monoclinic'
loop_
_space_group_symop_operation_xyz
x,y,z
-x,y,-z
-x,-y,-z
x,-y,z
1/2+x,1/2+y,z
1/2-x,1/2+y,-z
1/2-x,1/2-y,-z
1/2+x,1/2-y,z
loop_
_atom_site_type_symbol
_atom_site_label
_atom_site_fract_x
_atom_site_fract_y
_atom_site_fract_z
Si Si1 0.272175 0.291745 0.754314
Si Si2 0.123117 0.288765 0.902584
Si Si3 0.737842 0.796858 0.616058
Si Si4 0.651768 0.302997 0.046521
Si Si5 0.006061 0.698803 0.817459
Si Si6 0.970848 0.708717 0.678623
Si Si7 0.882807 0.710583 0.467605
O O1 0.265235 0.500000 0.755192
O O2 0.217565 0.237485 0.841223
O O3 0.230714 0.223038 0.696637
O O4 0.371313 0.248606 0.716842
O O5 0.116774 0.500000 0.911273
O O6 0.109168 0.216047 0.984847
O O7 0.060052 0.227545 0.863163
O O8 0.835264 0.777709 0.553699
O O9 0.677091 0.727806 0.576302
O O10 0.716716 0.000000 0.627620
O O11 0.650543 0.500000 0.071834
O O12 0.750000 0.250000 0.000000
O O13 0.592724 0.200707 0.122285
O O14 0.036277 0.500000 0.800673
O O15 0.011291 0.776136 0.737579
O O16 0.979327 0.500000 0.677218
O O17 0.022948 0.765603 0.590809
O O18 0.880532 0.500000 0.473930
#
# Coordination Sequence:
#
# PCOD9205987 Si02
#       7
#     8   8   8   8   8   8   8
#     4  10  21  36  55  80 110 144 182 225 272 323
#     4  10  21  39  62  85 111 146 186 227 275 330
#     4   9  18  34  55  78 105 139 180 224 270 322
#     4  12  25  40  59  85 117 149 183 226 275 326
#     4  10  21  39  62  85 111 146 186 227 275 330
#     4  10  21  36  55  80 110 144 182 225 272 323
#     4   9  18  34  55  78 105 139 180 224 270 322
#
# _framework density 24.481224000000001
#
# number of rings (size 3 to 8) (size 9 to 14) (size 15 to 20)
#    0.000    2.000    0.000    3.429    0.000   10.857 
#    0.000    2.857    0.000    5.143    0.000    0.000 
#    0.000    0.000    0.000    0.000    0.000    0.000 
#
# Total GULP energy -156533.988242 kJ/mol
# GULP energy per Si atom -5590.499580 kJ/mol
# Density = 2.442550 g / cm^3
# Si number density = 24.481224 Si / 1000 Ang^3
#
#
#
# Elastic Constant Matrix: (Units=GPa)
#
#
# Indices 1 2 3 4 5 6 
#
# 1 63.6755 -5.3104 -11.2842 0.0000 -16.0967 -0.0001
# 2 -5.3104 47.5595 -5.7834 0.0001 0.3084 -0.0001
# 3 -11.2842 -5.7834 94.8370 0.0000 -19.1046 -0.0001
# 4 0.0000 0.0001 0.0000 15.1727 0.0000 -4.0760
# 5 -16.0967 0.3084 -19.1046 0.0000 43.0642 0.0000
# 6 -0.0001 -0.0001 -0.0001 -4.0760 0.0000 18.5670
#
#
#
# Elastic Compliance Matrix: (Units=1/GPa)
#
#
# Indices 1 2 3 4 5 6 
#
# 1 0.018918 0.002566 0.004204 0.000000 0.008918 0.000000
# 2 0.002566 0.021540 0.001956 0.000000 0.001672 0.000000
# 3 0.004204 0.001956 0.012604 0.000000 0.007149 0.000000
# 4 0.000000 0.000000 0.000000 0.070038 0.000000 0.015375
# 5 0.008918 0.001672 0.007149 0.000000 0.029714 0.000000
# 6 0.000000 0.000000 0.000000 0.015375 0.000000 0.057234
#
#
# Mechanical properties :
#
#
# Convention : Reuss Voigt Hill
#
# Bulk Modulus (GPa) = 14.18190 17.92399 16.05295
# Shear Modulus (GPa) = 23.13724 30.59078 26.86401
#
# Velocity S-wave (km/s) = 3.07759 3.53875 3.31619
# Velocity P-wave (km/s) = 4.29351 4.90249 4.60807
#
# Compressibility (1/GPa) = 0.07051239
#
# Stress axis : x y z
#
# Youngs Moduli (GPa) = 52.85986 46.42577 79.33999
#
# Poissons Ratio (x) = -0.11912 -0.33354
# Poissons Ratio (y) = -0.13562 -0.15517
# Poissons Ratio (z) = -0.22222 -0.09080
#
# Static dielectric constant tensor:
#      x y z
#    x 1.998210 0.000000 -0.003970 
#    y 0.000000 1.925710 0.000000 
#    z -0.003970 0.000000 1.929680 
# 
# From -- ./inp_files/275233.got.cif
#   From: 2010.05.17/outbox.cif.g08.bks.cpg/sg12_138_cif.got.tgz:275233.got - 2010.06.03 13:09:07.
