data_PCOD9205753
_publ_section_title
;
Structure prediction by ZEFSAII (Michael W. Deem and Ramdas Pophale) SiO2 
 PCOD9205753
Probable space group: C 2/M
;
_chemical_formula_sum "Si O2"
_cell_formula_units_Z 58
_cell_length_a 13.654689
_cell_length_b 22.541565
_cell_length_c 11.173844
_cell_angle_alpha 90.000000
_cell_angle_beta 131.109419
_cell_angle_gamma 90.000000
_cell_volume 2591.349447
_symmetry_space_group_name_H-M "C 2/M"
_symmetry_group_IT_number 12
_symmetry_cell_setting 'monoclinic'
loop_
_space_group_symop_operation_xyz
x,y,z
-x,y,-z
-x,-y,-z
x,-y,z
1/2+x,1/2+y,z
1/2-x,1/2+y,-z
1/2-x,1/2-y,-z
1/2+x,1/2-y,z
loop_
_atom_site_type_symbol
_atom_site_label
_atom_site_fract_x
_atom_site_fract_y
_atom_site_fract_z
Si Si1 0.946400 0.683160 0.108395
Si Si2 0.879807 0.565808 0.334980
Si Si3 0.438668 0.063874 0.743056
Si Si4 0.718080 0.295698 0.740986
Si Si5 0.660074 0.606544 0.489967
Si Si6 0.737855 0.328450 0.157516
Si Si7 0.487810 0.691444 0.208026
Si Si8 0.500000 0.500000 0.500000
O O1 0.845462 0.677274 0.138356
O O2 0.030281 0.740917 0.212812
O O3 0.022872 0.622349 0.155326
O O4 0.852784 0.693784 0.920757
O O5 0.856081 0.500000 0.365371
O O6 0.758112 0.607907 0.231380
O O7 0.000000 0.595663 0.500000
O O8 0.943820 0.558662 0.255994
O O9 0.300453 0.078628 0.571815
O O10 0.425759 0.000000 0.796103
O O11 0.688113 0.341476 0.611437
O O12 0.726686 0.225112 0.724476
O O13 0.605998 0.305473 0.750903
O O14 0.590546 0.641414 0.325936
O O15 0.574494 0.553532 0.480003
O O16 0.602440 0.323633 0.978671
#
# Coordination Sequence:
#
# PCOD9205753 Si02
#       8
#     8   8   8   8   8   8   8   2
#     4   8  17  34  52  74 105 137 186 238 273 319
#     4   9  18  35  58  83 108 137 182 236 290 341
#     4  10  21  36  52  80 114 148 182 229 288 333
#     4   9  17  32  53  76 104 144 189 227 267 316
#     4  12  22  36  55  79 116 157 189 228 267 337
#     4   8  16  32  55  81 102 137 184 234 274 327
#     4   9  17  33  54  76 107 144 190 227 267 321
#     4  12  24  40  48  82 122 158 200 216 258 342
#
# _framework density 22.382161
#
# number of rings (size 3 to 8) (size 9 to 14) (size 15 to 20)
#    0.000    2.621    2.069    1.655    0.000    4.414 
#    2.483    0.690    0.000    2.483    0.000    2.897 
#    0.000    0.000    0.000    0.000    0.000    0.000 
#
# Total GULP energy -161481.816238 kJ/mol
# GULP energy per Si atom -5568.338491 kJ/mol
# Density = 2.233122 g / cm^3
# Si number density = 22.382161 Si / 1000 Ang^3
#
#
#
# Elastic Constant Matrix: (Units=GPa)
#
#
# Indices 1 2 3 4 5 6 
#
# 1 78.5150 30.5983 7.1035 0.0000 3.0574 0.0000
# 2 30.5983 203.5964 81.1587 0.0000 10.7715 0.0000
# 3 7.1035 81.1587 73.8677 0.0000 8.3509 0.0000
# 4 0.0000 0.0000 0.0000 7.5532 0.0000 -12.4829
# 5 3.0574 10.7715 8.3509 0.0000 21.4137 0.0000
# 6 0.0000 0.0000 0.0000 -12.4829 0.0000 -1.4116
#
#
#
# Elastic Compliance Matrix: (Units=1/GPa)
#
#
# Indices 1 2 3 4 5 6 
#
# 1 0.013678 -0.002707 0.001805 0.000000 -0.001295 0.000000
# 2 -0.002707 0.009284 -0.009892 0.000000 -0.000426 0.000000
# 3 0.001805 -0.009892 0.024792 0.000000 -0.004950 0.000000
# 4 0.000000 0.000000 0.000000 0.008479 0.000000 -0.074979
# 5 -0.001295 -0.000426 -0.004950 0.000000 0.049029 0.000000
# 6 0.000000 0.000000 0.000000 -0.074979 0.000000 -0.045369
#
#
# Mechanical properties :
#
#
# Convention : Reuss Voigt Hill
#
# Bulk Modulus (GPa) = 38.21607 65.96667 52.09137
# Shear Modulus (GPa) = 55.42947 21.31895 38.37421
#
# Velocity S-wave (km/s) = 4.98185 3.08960 4.14514
# Velocity P-wave (km/s) = 7.08542 6.50111 6.79954
#
# Compressibility (1/GPa) = 0.02616701
#
# Stress axis : x y z
#
# Youngs Moduli (GPa) = 73.10806 107.70892 40.33495
#
# Poissons Ratio (x) = 0.29153 -0.07280
# Poissons Ratio (y) = 0.19788 0.39900
# Poissons Ratio (z) = -0.13195 1.06548
#
# Static dielectric constant tensor:
#      x y z
#    x 1.944460 0.000000 0.006440 
#    y 0.000000 1.858610 0.000000 
#    z 0.006440 0.000000 1.793490 
# 
# From -- ./inp_files/227296.got.cif
#   From: 2010.05.17/outbox.cif.g08.bks.cpg/sg12_114_cif.got.tgz:227296.got - 2010.06.03 13:09:07.
