data_PCOD9205513
_publ_section_title
;
Structure prediction by ZEFSAII (Michael W. Deem and Ramdas Pophale) SiO2 
 PCOD9205513
Probable space group: C 2/M
;
_chemical_formula_sum "Si O2"
_cell_formula_units_Z 48
_cell_length_a 17.435473
_cell_length_b 23.992747
_cell_length_c 12.993234
_cell_angle_alpha 90.000000
_cell_angle_beta 156.607871
_cell_angle_gamma 90.000000
_cell_volume 2157.969655
_symmetry_space_group_name_H-M "C 2/M"
_symmetry_group_IT_number 12
_symmetry_cell_setting 'monoclinic'
loop_
_space_group_symop_operation_xyz
x,y,z
-x,y,-z
-x,-y,-z
x,-y,z
1/2+x,1/2+y,z
1/2-x,1/2+y,-z
1/2-x,1/2-y,-z
1/2+x,1/2-y,z
loop_
_atom_site_type_symbol
_atom_site_label
_atom_site_fract_x
_atom_site_fract_y
_atom_site_fract_z
Si Si1 0.056810 0.148850 0.914038
Si Si2 0.484937 0.937676 0.750894
Si Si3 0.183386 0.639821 0.149188
Si Si4 0.677482 0.147145 0.581092
Si Si5 0.898558 0.065312 0.572542
Si Si6 0.417816 0.767642 0.131474
O O1 0.879916 0.137196 0.772320
O O2 0.058901 0.097725 0.837117
O O3 0.257422 0.157481 0.222201
O O4 0.994412 0.208450 0.791453
O O5 0.438444 0.908799 0.585932
O O6 0.294742 0.936689 0.592164
O O7 0.548590 0.000000 0.816890
O O8 0.640326 0.902358 0.003820
O O9 0.348543 0.609412 0.419621
O O10 0.175679 0.699310 0.081112
O O11 0.000000 0.642321 0.000000
O O12 0.565086 0.194479 0.378395
O O13 0.935899 0.000000 0.590717
O O14 0.250000 0.750000 0.000000
#
# Coordination Sequence:
#
# PCOD9205513 Si02
#       6
#     8   8   8   8   8   8
#     4  10  21  35  57  81 116 156 191 240 288 352
#     4   8  14  28  52  84 117 144 185 242 289 338
#     4   9  18  32  56  86 113 153 194 240 292 347
#     4   9  20  36  55  84 113 153 199 231 291 350
#     4   9  17  31  54  86 116 145 189 243 293 339
#     4  11  24  38  57  82 115 155 198 251 291 341
#
# _framework density 22.243130000000001
#
# number of rings (size 3 to 8) (size 9 to 14) (size 15 to 20)
#    0.000    2.667    0.000    2.000    4.667    3.333 
#    0.000    3.333    0.000    6.000    0.000    5.833 
#    0.000    0.000    0.000    0.000    0.000    0.000 
#
# Total GULP energy -133761.258781 kJ/mol
# GULP energy per Si atom -5573.385783 kJ/mol
# Density = 2.219250 g / cm^3
# Si number density = 22.243130 Si / 1000 Ang^3
#
#
#
# Elastic Constant Matrix: (Units=GPa)
#
#
# Indices 1 2 3 4 5 6 
#
# 1 42.6406 23.0058 32.3312 0.0000 -11.4644 0.0000
# 2 23.0058 109.0108 21.0816 0.0000 -16.5940 0.0000
# 3 32.3312 21.0816 88.3151 0.0000 -25.2669 -0.0001
# 4 0.0000 0.0000 0.0000 6.3622 0.0000 -28.2902
# 5 -11.4644 -16.5940 -25.2669 0.0000 24.7510 0.0000
# 6 0.0000 0.0000 -0.0001 -28.2902 0.0000 -19.4717
#
#
#
# Elastic Compliance Matrix: (Units=1/GPa)
#
#
# Indices 1 2 3 4 5 6 
#
# 1 0.035051 -0.005010 -0.011232 0.000000 0.001409 0.000000
# 2 -0.005010 0.010961 0.000927 0.000000 0.005974 0.000000
# 3 -0.011232 0.000927 0.019639 0.000000 0.015467 0.000000
# 4 0.000000 0.000000 0.000000 0.021068 0.000000 -0.030610
# 5 0.001409 0.005974 0.015467 0.000000 0.060850 0.000000
# 6 0.000000 0.000000 0.000000 -0.030610 0.000000 -0.006884
#
#
# Mechanical properties :
#
#
# Convention : Reuss Voigt Hill
#
# Bulk Modulus (GPa) = 28.55595 43.64486 36.10041
# Shear Modulus (GPa) = 27.32395 13.23150 20.27772
#
# Velocity S-wave (km/s) = 3.50869 2.44162 3.02261
# Velocity P-wave (km/s) = 5.41114 5.25481 5.33355
#
# Compressibility (1/GPa) = 0.03501897
#
# Stress axis : x y z
#
# Youngs Moduli (GPa) = 28.53014 91.23304 50.91900
#
# Poissons Ratio (x) = 0.45711 0.57194
# Poissons Ratio (y) = 0.14295 -0.04720
# Poissons Ratio (z) = 0.32046 -0.08457
#
# Static dielectric constant tensor:
#      x y z
#    x 1.844990 0.000000 -0.048890 
#    y 0.000000 2.102910 0.000000 
#    z -0.048890 0.000000 1.900010 
# 
# From -- ./inp_files/235565.got.cif
#   From: 2010.05.17/outbox.cif.g08.bks.cpg/sg12_118_cif.got.tgz:235565.got - 2010.06.03 13:09:07.
