data_PCOD9205430
_publ_section_title
;
Structure prediction by ZEFSAII (Michael W. Deem and Ramdas Pophale) SiO2 
 PCOD9205430
Probable space group: C 2/M
;
_chemical_formula_sum "Si O2"
_cell_formula_units_Z 48
_cell_length_a 14.002973
_cell_length_b 20.678495
_cell_length_c 10.119057
_cell_angle_alpha 90.000000
_cell_angle_beta 51.505402
_cell_angle_gamma 90.000000
_cell_volume 2293.275113
_symmetry_space_group_name_H-M "C 2/M"
_symmetry_group_IT_number 12
_symmetry_cell_setting 'monoclinic'
loop_
_space_group_symop_operation_xyz
x,y,z
-x,y,-z
-x,-y,-z
x,-y,z
1/2+x,1/2+y,z
1/2-x,1/2+y,-z
1/2-x,1/2-y,-z
1/2+x,1/2-y,z
loop_
_atom_site_type_symbol
_atom_site_label
_atom_site_fract_x
_atom_site_fract_y
_atom_site_fract_z
Si Si1 0.729089 0.573174 0.837815
Si Si2 0.107351 0.924926 0.228690
Si Si3 0.610625 0.191359 0.232060
Si Si4 0.663935 0.575355 0.600489
Si Si5 0.339853 0.191496 0.386784
Si Si6 0.274629 0.811281 0.157947
O O1 0.778901 0.500000 0.795924
O O2 0.834545 0.626489 0.751873
O O3 0.652143 0.580360 0.770145
O O4 0.648886 0.580668 0.039127
O O5 0.195597 0.877005 0.230057
O O6 0.964830 0.907384 0.355784
O O7 0.120865 0.000000 0.256259
O O8 0.465645 0.195745 0.357123
O O9 0.678637 0.252390 0.236776
O O10 0.652593 0.190247 0.042016
O O11 0.690452 0.500000 0.547839
O O12 0.770288 0.624422 0.472649
O O13 0.250000 0.250000 0.500000
O O14 0.358814 0.195200 0.212862
#
# Coordination Sequence:
#
# PCOD9205430 Si02
#       6
#     8   8   8   8   8   8
#     4   9  18  35  59  84 110 144 186 227 266 313
#     4   9  18  35  59  84 110 144 186 227 266 313
#     4  10  22  40  60  80 105 142 186 228 270 320
#     4  10  21  35  55  85 117 147 179 221 272 322
#     4  12  25  38  55  82 114 145 178 221 276 332
#     4  10  22  40  60  80 105 142 186 228 270 320
#
# _framework density 20.930764
#
# number of rings (size 3 to 8) (size 9 to 14) (size 15 to 20)
#    0.000    2.000    0.000    3.000    0.000    8.000 
#    0.000   10.000    0.000    5.000    0.000    0.000 
#    0.000    0.000    0.000    0.000    0.000    0.000 
#
# Total GULP energy -134202.135975 kJ/mol
# GULP energy per Si atom -5591.755666 kJ/mol
# Density = 2.088312 g / cm^3
# Si number density = 20.930764 Si / 1000 Ang^3
#
#
#
# Elastic Constant Matrix: (Units=GPa)
#
#
# Indices 1 2 3 4 5 6 
#
# 1 74.0872 24.4585 10.9153 0.0000 -15.8084 0.0000
# 2 24.4585 76.6833 22.2713 0.0000 -24.5033 0.0000
# 3 10.9153 22.2713 46.9120 0.0000 -13.7902 0.0000
# 4 0.0000 0.0000 0.0000 18.4286 0.0000 -3.1107
# 5 -15.8084 -24.5033 -13.7902 0.0000 48.2834 0.0000
# 6 0.0000 0.0000 0.0000 -3.1107 0.0000 26.6737
#
#
#
# Elastic Compliance Matrix: (Units=1/GPa)
#
#
# Indices 1 2 3 4 5 6 
#
# 1 0.015492 -0.003730 -0.000982 0.000000 0.002899 0.000000
# 2 -0.003730 0.017899 -0.005806 0.000000 0.006204 0.000000
# 3 -0.000982 -0.005806 0.025480 0.000000 0.004009 0.000000
# 4 0.000000 0.000000 0.000000 0.055353 0.000000 0.006455
# 5 0.002899 0.006204 0.004009 0.000000 0.025954 0.000000
# 6 0.000000 0.000000 0.000000 0.006455 0.000000 0.038243
#
#
# Mechanical properties :
#
#
# Convention : Reuss Voigt Hill
#
# Bulk Modulus (GPa) = 26.42974 34.77474 30.60224
# Shear Modulus (GPa) = 23.57734 28.01295 25.79515
#
# Velocity S-wave (km/s) = 3.35990 3.66233 3.51437
# Velocity P-wave (km/s) = 5.26370 5.87655 5.57854
#
# Compressibility (1/GPa) = 0.03783616
#
# Stress axis : x y z
#
# Youngs Moduli (GPa) = 64.54873 55.86915 39.24663
#
# Poissons Ratio (x) = 0.20838 0.03853
# Poissons Ratio (y) = 0.24076 0.22786
# Poissons Ratio (z) = 0.06337 0.32437
#
# Static dielectric constant tensor:
#      x y z
#    x 1.709000 0.000000 0.051700 
#    y 0.000000 1.720130 0.000000 
#    z 0.051700 0.000000 1.767160 
# 
# From -- ./inp_files/133722.got.cif
#   From: 2010.05.17/outbox.cif.g08.bks.cpg/sg12_67_cif.got.tgz:133722.got - 2010.06.03 13:09:07.
