data_PCOD9205878
_publ_section_title
;
Structure prediction by ZEFSAII (Michael W. Deem and Ramdas Pophale) SiO2 
 PCOD9205878
Probable space group: C 2/M
;
_chemical_formula_sum "Si O2"
_cell_formula_units_Z 56
_cell_length_a 10.111199
_cell_length_b 7.387167
_cell_length_c 33.576939
_cell_angle_alpha 90.000000
_cell_angle_beta 112.647963
_cell_angle_gamma 90.000000
_cell_volume 2314.572387
_symmetry_space_group_name_H-M "C 2/M"
_symmetry_group_IT_number 12
_symmetry_cell_setting 'monoclinic'
loop_
_space_group_symop_operation_xyz
x,y,z
-x,y,-z
-x,-y,-z
x,-y,z
1/2+x,1/2+y,z
1/2-x,1/2+y,-z
1/2-x,1/2-y,-z
1/2+x,1/2-y,z
loop_
_atom_site_type_symbol
_atom_site_label
_atom_site_fract_x
_atom_site_fract_y
_atom_site_fract_z
Si Si1 0.564794 0.280570 0.191018
Si Si2 0.337574 0.709915 0.325092
Si Si3 0.344609 0.780102 0.623662
Si Si4 0.439789 0.719444 0.093579
Si Si5 0.884313 0.209873 0.242976
Si Si6 0.126415 0.290185 0.041582
Si Si7 0.343545 0.715725 0.472073
O O1 0.563449 0.500000 0.191703
O O2 0.470746 0.223185 0.142315
O O3 0.727878 0.219894 0.205048
O O4 0.499148 0.213976 0.225247
O O5 0.298641 0.500000 0.314372
O O6 0.492731 0.719733 0.363919
O O7 0.217821 0.784177 0.341029
O O8 0.362640 0.792603 0.284325
O O9 0.239226 0.716495 0.576505
O O10 0.344817 0.000000 0.623885
O O11 0.436780 0.500000 0.092943
O O12 0.286570 0.786045 0.059404
O O13 0.566641 0.780160 0.079403
O O14 0.924686 0.000000 0.253646
O O15 0.139934 0.500000 0.030887
O O16 0.000000 0.207691 0.000000
O O17 0.500000 0.790227 0.500000
O O18 0.358192 0.500000 0.467640
O O19 0.250000 0.750000 0.500000
#
# Coordination Sequence:
#
# PCOD9205878 Si02
#       7
#     8   8   8   8   8   8   8
#     4  10  21  36  54  79 110 142 178 221 267 315
#     4  10  21  37  57  81 109 142 179 220 268 319
#     4  10  21  36  55  81 110 141 180 223 267 318
#     4  10  21  36  54  79 110 142 179 222 266 316
#     4  10  21  37  57  81 109 142 180 221 266 318
#     4  10  21  37  57  81 109 142 180 222 268 318
#     4  10  21  37  56  79 109 143 179 222 269 317
#
# _framework density 24.194533
#
# number of rings (size 3 to 8) (size 9 to 14) (size 15 to 20)
#    0.000    2.000    0.000    3.000    0.000    6.286 
#    0.000    0.000    0.000    0.000    0.000    0.000 
#    0.000    0.000    0.000    0.000    0.000    0.000 
#
# Total GULP energy -156620.074931 kJ/mol
# GULP energy per Si atom -5593.574105 kJ/mol
# Density = 2.413947 g / cm^3
# Si number density = 24.194533 Si / 1000 Ang^3
#
#
#
# Elastic Constant Matrix: (Units=GPa)
#
#
# Indices 1 2 3 4 5 6 
#
# 1 98.0691 -14.3163 -16.8426 0.0000 0.4789 0.0000
# 2 -14.3163 88.9612 -0.6710 0.0000 -0.8240 0.0000
# 3 -16.8426 -0.6710 74.3653 0.0000 1.1041 0.0000
# 4 0.0000 0.0000 0.0000 9.3169 0.0000 7.6352
# 5 0.4789 -0.8240 1.1041 0.0000 49.7009 0.0000
# 6 0.0000 0.0000 0.0000 7.6352 0.0000 -12.3773
#
#
#
# Elastic Compliance Matrix: (Units=1/GPa)
#
#
# Indices 1 2 3 4 5 6 
#
# 1 0.010882 0.001769 0.002483 0.000000 -0.000131 0.000000
# 2 0.001769 0.011531 0.000502 0.000000 0.000163 0.000000
# 3 0.002483 0.000502 0.014019 0.000000 -0.000327 0.000000
# 4 0.000000 0.000000 0.000000 0.071292 0.000000 0.043978
# 5 -0.000131 0.000163 -0.000327 0.000000 0.020132 0.000000
# 6 0.000000 0.000000 0.000000 0.043978 0.000000 -0.053664
#
#
# Mechanical properties :
#
#
# Convention : Reuss Voigt Hill
#
# Bulk Modulus (GPa) = 21.76819 21.97066 21.86943
# Shear Modulus (GPa) = 62.50214 28.87644 45.68929
#
# Velocity S-wave (km/s) = 5.08815 3.45847 4.35030
# Velocity P-wave (km/s) = 6.59816 5.00486 5.85595
#
# Compressibility (1/GPa) = 0.04593859
#
# Stress axis : x y z
#
# Youngs Moduli (GPa) = 91.89412 86.72435 71.33293
#
# Poissons Ratio (x) = -0.15339 -0.17709
# Poissons Ratio (y) = -0.16254 -0.03582
# Poissons Ratio (z) = -0.22813 -0.04355
#
# Static dielectric constant tensor:
#      x y z
#    x 1.853210 0.000000 0.006420 
#    y 0.000000 1.817280 0.000000 
#    z 0.006420 0.000000 1.934500 
# 
# From -- ./inp_files/373631.got.cif
#   From: 2010.05.17/outbox.cif.g08.bks.cpg/sg12_187_cif.got.tgz:373631.got - 2010.06.03 13:09:07.
