data_PCOD9205635
_publ_section_title
;
Structure prediction by ZEFSAII (Michael W. Deem and Ramdas Pophale) SiO2 
 PCOD9205635
Probable space group: C 2/M
;
_chemical_formula_sum "Si O2"
_cell_formula_units_Z 48
_cell_length_a 20.552822
_cell_length_b 12.296516
_cell_length_c 15.638652
_cell_angle_alpha 90.000000
_cell_angle_beta 39.895520
_cell_angle_gamma 90.000000
_cell_volume 2534.981531
_symmetry_space_group_name_H-M "C 2/M"
_symmetry_group_IT_number 12
_symmetry_cell_setting 'monoclinic'
loop_
_space_group_symop_operation_xyz
x,y,z
-x,y,-z
-x,-y,-z
x,-y,z
1/2+x,1/2+y,z
1/2-x,1/2+y,-z
1/2-x,1/2-y,-z
1/2+x,1/2-y,z
loop_
_atom_site_type_symbol
_atom_site_label
_atom_site_fract_x
_atom_site_fract_y
_atom_site_fract_z
Si Si1 0.236779 0.279398 0.111780
Si Si2 0.132695 0.870811 0.563182
Si Si3 0.888132 0.500000 0.504419
Si Si4 0.611169 0.629019 0.922410
Si Si5 0.261642 0.312509 0.371337
Si Si6 0.124423 0.500000 0.275724
Si Si7 0.059843 0.129985 0.353378
O O1 0.346695 0.298519 0.043315
O O2 0.179554 0.393593 0.184754
O O3 0.164536 0.191804 0.231506
O O4 0.250000 0.250000 0.000000
O O5 0.213444 0.806745 0.423172
O O6 0.158928 0.830269 0.631905
O O7 0.019597 0.847867 0.643438
O O8 0.146959 0.000000 0.544728
O O9 0.832049 0.395309 0.522536
O O10 0.873529 0.500000 0.622468
O O11 0.007023 0.500000 0.368178
O O12 0.613720 0.500000 0.941302
O O13 0.686708 0.653312 0.768275
O O14 0.500000 0.654740 0.000000
O O15 0.000000 0.164908 0.500000
O O16 0.076038 0.000000 0.342787
#
# Coordination Sequence:
#
# PCOD9205635 Si02
#       7
#     8   8   4   8   8   4   8
#     4  12  25  41  65  94 133 166 211 267 323 383
#     4  10  21  35  59  93 123 158 205 261 315 375
#     4  11  20  38  68  94 118 158 209 276 322 370
#     4  11  23  42  66  89 123 166 216 261 315 382
#     4  11  19  37  62  90 123 156 208 262 322 365
#     4  11  24  40  64  94 125 161 212 265 325 378
#     4  10  23  41  64  90 125 172 214 255 313 381
#
# _framework density 18.935048999999999
#
# number of rings (size 3 to 8) (size 9 to 14) (size 15 to 20)
#    0.000    1.167    4.167    2.000    5.833    0.000 
#    0.000    0.000    0.000    2.000    0.000    0.000 
#    0.000    0.000    0.000    0.000    0.000    0.000 
#
# Total GULP energy -134087.771740 kJ/mol
# GULP energy per Si atom -5586.990489 kJ/mol
# Density = 1.889195 g / cm^3
# Si number density = 18.935049 Si / 1000 Ang^3
#
#
#
# Elastic Constant Matrix: (Units=GPa)
#
#
# Indices 1 2 3 4 5 6 
#
# 1 135.0323 25.8159 33.5636 0.0000 -6.2956 0.0000
# 2 25.8159 61.7507 22.1175 0.0000 -4.0834 0.0000
# 3 33.5636 22.1175 54.8458 0.0000 -2.7741 0.0000
# 4 0.0000 0.0000 0.0000 20.6868 0.0000 -1.6743
# 5 -6.2956 -4.0834 -2.7741 0.0000 23.6361 0.0000
# 6 0.0000 0.0000 0.0000 -1.6743 0.0000 24.5824
#
#
#
# Elastic Compliance Matrix: (Units=1/GPa)
#
#
# Indices 1 2 3 4 5 6 
#
# 1 0.009010 -0.002010 -0.004627 0.000000 0.001510 0.000000
# 2 -0.002010 0.019511 -0.006534 0.000000 0.002069 0.000000
# 3 -0.004627 -0.006534 0.023721 0.000000 0.000423 0.000000
# 4 0.000000 0.000000 0.000000 0.048608 0.000000 0.003311
# 5 0.001510 0.002069 0.000423 0.000000 0.043117 0.000000
# 6 0.000000 0.000000 0.000000 0.003311 0.000000 0.040905
#
#
# Mechanical properties :
#
#
# Convention : Reuss Voigt Hill
#
# Bulk Modulus (GPa) = 38.60829 46.06922 42.33875
# Shear Modulus (GPa) = 22.74296 25.12316 23.93306
#
# Velocity S-wave (km/s) = 3.46945 3.64649 3.55907
# Velocity P-wave (km/s) = 6.04017 6.48939 6.26880
#
# Compressibility (1/GPa) = 0.02590117
#
# Stress axis : x y z
#
# Youngs Moduli (GPa) = 110.98298 51.25213 42.15697
#
# Poissons Ratio (x) = 0.10301 0.19507
# Poissons Ratio (y) = 0.22305 0.27544
# Poissons Ratio (z) = 0.51354 0.33487
#
# Static dielectric constant tensor:
#      x y z
#    x 1.698570 0.000000 0.002480 
#    y 0.000000 1.649140 0.000000 
#    z 0.002480 0.000000 1.642800 
# 
# From -- ./inp_files/232837.got.cif
#   From: 2010.05.17/outbox.cif.g08.bks.cpg/sg12_117_cif.got.tgz:232837.got - 2010.06.03 13:09:07.
