data_PCOD9205069
_publ_section_title
;
Structure prediction by ZEFSAII (Michael W. Deem and Ramdas Pophale) SiO2 
 PCOD9205069
Probable space group: C 2/M
;
_chemical_formula_sum "Si O2"
_cell_formula_units_Z 56
_cell_length_a 10.251750
_cell_length_b 20.176386
_cell_length_c 17.347258
_cell_angle_alpha 90.000000
_cell_angle_beta 51.780936
_cell_angle_gamma 90.000000
_cell_volume 2819.044543
_symmetry_space_group_name_H-M "C 2/M"
_symmetry_group_IT_number 12
_symmetry_cell_setting 'monoclinic'
loop_
_space_group_symop_operation_xyz
x,y,z
-x,y,-z
-x,-y,-z
x,-y,z
1/2+x,1/2+y,z
1/2-x,1/2+y,-z
1/2-x,1/2-y,-z
1/2+x,1/2-y,z
loop_
_atom_site_type_symbol
_atom_site_label
_atom_site_fract_x
_atom_site_fract_y
_atom_site_fract_z
Si Si1 0.781133 0.162535 0.271539
Si Si2 0.652736 0.695724 0.161050
Si Si3 0.194263 0.571354 0.440726
Si Si4 0.784450 0.821334 0.523214
Si Si5 0.201090 0.159564 0.913833
Si Si6 0.169822 0.579274 0.989453
Si Si7 0.849700 0.796877 0.659703
O O1 0.773585 0.104664 0.336266
O O2 0.765561 0.142733 0.188207
O O3 0.642947 0.216863 0.345019
O O4 0.956031 0.201114 0.218441
O O5 0.744179 0.762610 0.098064
O O6 0.705022 0.627498 0.101870
O O7 0.691539 0.688089 0.237507
O O8 0.272564 0.500000 0.426598
O O9 0.203182 0.619082 0.509581
O O10 0.000000 0.564286 0.500000
O O11 0.750000 0.750000 0.500000
O O12 0.735970 0.819089 0.630448
O O13 0.977755 0.828521 0.429083
O O14 0.307617 0.113199 0.933502
O O15 0.000000 0.153838 0.000000
O O16 0.205653 0.500000 0.980564
O O17 0.000000 0.585766 0.000000
#
# Coordination Sequence:
#
# PCOD9205069 Si02
#       7
#     8   8   8   8   8   8   8
#     4  11  22  39  65 100 124 164 211 269 327 373
#     4  11  22  40  66  98 128 162 214 269 321 380
#     4  11  24  42  61  88 130 171 208 262 325 375
#     4  11  19  37  62  86 123 162 212 258 304 373
#     4  11  24  42  70 101 129 166 219 274 323 382
#     4  11  26  46  65  89 129 178 210 258 330 389
#     4  10  21  34  61  96 118 158 208 259 313 367
#
# _framework density 19.864887
#
# number of rings (size 3 to 8) (size 9 to 14) (size 15 to 20)
#    0.000    1.143    4.286    1.714    4.000    2.571 
#    0.000    2.143    0.000    0.000    0.000    0.000 
#    0.000    0.000    0.000    0.000    0.000    0.000 
#
# Total GULP energy -156032.901527 kJ/mol
# GULP energy per Si atom -5572.603626 kJ/mol
# Density = 1.981967 g / cm^3
# Si number density = 19.864887 Si / 1000 Ang^3
#
#
#
# Elastic Constant Matrix: (Units=GPa)
#
#
# Indices 1 2 3 4 5 6 
#
# 1 97.9413 50.1700 36.1180 0.0000 31.9856 0.0000
# 2 50.1700 124.9804 42.3043 0.0000 28.7496 0.0000
# 3 36.1180 42.3043 63.5965 0.0000 44.6848 0.0000
# 4 0.0000 0.0000 0.0000 20.6199 0.0000 5.0575
# 5 31.9856 28.7496 44.6848 0.0000 54.9084 0.0000
# 6 0.0000 0.0000 0.0000 5.0575 0.0000 29.1097
#
#
#
# Elastic Compliance Matrix: (Units=1/GPa)
#
#
# Indices 1 2 3 4 5 6 
#
# 1 0.014628 -0.003992 -0.002647 0.000000 -0.004277 0.000000
# 2 -0.003992 0.011420 -0.006450 0.000000 0.001595 0.000000
# 3 -0.002647 -0.006450 0.042181 0.000000 -0.029408 0.000000
# 4 0.000000 0.000000 0.000000 0.050655 0.000000 -0.008801
# 5 -0.004277 0.001595 -0.029408 0.000000 0.043800 0.000000
# 6 0.000000 0.000000 0.000000 -0.008801 0.000000 0.035882
#
#
# Mechanical properties :
#
#
# Convention : Reuss Voigt Hill
#
# Bulk Modulus (GPa) = 23.78118 60.41142 42.09630
# Shear Modulus (GPa) = 20.94124 31.45600 26.19862
#
# Velocity S-wave (km/s) = 3.25034 3.98364 3.63552
# Velocity P-wave (km/s) = 5.10723 7.18584 6.23378
#
# Compressibility (1/GPa) = 0.04205005
#
# Stress axis : x y z
#
# Youngs Moduli (GPa) = 68.36171 87.56391 23.70729
#
# Poissons Ratio (x) = 0.34958 0.06275
# Poissons Ratio (y) = 0.27292 0.15292
# Poissons Ratio (z) = 0.18095 0.56482
#
# Static dielectric constant tensor:
#      x y z
#    x 0.871840 0.000000 -0.872660 
#    y 0.000000 1.767250 0.000000 
#    z -0.872660 0.000000 0.936030 
# 
# From -- ./inp_files/264224.got.cif
#   From: 2010.05.17/outbox.cif.g08.bks.cpg/sg12_133_cif.got.tgz:264224.got - 2010.06.03 13:09:07.
