data_PCOD9205234
_publ_section_title
;
Structure prediction by ZEFSAII (Michael W. Deem and Ramdas Pophale) SiO2 
 PCOD9205234
Probable space group: C 2/M
;
_chemical_formula_sum "Si O2"
_cell_formula_units_Z 40
_cell_length_a 16.977847
_cell_length_b 14.322300
_cell_length_c 9.370951
_cell_angle_alpha 90.000000
_cell_angle_beta 135.449049
_cell_angle_gamma 90.000000
_cell_volume 1598.576785
_symmetry_space_group_name_H-M "C 2/M"
_symmetry_group_IT_number 12
_symmetry_cell_setting 'monoclinic'
loop_
_space_group_symop_operation_xyz
x,y,z
-x,y,-z
-x,-y,-z
x,-y,z
1/2+x,1/2+y,z
1/2-x,1/2+y,-z
1/2-x,1/2-y,-z
1/2+x,1/2-y,z
loop_
_atom_site_type_symbol
_atom_site_label
_atom_site_fract_x
_atom_site_fract_y
_atom_site_fract_z
Si Si1 0.852407 0.606900 0.008424
Si Si2 0.153517 0.393939 0.654438
Si Si3 0.878397 0.102873 0.768519
Si Si4 0.389121 0.604526 0.261915
Si Si5 0.976967 0.743744 0.720312
O O1 0.874632 0.500000 0.999557
O O2 0.846507 0.615768 0.174877
O O3 0.953427 0.672188 0.092274
O O4 0.724406 0.629678 0.800405
O O5 0.113088 0.500000 0.568747
O O6 0.278155 0.387769 0.751040
O O7 0.079458 0.317426 0.477298
O O8 0.884404 0.190685 0.672216
O O9 0.865641 0.000000 0.680559
O O10 0.000000 0.102465 0.000000
O O11 0.500000 0.597785 0.500000
O O12 0.369894 0.500000 0.174611
O O13 0.425052 0.685425 0.202709
#
# Coordination Sequence:
#
# PCOD9205234 Si02
#       5
#     8   8   8   8   8
#     4  10  21  38  60  86 117 153 193 239 289 342
#     4  10  21  38  59  85 118 154 193 237 287 345
#     4  10  22  40  60  82 114 157 199 238 284 342
#     4  10  21  35  52  80 117 152 188 235 291 344
#     4  12  21  34  59  89 115 146 193 242 289 339
#
# _framework density 25.022258000000001
#
# number of rings (size 3 to 8) (size 9 to 14) (size 15 to 20)
#    0.000    1.600    0.000    5.400    0.000    6.400 
#    0.000    0.000    0.000    2.400    0.000    0.000 
#    0.000    0.000    0.000    0.000    0.000    0.000 
#
# Total GULP energy -111959.704699 kJ/mol
# GULP energy per Si atom -5597.985235 kJ/mol
# Density = 2.496531 g / cm^3
# Si number density = 25.022258 Si / 1000 Ang^3
#
#
#
# Elastic Constant Matrix: (Units=GPa)
#
#
# Indices 1 2 3 4 5 6 
#
# 1 84.5060 54.7310 21.2478 0.0000 16.8371 0.0000
# 2 54.7310 140.0208 46.2140 0.0000 0.2946 0.0000
# 3 21.2478 46.2140 104.5492 0.0000 20.4234 0.0000
# 4 0.0000 0.0000 0.0000 171.5092 0.0000 107.5730
# 5 16.8371 0.2946 20.4234 0.0000 30.8428 0.0000
# 6 0.0000 0.0000 0.0000 107.5730 0.0000 70.7090
#
#
#
# Elastic Compliance Matrix: (Units=1/GPa)
#
#
# Indices 1 2 3 4 5 6 
#
# 1 0.018784 -0.007958 0.001939 0.000000 -0.011462 0.000000
# 2 -0.007958 0.011937 -0.005152 0.000000 0.007642 0.000000
# 3 0.001939 -0.005152 0.013375 0.000000 -0.009866 0.000000
# 4 0.000000 0.000000 0.000000 0.127334 0.000000 -0.193719
# 5 -0.011462 0.007642 -0.009866 0.000000 0.045140 0.000000
# 6 0.000000 0.000000 0.000000 -0.193719 0.000000 0.308856
#
#
# Mechanical properties :
#
#
# Convention : Reuss Voigt Hill
#
# Bulk Modulus (GPa) = 45.96712 63.71795 54.84253
# Shear Modulus (GPa) = 9.00872 68.40443 38.70657
#
# Velocity S-wave (km/s) = 1.89950 5.23419 3.93731
# Velocity P-wave (km/s) = 4.81884 7.87711 6.52955
#
# Compressibility (1/GPa) = 0.02175468
#
# Stress axis : x y z
#
# Youngs Moduli (GPa) = 53.23758 83.77493 74.76419
#
# Poissons Ratio (x) = 0.66669 -0.14500
# Poissons Ratio (y) = 0.42367 0.38517
# Poissons Ratio (z) = -0.10325 0.43160
#
# Static dielectric constant tensor:
#      x y z
#    x 1.988530 0.000000 -0.030490 
#    y 0.000000 2.027250 0.000000 
#    z -0.030490 0.000000 1.995750 
# 
# From -- ./inp_files/141838.got.cif
#   From: 2010.05.17/outbox.cif.g08.bks.cpg/sg12_71_cif.got.tgz:141838.got - 2010.06.03 13:09:07.
