data_PCOD9205788
_publ_section_title
;
Structure prediction by ZEFSAII (Michael W. Deem and Ramdas Pophale) SiO2 
 PCOD9205788
Probable space group: C 2/M
;
_chemical_formula_sum "Si O2"
_cell_formula_units_Z 64
_cell_length_a 28.880972
_cell_length_b 8.917991
_cell_length_c 15.922688
_cell_angle_alpha 90.000000
_cell_angle_beta 114.819303
_cell_angle_gamma 90.000000
_cell_volume 3722.262422
_symmetry_space_group_name_H-M "C 2/M"
_symmetry_group_IT_number 12
_symmetry_cell_setting 'monoclinic'
loop_
_space_group_symop_operation_xyz
x,y,z
-x,y,-z
-x,-y,-z
x,-y,z
1/2+x,1/2+y,z
1/2-x,1/2+y,-z
1/2-x,1/2-y,-z
1/2+x,1/2-y,z
loop_
_atom_site_type_symbol
_atom_site_label
_atom_site_fract_x
_atom_site_fract_y
_atom_site_fract_z
Si Si1 0.382897 0.821025 0.239821
Si Si2 0.258952 0.178998 0.742565
Si Si3 0.900905 0.820035 0.596193
Si Si4 0.027375 0.182461 0.104860
Si Si5 0.862150 0.819345 0.752329
Si Si6 0.012556 0.180883 0.743447
Si Si7 0.156343 0.321445 0.604092
Si Si8 0.279786 0.679660 0.100746
O O1 0.437283 0.757911 0.253612
O O2 0.372210 0.786849 0.329819
O O3 0.336754 0.745233 0.153256
O O4 0.380726 0.000000 0.227271
O O5 0.312060 0.244013 0.750704
O O6 0.211975 0.247564 0.654595
O O7 0.248323 0.216786 0.832402
O O8 0.258328 0.000000 0.734250
O O9 0.872711 0.783152 0.662533
O O10 0.874772 0.741146 0.498076
O O11 0.960569 0.780859 0.653967
O O12 0.898113 0.000000 0.583799
O O13 0.086392 0.227325 0.159364
O O14 0.998080 0.224641 0.167823
O O15 0.027423 0.000000 0.103423
O O16 0.000000 0.236629 0.000000
O O17 0.857581 0.000000 0.754913
O O18 0.018230 0.000000 0.744683
O O19 0.161765 0.500000 0.601878
O O20 0.281910 0.500000 0.094382
O O21 0.250000 0.750000 0.000000
#
# Coordination Sequence:
#
# PCOD9205788 Si02
#       8
#     8   8   8   8   8   8   8   8
#     4  10  21  36  53  76 106 136 170 215 261 306
#     4  10  21  36  54  77 105 135 169 211 258 307
#     4   9  19  35  53  75 105 138 173 214 257 306
#     4   8  15  30  52  77 103 132 169 209 247 295
#     4   9  18  33  53  77 105 136 171 211 255 305
#     4   9  18  33  53  77 104 136 173 210 254 307
#     4  10  21  36  54  75 100 134 175 215 258 308
#     4  10  21  37  56  78 105 137 173 212 255 305
#
# _framework density 17.193843000000001
#
# number of rings (size 3 to 8) (size 9 to 14) (size 15 to 20)
#    0.000    2.625    0.000    3.000    0.000    6.000 
#    0.000    5.625    0.000    0.750    0.000    0.000 
#    0.000    0.000    0.000    0.000    0.000    0.000 
#
# Total GULP energy -178521.396672 kJ/mol
# GULP energy per Si atom -5578.793646 kJ/mol
# Density = 1.715471 g / cm^3
# Si number density = 17.193843 Si / 1000 Ang^3
#
#
#
# Elastic Constant Matrix: (Units=GPa)
#
#
# Indices 1 2 3 4 5 6 
#
# 1 178.8846 59.4113 88.3855 0.0000 15.8056 0.0000
# 2 59.4113 42.2870 58.1487 0.0000 6.8077 0.0000
# 3 88.3855 58.1487 169.1733 0.0000 23.8778 0.0000
# 4 0.0000 0.0000 0.0000 28.0855 0.0000 2.0764
# 5 15.8056 6.8077 23.8778 0.0000 9.4796 0.0000
# 6 0.0000 0.0000 0.0000 2.0764 0.0000 35.8796
#
#
#
# Elastic Compliance Matrix: (Units=1/GPa)
#
#
# Indices 1 2 3 4 5 6 
#
# 1 0.011049 -0.014978 0.000710 0.000000 -0.009455 0.000000
# 2 -0.014978 0.065801 -0.018072 0.000000 0.023240 0.000000
# 3 0.000710 -0.018072 0.015652 0.000000 -0.027630 0.000000
# 4 0.000000 0.000000 0.000000 0.035759 0.000000 -0.002069
# 5 -0.009455 0.023240 -0.027630 0.000000 0.174161 0.000000
# 6 0.000000 0.000000 0.000000 -0.002069 0.000000 0.027991
#
#
# Mechanical properties :
#
#
# Convention : Reuss Voigt Hill
#
# Bulk Modulus (GPa) = 35.94306 89.13733 62.54019
# Shear Modulus (GPa) = 12.36505 26.98223 19.67364
#
# Velocity S-wave (km/s) = 2.68462 3.96573 3.38631
# Velocity P-wave (km/s) = 5.52807 8.53958 7.19319
#
# Compressibility (1/GPa) = 0.02782178
#
# Stress axis : x y z
#
# Youngs Moduli (GPa) = 90.50381 15.19742 63.89068
#
# Poissons Ratio (x) = 0.22763 -0.04536
# Poissons Ratio (y) = 1.35555 1.15463
# Poissons Ratio (z) = -0.06426 0.27465
#
# Static dielectric constant tensor:
#      x y z
#    x 1.555590 0.000000 -0.006080 
#    y 0.000000 1.575160 0.000000 
#    z -0.006080 0.000000 1.568350 
# 
# From -- ./inp_files/244153.got.cif
#   From: 2010.05.17/outbox.cif.g08.bks.cpg/sg12_123_cif.got.tgz:244153.got - 2010.06.03 13:09:07.
