data_PCOD9205439
_publ_section_title
;
Structure prediction by ZEFSAII (Michael W. Deem and Ramdas Pophale) SiO2 
 PCOD9205439
Probable space group: C 2/M
;
_chemical_formula_sum "Si O2"
_cell_formula_units_Z 56
_cell_length_a 5.152022
_cell_length_b 26.939133
_cell_length_c 20.449038
_cell_angle_alpha 90.000000
_cell_angle_beta 112.333049
_cell_angle_gamma 90.000000
_cell_volume 2625.255436
_symmetry_space_group_name_H-M "C 2/M"
_symmetry_group_IT_number 12
_symmetry_cell_setting 'monoclinic'
loop_
_space_group_symop_operation_xyz
x,y,z
-x,y,-z
-x,-y,-z
x,-y,z
1/2+x,1/2+y,z
1/2-x,1/2+y,-z
1/2-x,1/2-y,-z
1/2+x,1/2-y,z
loop_
_atom_site_type_symbol
_atom_site_label
_atom_site_fract_x
_atom_site_fract_y
_atom_site_fract_z
Si Si1 0.964421 0.060271 0.694767
Si Si2 0.953343 0.102826 0.926389
Si Si3 0.406230 0.284472 0.622280
Si Si4 0.952130 0.667458 0.925791
Si Si5 0.759445 0.219744 0.222562
Si Si6 0.821471 0.887574 0.546713
Si Si7 0.412285 0.059365 0.223594
O O1 0.267782 0.076441 0.751281
O O2 0.918638 0.081270 0.618594
O O3 0.725667 0.077663 0.722181
O O4 0.959398 0.000000 0.692171
O O5 0.750312 0.148722 0.927295
O O6 0.781514 0.074600 0.854988
O O7 0.248380 0.121932 0.926699
O O8 0.000000 0.075348 0.000000
O O9 0.121403 0.256266 0.614301
O O10 0.556514 0.305439 0.702761
O O11 0.355994 0.329705 0.569039
O O12 0.794701 0.694458 0.851907
O O13 0.000000 0.695061 0.000000
O O14 0.457617 0.233084 0.224328
O O15 0.500000 0.897948 0.500000
O O16 0.000000 0.899183 0.500000
O O17 0.417370 0.000000 0.226961
#
# Coordination Sequence:
#
# PCOD9205439 Si02
#       7
#     8   8   8   8   8   8   8
#     4  10  23  43  64  94 126 155 200 252 299 358
#     4  10  21  35  55  86 121 158 198 244 296 345
#     4  10  23  41  60  88 124 157 199 251 296 350
#     4  10  21  36  54  84 119 156 199 245 299 348
#     4  10  21  37  56  83 113 153 201 242 296 350
#     4  12  26  42  65  96 120 159 205 236 308 379
#     4  10  21  38  62  89 118 159 201 241 296 350
#
# _framework density 21.331258999999999
#
# number of rings (size 3 to 8) (size 9 to 14) (size 15 to 20)
#    0.000    1.714    0.000    3.429    4.000    3.143 
#    0.000    0.000    0.000    5.143    0.000    0.000 
#    0.000    0.000    0.000    0.000    0.000    0.000 
#
# Total GULP energy -156457.913948 kJ/mol
# GULP energy per Si atom -5587.782641 kJ/mol
# Density = 2.128271 g / cm^3
# Si number density = 21.331259 Si / 1000 Ang^3
#
#
#
# Elastic Constant Matrix: (Units=GPa)
#
#
# Indices 1 2 3 4 5 6 
#
# 1 88.8027 5.0565 12.2681 0.0000 4.0056 0.0000
# 2 5.0565 8.3498 0.2474 0.0000 -1.5002 0.0000
# 3 12.2681 0.2474 81.4167 0.0000 1.3127 0.0000
# 4 0.0000 0.0000 0.0000 415.0661 0.0000 -5.4939
# 5 4.0056 -1.5002 1.3127 0.0000 36.1924 0.0000
# 6 0.0000 0.0000 0.0000 -5.4939 0.0000 17.3879
#
#
#
# Elastic Compliance Matrix: (Units=1/GPa)
#
#
# Indices 1 2 3 4 5 6 
#
# 1 0.012002 -0.007499 -0.001760 0.000000 -0.001575 0.000000
# 2 -0.007499 0.125364 0.000652 0.000000 0.006003 0.000000
# 3 -0.001760 0.000652 0.012550 0.000000 -0.000233 0.000000
# 4 0.000000 0.000000 0.000000 0.002419 0.000000 0.000764
# 5 -0.001575 0.006003 -0.000233 0.000000 0.028062 0.000000
# 6 0.000000 0.000000 0.000000 0.000764 0.000000 0.057753
#
#
# Mechanical properties :
#
#
# Convention : Reuss Voigt Hill
#
# Bulk Modulus (GPa) = 7.53573 23.74589 15.64081
# Shear Modulus (GPa) = 16.68906 104.46244 60.57575
#
# Velocity S-wave (km/s) = 2.80013 7.00556 5.33473
# Velocity P-wave (km/s) = 3.74095 8.75176 6.73008
#
# Compressibility (1/GPa) = 0.13270117
#
# Stress axis : x y z
#
# Youngs Moduli (GPa) = 83.31827 7.97678 79.68428
#
# Poissons Ratio (x) = 0.05982 0.14027
# Poissons Ratio (y) = 0.62481 -0.05197
# Poissons Ratio (z) = 0.14667 -0.00520
#
# Static dielectric constant tensor:
#      x y z
#    x 1.736010 0.000000 -0.000750 
#    y 0.000000 1.764510 0.000000 
#    z -0.000750 0.000000 1.781610 
# 
# From -- ./inp_files/253643.got.cif
#   From: 2010.05.17/outbox.cif.g08.bks.cpg/sg12_127_cif.got.tgz:253643.got - 2010.06.03 13:09:07.
