data_PCOD9205518
_publ_section_title
;
Structure prediction by ZEFSAII (Michael W. Deem and Ramdas Pophale) SiO2 
 PCOD9205518
Probable space group: C 2/M
;
_chemical_formula_sum "Si O2"
_cell_formula_units_Z 32
_cell_length_a 13.169872
_cell_length_b 19.168163
_cell_length_c 14.247318
_cell_angle_alpha 90.000000
_cell_angle_beta 29.832632
_cell_angle_gamma 90.000000
_cell_volume 1789.206248
_symmetry_space_group_name_H-M "C 2/M"
_symmetry_group_IT_number 12
_symmetry_cell_setting 'monoclinic'
loop_
_space_group_symop_operation_xyz
x,y,z
-x,y,-z
-x,-y,-z
x,-y,z
1/2+x,1/2+y,z
1/2-x,1/2+y,-z
1/2-x,1/2-y,-z
1/2+x,1/2-y,z
loop_
_atom_site_type_symbol
_atom_site_label
_atom_site_fract_x
_atom_site_fract_y
_atom_site_fract_z
Si Si1 0.923197 0.500000 0.455013
Si Si2 0.590615 0.617748 0.728969
Si Si3 0.301284 0.746851 0.220366
Si Si4 0.409667 0.288999 0.438120
Si Si5 0.140414 0.000000 0.981326
O O1 0.784518 0.568351 0.554004
O O2 0.000000 0.500000 0.500000
O O3 0.123758 0.500000 0.232074
O O4 0.650290 0.677615 0.757136
O O5 0.519283 0.649191 0.686762
O O6 0.423400 0.568341 0.910132
O O7 0.219440 0.802629 0.363336
O O8 0.103419 0.741715 0.311803
O O9 0.500000 0.764303 0.000000
O O10 0.250000 0.250000 0.500000
O O11 0.000000 0.000000 0.000000
#
# Coordination Sequence:
#
# PCOD9205518 Si02
#       5
#     4   8   8   8   4
#     4  11  23  34  55  79 112 146 178 222 283 320
#     4  10  22  36  55  83 117 142 182 227 274 334
#     4  10  21  35  57  82 114 150 186 225 275 333
#     4   9  21  35  53  81 114 149 184 228 277 324
#     4  11  21  34  55  83 106 146 180 220 277 330
#
# _framework density 17.885026
#
# number of rings (size 3 to 8) (size 9 to 14) (size 15 to 20)
#    0.000    2.000    2.500    0.750    7.000    6.000 
#    0.000    0.000    0.000   12.000    0.000   14.000 
#    0.000    0.000    0.000    0.000    0.000    0.000 
#
# Total GULP energy -89110.778948 kJ/mol
# GULP energy per Si atom -5569.423684 kJ/mol
# Density = 1.784432 g / cm^3
# Si number density = 17.885026 Si / 1000 Ang^3
#
#
#
# Elastic Constant Matrix: (Units=GPa)
#
#
# Indices 1 2 3 4 5 6 
#
# 1 85.1440 29.9172 48.1514 -0.0028 8.7695 0.0020
# 2 29.9172 61.5662 33.9292 0.0062 21.0445 -0.0081
# 3 48.1514 33.9292 176.4634 -0.0085 22.4250 -0.0059
# 4 -0.0028 0.0062 -0.0085 13.5256 0.0028 11.6835
# 5 8.7695 21.0445 22.4250 0.0028 27.9234 0.0004
# 6 0.0020 -0.0081 -0.0059 11.6835 0.0004 27.7288
#
#
#
# Elastic Compliance Matrix: (Units=1/GPa)
#
#
# Indices 1 2 3 4 5 6 
#
# 1 0.015725 -0.006770 -0.003352 0.000011 0.002856 -0.000009
# 2 -0.006770 0.025706 -0.001006 -0.000027 -0.016439 0.000020
# 3 -0.003352 -0.001006 0.007289 0.000006 -0.004043 -0.000001
# 4 0.000011 -0.000027 0.000006 0.116242 0.000001 -0.048978
# 5 0.002856 -0.016439 -0.004043 0.000001 0.050551 -0.000007
# 6 -0.000009 0.000020 -0.000001 -0.048978 -0.000007 0.056701
#
#
# Mechanical properties :
#
#
# Convention : Reuss Voigt Hill
#
# Bulk Modulus (GPa) = 37.78817 60.79658 49.29238
# Shear Modulus (GPa) = 16.48572 27.91395 22.19983
#
# Velocity S-wave (km/s) = 3.03935 3.95491 3.52696
# Velocity P-wave (km/s) = 5.78715 7.41093 6.64880
#
# Compressibility (1/GPa) = 0.02646331
#
# Stress axis : x y z
#
# Youngs Moduli (GPa) = 63.59188 38.90083 137.19758
#
# Poissons Ratio (x) = 0.26337 0.45990
# Poissons Ratio (y) = 0.43054 0.13804
# Poissons Ratio (z) = 0.21317 0.03914
#
# Static dielectric constant tensor:
#      x y z
#    x 1.643440 -0.000020 0.026480 
#    y -0.000020 1.664660 0.000010 
#    z 0.026480 0.000010 1.635770 
# 
# From -- ./inp_files/206509.got.cif
#   From: 2010.05.17/outbox.cif.g08.bks.cpg/sg12_104_cif.got.tgz:206509.got - 2010.06.03 13:09:07.
