data_PCOD9205876
_publ_section_title
;
Structure prediction by ZEFSAII (Michael W. Deem and Ramdas Pophale) SiO2 
 PCOD9205876
Probable space group: C 2/M
;
_chemical_formula_sum "Si O2"
_cell_formula_units_Z 56
_cell_length_a 7.597047
_cell_length_b 18.130260
_cell_length_c 23.557644
_cell_angle_alpha 90.000000
_cell_angle_beta 50.493588
_cell_angle_gamma 90.000000
_cell_volume 2503.494758
_symmetry_space_group_name_H-M "C 2/M"
_symmetry_group_IT_number 12
_symmetry_cell_setting 'monoclinic'
loop_
_space_group_symop_operation_xyz
x,y,z
-x,y,-z
-x,-y,-z
x,-y,z
1/2+x,1/2+y,z
1/2-x,1/2+y,-z
1/2-x,1/2-y,-z
1/2+x,1/2-y,z
loop_
_atom_site_type_symbol
_atom_site_label
_atom_site_fract_x
_atom_site_fract_y
_atom_site_fract_z
Si Si1 0.547685 0.153981 0.374450
Si Si2 0.341411 0.674726 0.908700
Si Si3 0.699913 0.677657 0.344356
Si Si4 0.886463 0.418746 0.207730
Si Si5 0.430232 0.419026 0.226047
Si Si6 0.628160 0.844511 0.064700
Si Si7 0.835242 0.914524 0.477294
O O1 0.649515 0.235808 0.358499
O O2 0.363905 0.159187 0.362279
O O3 0.740556 0.100735 0.310879
O O4 0.403682 0.122778 0.456498
O O5 0.542690 0.640859 0.829496
O O6 0.349510 0.762604 0.914145
O O7 0.108344 0.656269 0.922781
O O8 0.319607 0.643861 0.977341
O O9 0.829698 0.646810 0.262771
O O10 0.466573 0.632247 0.402534
O O11 0.908218 0.500000 0.230497
O O12 0.665607 0.420912 0.212423
O O13 0.095511 0.400109 0.123180
O O14 0.389943 0.500000 0.209544
O O15 0.000000 0.913198 0.500000
O O16 0.808008 0.000000 0.466961
#
# Coordination Sequence:
#
# PCOD9205876 Si02
#       7
#     8   8   8   8   8   8   8
#     4  11  22  37  58  81 108 142 180 220 263 314
#     4   9  18  33  53  76 103 138 178 218 262 313
#     4  11  22  37  58  81 108 142 180 220 263 314
#     4  10  21  36  54  79 110 141 177 222 269 317
#     4  10  21  36  54  79 110 141 177 222 269 317
#     4   9  18  33  53  76 103 138 178 218 262 313
#     4   9  19  36  57  81 108 139 176 217 262 314
#
# _framework density 22.368731
#
# number of rings (size 3 to 8) (size 9 to 14) (size 15 to 20)
#    0.000    2.143    0.000    3.000    0.000    5.714 
#    0.000    5.000    0.000    5.143    0.000    6.000 
#    0.000    0.000    0.000    0.000    0.000    0.000 
#
# Total GULP energy -156452.779804 kJ/mol
# GULP energy per Si atom -5587.599279 kJ/mol
# Density = 2.231782 g / cm^3
# Si number density = 22.368731 Si / 1000 Ang^3
#
#
#
# Elastic Constant Matrix: (Units=GPa)
#
#
# Indices 1 2 3 4 5 6 
#
# 1 29.2113 -2.8855 9.9208 0.0002 -0.7517 0.0001
# 2 -2.8855 52.8245 -3.5700 0.0000 2.0271 0.0003
# 3 9.9208 -3.5700 69.7505 0.0003 -1.9917 -0.0002
# 4 0.0002 0.0000 0.0003 26.3647 -0.0002 -9.8062
# 5 -0.7517 2.0271 -1.9917 -0.0002 22.5040 0.0000
# 6 0.0001 0.0003 -0.0002 -9.8062 0.0000 -1.2687
#
#
#
# Elastic Compliance Matrix: (Units=1/GPa)
#
#
# Indices 1 2 3 4 5 6 
#
# 1 0.036119 0.001609 -0.005037 0.000000 0.000616 0.000001
# 2 0.001609 0.019128 0.000704 0.000000 -0.001607 0.000001
# 3 -0.005037 0.000704 0.015121 0.000000 0.001107 0.000000
# 4 0.000000 0.000000 0.000000 0.009789 0.000000 -0.075659
# 5 0.000616 -0.001607 0.001107 0.000000 0.044700 -0.000001
# 6 0.000001 0.000001 0.000000 -0.075659 -0.000001 -0.203414
#
#
# Mechanical properties :
#
#
# Convention : Reuss Voigt Hill
#
# Bulk Modulus (GPa) = 15.40375 17.63520 16.51947
# Shear Modulus (GPa) = -97.14345 19.40807 -38.86769
#
# Velocity S-wave (km/s) = -6.59716 2.94877 -4.17296
# Velocity P-wave (km/s) = 7.15044 4.41528 3.97707
#
# Compressibility (1/GPa) = 0.06491926
#
# Stress axis : x y z
#
# Youngs Moduli (GPa) = 27.68637 52.28007 66.13344
#
# Poissons Ratio (x) = -0.08411 0.33314
# Poissons Ratio (y) = -0.04454 -0.04658
# Poissons Ratio (z) = 0.13947 -0.03682
#
# Static dielectric constant tensor:
#      x y z
#    x 1.851170 0.000000 -0.011830 
#    y 0.000000 1.772260 0.000000 
#    z -0.011830 0.000000 1.849340 
# 
# From -- ./inp_files/333314.got.cif
#   From: 2010.05.17/outbox.cif.g08.bks.cpg/sg12_167_cif.got.tgz:333314.got - 2010.06.03 13:09:07.
