data_PCOD9205913
_publ_section_title
;
Structure prediction by ZEFSAII (Michael W. Deem and Ramdas Pophale) SiO2 
 PCOD9205913
Probable space group: C 2/M
;
_chemical_formula_sum "Si O2"
_cell_formula_units_Z 44
_cell_length_a 14.397200
_cell_length_b 9.563095
_cell_length_c 17.249075
_cell_angle_alpha 90.000000
_cell_angle_beta 122.918527
_cell_angle_gamma 90.000000
_cell_volume 1993.582173
_symmetry_space_group_name_H-M "C 2/M"
_symmetry_group_IT_number 12
_symmetry_cell_setting 'monoclinic'
loop_
_space_group_symop_operation_xyz
x,y,z
-x,y,-z
-x,-y,-z
x,-y,z
1/2+x,1/2+y,z
1/2-x,1/2+y,-z
1/2-x,1/2-y,-z
1/2+x,1/2-y,z
loop_
_atom_site_type_symbol
_atom_site_label
_atom_site_fract_x
_atom_site_fract_y
_atom_site_fract_z
Si Si1 0.333520 0.654257 0.313341
Si Si2 0.505596 0.342055 0.252438
Si Si3 0.084498 0.663144 0.923879
Si Si4 0.163557 0.662974 0.119948
Si Si5 0.500000 0.788397 0.500000
Si Si6 0.649342 0.158330 0.422433
O O1 0.289983 0.500000 0.311922
O O2 0.432047 0.642854 0.295840
O O3 0.239779 0.732079 0.220318
O O4 0.392941 0.711401 0.415853
O O5 0.540643 0.500000 0.245084
O O6 0.429149 0.266568 0.154128
O O7 0.601896 0.237631 0.324940
O O8 0.111798 0.500000 0.916899
O O9 0.960141 0.660487 0.902965
O O10 0.159024 0.717149 0.029673
O O11 0.199409 0.500000 0.127337
O O12 0.445065 0.852343 0.552807
O O13 0.750000 0.250000 0.500000
O O14 0.683167 0.000000 0.421217
#
# Coordination Sequence:
#
# PCOD9205913 Si02
#       6
#     8   8   8   8   4   8
#     4   9  18  33  53  79 113 152 193 237 288 349
#     4  10  21  36  54  81 115 147 187 238 291 348
#     4   9  17  32  55  80 108 143 190 241 286 343
#     4   8  16  31  52  78 107 146 193 235 285 347
#     4  10  22  38  60  88 123 158 199 250 299 348
#     4  11  24  42  63  89 121 159 201 246 299 355
#
# _framework density 22.070824000000002
#
# number of rings (size 3 to 8) (size 9 to 14) (size 15 to 20)
#    0.000    2.545    0.000    2.727    2.545    2.909 
#    0.000    1.818    0.000    6.545    0.000    0.000 
#    0.000    0.000    0.000    0.000    0.000    0.000 
#
# Total GULP energy -122506.485942 kJ/mol
# GULP energy per Si atom -5568.476634 kJ/mol
# Density = 2.202059 g / cm^3
# Si number density = 22.070824 Si / 1000 Ang^3
#
#
#
# Elastic Constant Matrix: (Units=GPa)
#
#
# Indices 1 2 3 4 5 6 
#
# 1 35.6437 12.6215 9.1623 0.0000 -7.9254 0.0000
# 2 12.6215 116.1102 69.7376 0.0000 -4.6234 0.0000
# 3 9.1623 69.7376 203.5144 0.0000 4.6235 0.0000
# 4 0.0000 0.0000 0.0000 4.2642 0.0000 31.8427
# 5 -7.9254 -4.6234 4.6235 0.0000 46.2138 0.0000
# 6 0.0000 0.0000 0.0000 31.8427 0.0000 -61.3136
#
#
#
# Elastic Compliance Matrix: (Units=1/GPa)
#
#
# Indices 1 2 3 4 5 6 
#
# 1 0.030278 -0.002779 -0.000524 0.000000 0.004967 0.000000
# 2 -0.002779 0.011199 -0.003735 0.000000 0.001017 0.000000
# 3 -0.000524 -0.003735 0.006242 0.000000 -0.001088 0.000000
# 4 0.000000 0.000000 0.000000 0.048074 0.000000 0.024967
# 5 0.004967 0.001017 -0.001088 0.000000 0.022701 0.000000
# 6 0.000000 0.000000 0.000000 0.024967 0.000000 -0.003343
#
#
# Mechanical properties :
#
#
# Convention : Reuss Voigt Hill
#
# Bulk Modulus (GPa) = 29.72405 59.81236 44.76820
# Shear Modulus (GPa) = 35.60213 15.41600 25.50907
#
# Velocity S-wave (km/s) = 4.02068 2.64574 3.40337
# Velocity P-wave (km/s) = 5.92042 6.04089 5.98095
#
# Compressibility (1/GPa) = 0.03364280
#
# Stress axis : x y z
#
# Youngs Moduli (GPa) = 33.02674 89.29638 160.20632
#
# Poissons Ratio (x) = 0.24816 0.08390
# Poissons Ratio (y) = 0.09178 0.59844
# Poissons Ratio (z) = 0.01730 0.33356
#
# Static dielectric constant tensor:
#      x y z
#    x 1.868100 0.000000 0.005430 
#    y 0.000000 1.815910 0.000000 
#    z 0.005430 0.000000 1.886660 
# 
# From -- ./inp_files/275868.got.cif
#   From: 2010.05.17/outbox.cif.g08.bks.cpg/sg12_138_cif.got.tgz:275868.got - 2010.06.03 13:09:07.
