data_PCOD9205576
_publ_section_title
;
Structure prediction by ZEFSAII (Michael W. Deem and Ramdas Pophale) SiO2 
 PCOD9205576
Probable space group: C 2/M
;
_chemical_formula_sum "Si O2"
_cell_formula_units_Z 64
_cell_length_a 30.996645
_cell_length_b 7.484609
_cell_length_c 25.491297
_cell_angle_alpha 90.000000
_cell_angle_beta 152.388835
_cell_angle_gamma 90.000000
_cell_volume 2740.918775
_symmetry_space_group_name_H-M "C 2/M"
_symmetry_group_IT_number 12
_symmetry_cell_setting 'monoclinic'
loop_
_space_group_symop_operation_xyz
x,y,z
-x,y,-z
-x,-y,-z
x,-y,z
1/2+x,1/2+y,z
1/2-x,1/2+y,-z
1/2-x,1/2-y,-z
1/2+x,1/2-y,z
loop_
_atom_site_type_symbol
_atom_site_label
_atom_site_fract_x
_atom_site_fract_y
_atom_site_fract_z
Si Si1 0.450566 0.791441 0.185163
Si Si2 0.648904 0.288734 0.414464
Si Si3 0.304132 0.280611 0.420572
Si Si4 0.395201 0.217282 0.825930
Si Si5 0.792471 0.717208 0.935561
Si Si6 0.452671 0.296513 0.500573
Si Si7 0.418161 0.207337 0.266018
Si Si8 0.898244 0.717583 0.950263
O O1 0.558958 0.780827 0.286633
O O2 0.441092 0.714327 0.233491
O O3 0.426996 0.000000 0.165090
O O4 0.375133 0.720505 0.063201
O O5 0.638035 0.500000 0.404349
O O6 0.750000 0.250000 0.500000
O O7 0.649621 0.220408 0.475307
O O8 0.306779 0.500000 0.423124
O O9 0.196598 0.224240 0.303282
O O10 0.361516 0.219948 0.431319
O O11 0.384731 0.271274 0.875624
O O12 0.395379 0.000000 0.824541
O O13 0.498235 0.274224 0.919918
O O14 0.790223 0.500000 0.933472
O O15 0.692150 0.781593 0.844884
O O16 0.820623 0.775265 0.907442
O O17 0.500000 0.213392 0.500000
O O18 0.426827 0.500000 0.457418
O O19 0.528537 0.299202 0.628784
O O20 0.447145 0.000000 0.299133
O O21 0.898460 0.500000 0.950262
#
# Coordination Sequence:
#
# PCOD9205576 Si02
#       8
#     8   8   8   8   8   8   8   8
#     4  10  22  40  59  82 113 150 192 240 289 342
#     4  11  23  38  59  86 118 155 194 238 288 345
#     4   9  18  32  53  82 113 146 183 234 289 335
#     4   8  14  26  46  76 111 138 169 218 282 333
#     4  10  21  35  58  85 108 142 193 242 285 336
#     4  10  21  37  60  88 115 147 194 246 288 337
#     4  11  23  39  57  80 116 154 186 232 294 356
#     4   8  15  27  47  79 111 136 168 226 282 323
#
# _framework density 23.349834999999999
#
# number of rings (size 3 to 8) (size 9 to 14) (size 15 to 20)
#    0.000    2.375    1.250    1.875    3.500    1.250 
#    0.000    0.000    0.000    0.000    0.000    1.750 
#    0.000    0.000    0.000    0.000    0.000    0.000 
#
# Total GULP energy -178776.417949 kJ/mol
# GULP energy per Si atom -5586.763061 kJ/mol
# Density = 2.329669 g / cm^3
# Si number density = 23.349835 Si / 1000 Ang^3
#
#
#
# Elastic Constant Matrix: (Units=GPa)
#
#
# Indices 1 2 3 4 5 6 
#
# 1 68.8646 -4.3757 -22.0725 0.0000 18.9989 0.0000
# 2 -4.3757 70.6308 -12.8170 0.0000 -5.5857 0.0000
# 3 -22.0725 -12.8170 68.5454 0.0000 22.6966 0.0000
# 4 0.0000 0.0000 0.0000 12.4519 0.0000 8.1683
# 5 18.9989 -5.5857 22.6966 0.0000 33.7481 0.0000
# 6 0.0000 0.0000 0.0000 8.1683 0.0000 -3.6611
#
#
#
# Elastic Compliance Matrix: (Units=1/GPa)
#
#
# Indices 1 2 3 4 5 6 
#
# 1 0.028882 0.003033 0.019407 0.000000 -0.028809 0.000000
# 2 0.003033 0.014989 0.004532 0.000000 -0.002275 0.000000
# 3 0.019407 0.004532 0.032232 0.000000 -0.031852 0.000000
# 4 0.000000 0.000000 0.000000 0.032598 0.000000 0.072731
# 5 -0.028809 -0.002275 -0.031852 0.000000 0.066895 0.000000
# 6 0.000000 0.000000 0.000000 0.072731 0.000000 -0.110872
#
#
# Mechanical properties :
#
#
# Convention : Reuss Voigt Hill
#
# Bulk Modulus (GPa) = 7.68953 14.39006 11.03979
# Shear Modulus (GPa) = 92.36958 24.99485 58.68222
#
# Velocity S-wave (km/s) = 6.29642 3.27532 5.01860
# Velocity P-wave (km/s) = 7.49401 4.52547 6.19032
#
# Compressibility (1/GPa) = 0.13004694
#
# Stress axis : x y z
#
# Youngs Moduli (GPa) = 34.62325 66.71743 31.02463
#
# Poissons Ratio (x) = -0.20233 -0.60209
# Poissons Ratio (y) = -0.10500 -0.14061
# Poissons Ratio (z) = -0.67193 -0.30239
#
# Static dielectric constant tensor:
#      x y z
#    x 1.870440 0.000000 0.001820 
#    y 0.000000 1.922730 0.000000 
#    z 0.001820 0.000000 1.856470 
# 
# From -- ./inp_files/353483.got.cif
#   From: 2010.05.17/outbox.cif.g08.bks.cpg/sg12_177_cif.got.tgz:353483.got - 2010.06.03 13:09:07.
