data_PCOD9205423
_publ_section_title
;
Structure prediction by ZEFSAII (Michael W. Deem and Ramdas Pophale) SiO2 
 PCOD9205423
Probable space group: C 2/M
;
_chemical_formula_sum "Si O2"
_cell_formula_units_Z 56
_cell_length_a 13.501504
_cell_length_b 14.950995
_cell_length_c 12.051413
_cell_angle_alpha 90.000000
_cell_angle_beta 91.558150
_cell_angle_gamma 90.000000
_cell_volume 2431.809789
_symmetry_space_group_name_H-M "C 2/M"
_symmetry_group_IT_number 12
_symmetry_cell_setting 'monoclinic'
loop_
_space_group_symop_operation_xyz
x,y,z
-x,y,-z
-x,-y,-z
x,-y,z
1/2+x,1/2+y,z
1/2-x,1/2+y,-z
1/2-x,1/2-y,-z
1/2+x,1/2-y,z
loop_
_atom_site_type_symbol
_atom_site_label
_atom_site_fract_x
_atom_site_fract_y
_atom_site_fract_z
Si Si1 0.968630 0.853272 0.623751
Si Si2 0.965307 0.335509 0.730965
Si Si3 0.755141 0.899158 0.669509
Si Si4 0.173275 0.710914 0.847123
Si Si5 0.674020 0.397154 0.735259
Si Si6 0.386060 0.101106 0.955014
Si Si7 0.831562 0.395996 0.552483
O O1 0.947157 0.765174 0.693846
O O2 0.864877 0.903923 0.621466
O O3 0.000000 0.830081 0.500000
O O4 0.063134 0.899218 0.682311
O O5 0.895386 0.373196 0.826451
O O6 0.936202 0.387038 0.617825
O O7 0.075394 0.332436 0.783965
O O8 0.756968 0.838148 0.778470
O O9 0.686664 0.856139 0.569796
O O10 0.722017 0.000000 0.698654
O O11 0.173549 0.817335 0.826153
O O12 0.168127 0.674986 0.971978
O O13 0.699000 0.500000 0.769076
O O14 0.748393 0.366361 0.638888
O O15 0.347819 0.000000 0.969885
O O16 0.500000 0.100590 0.000000
O O17 0.811477 0.500000 0.533835
#
# Coordination Sequence:
#
# PCOD9205423 Si02
#       7
#     8   8   8   8   8   8   8
#     4  11  22  37  61  84 118 165 210 248 293 352
#     4  10  22  36  60  91 119 158 200 244 303 359
#     4  11  23  37  58  90 125 159 201 249 297 357
#     4  10  22  38  62  92 120 154 202 251 300 356
#     4  10  21  38  59  86 118 161 207 248 295 353
#     4   9  18  38  64  86 120 162 202 242 295 366
#     4  10  21  35  55  84 122 160 194 239 301 362
#
# _framework density 23.028115
#
# number of rings (size 3 to 8) (size 9 to 14) (size 15 to 20)
#    0.000    1.857    1.429    2.143    4.000    3.429 
#    0.000    4.286    0.000   13.286    0.000    0.000 
#    0.000    0.000    0.000    0.000    0.000    0.000 
#
# Total GULP energy -156378.113809 kJ/mol
# GULP energy per Si atom -5584.932636 kJ/mol
# Density = 2.297570 g / cm^3
# Si number density = 23.028115 Si / 1000 Ang^3
#
#
#
# Elastic Constant Matrix: (Units=GPa)
#
#
# Indices 1 2 3 4 5 6 
#
# 1 59.8016 2.0092 11.0507 0.0000 3.0898 0.0000
# 2 2.0092 119.4260 34.5065 0.0000 -15.7808 0.0000
# 3 11.0507 34.5065 98.2274 0.0000 -6.2500 0.0000
# 4 0.0000 0.0000 0.0000 18.2210 0.0000 -9.8075
# 5 3.0898 -15.7808 -6.2500 0.0000 36.3352 0.0000
# 6 0.0000 0.0000 0.0000 -9.8075 0.0000 -6.0718
#
#
#
# Elastic Compliance Matrix: (Units=1/GPa)
#
#
# Indices 1 2 3 4 5 6 
#
# 1 0.017195 0.000074 -0.002074 0.000000 -0.001787 0.000000
# 2 0.000074 0.009788 -0.003212 0.000000 0.003692 0.000000
# 3 -0.002074 -0.003212 0.011591 0.000000 0.000775 0.000000
# 4 0.000000 0.000000 0.000000 0.029358 0.000000 -0.047420
# 5 -0.001787 0.003692 0.000775 0.000000 0.029410 0.000000
# 6 0.000000 0.000000 0.000000 -0.047420 0.000000 -0.088100
#
#
# Mechanical properties :
#
#
# Convention : Reuss Voigt Hill
#
# Bulk Modulus (GPa) = 35.52348 41.39865 38.46107
# Shear Modulus (GPa) = 172.11251 25.02276 98.56764
#
# Velocity S-wave (km/s) = 8.65462 3.29997 6.54951
# Velocity P-wave (km/s) = 10.73916 5.70405 8.59842
#
# Compressibility (1/GPa) = 0.02815040
#
# Stress axis : x y z
#
# Youngs Moduli (GPa) = 58.15620 102.16529 86.27066
#
# Poissons Ratio (x) = -0.00755 0.17894
# Poissons Ratio (y) = -0.00430 0.27709
# Poissons Ratio (z) = 0.12062 0.32814
#
# Static dielectric constant tensor:
#      x y z
#    x 1.936950 0.000000 0.032560 
#    y 0.000000 1.845490 0.000000 
#    z 0.032560 0.000000 1.853820 
# 
# From -- ./inp_files/143757.got.cif
#   From: 2010.05.17/outbox.cif.g08.bks.cpg/sg12_72_cif.got.tgz:143757.got - 2010.06.03 13:09:07.
