data_PCOD9205023
_publ_section_title
;
Structure prediction by ZEFSAII (Michael W. Deem and Ramdas Pophale) SiO2 
 PCOD9205023
Probable space group: C 2/M
;
_chemical_formula_sum "Si O2"
_cell_formula_units_Z 44
_cell_length_a 22.799889
_cell_length_b 9.893657
_cell_length_c 11.510658
_cell_angle_alpha 90.000000
_cell_angle_beta 79.725341
_cell_angle_gamma 90.000000
_cell_volume 2554.870858
_symmetry_space_group_name_H-M "C 2/M"
_symmetry_group_IT_number 12
_symmetry_cell_setting 'monoclinic'
loop_
_space_group_symop_operation_xyz
x,y,z
-x,y,-z
-x,-y,-z
x,-y,z
1/2+x,1/2+y,z
1/2-x,1/2+y,-z
1/2-x,1/2-y,-z
1/2+x,1/2-y,z
loop_
_atom_site_type_symbol
_atom_site_label
_atom_site_fract_x
_atom_site_fract_y
_atom_site_fract_z
Si Si1 0.729378 0.500000 0.576364
Si Si2 0.918747 0.000000 0.913992
Si Si3 0.338538 0.000000 0.701852
Si Si4 0.640245 0.281478 0.682151
Si Si5 0.662826 0.746900 0.133074
Si Si6 0.206095 0.346969 0.868551
Si Si7 0.941170 0.000000 0.180161
Si Si8 0.355422 0.000000 0.436125
O O1 0.768778 0.500000 0.682520
O O2 0.686041 0.370706 0.588864
O O3 0.782164 0.500000 0.463298
O O4 0.886289 0.133265 0.875408
O O5 0.987972 0.000000 0.855301
O O6 0.916001 0.000000 0.056327
O O7 0.351687 0.866274 0.771593
O O8 0.371713 0.000000 0.566610
O O9 0.676126 0.250250 0.786882
O O10 0.584580 0.371783 0.740827
O O11 0.624727 0.139192 0.629210
O O12 0.723222 0.674564 0.154323
O O13 0.680609 0.816011 0.004798
O O14 0.191700 0.500000 0.841359
#
# Coordination Sequence:
#
# PCOD9205023 Si02
#       8
#     4   4   4   8   8   8   4   4
#     4   9  20  31  51  85 118 151 179 227 281 343
#     4  11  22  41  59  82 115 156 190 223 291 343
#     4  10  21  35  50  85 115 146 186 228 279 336
#     4  11  19  35  57  85 121 149 189 232 285 334
#     4  11  21  33  55  82 122 150 180 232 281 355
#     4  11  19  28  53  90 117 147 178 227 299 341
#     4  10  24  39  59  85 112 151 194 236 276 345
#     4  10  21  34  57  82 117 156 189 233 284 338
#
# _framework density 17.222004999999999
#
# number of rings (size 3 to 8) (size 9 to 14) (size 15 to 20)
#    0.545    0.909    6.364    0.545    0.000    0.000 
#    0.000    2.727    0.000    6.545    0.000    0.000 
#    0.000    0.000    0.000    0.000    0.000    0.000 
#
# Total GULP energy -122660.258370 kJ/mol
# GULP energy per Si atom -5575.466290 kJ/mol
# Density = 1.718281 g / cm^3
# Si number density = 17.222005 Si / 1000 Ang^3
#
#
#
# Elastic Constant Matrix: (Units=GPa)
#
#
# Indices 1 2 3 4 5 6 
#
# 1 70.2523 48.9585 30.7186 0.0000 -6.5440 0.0000
# 2 48.9585 144.3932 52.5180 0.0000 -9.7354 0.0000
# 3 30.7186 52.5180 82.2875 0.0000 -4.8354 0.0000
# 4 0.0000 0.0000 0.0000 18.1923 0.0000 2.0369
# 5 -6.5440 -9.7354 -4.8354 0.0000 21.6395 0.0000
# 6 0.0000 0.0000 0.0000 2.0369 0.0000 16.0745
#
#
#
# Elastic Compliance Matrix: (Units=1/GPa)
#
#
# Indices 1 2 3 4 5 6 
#
# 1 0.019767 -0.005065 -0.003982 0.000000 0.002809 0.000000
# 2 -0.005065 0.010488 -0.004677 0.000000 0.002142 0.000000
# 3 -0.003982 -0.004677 0.016648 0.000000 0.000412 0.000000
# 4 0.000000 0.000000 0.000000 0.055759 0.000000 -0.007066
# 5 0.002809 0.002142 0.000412 0.000000 0.048117 0.000000
# 6 0.000000 0.000000 0.000000 -0.007066 0.000000 0.063106
#
#
# Mechanical properties :
#
#
# Convention : Reuss Voigt Hill
#
# Bulk Modulus (GPa) = 51.39784 62.36926 56.88355
# Shear Modulus (GPa) = 20.17609 22.16378 21.16994
#
# Velocity S-wave (km/s) = 3.42648 3.59129 3.50985
# Velocity P-wave (km/s) = 6.75007 7.31369 7.03752
#
# Compressibility (1/GPa) = 0.01945607
#
# Stress axis : x y z
#
# Youngs Moduli (GPa) = 50.59044 95.34326 60.06598
#
# Poissons Ratio (x) = 0.48287 0.23916
# Poissons Ratio (y) = 0.25622 0.28096
# Poissons Ratio (z) = 0.20143 0.44597
#
# Static dielectric constant tensor:
#      x y z
#    x 1.552720 0.000000 0.007580 
#    y 0.000000 1.582110 0.000000 
#    z 0.007580 0.000000 1.587230 
# 
# From -- ./inp_files/172008.got.cif
#   From: 2010.05.17/outbox.cif.g08.bks.cpg/sg12_87_cif.got.tgz:172008.got - 2010.06.03 13:09:07.
