data_PCOD9205438
_publ_section_title
;
Structure prediction by ZEFSAII (Michael W. Deem and Ramdas Pophale) SiO2 
 PCOD9205438
Probable space group: C 2/M
;
_chemical_formula_sum "Si O2"
_cell_formula_units_Z 48
_cell_length_a 27.277807
_cell_length_b 13.462716
_cell_length_c 12.863422
_cell_angle_alpha 90.000000
_cell_angle_beta 148.610758
_cell_angle_gamma 90.000000
_cell_volume 2460.428716
_symmetry_space_group_name_H-M "C 2/M"
_symmetry_group_IT_number 12
_symmetry_cell_setting 'monoclinic'
loop_
_space_group_symop_operation_xyz
x,y,z
-x,y,-z
-x,-y,-z
x,-y,z
1/2+x,1/2+y,z
1/2-x,1/2+y,-z
1/2-x,1/2-y,-z
1/2+x,1/2-y,z
loop_
_atom_site_type_symbol
_atom_site_label
_atom_site_fract_x
_atom_site_fract_y
_atom_site_fract_z
Si Si1 0.150631 0.110495 0.000065
Si Si2 0.592195 0.306449 0.100456
Si Si3 0.553006 0.380005 0.428361
Si Si4 0.834486 0.113517 0.573790
Si Si5 0.730645 0.282724 0.847592
Si Si6 0.851291 0.389161 0.903842
O O1 0.057964 0.144740 0.766952
O O2 0.174389 0.000000 0.008766
O O3 0.114421 0.114245 0.052287
O O4 0.239713 0.182546 0.158951
O O5 0.667955 0.318363 0.329485
O O6 0.587596 0.201214 0.031395
O O7 0.500000 0.325961 0.000000
O O8 0.561731 0.500000 0.458128
O O9 0.590470 0.356509 0.379645
O O10 0.626573 0.324120 0.636349
O O11 0.737282 0.110672 0.334884
O O12 0.856563 0.000000 0.645878
O O13 0.804967 0.360866 0.931509
O O14 0.750000 0.250000 0.000000
O O15 0.892854 0.500000 0.981100
#
# Coordination Sequence:
#
# PCOD9205438 Si02
#       6
#     8   8   8   8   8   8
#     4  10  21  35  55  86 116 143 183 230 274 326
#     4  11  19  29  52  81 112 142 177 217 262 314
#     4   9  18  35  58  83 112 146 184 226 273 330
#     4   9  16  29  51  76 107 143 175 213 265 317
#     4  10  21  36  56  80 105 138 183 236 285 324
#     4   9  20  36  51  73 105 143 182 219 264 326
#
# _framework density 19.508794999999999
#
# number of rings (size 3 to 8) (size 9 to 14) (size 15 to 20)
#    0.000    2.333    1.667    2.500    0.000    3.000 
#    0.000    1.667    0.000    5.000    0.000   11.667 
#    0.000    0.000    0.000    0.000    0.000    0.000 
#
# Total GULP energy -133630.948308 kJ/mol
# GULP energy per Si atom -5567.956180 kJ/mol
# Density = 1.946439 g / cm^3
# Si number density = 19.508795 Si / 1000 Ang^3
#
#
#
# Elastic Constant Matrix: (Units=GPa)
#
#
# Indices 1 2 3 4 5 6 
#
# 1 47.0088 8.9822 19.1329 0.0000 -20.6706 0.0000
# 2 8.9822 88.2189 21.6503 0.0000 -3.3220 0.0000
# 3 19.1329 21.6503 78.7569 0.0000 -14.0732 0.0000
# 4 0.0000 0.0000 0.0000 26.8592 0.0000 1.8953
# 5 -20.6706 -3.3220 -14.0732 0.0000 29.0784 0.0000
# 6 0.0000 0.0000 0.0000 1.8953 0.0000 6.5624
#
#
#
# Elastic Compliance Matrix: (Units=1/GPa)
#
#
# Indices 1 2 3 4 5 6 
#
# 1 0.032305 -0.001601 -0.003653 0.000000 0.021014 0.000000
# 2 -0.001601 0.012237 -0.003206 0.000000 -0.001292 0.000000
# 3 -0.003653 -0.003206 0.015256 0.000000 0.004421 0.000000
# 4 0.000000 0.000000 0.000000 0.038006 0.000000 -0.010977
# 5 0.021014 -0.001292 0.004421 0.000000 0.051319 0.000000
# 6 0.000000 0.000000 0.000000 -0.010977 0.000000 0.155552
#
#
# Mechanical properties :
#
#
# Convention : Reuss Voigt Hill
#
# Bulk Modulus (GPa) = 23.32208 34.83504 29.07856
# Shear Modulus (GPa) = 14.88591 23.44796 19.16694
#
# Velocity S-wave (km/s) = 2.76531 3.47063 3.13785
# Velocity P-wave (km/s) = 4.70919 5.82711 5.29772
#
# Compressibility (1/GPa) = 0.04287782
#
# Stress axis : x y z
#
# Youngs Moduli (GPa) = 30.95453 81.72232 65.54857
#
# Poissons Ratio (x) = 0.13087 0.23945
# Poissons Ratio (y) = 0.04957 0.21012
# Poissons Ratio (z) = 0.11308 0.26197
#
# Static dielectric constant tensor:
#      x y z
#    x 1.732480 0.000000 -0.004240 
#    y 0.000000 1.717120 0.000000 
#    z -0.004240 0.000000 1.762960 
# 
# From -- ./inp_files/142848.got.cif
#   From: 2010.05.17/outbox.cif.g08.bks.cpg/sg12_72_cif.got.tgz:142848.got - 2010.06.03 13:09:07.
