data_PCOD9205244
_publ_section_title
;
Structure prediction by ZEFSAII (Michael W. Deem and Ramdas Pophale) SiO2 
 PCOD9205244
Probable space group: C 2/M
;
_chemical_formula_sum "Si O2"
_cell_formula_units_Z 42
_cell_length_a 13.494657
_cell_length_b 13.357866
_cell_length_c 13.674847
_cell_angle_alpha 90.000000
_cell_angle_beta 43.746029
_cell_angle_gamma 90.000000
_cell_volume 1704.473871
_symmetry_space_group_name_H-M "C 2/M"
_symmetry_group_IT_number 12
_symmetry_cell_setting 'monoclinic'
loop_
_space_group_symop_operation_xyz
x,y,z
-x,y,-z
-x,-y,-z
x,-y,z
1/2+x,1/2+y,z
1/2-x,1/2+y,-z
1/2-x,1/2-y,-z
1/2+x,1/2-y,z
loop_
_atom_site_type_symbol
_atom_site_label
_atom_site_fract_x
_atom_site_fract_y
_atom_site_fract_z
Si Si1 0.557540 0.111065 0.320237
Si Si2 0.500000 0.000000 0.000000
Si Si3 0.716008 0.615401 0.536235
Si Si4 0.672488 0.614851 0.011065
Si Si5 0.329333 0.179929 0.074231
Si Si6 0.781009 0.757007 0.649056
O O1 0.391601 0.121128 0.408746
O O2 0.668488 0.115853 0.151660
O O3 0.614221 0.189788 0.359027
O O4 0.575834 0.000000 0.350105
O O5 0.430328 0.087512 0.981936
O O6 0.673649 0.500000 0.572213
O O7 0.682895 0.678763 0.657420
O O8 0.661643 0.669774 0.477028
O O9 0.617532 0.500000 0.040880
O O10 0.609885 0.711797 0.999864
O O11 0.689148 0.651868 0.110365
O O12 0.293878 0.178668 0.214030
#
# Coordination Sequence:
#
# PCOD9205244 Si02
#       6
#     8   2   8   8   8   8
#     4   9  18  34  62  88 115 152 198 239 282 346
#     4  12  24  36  62  96 110 144 204 254 290 368
#     4  10  21  35  59  86 115 155 203 241 281 342
#     4   9  18  37  58  88 122 158 191 237 300 358
#     4  10  22  34  57  90 121 152 193 246 299 346
#     4  10  21  35  52  88 121 151 192 244 296 334
#
# _framework density 24.641034999999999
#
# number of rings (size 3 to 8) (size 9 to 14) (size 15 to 20)
#    0.000    2.286    0.952    1.143    4.000    2.286 
#    0.000    0.476    0.000   10.286    0.000    0.000 
#    0.000    0.000    0.000    0.000    0.000    0.000 
#
# Total GULP energy -116959.269941 kJ/mol
# GULP energy per Si atom -5569.489045 kJ/mol
# Density = 2.458495 g / cm^3
# Si number density = 24.641035 Si / 1000 Ang^3
#
#
#
# Elastic Constant Matrix: (Units=GPa)
#
#
# Indices 1 2 3 4 5 6 
#
# 1 70.9772 14.8469 25.0161 0.0000 27.7630 0.0000
# 2 14.8469 185.1910 25.6634 0.0000 16.7732 0.0000
# 3 25.0161 25.6634 99.4377 0.0000 34.3984 0.0000
# 4 0.0000 0.0000 0.0000 7.0166 0.0000 11.8135
# 5 27.7630 16.7732 34.3984 0.0000 44.6338 0.0000
# 6 0.0000 0.0000 0.0000 11.8135 0.0000 53.8762
#
#
#
# Elastic Compliance Matrix: (Units=1/GPa)
#
#
# Indices 1 2 3 4 5 6 
#
# 1 0.018710 -0.000400 -0.000859 0.000000 -0.010826 0.000000
# 2 -0.000400 0.005669 -0.000970 0.000000 -0.001134 0.000000
# 3 -0.000859 -0.000970 0.013924 0.000000 -0.009832 0.000000
# 4 0.000000 0.000000 0.000000 0.225924 0.000000 -0.049539
# 5 -0.010826 -0.001134 -0.009832 0.000000 0.037142 0.000000
# 6 0.000000 0.000000 0.000000 -0.049539 0.000000 0.029423
#
#
# Mechanical properties :
#
#
# Convention : Reuss Voigt Hill
#
# Bulk Modulus (GPa) = 29.54692 54.07318 41.81005
# Shear Modulus (GPa) = 14.42865 40.44396 27.43630
#
# Velocity S-wave (km/s) = 2.42245 4.05572 3.34044
# Velocity P-wave (km/s) = 4.45436 6.62751 5.64647
#
# Compressibility (1/GPa) = 0.03384447
#
# Stress axis : x y z
#
# Youngs Moduli (GPa) = 53.44752 176.39613 71.81687
#
# Poissons Ratio (x) = 0.07064 0.06167
# Poissons Ratio (y) = 0.02141 0.06968
# Poissons Ratio (z) = 0.04590 0.17114
#
# Static dielectric constant tensor:
#      x y z
#    x 2.017080 0.000000 -0.033790 
#    y 0.000000 1.955200 0.000000 
#    z -0.033790 0.000000 2.033890 
# 
# From -- ./inp_files/212456.got.cif
#   From: 2010.05.17/outbox.cif.g08.bks.cpg/sg12_107_cif.got.tgz:212456.got - 2010.06.03 13:09:07.
