data_PCOD9205606
_publ_section_title
;
Structure prediction by ZEFSAII (Michael W. Deem and Ramdas Pophale) SiO2 
 PCOD9205606
Probable space group: C 2/M
;
_chemical_formula_sum "Si O2"
_cell_formula_units_Z 56
_cell_length_a 16.127028
_cell_length_b 27.140697
_cell_length_c 12.950116
_cell_angle_alpha 90.000000
_cell_angle_beta 29.893506
_cell_angle_gamma 90.000000
_cell_volume 2824.996166
_symmetry_space_group_name_H-M "C 2/M"
_symmetry_group_IT_number 12
_symmetry_cell_setting 'monoclinic'
loop_
_space_group_symop_operation_xyz
x,y,z
-x,y,-z
-x,-y,-z
x,-y,z
1/2+x,1/2+y,z
1/2-x,1/2+y,-z
1/2-x,1/2-y,-z
1/2+x,1/2-y,z
loop_
_atom_site_type_symbol
_atom_site_label
_atom_site_fract_x
_atom_site_fract_y
_atom_site_fract_z
Si Si1 0.452436 0.942306 0.793161
Si Si2 0.195333 0.806663 0.577623
Si Si3 0.537237 0.148785 0.838891
Si Si4 0.184829 0.944648 0.694708
Si Si5 0.194674 0.687210 0.309029
Si Si6 0.374172 0.252011 0.960565
Si Si7 0.831460 0.089082 0.058320
O O1 0.465121 0.901259 0.868206
O O2 0.626534 0.934189 0.543397
O O3 0.291355 0.931322 0.896321
O O4 0.448816 0.000000 0.828806
O O5 0.250000 0.750000 0.500000
O O6 0.272782 0.841546 0.405904
O O7 0.266221 0.821078 0.613402
O O8 0.000393 0.796570 0.798397
O O9 0.500000 0.148522 0.000000
O O10 0.451700 0.197909 0.885765
O O11 0.183758 0.942367 0.819895
O O12 0.145524 0.000000 0.701889
O O13 0.029974 0.911725 0.821662
O O14 0.289116 0.734520 0.161429
O O15 0.262336 0.641543 0.170120
O O16 0.000000 0.692513 0.500000
O O17 0.250000 0.250000 0.000000
#
# Coordination Sequence:
#
# PCOD9205606 Si02
#       7
#     8   8   8   8   8   8   8
#     4  11  23  41  65  90 126 171 219 274 330 390
#     4  10  21  39  60  86 123 169 208 261 311 375
#     4  11  24  44  63  89 123 167 224 276 328 375
#     4  10  21  35  58  92 130 170 208 258 325 398
#     4  12  23  36  61  96 131 170 212 256 320 394
#     4  11  23  39  63  95 130 169 209 254 320 395
#     4  11  21  35  59  96 134 166 208 259 324 397
#
# _framework density 19.823035000000001
#
# number of rings (size 3 to 8) (size 9 to 14) (size 15 to 20)
#    0.000    1.143    0.000    9.429    6.000    1.429 
#    0.000    0.000    0.000    0.000    0.000    3.000 
#    0.000    0.000    0.000    0.000    0.000    0.000 
#
# Total GULP energy -156327.578859 kJ/mol
# GULP energy per Si atom -5583.127816 kJ/mol
# Density = 1.977792 g / cm^3
# Si number density = 19.823035 Si / 1000 Ang^3
#
#
#
# Elastic Constant Matrix: (Units=GPa)
#
#
# Indices 1 2 3 4 5 6 
#
# 1 108.5118 39.5229 67.8101 0.0008 -6.3474 -0.0001
# 2 39.5229 113.0332 27.2626 0.0003 -1.1565 0.0000
# 3 67.8101 27.2626 108.8911 0.0025 -8.9238 -0.0011
# 4 0.0008 0.0003 0.0025 24.8952 -0.0009 4.6591
# 5 -6.3474 -1.1565 -8.9238 -0.0009 35.4181 0.0002
# 6 -0.0001 0.0000 -0.0011 4.6591 0.0002 27.3122
#
#
#
# Elastic Compliance Matrix: (Units=1/GPa)
#
#
# Indices 1 2 3 4 5 6 
#
# 1 0.016269 -0.003458 -0.009226 0.000001 0.000478 0.000000
# 2 -0.003458 0.010154 -0.000421 0.000000 -0.000394 0.000000
# 3 -0.009226 -0.000421 0.015212 -0.000001 0.002166 0.000001
# 4 0.000001 0.000000 -0.000001 0.041493 0.000001 -0.007078
# 5 0.000478 -0.000394 0.002166 0.000001 0.028853 0.000000
# 6 0.000000 0.000000 0.000001 -0.007078 0.000000 0.037821
#
#
# Mechanical properties :
#
#
# Convention : Reuss Voigt Hill
#
# Bulk Modulus (GPa) = 64.83552 66.62526 65.73039
# Shear Modulus (GPa) = 27.60113 30.58112 29.09113
#
# Velocity S-wave (km/s) = 3.73550 3.93199 3.83501
# Velocity P-wave (km/s) = 7.16823 7.36865 7.26913
#
# Compressibility (1/GPa) = 0.01542365
#
# Stress axis : x y z
#
# Youngs Moduli (GPa) = 61.46829 98.48670 65.73919
#
# Poissons Ratio (x) = 0.34060 0.60651
# Poissons Ratio (y) = 0.21258 0.02766
# Poissons Ratio (z) = 0.56710 0.04145
#
# Static dielectric constant tensor:
#      x y z
#    x 1.635840 0.000000 0.017370 
#    y 0.000000 1.746210 0.000010 
#    z 0.017370 0.000010 1.718450 
# 
# From -- ./inp_files/150407.got.cif
#   From: 2010.05.17/outbox.cif.g08.bks.cpg/sg12_76_cif.got.tgz:150407.got - 2010.06.03 13:09:07.
