data_PCOD9205778
_publ_section_title
;
Structure prediction by ZEFSAII (Michael W. Deem and Ramdas Pophale) SiO2 
 PCOD9205778
Probable space group: C 2/M
;
_chemical_formula_sum "Si O2"
_cell_formula_units_Z 60
_cell_length_a 8.705170
_cell_length_b 24.985982
_cell_length_c 17.716546
_cell_angle_alpha 90.000000
_cell_angle_beta 58.986702
_cell_angle_gamma 90.000000
_cell_volume 3302.613486
_symmetry_space_group_name_H-M "C 2/M"
_symmetry_group_IT_number 12
_symmetry_cell_setting 'monoclinic'
loop_
_space_group_symop_operation_xyz
x,y,z
-x,y,-z
-x,-y,-z
x,-y,z
1/2+x,1/2+y,z
1/2-x,1/2+y,-z
1/2-x,1/2-y,-z
1/2+x,1/2-y,z
loop_
_atom_site_type_symbol
_atom_site_label
_atom_site_fract_x
_atom_site_fract_y
_atom_site_fract_z
Si Si1 0.905398 0.356459 0.245108
Si Si2 0.473247 0.698684 0.888651
Si Si3 0.301782 0.184280 0.920006
Si Si4 0.776654 0.438710 0.392726
Si Si5 0.111862 0.272275 0.625462
Si Si6 0.000000 0.742638 0.500000
Si Si7 0.497373 0.341950 0.713124
Si Si8 0.115849 0.937695 0.588170
O O1 0.898590 0.402838 0.308861
O O2 0.939342 0.303827 0.287334
O O3 0.711279 0.350338 0.255872
O O4 0.060322 0.359855 0.144324
O O5 0.415844 0.761010 0.899242
O O6 0.649120 0.693793 0.895676
O O7 0.507532 0.673102 0.798536
O O8 0.305609 0.672655 0.976008
O O9 0.835677 0.500000 0.378968
O O10 0.749591 0.421373 0.486373
O O11 0.580317 0.437152 0.402548
O O12 0.322366 0.277843 0.555071
O O13 0.014395 0.289856 0.573746
O O14 0.067543 0.209959 0.649780
O O15 0.603278 0.394484 0.657959
O O16 0.150389 0.000000 0.600850
#
# Coordination Sequence:
#
# PCOD9205778 Si02
#       8
#     8   8   8   8   8   4   8   8
#     4  11  21  32  53  79 106 134 173 214 258 312
#     4  10  21  36  53  75 104 137 172 212 259 314
#     4  10  21  36  53  75 104 137 172 212 259 314
#     4   8  16  31  51  75 103 137 175 215 255 295
#     4  11  22  34  45  74 102 144 169 208 247 312
#     4  10  24  34  44  62 112 144 174 198 252 304
#     4  11  21  32  53  79 106 134 173 214 258 312
#     4   8  16  31  51  75 103 137 175 215 255 295
#
# _framework density 18.16743
#
# number of rings (size 3 to 8) (size 9 to 14) (size 15 to 20)
#    0.000    2.133    2.667    1.600    5.600    1.600 
#    0.000    0.000    0.000    1.600    0.000    8.400 
#    0.000    0.000    0.000    0.000    0.000    0.000 
#
# Total GULP energy -167325.807712 kJ/mol
# GULP energy per Si atom -5577.526924 kJ/mol
# Density = 1.812608 g / cm^3
# Si number density = 18.167430 Si / 1000 Ang^3
#
#
#
# Elastic Constant Matrix: (Units=GPa)
#
#
# Indices 1 2 3 4 5 6 
#
# 1 31.9737 1.8090 12.6387 0.0000 3.0067 0.0000
# 2 1.8090 63.9551 39.3131 0.0000 -4.4202 0.0000
# 3 12.6387 39.3131 117.5758 0.0000 -3.5658 0.0000
# 4 0.0000 0.0000 0.0000 16.1567 0.0000 6.4814
# 5 3.0067 -4.4202 -3.5658 0.0000 31.4198 0.0000
# 6 0.0000 0.0000 0.0000 6.4814 0.0000 9.2659
#
#
#
# Elastic Compliance Matrix: (Units=1/GPa)
#
#
# Indices 1 2 3 4 5 6 
#
# 1 0.033153 0.001358 -0.004122 0.000000 -0.003449 0.000000
# 2 0.001358 0.019866 -0.006731 0.000000 0.001901 0.000000
# 3 -0.004122 -0.006731 0.011221 0.000000 0.000721 0.000000
# 4 0.000000 0.000000 0.000000 0.086036 0.000000 -0.060181
# 5 -0.003449 0.001901 0.000721 0.000000 0.032506 0.000000
# 6 0.000000 0.000000 0.000000 -0.060181 0.000000 0.150018
#
#
# Mechanical properties :
#
#
# Convention : Reuss Voigt Hill
#
# Bulk Modulus (GPa) = 22.09987 35.66956 28.88472
# Shear Modulus (GPa) = 13.62862 22.01807 17.82335
#
# Velocity S-wave (km/s) = 2.74189 3.48509 3.13559
# Velocity P-wave (km/s) = 4.71327 5.98923 5.38915
#
# Compressibility (1/GPa) = 0.04524913
#
# Stress axis : x y z
#
# Youngs Moduli (GPa) = 30.16338 50.33618 89.12079
#
# Poissons Ratio (x) = -0.06835 0.36739
# Poissons Ratio (y) = -0.04096 0.59987
# Poissons Ratio (z) = 0.12434 0.33881
#
# Static dielectric constant tensor:
#      x y z
#    x 1.658010 0.000000 0.004590 
#    y 0.000000 1.627120 0.000000 
#    z 0.004590 0.000000 1.645190 
# 
# From -- ./inp_files/259185.got.cif
#   From: 2010.05.17/outbox.cif.g08.bks.cpg/sg12_130_cif.got.tgz:259185.got - 2010.06.03 13:09:07.
