data_PCOD9205664
_publ_section_title
;
Structure prediction by ZEFSAII (Michael W. Deem and Ramdas Pophale) SiO2 
 PCOD9205664
Probable space group: C 2/M
;
_chemical_formula_sum "Si O2"
_cell_formula_units_Z 64
_cell_length_a 14.669775
_cell_length_b 25.033629
_cell_length_c 13.098761
_cell_angle_alpha 90.000000
_cell_angle_beta 43.957508
_cell_angle_gamma 90.000000
_cell_volume 3338.988941
_symmetry_space_group_name_H-M "C 2/M"
_symmetry_group_IT_number 12
_symmetry_cell_setting 'monoclinic'
loop_
_space_group_symop_operation_xyz
x,y,z
-x,y,-z
-x,-y,-z
x,-y,z
1/2+x,1/2+y,z
1/2-x,1/2+y,-z
1/2-x,1/2-y,-z
1/2+x,1/2-y,z
loop_
_atom_site_type_symbol
_atom_site_label
_atom_site_fract_x
_atom_site_fract_y
_atom_site_fract_z
Si Si1 0.035313 0.350695 0.354748
Si Si2 0.067430 0.834830 0.701613
Si Si3 0.512916 0.438966 0.111973
Si Si4 0.614568 0.240203 0.823541
Si Si5 0.044451 0.437744 0.855635
Si Si6 0.819802 0.355641 0.369617
Si Si7 0.679886 0.059765 0.134617
Si Si8 0.592765 0.729524 0.324393
O O1 0.149438 0.391768 0.234860
O O2 0.064356 0.289205 0.306478
O O3 0.000000 0.352754 0.500000
O O4 0.907814 0.368584 0.396125
O O5 0.106669 0.792916 0.758929
O O6 0.181393 0.837624 0.524519
O O7 0.049915 0.892126 0.769781
O O8 0.943935 0.811919 0.735992
O O9 0.463244 0.500000 0.169371
O O10 0.500000 0.428661 0.000000
O O11 0.667404 0.438504 0.015136
O O12 0.607284 0.190684 0.751884
O O13 0.756305 0.231580 0.762103
O O14 0.500000 0.241312 0.000000
O O15 0.075067 0.500000 0.842503
O O16 0.169568 0.406863 0.710870
O O17 0.919983 0.433152 0.879564
O O18 0.000000 0.415253 0.000000
O O19 0.653750 0.000000 0.198518
O O20 0.500000 0.721122 0.500000
#
# Coordination Sequence:
#
# PCOD9205664 Si02
#       8
#     8   8   8   8   8   8   8   8
#     4  10  21  35  61  88 120 164 206 254 316 378
#     4  12  24  42  67  91 128 172 215 261 320 384
#     4  10  24  43  64  91 125 167 212 263 319 379
#     4  12  26  41  63  95 129 166 212 265 318 377
#     4   9  19  38  65  92 122 162 205 260 322 378
#     4  11  22  40  60  90 130 159 204 265 312 374
#     4   9  20  39  59  87 124 159 209 265 316 375
#     4  11  23  42  64  90 131 172 209 255 328 379
#
# _framework density 19.167479
#
# number of rings (size 3 to 8) (size 9 to 14) (size 15 to 20)
#    0.000    1.500    2.500    2.625    5.250    4.250 
#    0.000    0.000    0.000    0.375    0.000    0.000 
#    0.000    0.000    0.000    0.000    0.000    0.000 
#
# Total GULP energy -178502.235676 kJ/mol
# GULP energy per Si atom -5578.194865 kJ/mol
# Density = 1.912385 g / cm^3
# Si number density = 19.167479 Si / 1000 Ang^3
#
#
#
# Elastic Constant Matrix: (Units=GPa)
#
#
# Indices 1 2 3 4 5 6 
#
# 1 76.1658 19.5483 40.2315 0.0000 2.8053 0.0000
# 2 19.5483 103.0849 54.2364 0.0000 23.2988 0.0000
# 3 40.2315 54.2364 104.7292 0.0000 3.5327 0.0000
# 4 0.0000 0.0000 0.0000 29.3166 0.0000 5.4439
# 5 2.8053 23.2988 3.5327 0.0000 24.9636 0.0000
# 6 0.0000 0.0000 0.0000 5.4439 0.0000 22.4453
#
#
#
# Elastic Compliance Matrix: (Units=1/GPa)
#
#
# Indices 1 2 3 4 5 6 
#
# 1 0.016526 0.000743 -0.006679 0.000000 -0.001605 0.000000
# 2 0.000743 0.017750 -0.008959 0.000000 -0.015382 0.000000
# 3 -0.006679 -0.008959 0.016525 0.000000 0.006773 0.000000
# 4 0.000000 0.000000 0.000000 0.035719 0.000000 -0.008663
# 5 -0.001605 -0.015382 0.006773 0.000000 0.053636 0.000000
# 6 0.000000 0.000000 0.000000 -0.008663 0.000000 0.046654
#
#
# Mechanical properties :
#
#
# Convention : Reuss Voigt Hill
#
# Bulk Modulus (GPa) = 47.59334 56.89027 52.24181
# Shear Modulus (GPa) = 22.36104 26.67600 24.51852
#
# Velocity S-wave (km/s) = 3.41928 3.73464 3.58043
# Velocity P-wave (km/s) = 6.36182 6.95282 6.66388
#
# Compressibility (1/GPa) = 0.02101134
#
# Stress axis : x y z
#
# Youngs Moduli (GPa) = 60.51239 56.33831 60.51375
#
# Poissons Ratio (x) = -0.04186 0.40417
# Poissons Ratio (y) = -0.04497 0.54213
# Poissons Ratio (z) = 0.40416 0.50472
#
# Static dielectric constant tensor:
#      x y z
#    x 1.682500 0.000000 -0.003860 
#    y 0.000000 1.707630 0.000000 
#    z -0.003860 0.000000 1.657380 
# 
# From -- ./inp_files/149719.got.cif
#   From: 2010.05.17/outbox.cif.g08.bks.cpg/sg12_75_cif.got.tgz:149719.got - 2010.06.03 13:09:07.
