data_PCOD9205281
_publ_section_title
;
Structure prediction by ZEFSAII (Michael W. Deem and Ramdas Pophale) SiO2 
 PCOD9205281
Probable space group: C 2/M
;
_chemical_formula_sum "Si O2"
_cell_formula_units_Z 48
_cell_length_a 20.640253
_cell_length_b 7.511355
_cell_length_c 21.427883
_cell_angle_alpha 90.000000
_cell_angle_beta 38.224609
_cell_angle_gamma 90.000000
_cell_volume 2055.535038
_symmetry_space_group_name_H-M "C 2/M"
_symmetry_group_IT_number 12
_symmetry_cell_setting 'monoclinic'
loop_
_space_group_symop_operation_xyz
x,y,z
-x,y,-z
-x,-y,-z
x,-y,z
1/2+x,1/2+y,z
1/2-x,1/2+y,-z
1/2-x,1/2-y,-z
1/2+x,1/2-y,z
loop_
_atom_site_type_symbol
_atom_site_label
_atom_site_fract_x
_atom_site_fract_y
_atom_site_fract_z
Si Si1 0.285665 0.787782 0.172959
Si Si2 0.802620 0.283867 0.369458
Si Si3 0.449765 0.217429 0.143908
Si Si4 0.067162 0.285665 0.390473
Si Si5 0.687241 0.786602 0.983956
Si Si6 0.909713 0.294688 0.413935
O O1 0.393469 0.722650 0.122743
O O2 0.188915 0.755106 0.292459
O O3 0.296554 0.000000 0.160155
O O4 0.264902 0.720903 0.118377
O O5 0.795147 0.500000 0.376747
O O6 0.869628 0.232456 0.259332
O O7 0.863516 0.217900 0.385312
O O8 0.684972 0.213441 0.464475
O O9 0.566558 0.277520 0.072320
O O10 0.453971 0.000000 0.138794
O O11 0.057279 0.500000 0.398189
O O12 0.000000 0.218886 0.500000
O O13 0.010509 0.215582 0.370725
O O14 0.683720 0.000000 0.984077
O O15 0.750000 0.750000 0.000000
O O16 0.933276 0.500000 0.381371
#
# Coordination Sequence:
#
# PCOD9205281 Si02
#       6
#     8   8   8   8   8   8
#     4  10  21  37  58  85 112 145 190 234 276 325
#     4   9  17  30  51  76  99 137 185 224 269 320
#     4   9  18  35  59  80 106 144 185 226 274 331
#     4  10  21  35  53  79 114 153 187 221 276 339
#     4  10  22  39  60  85 113 145 185 232 282 334
#     4   9  18  31  47  72 107 142 179 222 269 323
#
# _framework density 23.351586000000001
#
# number of rings (size 3 to 8) (size 9 to 14) (size 15 to 20)
#    0.000    2.500    0.000    1.500    2.333    3.667 
#    0.000    1.667    0.000    2.000    0.000    0.000 
#    0.000    0.000    0.000    0.000    0.000    0.000 
#
# Total GULP energy -133996.307458 kJ/mol
# GULP energy per Si atom -5583.179477 kJ/mol
# Density = 2.329844 g / cm^3
# Si number density = 23.351586 Si / 1000 Ang^3
#
#
#
# Elastic Constant Matrix: (Units=GPa)
#
#
# Indices 1 2 3 4 5 6 
#
# 1 173.3941 2.4827 68.5679 -0.0004 -11.0573 0.0005
# 2 2.4827 60.3991 -9.9577 -0.0008 3.8967 0.0015
# 3 68.5679 -9.9577 110.9253 0.0001 2.1246 0.0001
# 4 -0.0004 -0.0008 0.0001 8.0979 0.0001 7.6691
# 5 -11.0573 3.8967 2.1246 0.0001 34.5246 -0.0002
# 6 0.0005 0.0015 0.0001 7.6691 -0.0002 2.1427
#
#
#
# Elastic Compliance Matrix: (Units=1/GPa)
#
#
# Indices 1 2 3 4 5 6 
#
# 1 0.008010 -0.001371 -0.005133 0.000000 0.003036 0.000000
# 2 -0.001371 0.017178 0.002438 -0.000005 -0.002528 0.000007
# 3 -0.005133 0.002438 0.012458 -0.000001 -0.002686 0.000000
# 4 0.000000 -0.000005 -0.000001 -0.051676 0.000002 0.184960
# 5 0.003036 -0.002528 -0.002686 0.000002 0.030388 -0.000003
# 6 0.000000 0.000007 0.000000 0.184960 -0.000003 -0.195303
#
#
# Mechanical properties :
#
#
# Convention : Reuss Voigt Hill
#
# Bulk Modulus (GPa) = 33.88162 51.87826 42.87994
# Shear Modulus (GPa) = -31.06073 27.86142 -1.59966
#
# Velocity S-wave (km/s) = -3.65106 3.45791 -0.82856
# Velocity P-wave (km/s) = 1.79799 6.18120 4.18178
#
# Compressibility (1/GPa) = 0.02951453
#
# Stress axis : x y z
#
# Youngs Moduli (GPa) = 124.84162 58.21411 80.26886
#
# Poissons Ratio (x) = 0.07983 0.41199
# Poissons Ratio (y) = 0.17120 -0.19571
# Poissons Ratio (z) = 0.64077 -0.14194
#
# Static dielectric constant tensor:
#      x y z
#    x 1.900890 0.000000 0.019440 
#    y 0.000000 2.056280 0.000000 
#    z 0.019440 0.000000 1.868930 
# 
# From -- ./inp_files/319549.got.cif
#   From: 2010.05.17/outbox.cif.g08.bks.cpg/sg12_160_cif.got.tgz:319549.got - 2010.06.03 13:09:07.
