data_PCOD9205045
_publ_section_title
;
Structure prediction by ZEFSAII (Michael W. Deem and Ramdas Pophale) SiO2 
 PCOD9205045
Probable space group: C 2/M
;
_chemical_formula_sum "Si O2"
_cell_formula_units_Z 48
_cell_length_a 16.540253
_cell_length_b 21.576013
_cell_length_c 13.011043
_cell_angle_alpha 90.000000
_cell_angle_beta 26.520517
_cell_angle_gamma 90.000000
_cell_volume 2073.312043
_symmetry_space_group_name_H-M "C 2/M"
_symmetry_group_IT_number 12
_symmetry_cell_setting 'monoclinic'
loop_
_space_group_symop_operation_xyz
x,y,z
-x,y,-z
-x,-y,-z
x,-y,z
1/2+x,1/2+y,z
1/2-x,1/2+y,-z
1/2-x,1/2-y,-z
1/2+x,1/2-y,z
loop_
_atom_site_type_symbol
_atom_site_label
_atom_site_fract_x
_atom_site_fract_y
_atom_site_fract_z
Si Si1 0.105863 0.695062 0.480898
Si Si2 0.021164 0.430640 0.598781
Si Si3 0.209115 0.684302 0.827194
Si Si4 0.343583 0.367384 0.895722
Si Si5 0.032980 0.248843 0.758777
Si Si6 0.135294 0.067231 0.444232
O O1 0.212225 0.755558 0.320785
O O2 0.974807 0.718864 0.719203
O O3 0.000000 0.679006 0.500000
O O4 0.166056 0.626356 0.450567
O O5 0.062261 0.500000 0.593362
O O6 0.000000 0.438690 0.500000
O O7 0.832610 0.404297 0.862725
O O8 0.309633 0.665411 0.821698
O O9 0.231068 0.623452 0.733801
O O10 0.021292 0.708225 0.085901
O O11 0.429804 0.316443 0.875448
O O12 0.506589 0.414743 0.685050
O O13 0.250000 0.250000 0.500000
O O14 0.000000 0.063699 0.500000
O O15 0.222227 0.000000 0.358271
#
# Coordination Sequence:
#
# PCOD9205045 Si02
#       6
#     8   8   8   8   8   8
#     4  11  19  38  61  86 117 151 198 247 296 348
#     4  10  21  34  58  93 120 151 204 253 294 347
#     4  11  20  37  61  85 117 154 199 248 298 353
#     4  11  19  36  61  85 120 152 201 245 300 353
#     4  12  24  36  57  92 122 153 198 252 300 356
#     4   9  18  32  57  90 117 146 191 245 299 351
#
# _framework density 23.151364000000001
#
# number of rings (size 3 to 8) (size 9 to 14) (size 15 to 20)
#    0.000    1.333    5.000    3.500    0.000    1.333 
#    0.000    0.000    0.000    5.000    0.000    7.000 
#    0.000    0.000    0.000    0.000    0.000    0.000 
#
# Total GULP energy -133655.908137 kJ/mol
# GULP energy per Si atom -5568.996172 kJ/mol
# Density = 2.309867 g / cm^3
# Si number density = 23.151364 Si / 1000 Ang^3
#
#
#
# Elastic Constant Matrix: (Units=GPa)
#
#
# Indices 1 2 3 4 5 6 
#
# 1 33.0679 25.3778 18.2321 -0.0095 10.1552 0.0052
# 2 25.3778 255.2281 87.9597 -0.0344 1.6940 0.0154
# 3 18.2321 87.9597 136.4366 -0.0085 25.2190 0.0088
# 4 -0.0095 -0.0344 -0.0085 8.1497 0.0125 4.1362
# 5 10.1552 1.6940 25.2190 0.0125 33.9593 -0.0074
# 6 0.0052 0.0154 0.0088 4.1362 -0.0074 9.2377
#
#
#
# Elastic Compliance Matrix: (Units=1/GPa)
#
#
# Indices 1 2 3 4 5 6 
#
# 1 0.036298 -0.003225 -0.000921 0.000071 -0.010010 -0.000054
# 2 -0.003225 0.005515 -0.003769 0.000014 0.003488 -0.000007
# 3 -0.000921 -0.003769 0.011355 0.000016 -0.007969 -0.000017
# 4 0.000071 0.000014 0.000016 0.158788 -0.000107 -0.071098
# 5 -0.010010 0.003488 -0.007969 -0.000107 0.038185 0.000086
# 6 -0.000054 -0.000007 -0.000017 -0.071098 0.000086 0.140086
#
#
# Mechanical properties :
#
#
# Convention : Reuss Voigt Hill
#
# Bulk Modulus (GPa) = 26.78283 76.43019 51.60651
# Shear Modulus (GPa) = 11.94736 29.81355 20.88046
#
# Velocity S-wave (km/s) = 2.27415 3.59244 3.00644
# Velocity P-wave (km/s) = 4.29992 7.09171 5.86437
#
# Compressibility (1/GPa) = 0.03733735
#
# Stress axis : x y z
#
# Youngs Moduli (GPa) = 27.54979 181.33979 88.06425
#
# Poissons Ratio (x) = 0.58488 0.08110
# Poissons Ratio (y) = 0.08886 0.33191
# Poissons Ratio (z) = 0.02537 0.68346
#
# Static dielectric constant tensor:
#      x y z
#    x 2.071890 -0.000100 -0.048330 
#    y -0.000100 2.034250 0.000040 
#    z -0.048330 0.000040 1.891910 
# 
# From -- ./inp_files/235520.got.cif
#   From: 2010.05.17/outbox.cif.g08.bks.cpg/sg12_118_cif.got.tgz:235520.got - 2010.06.03 13:09:07.
