data_PCOD9205172
_publ_section_title
;
Structure prediction by ZEFSAII (Michael W. Deem and Ramdas Pophale) SiO2 
 PCOD9205172
Probable space group: C 2/M
;
_chemical_formula_sum "Si O2"
_cell_formula_units_Z 48
_cell_length_a 24.518549
_cell_length_b 7.614433
_cell_length_c 9.930370
_cell_angle_alpha 90.000000
_cell_angle_beta 84.140479
_cell_angle_gamma 90.000000
_cell_volume 1844.262395
_symmetry_space_group_name_H-M "C 2/M"
_symmetry_group_IT_number 12
_symmetry_cell_setting 'monoclinic'
loop_
_space_group_symop_operation_xyz
x,y,z
-x,y,-z
-x,-y,-z
x,-y,z
1/2+x,1/2+y,z
1/2-x,1/2+y,-z
1/2-x,1/2-y,-z
1/2+x,1/2-y,z
loop_
_atom_site_type_symbol
_atom_site_label
_atom_site_fract_x
_atom_site_fract_y
_atom_site_fract_z
Si Si1 0.573909 0.292179 0.584122
Si Si2 0.707940 0.206808 0.195674
Si Si3 0.059972 0.295875 0.997759
Si Si4 0.459643 0.287094 0.706445
Si Si5 0.174984 0.285939 0.908135
Si Si6 0.187450 0.708007 0.483482
O O1 0.566110 0.500000 0.581562
O O2 0.524089 0.228763 0.690245
O O3 0.561979 0.227862 0.434168
O O4 0.637782 0.259949 0.593024
O O5 0.691417 0.278420 0.054705
O O6 0.679429 0.284693 0.334553
O O7 0.696164 0.000000 0.193376
O O8 0.773743 0.228220 0.193810
O O9 0.055660 0.500000 0.960009
O O10 0.070655 0.287449 0.155940
O O11 0.112616 0.222346 0.906712
O O12 0.000000 0.210958 0.000000
O O13 0.456193 0.500000 0.714742
O O14 0.174425 0.500000 0.904342
O O15 0.183902 0.500000 0.477096
O O16 0.250000 0.750000 0.500000
#
# Coordination Sequence:
#
# PCOD9205172 Si02
#       6
#     8   8   8   8   8   8
#     4   9  19  37  58  81 108 137 175 223 270 316
#     4   9  19  35  54  76 101 132 173 218 260 306
#     4  10  21  35  51  76 110 142 174 217 265 313
#     4   9  19  36  58  81 106 139 178 221 268 318
#     4   9  18  34  55  77 102 133 171 216 263 309
#     4  11  23  37  54  79 111 145 179 217 264 317
#
# _framework density 26.026665999999999
#
# number of rings (size 3 to 8) (size 9 to 14) (size 15 to 20)
#    0.000    2.500    0.000    2.500    0.000    6.333 
#    0.000    8.333    0.000    0.000    0.000    0.000 
#    0.000    0.000    0.000    0.000    0.000    0.000 
#
# Total GULP energy -134151.335622 kJ/mol
# GULP energy per Si atom -5589.638984 kJ/mol
# Density = 2.596743 g / cm^3
# Si number density = 26.026666 Si / 1000 Ang^3
#
#
#
# Elastic Constant Matrix: (Units=GPa)
#
#
# Indices 1 2 3 4 5 6 
#
# 1 138.0353 -8.8542 23.6710 0.0000 -38.7962 0.0000
# 2 -8.8542 68.4568 -2.5790 0.0000 1.3434 0.0000
# 3 23.6710 -2.5790 106.9247 0.0000 -33.7467 0.0000
# 4 0.0000 0.0000 0.0000 12.4915 0.0000 0.0697
# 5 -38.7962 1.3434 -33.7467 0.0000 49.1791 0.0000
# 6 0.0000 0.0000 0.0000 0.0697 0.0000 14.2374
#
#
#
# Elastic Compliance Matrix: (Units=1/GPa)
#
#
# Indices 1 2 3 4 5 6 
#
# 1 0.009396 0.001079 0.000352 0.000000 0.007625 0.000000
# 2 0.001079 0.014746 0.000330 0.000000 0.000675 0.000000
# 3 0.000352 0.000330 0.011957 0.000000 0.008474 0.000000
# 4 0.000000 0.000000 0.000000 0.080056 0.000000 -0.000392
# 5 0.007625 0.000675 0.008474 0.000000 0.032145 0.000000
# 6 0.000000 0.000000 0.000000 -0.000392 0.000000 0.070240
#
#
# Mechanical properties :
#
#
# Convention : Reuss Voigt Hill
#
# Bulk Modulus (GPa) = 25.23869 37.54359 31.39114
# Shear Modulus (GPa) = 21.90813 35.26020 28.58417
#
# Velocity S-wave (km/s) = 2.90445 3.68472 3.31760
# Velocity P-wave (km/s) = 4.57887 5.70607 5.17326
#
# Compressibility (1/GPa) = 0.03962171
#
# Stress axis : x y z
#
# Youngs Moduli (GPa) = 106.42426 67.81271 83.63507
#
# Poissons Ratio (x) = -0.07317 -0.02947
# Poissons Ratio (y) = -0.11483 -0.02758
# Poissons Ratio (z) = -0.03750 -0.02236
#
# Static dielectric constant tensor:
#      x y z
#    x 2.130280 0.000000 0.076130 
#    y 0.000000 1.939040 0.000000 
#    z 0.076130 0.000000 2.021310 
# 
# From -- ./inp_files/172179.got.cif
#   From: 2010.05.17/outbox.cif.g08.bks.cpg/sg12_87_cif.got.tgz:172179.got - 2010.06.03 13:09:07.
