data_PCOD9205344
_publ_section_title
;
Structure prediction by ZEFSAII (Michael W. Deem and Ramdas Pophale) SiO2 
 PCOD9205344
Probable space group: C 2/M
;
_chemical_formula_sum "Si O2"
_cell_formula_units_Z 56
_cell_length_a 31.740929
_cell_length_b 7.506177
_cell_length_c 22.048746
_cell_angle_alpha 90.000000
_cell_angle_beta 26.891982
_cell_angle_gamma 90.000000
_cell_volume 2376.065611
_symmetry_space_group_name_H-M "C 2/M"
_symmetry_group_IT_number 12
_symmetry_cell_setting 'monoclinic'
loop_
_space_group_symop_operation_xyz
x,y,z
-x,y,-z
-x,-y,-z
x,-y,z
1/2+x,1/2+y,z
1/2-x,1/2+y,-z
1/2-x,1/2-y,-z
1/2+x,1/2-y,z
loop_
_atom_site_type_symbol
_atom_site_label
_atom_site_fract_x
_atom_site_fract_y
_atom_site_fract_z
Si Si1 0.553215 0.214210 0.994329
Si Si2 0.880943 0.715798 0.705786
Si Si3 0.008244 0.788988 0.192219
Si Si4 0.693856 0.714077 0.512014
Si Si5 0.765835 0.296847 0.299280
Si Si6 0.572683 0.214218 0.492651
Si Si7 0.701044 0.713755 0.998439
O O1 0.660282 0.275653 0.844060
O O2 0.546163 0.000000 0.006448
O O3 0.500000 0.269166 0.000000
O O4 0.518299 0.270691 0.105992
O O5 0.880301 0.500000 0.711422
O O6 0.906000 0.755408 0.604804
O O7 0.779447 0.782887 0.851620
O O8 0.966395 0.775549 0.639111
O O9 0.911213 0.716377 0.343665
O O10 0.005614 0.000000 0.206974
O O11 0.099530 0.716521 0.110151
O O12 0.687654 0.500000 0.510766
O O13 0.750000 0.750000 0.500000
O O14 0.756587 0.789762 0.376810
O O15 0.798180 0.500000 0.266046
O O16 0.658475 0.295439 0.417436
O O17 0.576685 0.000000 0.495691
O O18 0.695378 0.500000 0.000185
O O19 0.750000 0.750000 0.000000
#
# Coordination Sequence:
#
# PCOD9205344 Si02
#       7
#     8   8   8   8   8   8   8
#     4  10  21  38  60  85 113 148 188 233 290 351
#     4   8  16  32  52  75 106 138 177 224 266 313
#     4  10  22  39  60  86 117 152 192 241 289 335
#     4  10  22  40  59  82 114 150 187 231 285 340
#     4  10  21  35  54  81 113 141 175 227 283 333
#     4   9  17  32  55  78 101 138 181 222 266 320
#     4  10  21  36  54  79 112 150 190 232 278 332
#
# _framework density 23.568373000000001
#
# number of rings (size 3 to 8) (size 9 to 14) (size 15 to 20)
#    0.000    2.429    0.000    2.571    2.000    4.857 
#    0.000    2.143    0.000    0.000    0.000    0.000 
#    0.000    0.000    0.000    0.000    0.000    0.000 
#
# Total GULP energy -156184.745961 kJ/mol
# GULP energy per Si atom -5578.026641 kJ/mol
# Density = 2.351473 g / cm^3
# Si number density = 23.568373 Si / 1000 Ang^3
#
#
#
# Elastic Constant Matrix: (Units=GPa)
#
#
# Indices 1 2 3 4 5 6 
#
# 1 48.7520 -6.6258 -12.4842 0.0210 -11.2158 -0.0078
# 2 -6.6258 65.1518 7.4729 -0.0027 -1.7530 0.0052
# 3 -12.4842 7.4729 83.3121 0.0060 -9.9983 -0.0105
# 4 0.0210 -0.0027 0.0060 7.8029 -0.0052 -3.0024
# 5 -11.2158 -1.7530 -9.9983 -0.0052 38.8145 0.0034
# 6 -0.0078 0.0052 -0.0105 -3.0024 0.0034 23.0845
#
#
#
# Elastic Compliance Matrix: (Units=1/GPa)
#
#
# Indices 1 2 3 4 5 6 
#
# 1 0.023774 0.002137 0.004341 -0.000061 0.008084 0.000000
# 2 0.002137 0.015705 -0.000959 0.000000 0.001080 -0.000003
# 3 0.004341 -0.000959 0.013296 -0.000017 0.004636 0.000005
# 4 -0.000061 0.000000 -0.000017 0.134909 -0.000006 0.017546
# 5 0.008084 0.001080 0.004636 -0.000006 0.029343 0.000000
# 6 0.000000 -0.000003 0.000005 0.017546 0.000000 0.045601
#
#
# Mechanical properties :
#
#
# Convention : Reuss Voigt Hill
#
# Bulk Modulus (GPa) = 15.67048 19.32685 17.49867
# Shear Modulus (GPa) = 18.32443 27.86391 23.09417
#
# Velocity S-wave (km/s) = 2.79140 3.44213 3.13370
# Velocity P-wave (km/s) = 4.12947 4.90059 4.53147
#
# Compressibility (1/GPa) = 0.06381426
#
# Stress axis : x y z
#
# Youngs Moduli (GPa) = 42.06268 63.67335 75.21101
#
# Poissons Ratio (x) = -0.13609 -0.32649
# Poissons Ratio (y) = -0.08990 0.07211
# Poissons Ratio (z) = -0.18259 0.06105
#
# Static dielectric constant tensor:
#      x y z
#    x 1.659850 0.000220 -0.212190 
#    y 0.000220 1.968270 0.000110 
#    z -0.212190 0.000110 1.801500 
# 
# From -- ./inp_files/329457.got.cif
#   From: 2010.05.17/outbox.cif.g08.bks.cpg/sg12_165_cif.got.tgz:329457.got - 2010.06.03 13:09:07.
