data_PCOD9205865
_publ_section_title
;
Structure prediction by ZEFSAII (Michael W. Deem and Ramdas Pophale) SiO2 
 PCOD9205865
Probable space group: C 2/M
;
_chemical_formula_sum "Si O2"
_cell_formula_units_Z 36
_cell_length_a 5.042560
_cell_length_b 12.884616
_cell_length_c 28.202144
_cell_angle_alpha 90.000000
_cell_angle_beta 69.585712
_cell_angle_gamma 90.000000
_cell_volume 1717.254486
_symmetry_space_group_name_H-M "C 2/M"
_symmetry_group_IT_number 12
_symmetry_cell_setting 'monoclinic'
loop_
_space_group_symop_operation_xyz
x,y,z
-x,y,-z
-x,-y,-z
x,-y,z
1/2+x,1/2+y,z
1/2-x,1/2+y,-z
1/2-x,1/2-y,-z
1/2+x,1/2-y,z
loop_
_atom_site_type_symbol
_atom_site_label
_atom_site_fract_x
_atom_site_fract_y
_atom_site_fract_z
Si Si1 0.900161 0.000000 0.083113
Si Si2 0.500000 0.675288 0.000000
Si Si3 0.393076 0.678757 0.337538
Si Si4 0.730499 0.000000 0.849899
Si Si5 0.834201 0.323052 0.552748
Si Si6 0.009390 0.178525 0.771247
O O1 0.912852 0.899823 0.048551
O O2 0.607775 0.000000 0.130163
O O3 0.162671 0.000000 0.102632
O O4 0.750000 0.750000 0.000000
O O5 0.193237 0.777625 0.336905
O O6 0.239947 0.626009 0.392017
O O7 0.433642 0.627103 0.283983
O O8 0.859991 0.900292 0.815750
O O9 0.500000 0.120111 0.500000
O O10 0.043896 0.226580 0.551707
O O11 0.798092 0.274672 0.774006
#
# Coordination Sequence:
#
# PCOD9205865 Si02
#       6
#     4   4   8   4   8   8
#     4  11  26  42  62  96 122 146 195 232 260 328
#     4  11  24  45  70  92 122 159 186 223 278 320
#     4   8  14  25  40  60  90 127 169 216 264 322
#     4  12  24  39  60  88 121 152 188 234 274 316
#     4   8  12  18  31  53  81 114 156 209 264 315
#     4  10  21  36  54  78 110 149 189 229 278 331
#
# _framework density 20.963697
#
# number of rings (size 3 to 8) (size 9 to 14) (size 15 to 20)
#    0.000    2.444    0.000    2.667    0.000    7.111 
#    0.000    0.000    0.000    0.000    0.000    0.778 
#    0.000    0.000    0.000   76.667    0.000    5.333 
#
# Total GULP energy -100368.313140 kJ/mol
# GULP energy per Si atom -5576.017397 kJ/mol
# Density = 2.091598 g / cm^3
# Si number density = 20.963697 Si / 1000 Ang^3
#
#
#
# Elastic Constant Matrix: (Units=GPa)
#
#
# Indices 1 2 3 4 5 6 
#
# 1 89.7863 9.4515 -11.3667 0.0000 -0.3068 0.0000
# 2 9.4515 73.1150 31.4506 0.0000 -1.0569 0.0000
# 3 -11.3667 31.4506 101.8188 0.0000 -4.6717 0.0000
# 4 0.0000 0.0000 0.0000 24.2583 0.0000 6.6664
# 5 -0.3068 -1.0569 -4.6717 0.0000 34.5797 0.0000
# 6 0.0000 0.0000 0.0000 6.6664 0.0000 10.8932
#
#
#
# Elastic Compliance Matrix: (Units=1/GPa)
#
#
# Indices 1 2 3 4 5 6 
#
# 1 0.011649 -0.002384 0.002051 0.000000 0.000308 0.000000
# 2 -0.002384 0.016262 -0.005300 0.000000 -0.000240 0.000000
# 3 0.002051 -0.005300 0.011754 0.000000 0.001444 0.000000
# 4 0.000000 0.000000 0.000000 0.049557 0.000000 -0.030328
# 5 0.000308 -0.000240 0.001444 0.000000 0.029109 0.000000
# 6 0.000000 0.000000 0.000000 -0.030328 0.000000 0.110360
#
#
# Mechanical properties :
#
#
# Convention : Reuss Voigt Hill
#
# Bulk Modulus (GPa) = 35.21285 35.97675 35.59480
# Shear Modulus (GPa) = 20.04624 29.62524 24.83574
#
# Velocity S-wave (km/s) = 3.09566 3.76329 3.44568
# Velocity P-wave (km/s) = 5.44160 6.00682 5.73118
#
# Compressibility (1/GPa) = 0.02839872
#
# Stress axis : x y z
#
# Youngs Moduli (GPa) = 85.84317 61.49454 85.07938
#
# Poissons Ratio (x) = 0.14658 -0.17449
# Poissons Ratio (y) = 0.20462 0.45093
# Poissons Ratio (z) = -0.17605 0.32593
#
# Static dielectric constant tensor:
#      x y z
#    x 1.693640 0.000000 -0.000750 
#    y 0.000000 1.785310 0.000000 
#    z -0.000750 0.000000 1.831830 
# 
# From -- ./inp_files/330819.got.cif
#   From: 2010.05.17/outbox.cif.g08.bks.cpg/sg12_166_cif.got.tgz:330819.got - 2010.06.03 13:09:07.
