data_PCOD9205905
_publ_section_title
;
Structure prediction by ZEFSAII (Michael W. Deem and Ramdas Pophale) SiO2 
 PCOD9205905
Probable space group: C 2/M
;
_chemical_formula_sum "Si O2"
_cell_formula_units_Z 48
_cell_length_a 15.309955
_cell_length_b 8.393446
_cell_length_c 27.668317
_cell_angle_alpha 90.000000
_cell_angle_beta 135.549431
_cell_angle_gamma 90.000000
_cell_volume 2489.872745
_symmetry_space_group_name_H-M "C 2/M"
_symmetry_group_IT_number 12
_symmetry_cell_setting 'monoclinic'
loop_
_space_group_symop_operation_xyz
x,y,z
-x,y,-z
-x,-y,-z
x,-y,z
1/2+x,1/2+y,z
1/2-x,1/2+y,-z
1/2-x,1/2-y,-z
1/2+x,1/2-y,z
loop_
_atom_site_type_symbol
_atom_site_label
_atom_site_fract_x
_atom_site_fract_y
_atom_site_fract_z
Si Si1 0.647313 0.689302 0.328869
Si Si2 0.879434 0.311704 0.574033
Si Si3 0.017684 0.807974 0.826503
Si Si4 0.030419 0.692130 0.089265
Si Si5 0.078379 0.810650 0.578715
Si Si6 0.301780 0.194161 0.934242
O O1 0.630869 0.500000 0.328831
O O2 0.621279 0.771937 0.369648
O O3 0.556177 0.745864 0.250137
O O4 0.789288 0.724401 0.369760
O O5 0.886512 0.500000 0.569321
O O6 0.750000 0.250000 0.500000
O O7 0.993692 0.230486 0.591169
O O8 0.953460 0.756110 0.850816
O O9 0.160745 0.749123 0.883661
O O10 0.020406 0.000000 0.826269
O O11 0.029987 0.500000 0.090511
O O12 0.135193 0.740672 0.091788
O O13 0.897242 0.745224 0.014049
O O14 0.000000 0.763803 0.500000
O O15 0.100160 0.000000 0.584770
O O16 0.300578 0.000000 0.934709
#
# Coordination Sequence:
#
# PCOD9205905 Si02
#       6
#     8   8   8   8   8   8
#     4  11  24  40  58  85 120 159 198 240 293 350
#     4  12  24  40  64  90 117 149 189 239 291 348
#     4  10  21  36  54  80 117 152 185 233 290 339
#     4   9  17  32  57  83 108 149 198 236 276 332
#     4  11  23  40  64  89 113 147 191 240 295 349
#     4   8  16  33  55  80 112 150 192 234 280 336
#
# _framework density 19.278093999999999
#
# number of rings (size 3 to 8) (size 9 to 14) (size 15 to 20)
#    0.000    1.833    1.667    4.000    0.000    3.333 
#    0.000    4.167    0.000    0.000    0.000    0.000 
#    0.000    0.000    0.000    0.000    0.000    0.000 
#
# Total GULP energy -134085.305437 kJ/mol
# GULP energy per Si atom -5586.887727 kJ/mol
# Density = 1.923422 g / cm^3
# Si number density = 19.278094 Si / 1000 Ang^3
#
#
#
# Elastic Constant Matrix: (Units=GPa)
#
#
# Indices 1 2 3 4 5 6 
#
# 1 79.0004 -14.4096 25.5319 0.0000 -18.4377 0.0000
# 2 -14.4096 14.9503 4.1185 0.0000 -2.4416 0.0000
# 3 25.5319 4.1185 66.0757 0.0000 -29.1243 0.0000
# 4 0.0000 0.0000 0.0000 17.6554 0.0000 -6.5127
# 5 -18.4377 -2.4416 -29.1243 0.0000 32.2688 0.0000
# 6 0.0000 0.0000 0.0000 -6.5127 0.0000 30.4477
#
#
#
# Elastic Compliance Matrix: (Units=1/GPa)
#
#
# Indices 1 2 3 4 5 6 
#
# 1 0.020609 0.022799 -0.005702 0.000000 0.008354 0.000000
# 2 0.022799 0.093372 -0.009588 0.000000 0.011439 0.000000
# 3 -0.005702 -0.009588 0.026868 0.000000 0.020266 0.000000
# 4 0.000000 0.000000 0.000000 0.061492 0.000000 0.013153
# 5 0.008354 0.011439 0.020266 0.000000 0.054920 0.000000
# 6 0.000000 0.000000 0.000000 0.013153 0.000000 0.035657
#
#
# Mechanical properties :
#
#
# Convention : Reuss Voigt Hill
#
# Bulk Modulus (GPa) = 6.41568 21.16755 13.79162
# Shear Modulus (GPa) = 15.15815 25.72676 20.44245
#
# Velocity S-wave (km/s) = 2.80713 3.65705 3.25991
# Velocity P-wave (km/s) = 3.72046 5.36992 4.61940
#
# Compressibility (1/GPa) = 0.15586803
#
# Stress axis : x y z
#
# Youngs Moduli (GPa) = 48.52136 10.70980 37.21929
#
# Poissons Ratio (x) = -0.24418 0.21224
# Poissons Ratio (y) = -1.10626 0.35685
# Poissons Ratio (z) = 0.27669 0.10268
#
# Static dielectric constant tensor:
#      x y z
#    x 1.643550 0.000000 -0.000070 
#    y 0.000000 1.662090 0.000000 
#    z -0.000070 0.000000 1.655420 
# 
# From -- ./inp_files/267709.got.cif
#   From: 2010.05.17/outbox.cif.g08.bks.cpg/sg12_134_cif.got.tgz:267709.got - 2010.06.03 13:09:07.
