data_PCOD9205845
_publ_section_title
;
Structure prediction by ZEFSAII (Michael W. Deem and Ramdas Pophale) SiO2 
 PCOD9205845
Probable space group: C 2/M
;
_chemical_formula_sum "Si O2"
_cell_formula_units_Z 64
_cell_length_a 14.816692
_cell_length_b 7.777268
_cell_length_c 29.228680
_cell_angle_alpha 90.000000
_cell_angle_beta 61.135806
_cell_angle_gamma 90.000000
_cell_volume 2949.686000
_symmetry_space_group_name_H-M "C 2/M"
_symmetry_group_IT_number 12
_symmetry_cell_setting 'monoclinic'
loop_
_space_group_symop_operation_xyz
x,y,z
-x,y,-z
-x,-y,-z
x,-y,z
1/2+x,1/2+y,z
1/2-x,1/2+y,-z
1/2-x,1/2-y,-z
1/2+x,1/2-y,z
loop_
_atom_site_type_symbol
_atom_site_label
_atom_site_fract_x
_atom_site_fract_y
_atom_site_fract_z
Si Si1 0.086544 0.700774 0.199048
Si Si2 0.398553 0.706941 0.998625
Si Si3 0.132739 0.289653 0.709671
Si Si4 0.949176 0.698459 0.633164
Si Si5 0.327655 0.207549 0.917209
Si Si6 0.892968 0.710607 0.547878
Si Si7 0.671010 0.299231 0.594973
Si Si8 0.199075 0.804556 0.257717
O O1 0.065386 0.500000 0.196214
O O2 0.123440 0.774900 0.141748
O O3 0.174487 0.714815 0.216107
O O4 0.979843 0.769671 0.245997
O O5 0.398295 0.500000 0.002898
O O6 0.393558 0.749054 0.946060
O O7 0.500000 0.771730 0.000000
O O8 0.289507 0.770876 0.045903
O O9 0.134422 0.500000 0.705529
O O10 0.159712 0.221211 0.652769
O O11 0.215008 0.236217 0.728254
O O12 0.921309 0.500000 0.647430
O O13 0.071802 0.709268 0.598086
O O14 0.897036 0.763433 0.599828
O O15 0.906111 0.798104 0.687001
O O16 0.321956 0.000000 0.915627
O O17 0.893027 0.500000 0.547116
O O18 0.784261 0.767357 0.553729
O O19 0.000000 0.768862 0.500000
O O20 0.664459 0.500000 0.585134
O O21 0.227309 0.000000 0.240294
#
# Coordination Sequence:
#
# PCOD9205845 Si02
#       8
#     8   8   8   8   8   8   8   8
#     4  10  21  37  55  78 112 150 182 223 279 334
#     4   9  18  34  56  80 109 145 185 230 280 323
#     4  10  21  36  54  77 109 145 180 223 276 327
#     4  11  21  36  58  81 108 144 180 221 277 329
#     4   9  19  35  54  79 110 145 187 227 272 331
#     4   9  20  38  58  81 111 145 181 224 275 330
#     4  11  21  35  58  84 108 140 184 225 266 326
#     4  11  22  35  54  81 109 141 184 228 270 326
#
# _framework density 21.697223999999999
#
# number of rings (size 3 to 8) (size 9 to 14) (size 15 to 20)
#    0.000    2.000    2.500    1.125    0.000    2.750 
#    0.000    0.000    0.000    5.250    0.000    0.000 
#    0.000    0.000    0.000    0.000    0.000    0.000 
#
# Total GULP energy -178703.275726 kJ/mol
# GULP energy per Si atom -5584.477366 kJ/mol
# Density = 2.164784 g / cm^3
# Si number density = 21.697224 Si / 1000 Ang^3
#
#
#
# Elastic Constant Matrix: (Units=GPa)
#
#
# Indices 1 2 3 4 5 6 
#
# 1 92.2895 -2.7240 -19.1689 -0.0001 -4.9244 -0.0002
# 2 -2.7240 33.3783 -0.0772 -0.0001 -3.4218 -0.0001
# 3 -19.1689 -0.0772 25.2827 -0.0001 -2.1048 -0.0002
# 4 -0.0001 -0.0001 -0.0001 15.2126 0.0000 1.1580
# 5 -4.9244 -3.4218 -2.1048 0.0000 15.4622 0.0000
# 6 -0.0002 -0.0001 -0.0002 1.1580 0.0000 9.0156
#
#
#
# Elastic Compliance Matrix: (Units=1/GPa)
#
#
# Indices 1 2 3 4 5 6 
#
# 1 0.013437 0.001749 0.010703 0.000000 0.006123 0.000000
# 2 0.001749 0.030894 0.002059 0.000000 0.007674 0.000000
# 3 0.010703 0.002059 0.048546 0.000000 0.010472 0.000001
# 4 0.000000 0.000000 0.000000 0.066384 0.000000 -0.008527
# 5 0.006123 0.007674 0.010472 0.000000 0.069748 0.000001
# 6 0.000000 0.000000 0.000001 -0.008527 0.000001 0.112015
#
#
# Mechanical properties :
#
#
# Convention : Reuss Voigt Hill
#
# Bulk Modulus (GPa) = 8.20357 11.89003 10.04680
# Shear Modulus (GPa) = 14.17903 19.46611 16.82257
#
# Velocity S-wave (km/s) = 2.55913 2.99853 2.78750
# Velocity P-wave (km/s) = 3.53855 4.18092 3.87308
#
# Compressibility (1/GPa) = 0.12189818
#
# Stress axis : x y z
#
# Youngs Moduli (GPa) = 74.42242 32.36894 20.59922
#
# Poissons Ratio (x) = -0.05662 -0.22047
# Poissons Ratio (y) = -0.13017 -0.04242
# Poissons Ratio (z) = -0.79652 -0.06666
#
# Static dielectric constant tensor:
#      x y z
#    x 1.796530 0.000000 -0.027450 
#    y 0.000000 1.778780 0.000000 
#    z -0.027450 0.000000 1.786020 
# 
# From -- ./inp_files/338785.got.cif
#   From: 2010.05.17/outbox.cif.g08.bks.cpg/sg12_170_cif.got.tgz:338785.got - 2010.06.03 13:09:07.
