data_PCOD9205507
_publ_section_title
;
Structure prediction by ZEFSAII (Michael W. Deem and Ramdas Pophale) SiO2 
 PCOD9205507
Probable space group: C 2/M
;
_chemical_formula_sum "Si O2"
_cell_formula_units_Z 40
_cell_length_a 5.118005
_cell_length_b 23.765361
_cell_length_c 12.549350
_cell_angle_alpha 90.000000
_cell_angle_beta 99.931923
_cell_angle_gamma 90.000000
_cell_volume 1503.517487
_symmetry_space_group_name_H-M "C 2/M"
_symmetry_group_IT_number 12
_symmetry_cell_setting 'monoclinic'
loop_
_space_group_symop_operation_xyz
x,y,z
-x,y,-z
-x,-y,-z
x,-y,z
1/2+x,1/2+y,z
1/2-x,1/2+y,-z
1/2-x,1/2-y,-z
1/2+x,1/2-y,z
loop_
_atom_site_type_symbol
_atom_site_label
_atom_site_fract_x
_atom_site_fract_y
_atom_site_fract_z
Si Si1 0.132228 0.281635 0.668741
Si Si2 0.274959 0.437927 0.892985
Si Si3 0.711789 0.937136 0.425402
Si Si4 0.468547 0.179620 0.881782
Si Si5 0.478499 0.373753 0.269835
O O1 0.325850 0.234860 0.629202
O O2 0.115808 0.287614 0.797200
O O3 0.291381 0.338864 0.654862
O O4 0.147930 0.500000 0.887997
O O5 0.094366 0.383354 0.896598
O O6 0.405229 0.426283 0.786551
O O7 0.500000 0.436699 0.000000
O O8 0.500000 0.923253 0.500000
O O9 0.749665 0.894213 0.332586
O O10 0.000000 0.939065 0.500000
O O11 0.647343 0.000000 0.381021
O O12 0.168447 0.166754 0.824505
O O13 0.500000 0.205486 0.000000
#
# Coordination Sequence:
#
# PCOD9205507 Si02
#       5
#     8   8   8   8   8
#     4  11  24  43  65  95 128 172 221 273 327 382
#     4  10  21  35  56  91 134 176 213 254 312 391
#     4  10  24  44  69 101 131 165 216 267 321 388
#     4  11  23  39  60  94 133 176 222 266 315 390
#     4  11  23  42  67  91 131 174 214 274 325 385
#
# _framework density 26.604278000000001
#
# number of rings (size 3 to 8) (size 9 to 14) (size 15 to 20)
#    0.000    1.400    4.000    0.600    5.600    2.800 
#    0.000    0.000    0.000    3.600    0.000    0.000 
#    0.000    0.000    0.000    0.000    0.000    0.000 
#
# Total GULP energy -111937.231368 kJ/mol
# GULP energy per Si atom -5596.861568 kJ/mol
# Density = 2.654373 g / cm^3
# Si number density = 26.604278 Si / 1000 Ang^3
#
#
#
# Elastic Constant Matrix: (Units=GPa)
#
#
# Indices 1 2 3 4 5 6 
#
# 1 136.5158 12.7048 18.2518 0.0000 -21.0906 0.0000
# 2 12.7048 113.6504 25.1235 0.0000 0.3496 0.0000
# 3 18.2518 25.1235 62.6975 0.0000 -12.3072 0.0000
# 4 0.0000 0.0000 0.0000 21.2402 0.0000 -5.4334
# 5 -21.0906 0.3496 -12.3072 0.0000 47.6091 0.0000
# 6 0.0000 0.0000 0.0000 -5.4334 0.0000 36.3226
#
#
#
# Elastic Compliance Matrix: (Units=1/GPa)
#
#
# Indices 1 2 3 4 5 6 
#
# 1 0.008072 -0.000583 -0.001489 0.000000 0.003195 0.000000
# 2 -0.000583 0.009754 -0.004007 0.000000 -0.001366 0.000000
# 3 -0.001489 -0.004007 0.018820 0.000000 0.004235 0.000000
# 4 0.000000 0.000000 0.000000 0.048954 0.000000 0.007323
# 5 0.003195 -0.001366 0.004235 0.000000 0.023525 0.000000
# 6 0.000000 0.000000 0.000000 0.007323 0.000000 0.028627
#
#
# Mechanical properties :
#
#
# Convention : Reuss Voigt Hill
#
# Bulk Modulus (GPa) = 40.83596 47.22486 44.03041
# Shear Modulus (GPa) = 31.63122 38.15330 34.89226
#
# Velocity S-wave (km/s) = 3.45186 3.79106 3.62543
# Velocity P-wave (km/s) = 5.59194 6.07884 5.84047
#
# Compressibility (1/GPa) = 0.02448822
#
# Stress axis : x y z
#
# Youngs Moduli (GPa) = 123.88280 102.52152 53.13513
#
# Poissons Ratio (x) = 0.05977 0.07912
# Poissons Ratio (y) = 0.07223 0.21291
# Poissons Ratio (z) = 0.18447 0.41079
#
# Static dielectric constant tensor:
#      x y z
#    x 2.094720 0.000000 0.047240 
#    y 0.000000 2.120260 0.000000 
#    z 0.047240 0.000000 2.126040 
# 
# From -- ./inp_files/115508.got.cif
#   From: 2010.05.17/outbox.cif.g08.bks.cpg/sg12_58_cif.got.tgz:115508.got - 2010.06.03 13:09:07.
