data_PCOD9205728
_publ_section_title
;
Structure prediction by ZEFSAII (Michael W. Deem and Ramdas Pophale) SiO2 
 PCOD9205728
Probable space group: C 2/M
;
_chemical_formula_sum "Si O2"
_cell_formula_units_Z 60
_cell_length_a 9.677746
_cell_length_b 23.339723
_cell_length_c 14.871801
_cell_angle_alpha 90.000000
_cell_angle_beta 108.561473
_cell_angle_gamma 90.000000
_cell_volume 3184.445944
_symmetry_space_group_name_H-M "C 2/M"
_symmetry_group_IT_number 12
_symmetry_cell_setting 'monoclinic'
loop_
_space_group_symop_operation_xyz
x,y,z
-x,y,-z
-x,-y,-z
x,-y,z
1/2+x,1/2+y,z
1/2-x,1/2+y,-z
1/2-x,1/2-y,-z
1/2+x,1/2-y,z
loop_
_atom_site_type_symbol
_atom_site_label
_atom_site_fract_x
_atom_site_fract_y
_atom_site_fract_z
Si Si1 0.271698 0.276919 0.103650
Si Si2 0.724786 0.149495 0.848197
Si Si3 0.158621 0.062067 0.990019
Si Si4 0.815817 0.273556 0.626507
Si Si5 0.500000 0.237217 0.500000
Si Si6 0.642229 0.436064 0.771139
Si Si7 0.887504 0.643784 0.800688
Si Si8 0.552680 0.663907 0.248816
O O1 0.258437 0.218034 0.155881
O O2 0.151930 0.322471 0.114312
O O3 0.429994 0.304289 0.160071
O O4 0.250000 0.250000 0.000000
O O5 0.774498 0.118248 0.950170
O O6 0.554944 0.137508 0.812486
O O7 0.828937 0.131278 0.788525
O O8 0.232949 0.000000 0.025323
O O9 0.141581 0.066086 0.879925
O O10 0.000000 0.059262 0.000000
O O11 0.647752 0.270081 0.560316
O O12 0.930915 0.293713 0.573444
O O13 0.821843 0.314886 0.712020
O O14 0.873312 0.211180 0.672046
O O15 0.606225 0.500000 0.734453
O O16 0.804270 0.416005 0.780954
O O17 0.535038 0.385681 0.717704
#
# Coordination Sequence:
#
# PCOD9205728 Si02
#       8
#     8   8   8   8   4   8   8   8
#     4  11  22  33  49  77 116 166 199 227 280 345
#     4  12  20  32  53  77 103 158 194 243 301 321
#     4  10  21  36  52  72 106 151 221 262 272 315
#     4  11  20  40  56  95 116 150 179 236 307 358
#     4  10  22  34  68  84 118 146 182 220 304 400
#     4  10  22  39  56  78 112 166 208 246 285 331
#     4  11  23  37  56  83 126 150 189 256 289 342
#     4  11  21  36  58  81 123 155 193 249 283 350
#
# _framework density 18.841581999999999
#
# number of rings (size 3 to 8) (size 9 to 14) (size 15 to 20)
#    0.000    1.200    4.000    4.000    0.000    3.733 
#    0.000    1.333    0.000    0.000    0.000   17.733 
#    0.000    0.000    0.000    0.000    0.000    0.000 
#
# Total GULP energy -167185.859779 kJ/mol
# GULP energy per Si atom -5572.861993 kJ/mol
# Density = 1.879870 g / cm^3
# Si number density = 18.841582 Si / 1000 Ang^3
#
#
#
# Elastic Constant Matrix: (Units=GPa)
#
#
# Indices 1 2 3 4 5 6 
#
# 1 106.2687 22.8757 13.7248 0.0000 7.0180 0.0000
# 2 22.8757 90.4103 15.4579 0.0000 9.2668 0.0000
# 3 13.7248 15.4579 50.4421 0.0000 1.7912 0.0000
# 4 0.0000 0.0000 0.0000 2.4278 0.0000 5.3824
# 5 7.0180 9.2668 1.7912 0.0000 32.0800 0.0000
# 6 0.0000 0.0000 0.0000 5.3824 0.0000 -4.0439
#
#
#
# Elastic Compliance Matrix: (Units=1/GPa)
#
#
# Indices 1 2 3 4 5 6 
#
# 1 0.010227 -0.002074 -0.002093 0.000000 -0.001521 0.000000
# 2 -0.002074 0.012425 -0.003138 0.000000 -0.002960 0.000000
# 3 -0.002093 -0.003138 0.021350 0.000000 0.000172 0.000000
# 4 0.000000 0.000000 0.000000 0.104257 0.000000 0.138765
# 5 -0.001521 -0.002960 0.000172 0.000000 0.032350 0.000000
# 6 0.000000 0.000000 0.000000 0.138765 0.000000 -0.062592
#
#
# Mechanical properties :
#
#
# Convention : Reuss Voigt Hill
#
# Bulk Modulus (GPa) = 34.02314 39.02644 36.52479
# Shear Modulus (GPa) = 35.10594 19.09696 27.10145
#
# Velocity S-wave (km/s) = 4.32118 3.18709 3.79672
# Velocity P-wave (km/s) = 6.55694 5.85673 6.21670
#
# Compressibility (1/GPa) = 0.02939176
#
# Stress axis : x y z
#
# Youngs Moduli (GPa) = 97.77690 80.48012 46.83874
#
# Poissons Ratio (x) = 0.16691 0.09804
# Poissons Ratio (y) = 0.20278 0.14700
# Poissons Ratio (z) = 0.20467 0.25257
#
# Static dielectric constant tensor:
#      x y z
#    x 1.704280 0.000000 -0.019330 
#    y 0.000000 1.703240 0.000000 
#    z -0.019330 0.000000 1.703210 
# 
# From -- ./inp_files/198922.got.cif
#   From: 2010.05.17/outbox.cif.g08.bks.cpg/sg12_100_cif.got.tgz:198922.got - 2010.06.03 13:09:07.
