data_PCOD9205051
_publ_section_title
;
Structure prediction by ZEFSAII (Michael W. Deem and Ramdas Pophale) SiO2 
 PCOD9205051
Probable space group: C 2/M
;
_chemical_formula_sum "Si O2"
_cell_formula_units_Z 48
_cell_length_a 11.632433
_cell_length_b 14.681868
_cell_length_c 27.463730
_cell_angle_alpha 90.000000
_cell_angle_beta 30.482510
_cell_angle_gamma 90.000000
_cell_volume 2379.332459
_symmetry_space_group_name_H-M "C 2/M"
_symmetry_group_IT_number 12
_symmetry_cell_setting 'monoclinic'
loop_
_space_group_symop_operation_xyz
x,y,z
-x,y,-z
-x,-y,-z
x,-y,z
1/2+x,1/2+y,z
1/2-x,1/2+y,-z
1/2-x,1/2-y,-z
1/2+x,1/2-y,z
loop_
_atom_site_type_symbol
_atom_site_label
_atom_site_fract_x
_atom_site_fract_y
_atom_site_fract_z
Si Si1 0.785931 0.600816 0.886504
Si Si2 0.611685 0.345053 0.772591
Si Si3 0.786384 0.893413 0.971699
Si Si4 0.352864 0.500000 0.402696
Si Si5 0.139835 0.500000 0.372600
Si Si6 0.220088 0.845970 0.273397
Si Si7 0.817002 0.293681 0.127037
O O1 0.715342 0.500000 0.893768
O O2 0.710515 0.611852 0.970606
O O3 0.719599 0.692212 0.881513
O O4 0.056997 0.599549 0.792293
O O5 0.782487 0.416992 0.688928
O O6 0.737459 0.250105 0.715973
O O7 0.369253 0.351743 0.834316
O O8 0.519337 0.360686 0.861275
O O9 0.575180 0.830824 0.030804
O O10 0.747242 0.000000 0.973714
O O11 0.278737 0.500000 0.372897
O O12 0.503609 0.410098 0.358126
O O13 0.122965 0.500000 0.517480
O O14 0.242711 0.814006 0.209283
#
# Coordination Sequence:
#
# PCOD9205051 Si02
#       7
#     8   8   8   4   4   8   8
#     4   9  19  37  58  85 119 165 200 229 275 352
#     4  11  22  37  59  92 120 151 195 245 292 346
#     4  10  21  35  59  85 123 163 198 233 282 345
#     4  11  22  44  67  87 109 151 199 250 308 355
#     4  11  24  40  66  92 114 140 201 258 301 352
#     4  10  21  38  64  85 118 157 195 238 294 355
#     4  10  21  34  59  90 122 160 197 235 279 341
#
# _framework density 20.173725999999998
#
# number of rings (size 3 to 8) (size 9 to 14) (size 15 to 20)
#    0.000    1.833    3.333    0.500    2.333    8.667 
#    1.500    0.000    1.833    4.000    0.000    2.333 
#    0.000    0.000    0.000    0.000    0.000    0.000 
#
# Total GULP energy -133903.593529 kJ/mol
# GULP energy per Si atom -5579.316397 kJ/mol
# Density = 2.012781 g / cm^3
# Si number density = 20.173726 Si / 1000 Ang^3
#
#
#
# Elastic Constant Matrix: (Units=GPa)
#
#
# Indices 1 2 3 4 5 6 
#
# 1 57.5194 35.3419 29.3897 0.0068 -11.1104 -0.0008
# 2 35.3419 169.3336 68.5520 0.0000 -12.6444 -0.0004
# 3 29.3897 68.5520 140.3922 0.0253 -21.0826 -0.0012
# 4 0.0068 0.0000 0.0253 9.9540 -0.0088 -10.3146
# 5 -11.1104 -12.6444 -21.0826 -0.0088 24.8890 0.0013
# 6 -0.0008 -0.0004 -0.0012 -10.3146 0.0013 27.4447
#
#
#
# Elastic Compliance Matrix: (Units=1/GPa)
#
#
# Indices 1 2 3 4 5 6 
#
# 1 0.021611 -0.003230 -0.001999 -0.000006 0.006313 -0.000002
# 2 -0.003230 0.007857 -0.003182 0.000016 -0.000146 0.000006
# 3 -0.001999 -0.003182 0.009989 -0.000031 0.005952 -0.000011
# 4 -0.000006 0.000016 -0.000031 0.164543 0.000035 0.061841
# 5 0.006313 -0.000146 0.005952 0.000035 0.047964 0.000011
# 6 -0.000002 0.000006 -0.000011 0.061841 0.000011 0.059679
#
#
# Mechanical properties :
#
#
# Convention : Reuss Voigt Hill
#
# Bulk Modulus (GPa) = 44.17962 70.42361 57.30161
# Shear Modulus (GPa) = 14.88054 28.05500 21.46777
#
# Velocity S-wave (km/s) = 2.71886 3.73321 3.26566
# Velocity P-wave (km/s) = 5.63945 7.31894 6.53339
#
# Compressibility (1/GPa) = 0.02263487
#
# Stress axis : x y z
#
# Youngs Moduli (GPa) = 46.27347 127.27515 100.10919
#
# Poissons Ratio (x) = 0.41107 0.20011
# Poissons Ratio (y) = 0.14945 0.31857
# Poissons Ratio (z) = 0.09250 0.40502
#
# Static dielectric constant tensor:
#      x y z
#    x 1.810780 0.000000 0.005750 
#    y 0.000000 1.778490 0.000000 
#    z 0.005750 0.000000 1.681680 
# 
# From -- ./inp_files/358355.got.cif
#   From: 2010.05.17/outbox.cif.g08.bks.cpg/sg12_180_cif.got.tgz:358355.got - 2010.06.03 13:09:07.
