data_PCOD9205149
_publ_section_title
;
Structure prediction by ZEFSAII (Michael W. Deem and Ramdas Pophale) SiO2 
 PCOD9205149
Probable space group: C 2/M
;
_chemical_formula_sum "Si O2"
_cell_formula_units_Z 56
_cell_length_a 15.118667
_cell_length_b 7.617277
_cell_length_c 22.798212
_cell_angle_alpha 90.000000
_cell_angle_beta 90.259686
_cell_angle_gamma 90.000000
_cell_volume 2625.485218
_symmetry_space_group_name_H-M "C 2/M"
_symmetry_group_IT_number 12
_symmetry_cell_setting 'monoclinic'
loop_
_space_group_symop_operation_xyz
x,y,z
-x,y,-z
-x,-y,-z
x,-y,z
1/2+x,1/2+y,z
1/2-x,1/2+y,-z
1/2-x,1/2-y,-z
1/2+x,1/2-y,z
loop_
_atom_site_type_symbol
_atom_site_label
_atom_site_fract_x
_atom_site_fract_y
_atom_site_fract_z
Si Si1 0.644313 0.209173 0.434966
Si Si2 0.977398 0.289524 0.212503
Si Si3 0.997768 0.715476 0.345006
Si Si4 0.150704 0.288503 0.565797
Si Si5 0.179146 0.788724 0.867590
Si Si6 0.119966 0.707471 0.120369
Si Si7 0.145414 0.207937 0.992190
O O1 0.582316 0.275145 0.382863
O O2 0.747409 0.241573 0.424108
O O3 0.624232 0.277245 0.500629
O O4 0.629843 0.000000 0.437398
O O5 0.986944 0.500000 0.214276
O O6 0.994565 0.223260 0.278082
O O7 0.879147 0.253350 0.188688
O O8 0.047142 0.219156 0.164564
O O9 0.998170 0.500000 0.343296
O O10 0.912983 0.771583 0.382721
O O11 0.144640 0.500000 0.563997
O O12 0.280300 0.721870 0.868161
O O13 0.184176 0.000000 0.872862
O O14 0.128483 0.723519 0.926427
O O15 0.124990 0.500000 0.131361
O O16 0.099218 0.727278 0.051138
O O17 0.132028 0.000000 0.992176
O O18 0.250000 0.250000 0.000000
#
# Coordination Sequence:
#
# PCOD9205149 Si02
#       7
#     8   8   8   8   8   8   8
#     4   9  17  31  53  77  99 128 165 203 246 294
#     4  10  21  35  51  72  98 133 174 205 235 288
#     4   9  18  33  51  71  99 135 170 201 239 292
#     4   9  17  31  52  77 102 127 161 206 250 290
#     4   9  19  35  52  72 100 129 159 202 253 297
#     4   9  19  35  52  72 100 131 163 203 249 295
#     4   9  17  31  53  77  99 126 161 203 252 299
#
# _framework density 21.32939
#
# number of rings (size 3 to 8) (size 9 to 14) (size 15 to 20)
#    0.000    2.857    0.000    1.714    0.000    6.857 
#    0.000    6.429    0.000    3.429    0.000    0.000 
#    0.000    0.000    0.000    0.000    0.000    0.000 
#
# Total GULP energy -156203.262002 kJ/mol
# GULP energy per Si atom -5578.687929 kJ/mol
# Density = 2.128084 g / cm^3
# Si number density = 21.329390 Si / 1000 Ang^3
#
#
#
# Elastic Constant Matrix: (Units=GPa)
#
#
# Indices 1 2 3 4 5 6 
#
# 1 47.1540 -0.0977 38.5779 0.0000 8.7547 0.0000
# 2 -0.0977 39.4980 -0.6462 0.0000 -0.4997 0.0000
# 3 38.5779 -0.6462 124.3416 0.0000 14.1840 0.0000
# 4 0.0000 0.0000 0.0000 12.2428 0.0000 4.1191
# 5 8.7547 -0.4997 14.1840 0.0000 32.4352 0.0000
# 6 0.0000 0.0000 0.0000 4.1191 0.0000 17.8998
#
#
#
# Elastic Compliance Matrix: (Units=1/GPa)
#
#
# Indices 1 2 3 4 5 6 
#
# 1 0.028928 -0.000119 -0.008509 0.000000 -0.004089 0.000000
# 2 -0.000119 0.025324 0.000127 0.000000 0.000367 0.000000
# 3 -0.008509 0.000127 0.010968 0.000000 -0.002498 0.000000
# 4 0.000000 0.000000 0.000000 0.088536 0.000000 -0.020374
# 5 -0.004089 0.000367 -0.002498 0.000000 0.033032 0.000000
# 6 0.000000 0.000000 0.000000 -0.020374 0.000000 0.060555
#
#
# Mechanical properties :
#
#
# Convention : Reuss Voigt Hill
#
# Bulk Modulus (GPa) = 20.73996 31.85130 26.29563
# Shear Modulus (GPa) = 17.83053 24.05954 20.94503
#
# Velocity S-wave (km/s) = 2.89443 3.36221 3.13706
# Velocity P-wave (km/s) = 4.57330 5.48070 5.04744
#
# Compressibility (1/GPa) = 0.04821610
#
# Stress axis : x y z
#
# Youngs Moduli (GPa) = 34.56911 39.48796 91.17457
#
# Poissons Ratio (x) = 0.00472 0.77582
# Poissons Ratio (y) = 0.00413 -0.01156
# Poissons Ratio (z) = 0.29416 -0.00501
#
# Static dielectric constant tensor:
#      x y z
#    x 1.762410 0.000000 -0.006450 
#    y 0.000000 1.765550 0.000000 
#    z -0.006450 0.000000 1.775250 
# 
# From -- ./inp_files/309016.got.cif
#   From: 2010.05.17/outbox.cif.g08.bks.cpg/sg12_155_cif.got.tgz:309016.got - 2010.06.03 13:09:07.
