data_PCOD9205801
_publ_section_title
;
Structure prediction by ZEFSAII (Michael W. Deem and Ramdas Pophale) SiO2 
 PCOD9205801
Probable space group: C 2/M
;
_chemical_formula_sum "Si O2"
_cell_formula_units_Z 56
_cell_length_a 23.390130
_cell_length_b 29.141215
_cell_length_c 12.322853
_cell_angle_alpha 90.000000
_cell_angle_beta 160.173581
_cell_angle_gamma 90.000000
_cell_volume 2848.860581
_symmetry_space_group_name_H-M "C 2/M"
_symmetry_group_IT_number 12
_symmetry_cell_setting 'monoclinic'
loop_
_space_group_symop_operation_xyz
x,y,z
-x,y,-z
-x,-y,-z
x,-y,z
1/2+x,1/2+y,z
1/2-x,1/2+y,-z
1/2-x,1/2-y,-z
1/2+x,1/2-y,z
loop_
_atom_site_type_symbol
_atom_site_label
_atom_site_fract_x
_atom_site_fract_y
_atom_site_fract_z
Si Si1 0.567414 0.758677 0.724799
Si Si2 0.123956 0.949014 0.323282
Si Si3 0.777174 0.816564 0.231124
Si Si4 0.676875 0.106764 0.879714
Si Si5 0.164807 0.948060 0.021031
Si Si6 0.507820 0.052727 0.763845
Si Si7 0.860383 0.374873 0.825875
O O1 0.500000 0.786432 0.500000
O O2 0.444469 0.715247 0.523713
O O3 0.750000 0.750000 0.000000
O O4 0.611168 0.784966 0.912489
O O5 0.249861 0.907148 0.551351
O O6 0.203608 0.000000 0.463065
O O7 0.000000 0.946663 0.000000
O O8 0.010299 0.945082 0.228558
O O9 0.752059 0.841961 0.299974
O O10 0.757629 0.853052 0.097382
O O11 0.500000 0.116398 0.500000
O O12 0.807121 0.088510 0.022996
O O13 0.625101 0.066525 0.871243
O O14 0.316414 0.942491 0.378843
O O15 0.182699 0.000000 0.009328
O O16 0.534831 0.000000 0.844798
O O17 0.551369 0.089282 0.933685
O O18 0.000000 0.351080 0.000000
#
# Coordination Sequence:
#
# PCOD9205801 Si02
#       7
#     8   8   8   8   8   8   8
#     4   9  19  37  61  86 110 137 168 208 270 344
#     4  10  21  36  53  77 111 152 195 232 267 311
#     4  10  21  38  59  85 112 138 177 226 277 336
#     4   9  17  30  53  86 119 148 181 222 272 327
#     4   9  17  30  50  78 114 155 192 225 265 315
#     4   9  17  31  53  80 114 155 192 226 264 312
#     4  11  23  38  56  81 109 142 188 235 274 317
#
# _framework density 19.656980999999998
#
# number of rings (size 3 to 8) (size 9 to 14) (size 15 to 20)
#    0.000    2.429    0.000    2.143    0.000    7.429 
#    0.000    8.571    0.000    7.714    0.000    0.000 
#    0.000    0.000    0.000    0.000    0.000    7.143 
#
# Total GULP energy -156019.589984 kJ/mol
# GULP energy per Si atom -5572.128214 kJ/mol
# Density = 1.961224 g / cm^3
# Si number density = 19.656981 Si / 1000 Ang^3
#
#
#
# Elastic Constant Matrix: (Units=GPa)
#
#
# Indices 1 2 3 4 5 6 
#
# 1 82.4343 36.5479 14.3415 0.0000 3.3809 0.0000
# 2 36.5479 78.7652 25.1970 0.0000 7.1937 0.0000
# 3 14.3415 25.1970 45.4539 0.0001 0.3687 0.0000
# 4 0.0000 0.0000 0.0001 25.9524 0.0000 -0.6800
# 5 3.3809 7.1937 0.3687 0.0000 21.2731 0.0000
# 6 0.0000 0.0000 0.0000 -0.6800 0.0000 12.3177
#
#
#
# Elastic Compliance Matrix: (Units=1/GPa)
#
#
# Indices 1 2 3 4 5 6 
#
# 1 0.015317 -0.006746 -0.001092 0.000000 -0.000134 0.000000
# 2 -0.006746 0.018970 -0.008346 0.000000 -0.005198 0.000000
# 3 -0.001092 -0.008346 0.026951 0.000000 0.002529 0.000000
# 4 0.000000 0.000000 0.000000 0.038588 0.000000 0.002130
# 5 -0.000134 -0.005198 0.002529 0.000000 0.048743 0.000000
# 6 0.000000 0.000000 0.000000 0.002130 0.000000 0.081301
#
#
# Mechanical properties :
#
#
# Convention : Reuss Voigt Hill
#
# Bulk Modulus (GPa) = 34.63652 39.86957 37.25305
# Shear Modulus (GPa) = 18.39171 20.61312 19.50241
#
# Velocity S-wave (km/s) = 3.06213 3.24179 3.15324
# Velocity P-wave (km/s) = 5.49189 5.85994 5.67890
#
# Compressibility (1/GPa) = 0.02887126
#
# Stress axis : x y z
#
# Youngs Moduli (GPa) = 65.28634 52.71345 37.10465
#
# Poissons Ratio (x) = 0.35558 0.04053
# Poissons Ratio (y) = 0.44039 0.30966
# Poissons Ratio (z) = 0.07132 0.43993
#
# Static dielectric constant tensor:
#      x y z
#    x 1.704050 0.000000 -0.023840 
#    y 0.000000 1.721340 0.000000 
#    z -0.023840 0.000000 1.625390 
# 
# From -- ./inp_files/125210.got.cif
#   From: 2010.05.17/outbox.cif.g08.bks.cpg/sg12_63_cif.got.tgz:125210.got - 2010.06.03 13:09:07.
