data_PCOD9205646
_publ_section_title
;
Structure prediction by ZEFSAII (Michael W. Deem and Ramdas Pophale) SiO2 
 PCOD9205646
Probable space group: C 2/M
;
_chemical_formula_sum "Si O2"
_cell_formula_units_Z 64
_cell_length_a 32.115553
_cell_length_b 15.757227
_cell_length_c 12.318381
_cell_angle_alpha 90.000000
_cell_angle_beta 31.139995
_cell_angle_gamma 90.000000
_cell_volume 3223.660742
_symmetry_space_group_name_H-M "C 2/M"
_symmetry_group_IT_number 12
_symmetry_cell_setting 'monoclinic'
loop_
_space_group_symop_operation_xyz
x,y,z
-x,y,-z
-x,-y,-z
x,-y,z
1/2+x,1/2+y,z
1/2-x,1/2+y,-z
1/2-x,1/2-y,-z
1/2+x,1/2-y,z
loop_
_atom_site_type_symbol
_atom_site_label
_atom_site_fract_x
_atom_site_fract_y
_atom_site_fract_z
Si Si1 0.077091 0.792648 0.405921
Si Si2 0.058801 0.096440 0.664108
Si Si3 0.153131 0.716747 0.785138
Si Si4 0.688393 0.591931 0.022632
Si Si5 0.180916 0.783940 0.497933
Si Si6 0.629643 0.407446 0.905935
Si Si7 0.358615 0.154485 0.591771
Si Si8 0.992272 0.403106 0.886195
O O1 0.062114 0.852160 0.543995
O O2 0.096837 0.699746 0.407754
O O3 0.000000 0.793802 0.500000
O O4 0.152094 0.832668 0.174242
O O5 0.112548 0.146236 0.631473
O O6 0.965431 0.093888 0.904442
O O7 0.087094 0.000000 0.587495
O O8 0.157421 0.718264 0.645464
O O9 0.232908 0.678469 0.661339
O O10 0.159155 0.817407 0.796526
O O11 0.073143 0.668471 0.000431
O O12 0.666119 0.500000 0.120521
O O13 0.784301 0.597659 0.794535
O O14 0.648558 0.595014 0.992050
O O15 0.183974 0.730272 0.381146
O O16 0.661619 0.500000 0.795253
O O17 0.425173 0.113715 0.363656
O O18 0.965640 0.500000 0.922563
O O19 0.000000 0.396863 0.000000
#
# Coordination Sequence:
#
# PCOD9205646 Si02
#       8
#     8   8   8   8   8   8   8   8
#     4  11  22  37  64  91 119 166 210 257 320 386
#     4  10  21  37  57  86 122 155 200 255 311 374
#     4  11  21  40  60  87 127 161 204 253 311 377
#     4  11  22  38  60  91 125 159 209 263 311 373
#     4  10  22  36  59  87 119 162 201 251 314 375
#     4  10  21  35  60  91 123 161 199 248 308 375
#     4  11  22  41  60  90 124 160 211 263 308 366
#     4  11  24  41  66  93 121 167 218 258 306 371
#
# _framework density 19.853206
#
# number of rings (size 3 to 8) (size 9 to 14) (size 15 to 20)
#    0.000    1.375    3.750    2.625    0.000    1.500 
#    0.000    3.125    0.000    4.500    0.000    0.000 
#    0.000    0.000    0.000    0.000    0.000    0.000 
#
# Total GULP energy -178555.985416 kJ/mol
# GULP energy per Si atom -5579.874544 kJ/mol
# Density = 1.980802 g / cm^3
# Si number density = 19.853206 Si / 1000 Ang^3
#
#
#
# Elastic Constant Matrix: (Units=GPa)
#
#
# Indices 1 2 3 4 5 6 
#
# 1 83.9066 27.3639 26.4845 0.0000 -17.0651 0.0000
# 2 27.3639 85.5049 22.0184 0.0000 -8.6185 0.0000
# 3 26.4845 22.0184 88.6648 0.0000 -11.7660 0.0000
# 4 0.0000 0.0000 0.0000 -18.3265 0.0000 69.2270
# 5 -17.0651 -8.6185 -11.7660 0.0000 23.8108 0.0000
# 6 0.0000 0.0000 0.0000 69.2270 0.0000 -87.8775
#
#
#
# Elastic Compliance Matrix: (Units=1/GPa)
#
#
# Indices 1 2 3 4 5 6 
#
# 1 0.015643 -0.003447 -0.002669 0.000000 0.008644 0.000000
# 2 -0.003447 0.013486 -0.002140 0.000000 0.001353 0.000000
# 3 -0.002669 -0.002140 0.013110 0.000000 0.003791 0.000000
# 4 0.000000 0.000000 0.000000 0.027618 0.000000 0.021757
# 5 0.008644 0.001353 0.003791 0.000000 0.050556 0.000000
# 6 0.000000 0.000000 0.000000 0.021757 0.000000 0.005760
#
#
# Mechanical properties :
#
#
# Convention : Reuss Voigt Hill
#
# Bulk Modulus (GPa) = 38.87112 45.53444 42.20278
# Shear Modulus (GPa) = 33.05543 -4.33133 14.36205
#
# Velocity S-wave (km/s) = 4.08486 -1.47865 2.69255
# Velocity P-wave (km/s) = 6.47069 4.47997 5.56507
#
# Compressibility (1/GPa) = 0.02572604
#
# Stress axis : x y z
#
# Youngs Moduli (GPa) = 63.92643 74.15151 76.27668
#
# Poissons Ratio (x) = 0.25564 0.20361
# Poissons Ratio (y) = 0.22039 0.16321
# Poissons Ratio (z) = 0.17064 0.15866
#
# Static dielectric constant tensor:
#      x y z
#    x 1.703120 0.000000 0.004300 
#    y 0.000000 1.733640 0.000000 
#    z 0.004300 0.000000 1.707200 
# 
# From -- ./inp_files/190042.got.cif
#   From: 2010.05.17/outbox.cif.g08.bks.cpg/sg12_96_cif.got.tgz:190042.got - 2010.06.03 13:09:07.
