data_PCOD9205647
_publ_section_title
;
Structure prediction by ZEFSAII (Michael W. Deem and Ramdas Pophale) SiO2 
 PCOD9205647
Probable space group: C 2/M
;
_chemical_formula_sum "Si O2"
_cell_formula_units_Z 60
_cell_length_a 21.046407
_cell_length_b 25.746671
_cell_length_c 8.860374
_cell_angle_alpha 90.000000
_cell_angle_beta 141.646878
_cell_angle_gamma 90.000000
_cell_volume 2979.184151
_symmetry_space_group_name_H-M "C 2/M"
_symmetry_group_IT_number 12
_symmetry_cell_setting 'monoclinic'
loop_
_space_group_symop_operation_xyz
x,y,z
-x,y,-z
-x,-y,-z
x,-y,z
1/2+x,1/2+y,z
1/2-x,1/2+y,-z
1/2-x,1/2-y,-z
1/2+x,1/2-y,z
loop_
_atom_site_type_symbol
_atom_site_label
_atom_site_fract_x
_atom_site_fract_y
_atom_site_fract_z
Si Si1 0.102366 0.709492 0.268671
Si Si2 0.812787 0.061434 0.489897
Si Si3 0.170800 0.395396 0.471481
Si Si4 0.213013 0.128989 0.851475
Si Si5 0.362892 0.337229 0.987981
Si Si6 0.000000 0.115691 0.000000
Si Si7 0.618172 0.941522 0.679796
Si Si8 0.244297 0.269526 0.255292
O O1 0.088444 0.650276 0.295484
O O2 0.190365 0.707527 0.304419
O O3 0.148648 0.744726 0.487906
O O4 0.000000 0.729435 0.000000
O O5 0.711358 0.078433 0.394372
O O6 0.820751 0.092892 0.349218
O O7 0.908521 0.079729 0.769646
O O8 0.813381 0.000000 0.467659
O O9 0.268145 0.364853 0.724471
O O10 0.134111 0.434899 0.530341
O O11 0.240736 0.185248 0.836157
O O12 0.133347 0.137708 0.839471
O O13 0.311532 0.100880 0.107813
O O14 0.328799 0.277315 0.934909
O O15 0.459143 0.349114 0.061716
O O16 0.500000 0.934007 0.500000
O O17 0.648805 0.000000 0.782533
#
# Coordination Sequence:
#
# PCOD9205647 Si02
#       8
#     8   8   8   8   8   4   8   8
#     4  10  21  35  60  92 124 162 204 253 307 369
#     4  11  22  39  64  89 121 163 208 260 313 364
#     4   9  19  38  59  86 117 158 203 247 308 370
#     4  11  22  40  61  89 124 157 201 257 311 363
#     4   9  21  39  62  83 121 159 198 252 308 368
#     4  10  23  42  62  90 120 164 215 252 300 382
#     4  10  22  39  60  86 121 160 202 251 308 369
#     4  10  21  38  60  91 125 165 202 250 313 378
#
# _framework density 20.139741999999998
#
# number of rings (size 3 to 8) (size 9 to 14) (size 15 to 20)
#    0.000    2.000    1.333    1.400    4.667    0.533 
#    0.000    2.667    2.933    3.200    0.000    0.000 
#    0.000    0.000    0.000    0.000    0.000    0.000 
#
# Total GULP energy -167525.484281 kJ/mol
# GULP energy per Si atom -5584.182809 kJ/mol
# Density = 2.009390 g / cm^3
# Si number density = 20.139742 Si / 1000 Ang^3
#
#
#
# Elastic Constant Matrix: (Units=GPa)
#
#
# Indices 1 2 3 4 5 6 
#
# 1 115.2995 59.2827 24.3603 0.0000 -21.7847 0.0000
# 2 59.2827 141.4745 32.0732 0.0000 -9.5784 0.0000
# 3 24.3603 32.0732 49.4268 0.0000 -8.7664 0.0000
# 4 0.0000 0.0000 0.0000 49.8145 0.0000 29.6267
# 5 -21.7847 -9.5784 -8.7664 0.0000 29.8866 0.0000
# 6 0.0000 0.0000 0.0000 29.6267 0.0000 96.5071
#
#
#
# Elastic Compliance Matrix: (Units=1/GPa)
#
#
# Indices 1 2 3 4 5 6 
#
# 1 0.012742 -0.004357 -0.002166 0.000000 0.007256 0.000000
# 2 -0.004357 0.009814 -0.004458 0.000000 -0.001338 0.000000
# 3 -0.002166 -0.004458 0.024957 0.000000 0.004313 0.000000
# 4 0.000000 0.000000 0.000000 0.024558 0.000000 -0.007539
# 5 0.007256 -0.001338 0.004313 0.000000 0.039585 0.000000
# 6 0.000000 0.000000 0.000000 -0.007539 0.000000 0.012676
#
#
# Mechanical properties :
#
#
# Convention : Reuss Voigt Hill
#
# Bulk Modulus (GPa) = 39.13722 59.73704 49.43713
# Shear Modulus (GPa) = 32.29713 47.94064 40.11888
#
# Velocity S-wave (km/s) = 4.00891 4.88423 4.46805
# Velocity P-wave (km/s) = 6.39558 7.84431 7.15670
#
# Compressibility (1/GPa) = 0.02555112
#
# Stress axis : x y z
#
# Youngs Moduli (GPa) = 78.48188 101.89194 40.06830
#
# Poissons Ratio (x) = 0.44395 0.08677
# Poissons Ratio (y) = 0.34195 0.17864
# Poissons Ratio (z) = 0.16997 0.45429
#
# Static dielectric constant tensor:
#      x y z
#    x 1.707430 0.000000 -0.009270 
#    y 0.000000 1.713940 0.000000 
#    z -0.009270 0.000000 1.720580 
# 
# From -- ./inp_files/91256.got.cif
#   From: 2010.05.17/outbox.cif.g08.bks.cpg/sg12_46_cif.got.tgz:91256.got - 2010.06.03 13:09:07.
