data_PCOD9205410
_publ_section_title
;
Structure prediction by ZEFSAII (Michael W. Deem and Ramdas Pophale) SiO2 
 PCOD9205410
Probable space group: C 2/M
;
_chemical_formula_sum "Si O2"
_cell_formula_units_Z 64
_cell_length_a 16.647512
_cell_length_b 17.014162
_cell_length_c 14.017157
_cell_angle_alpha 90.000000
_cell_angle_beta 133.404364
_cell_angle_gamma 90.000000
_cell_volume 2884.488479
_symmetry_space_group_name_H-M "C 2/M"
_symmetry_group_IT_number 12
_symmetry_cell_setting 'monoclinic'
loop_
_space_group_symop_operation_xyz
x,y,z
-x,y,-z
-x,-y,-z
x,-y,z
1/2+x,1/2+y,z
1/2-x,1/2+y,-z
1/2-x,1/2-y,-z
1/2+x,1/2-y,z
loop_
_atom_site_type_symbol
_atom_site_label
_atom_site_fract_x
_atom_site_fract_y
_atom_site_fract_z
Si Si1 0.581978 0.408724 0.989393
Si Si2 0.958208 0.220735 0.361537
Si Si3 0.892683 0.737982 0.699300
Si Si4 0.902204 0.091179 0.702789
Si Si5 0.614305 0.185448 0.967909
Si Si6 0.215091 0.912702 0.795331
Si Si7 0.239660 0.913059 0.588492
Si Si8 0.219184 0.319461 0.843192
O O1 0.569066 0.500000 0.986044
O O2 0.526152 0.391687 0.841458
O O3 0.500000 0.371246 0.000000
O O4 0.709819 0.395683 0.112931
O O5 0.875481 0.153350 0.254879
O O6 0.873926 0.294058 0.305594
O O7 0.000000 0.198425 0.500000
O O8 0.046622 0.245647 0.353247
O O9 0.846655 0.825073 0.690842
O O10 0.807717 0.665906 0.620572
O O11 0.985949 0.705813 0.849741
O O12 0.871624 0.088609 0.566057
O O13 0.873512 0.000000 0.711811
O O14 0.661773 0.179025 0.899413
O O15 0.664572 0.111459 0.065304
O O16 0.679513 0.257584 0.068719
O O17 0.219882 0.912253 0.684728
O O18 0.184277 0.000000 0.803526
O O19 0.291680 0.000000 0.608871
#
# Coordination Sequence:
#
# PCOD9205410 Si02
#       8
#     8   8   8   8   8   8   8   8
#     4  10  21  35  55  84 113 148 196 249 301 352
#     4  10  22  38  60  90 120 157 203 250 304 373
#     4  11  21  38  63  89 125 164 211 253 309 370
#     4  10  21  37  59  89 123 158 202 254 314 370
#     4   9  19  35  55  83 111 157 201 239 291 356
#     4  10  22  39  60  89 128 162 201 255 311 371
#     4  10  23  41  60  90 129 169 208 250 306 375
#     4   9  18  37  54  77 117 146 194 243 290 355
#
# _framework density 22.187642
#
# number of rings (size 3 to 8) (size 9 to 14) (size 15 to 20)
#    0.000    2.125    1.250    1.875    0.000    5.250 
#    0.000    3.125    0.000    0.750    0.000    0.875 
#    0.000    0.000    0.000    0.000    0.000    0.000 
#
# Total GULP energy -178175.411466 kJ/mol
# GULP energy per Si atom -5567.981608 kJ/mol
# Density = 2.213714 g / cm^3
# Si number density = 22.187642 Si / 1000 Ang^3
#
#
#
# Elastic Constant Matrix: (Units=GPa)
#
#
# Indices 1 2 3 4 5 6 
#
# 1 45.1780 32.0778 11.1461 0.0000 1.9981 0.0000
# 2 32.0778 116.1485 39.0190 0.0000 -1.6132 0.0000
# 3 11.1461 39.0190 98.4948 0.0000 7.1222 0.0000
# 4 0.0000 0.0000 0.0000 35.7318 0.0000 4.6142
# 5 1.9981 -1.6132 7.1222 0.0000 13.3900 0.0000
# 6 0.0000 0.0000 0.0000 4.6142 0.0000 13.8806
#
#
#
# Elastic Compliance Matrix: (Units=1/GPa)
#
#
# Indices 1 2 3 4 5 6 
#
# 1 0.027887 -0.007895 0.000355 0.000000 -0.005301 0.000000
# 2 -0.007895 0.012319 -0.004347 0.000000 0.004974 0.000000
# 3 0.000355 -0.004347 0.012351 0.000000 -0.007146 0.000000
# 4 0.000000 0.000000 0.000000 0.029242 0.000000 -0.009720
# 5 -0.005301 0.004974 -0.007146 0.000000 0.079874 0.000000
# 6 0.000000 0.000000 0.000000 -0.009720 0.000000 0.075274
#
#
# Mechanical properties :
#
#
# Convention : Reuss Voigt Hill
#
# Bulk Modulus (GPa) = 34.74022 47.14524 40.94273
# Shear Modulus (GPa) = 18.49690 24.43902 21.46796
#
# Velocity S-wave (km/s) = 2.89045 3.32244 3.11394
# Velocity P-wave (km/s) = 5.17987 6.00106 5.60552
#
# Compressibility (1/GPa) = 0.02878508
#
# Stress axis : x y z
#
# Youngs Moduli (GPa) = 35.85888 81.17324 80.96294
#
# Poissons Ratio (x) = 0.64084 -0.02874
# Poissons Ratio (y) = 0.28310 0.35192
# Poissons Ratio (z) = -0.01273 0.35283
#
# Static dielectric constant tensor:
#      x y z
#    x 1.893160 0.000000 -0.001360 
#    y 0.000000 1.974260 0.000000 
#    z -0.001360 0.000000 1.862370 
# 
# From -- ./inp_files/226899.got.cif
#   From: 2010.05.17/outbox.cif.g08.bks.cpg/sg12_114_cif.got.tgz:226899.got - 2010.06.03 13:09:07.
