data_PCOD9205928
_publ_section_title
;
Structure prediction by ZEFSAII (Michael W. Deem and Ramdas Pophale) SiO2 
 PCOD9205928
Probable space group: C 2/M
;
_chemical_formula_sum "Si O2"
_cell_formula_units_Z 56
_cell_length_a 18.361525
_cell_length_b 11.408876
_cell_length_c 15.365380
_cell_angle_alpha 90.000000
_cell_angle_beta 107.180549
_cell_angle_gamma 90.000000
_cell_volume 3075.179464
_symmetry_space_group_name_H-M "C 2/M"
_symmetry_group_IT_number 12
_symmetry_cell_setting 'monoclinic'
loop_
_space_group_symop_operation_xyz
x,y,z
-x,y,-z
-x,-y,-z
x,-y,z
1/2+x,1/2+y,z
1/2-x,1/2+y,-z
1/2-x,1/2-y,-z
1/2+x,1/2-y,z
loop_
_atom_site_type_symbol
_atom_site_label
_atom_site_fract_x
_atom_site_fract_y
_atom_site_fract_z
Si Si1 0.305397 0.791793 0.145332
Si Si2 0.652811 0.632096 0.004331
Si Si3 0.472474 0.135718 0.221271
Si Si4 0.215223 0.631077 0.238151
Si Si5 0.791435 0.363907 0.556109
Si Si6 0.966960 0.363165 0.576004
Si Si7 0.941236 0.306471 0.911985
O O1 0.233901 0.863546 0.083123
O O2 0.381521 0.863274 0.189779
O O3 0.273330 0.723253 0.217385
O O4 0.330135 0.700749 0.078619
O O5 0.629182 0.500000 0.979355
O O6 0.591748 0.698999 0.043152
O O7 0.501760 0.185719 0.322746
O O8 0.507447 0.210797 0.155222
O O9 0.499419 0.000000 0.218939
O O10 0.245922 0.500000 0.238098
O O11 0.202419 0.650343 0.336577
O O12 0.136326 0.637660 0.154768
O O13 0.762037 0.500000 0.530921
O O14 0.750000 0.250000 0.500000
O O15 0.876307 0.361526 0.547075
O O16 0.992188 0.500000 0.586616
O O17 0.000000 0.308837 0.500000
O O18 0.000000 0.368807 0.000000
#
# Coordination Sequence:
#
# PCOD9205928 Si02
#       7
#     8   8   8   8   8   8   8
#     4  10  21  36  54  83 107 145 196 231 279 339
#     4  10  21  38  53  74 114 153 189 233 278 336
#     4  11  21  36  57  84 114 143 189 245 288 336
#     4  10  21  38  59  82 116 154 191 238 286 347
#     4  10  21  39  62  89 119 154 195 243 299 359
#     4   9  19  36  60  87 112 143 185 242 300 343
#     4  11  21  37  55  85 112 148 193 235 283 344
#
# _framework density 18.210319999999999
#
# number of rings (size 3 to 8) (size 9 to 14) (size 15 to 20)
#    0.000    1.857    2.857    1.286    2.000    1.429 
#    0.000    2.857    0.000    2.143    0.000    0.000 
#    0.000    0.000    0.000    0.000    0.000    0.000 
#
# Total GULP energy -155934.214002 kJ/mol
# GULP energy per Si atom -5569.079072 kJ/mol
# Density = 1.816887 g / cm^3
# Si number density = 18.210320 Si / 1000 Ang^3
#
#
#
# Elastic Constant Matrix: (Units=GPa)
#
#
# Indices 1 2 3 4 5 6 
#
# 1 100.4117 24.8355 30.4175 0.0000 -18.5604 0.0000
# 2 24.8355 83.0624 34.2110 0.0000 -6.9661 0.0000
# 3 30.4175 34.2110 98.7376 0.0000 -17.2071 0.0000
# 4 0.0000 0.0000 0.0000 -20.7288 0.0000 26.2938
# 5 -18.5604 -6.9661 -17.2071 0.0000 35.2407 0.0000
# 6 0.0000 0.0000 0.0000 26.2938 0.0000 -9.4946
#
#
#
# Elastic Compliance Matrix: (Units=1/GPa)
#
#
# Indices 1 2 3 4 5 6 
#
# 1 0.012066 -0.002353 -0.002050 0.000000 0.004889 0.000000
# 2 -0.002353 0.014508 -0.004392 0.000000 -0.000516 0.000000
# 3 -0.002050 -0.004392 0.013052 0.000000 0.004425 0.000000
# 4 0.000000 0.000000 0.000000 0.019198 0.000000 0.053167
# 5 0.004889 -0.000516 0.004425 0.000000 0.033010 0.000000
# 6 0.000000 0.000000 0.000000 0.053167 0.000000 0.041914
#
#
# Mechanical properties :
#
#
# Convention : Reuss Voigt Hill
#
# Bulk Modulus (GPa) = 45.37936 51.23774 48.30855
# Shear Modulus (GPa) = 31.50917 13.85332 22.68124
#
# Velocity S-wave (km/s) = 4.16419 2.76114 3.53302
# Velocity P-wave (km/s) = 6.93501 6.19378 6.57485
#
# Compressibility (1/GPa) = 0.02203645
#
# Stress axis : x y z
#
# Youngs Moduli (GPa) = 82.88019 68.92549 76.61554
#
# Poissons Ratio (x) = 0.16221 0.15703
# Poissons Ratio (y) = 0.19505 0.33648
# Poissons Ratio (z) = 0.16987 0.30271
#
# Static dielectric constant tensor:
#      x y z
#    x 1.618520 0.000000 0.005150 
#    y 0.000000 1.618750 0.000000 
#    z 0.005150 0.000000 1.660080 
# 
# From -- ./inp_files/223119.got.cif
#   From: 2010.05.17/outbox.cif.g08.bks.cpg/sg12_112_cif.got.tgz:223119.got - 2010.06.03 13:09:07.
