data_PCOD9205435
_publ_section_title
;
Structure prediction by ZEFSAII (Michael W. Deem and Ramdas Pophale) SiO2 
 PCOD9205435
Probable space group: C 2/M
;
_chemical_formula_sum "Si O2"
_cell_formula_units_Z 58
_cell_length_a 24.344118
_cell_length_b 9.134938
_cell_length_c 12.872372
_cell_angle_alpha 90.000000
_cell_angle_beta 94.921849
_cell_angle_gamma 90.000000
_cell_volume 2852.028595
_symmetry_space_group_name_H-M "C 2/M"
_symmetry_group_IT_number 12
_symmetry_cell_setting 'monoclinic'
loop_
_space_group_symop_operation_xyz
x,y,z
-x,y,-z
-x,-y,-z
x,-y,z
1/2+x,1/2+y,z
1/2-x,1/2+y,-z
1/2-x,1/2-y,-z
1/2+x,1/2-y,z
loop_
_atom_site_type_symbol
_atom_site_label
_atom_site_fract_x
_atom_site_fract_y
_atom_site_fract_z
Si Si1 0.786989 0.321905 0.181317
Si Si2 0.832102 0.321723 0.807183
Si Si3 0.355706 0.328895 0.018962
Si Si4 0.129127 0.668716 0.627080
Si Si5 0.500000 0.500000 0.500000
Si Si6 0.004975 0.731737 0.662206
Si Si7 0.382632 0.165414 0.599862
Si Si8 0.520566 0.329313 0.893231
O O1 0.782955 0.500000 0.177443
O O2 0.729103 0.245080 0.195252
O O3 0.810843 0.260251 0.077296
O O4 0.830585 0.273070 0.277672
O O5 0.832510 0.500000 0.814463
O O6 0.858985 0.271181 0.702546
O O7 0.863289 0.249565 0.909668
O O8 0.340203 0.500000 0.002929
O O9 0.413233 0.324700 0.090153
O O10 0.145851 0.500000 0.618371
O O11 0.132367 0.739487 0.512650
O O12 0.065429 0.667360 0.651168
O O13 0.504775 0.375518 0.591973
O O14 0.948697 0.655999 0.617444
O O15 0.000591 0.754873 0.785082
O O16 0.360640 0.000000 0.594193
O O17 0.502978 0.500000 0.886191
O O18 0.500000 0.267456 0.000000
#
# Coordination Sequence:
#
# PCOD9205435 Si02
#       8
#     8   8   8   8   2   8   8   8
#     4  11  23  41  64  92 120 159 207 258 305 362
#     4  11  24  43  62  89 122 160 205 257 309 363
#     4  11  22  40  64  90 119 163 204 251 306 363
#     4  10  21  39  65  89 119 157 205 250 302 364
#     4  12  24  32  60  96 128 168 196 260 288 378
#     4  12  20  39  58  91 126 157 205 243 307 356
#     4  10  22  40  63  87 121 162 202 248 303 365
#     4  10  21  35  55  85 124 162 196 241 299 360
#
# _framework density 20.336403000000001
#
# number of rings (size 3 to 8) (size 9 to 14) (size 15 to 20)
#    0.000    1.241    3.448    2.897    0.000    1.655 
#    3.724    0.000    0.000    3.310    0.000    0.000 
#    0.000    0.000    0.000    0.000    0.000    0.000 
#
# Total GULP energy -161512.916631 kJ/mol
# GULP energy per Si atom -5569.410918 kJ/mol
# Density = 2.029012 g / cm^3
# Si number density = 20.336403 Si / 1000 Ang^3
#
#
#
# Elastic Constant Matrix: (Units=GPa)
#
#
# Indices 1 2 3 4 5 6 
#
# 1 27.4069 3.3146 -4.7437 0.0000 0.3350 0.0000
# 2 3.3146 75.6395 22.7125 0.0000 1.3603 0.0000
# 3 -4.7437 22.7125 140.6080 0.0000 2.1052 0.0000
# 4 0.0000 0.0000 0.0000 23.0056 0.0000 -4.8886
# 5 0.3350 1.3603 2.1052 0.0000 25.9409 0.0000
# 6 0.0000 0.0000 0.0000 -4.8886 0.0000 22.6588
#
#
#
# Elastic Compliance Matrix: (Units=1/GPa)
#
#
# Indices 1 2 3 4 5 6 
#
# 1 0.037022 -0.002092 0.001594 0.000000 -0.000498 0.000000
# 2 -0.002092 0.014021 -0.002328 0.000000 -0.000519 0.000000
# 3 0.001594 -0.002328 0.007549 0.000000 -0.000511 0.000000
# 4 0.000000 0.000000 0.000000 0.045556 0.000000 0.009829
# 5 -0.000498 -0.000519 -0.000511 0.000000 0.038624 0.000000
# 6 0.000000 0.000000 0.000000 0.009829 0.000000 0.046253
#
#
# Mechanical properties :
#
#
# Convention : Reuss Voigt Hill
#
# Bulk Modulus (GPa) = 18.88875 31.80235 25.34555
# Shear Modulus (GPa) = 23.54891 29.14579 26.34735
#
# Velocity S-wave (km/s) = 3.40659 3.78985 3.60332
# Velocity P-wave (km/s) = 4.97809 5.90107 5.45912
#
# Compressibility (1/GPa) = 0.05294157
#
# Stress axis : x y z
#
# Youngs Moduli (GPa) = 27.01080 71.32404 132.46109
#
# Poissons Ratio (x) = 0.14922 -0.21120
# Poissons Ratio (y) = 0.05651 0.30831
# Poissons Ratio (z) = -0.04307 0.16601
#
# Static dielectric constant tensor:
#      x y z
#    x 1.718030 0.000000 0.005190 
#    y 0.000000 1.725490 0.000000 
#    z 0.005190 0.000000 1.762710 
# 
# From -- ./inp_files/180911.got.cif
#   From: 2010.05.17/outbox.cif.g08.bks.cpg/sg12_91_cif.got.tgz:180911.got - 2010.06.03 13:09:07.
