data_PCOD9205361
_publ_section_title
;
Structure prediction by ZEFSAII (Michael W. Deem and Ramdas Pophale) SiO2 
 PCOD9205361
Probable space group: C 2/M
;
_chemical_formula_sum "Si O2"
_cell_formula_units_Z 40
_cell_length_a 15.308745
_cell_length_b 8.725556
_cell_length_c 30.822792
_cell_angle_alpha 90.000000
_cell_angle_beta 150.303328
_cell_angle_gamma 90.000000
_cell_volume 2039.707427
_symmetry_space_group_name_H-M "C 2/M"
_symmetry_group_IT_number 12
_symmetry_cell_setting 'monoclinic'
loop_
_space_group_symop_operation_xyz
x,y,z
-x,y,-z
-x,-y,-z
x,-y,z
1/2+x,1/2+y,z
1/2-x,1/2+y,-z
1/2-x,1/2-y,-z
1/2+x,1/2-y,z
loop_
_atom_site_type_symbol
_atom_site_label
_atom_site_fract_x
_atom_site_fract_y
_atom_site_fract_z
Si Si1 0.664370 0.817335 0.101444
Si Si2 0.517762 0.819918 0.215482
Si Si3 0.217228 0.815254 0.217863
Si Si4 0.615013 0.674296 0.592673
Si Si5 0.065139 0.674429 0.408857
O O1 0.845153 0.768162 0.156091
O O2 0.653696 0.735972 0.143421
O O3 0.662215 0.000000 0.107060
O O4 0.500000 0.775302 0.000000
O O5 0.601189 0.757077 0.206567
O O6 0.674955 0.806402 0.319043
O O7 0.477618 0.000000 0.193442
O O8 0.422560 0.763368 0.312799
O O9 0.214263 0.000000 0.220676
O O10 0.500000 0.681398 0.500000
O O11 0.588734 0.500000 0.599680
O O12 0.544748 0.803398 0.594425
O O13 0.101761 0.500000 0.413003
O O14 0.250000 0.750000 0.500000
#
# Coordination Sequence:
#
# PCOD9205361 Si02
#       5
#     8   8   8   8   8
#     4  11  25  43  64  91 121 157 203 254 309 365
#     4  10  21  39  63  90 123 161 200 249 305 359
#     4  10  22  41  63  88 122 161 203 251 301 359
#     4   9  19  35  55  82 117 154 193 238 290 349
#     4  10  21  35  54  83 117 155 197 239 289 348
#
# _framework density 19.610655999999999
#
# number of rings (size 3 to 8) (size 9 to 14) (size 15 to 20)
#    0.000    2.000    0.000    2.400    2.800    6.000 
#    0.000    0.000    0.000    0.000    0.000    0.000 
#    0.000    0.000    0.000    0.000    0.000    0.000 
#
# Total GULP energy -111564.789345 kJ/mol
# GULP energy per Si atom -5578.239467 kJ/mol
# Density = 1.956602 g / cm^3
# Si number density = 19.610656 Si / 1000 Ang^3
#
#
#
# Elastic Constant Matrix: (Units=GPa)
#
#
# Indices 1 2 3 4 5 6 
#
# 1 53.7201 2.7628 40.9561 0.0000 -2.4913 0.0000
# 2 2.7628 30.2777 30.9756 0.0000 -6.1278 0.0000
# 3 40.9561 30.9756 139.5520 0.0002 -8.7674 0.0000
# 4 0.0000 0.0000 0.0002 27.3043 0.0000 1.6485
# 5 -2.4913 -6.1278 -8.7674 0.0000 33.8161 0.0000
# 6 0.0000 0.0000 0.0000 1.6485 0.0000 33.5939
#
#
#
# Elastic Compliance Matrix: (Units=1/GPa)
#
#
# Indices 1 2 3 4 5 6 
#
# 1 0.025028 0.006912 -0.008829 0.000000 0.000807 0.000000
# 2 0.006912 0.045622 -0.011796 0.000000 0.005718 0.000000
# 3 -0.008829 -0.011796 0.012402 0.000000 0.000428 0.000000
# 4 0.000000 0.000000 0.000000 0.036733 0.000000 -0.001803
# 5 0.000807 0.005718 0.000428 0.000000 0.030778 0.000000
# 6 0.000000 0.000000 0.000000 -0.001803 0.000000 0.029856
#
#
# Mechanical properties :
#
#
# Convention : Reuss Voigt Hill
#
# Bulk Modulus (GPa) = 17.97704 41.43764 29.70734
# Shear Modulus (GPa) = 22.08618 28.86656 25.47637
#
# Velocity S-wave (km/s) = 3.35958 3.84081 3.60823
# Velocity P-wave (km/s) = 4.92300 6.39102 5.70443
#
# Compressibility (1/GPa) = 0.05562652
#
# Stress axis : x y z
#
# Youngs Moduli (GPa) = 39.95531 21.91940 80.63249
#
# Poissons Ratio (x) = -0.15150 0.71188
# Poissons Ratio (y) = -0.27617 0.95111
# Poissons Ratio (z) = 0.35276 0.25855
#
# Static dielectric constant tensor:
#      x y z
#    x 1.667190 0.000000 0.007550 
#    y 0.000000 1.692130 0.000000 
#    z 0.007550 0.000000 1.718050 
# 
# From -- ./inp_files/211159.got.cif
#   From: 2010.05.17/outbox.cif.g08.bks.cpg/sg12_106_cif.got.tgz:211159.got - 2010.06.03 13:09:07.
