data_PCOD9205262
_publ_section_title
;
Structure prediction by ZEFSAII (Michael W. Deem and Ramdas Pophale) SiO2 
 PCOD9205262
Probable space group: C 2/M
;
_chemical_formula_sum "Si O2"
_cell_formula_units_Z 56
_cell_length_a 9.049526
_cell_length_b 13.014812
_cell_length_c 25.721110
_cell_angle_alpha 90.000000
_cell_angle_beta 121.423961
_cell_angle_gamma 90.000000
_cell_volume 2585.067550
_symmetry_space_group_name_H-M "C 2/M"
_symmetry_group_IT_number 12
_symmetry_cell_setting 'monoclinic'
loop_
_space_group_symop_operation_xyz
x,y,z
-x,y,-z
-x,-y,-z
x,-y,z
1/2+x,1/2+y,z
1/2-x,1/2+y,-z
1/2-x,1/2-y,-z
1/2+x,1/2-y,z
loop_
_atom_site_type_symbol
_atom_site_label
_atom_site_fract_x
_atom_site_fract_y
_atom_site_fract_z
Si Si1 0.782580 0.625286 0.542509
Si Si2 0.484326 0.375071 0.416024
Si Si3 0.822667 0.694662 0.221315
Si Si4 0.631091 0.122436 0.657210
Si Si5 0.391356 0.120080 0.926869
Si Si6 0.980229 0.121883 0.296702
Si Si7 0.048454 0.256566 0.860717
O O1 0.788940 0.500000 0.543234
O O2 0.658188 0.655442 0.567668
O O3 0.677709 0.653789 0.471125
O O4 0.977466 0.659199 0.591104
O O5 0.484750 0.500000 0.417306
O O6 0.439318 0.350193 0.348740
O O7 0.899178 0.643331 0.287138
O O8 0.914807 0.674219 0.183796
O O9 0.617056 0.682901 0.180263
O O10 0.853920 0.816266 0.236504
O O11 0.823570 0.158324 0.678328
O O12 0.636697 0.000000 0.651473
O O13 0.216771 0.186846 0.900453
O O14 0.500328 0.172937 0.900648
O O15 0.355118 0.000000 0.909245
O O16 0.500000 0.125669 0.000000
O O17 0.969305 0.000000 0.287823
#
# Coordination Sequence:
#
# PCOD9205262 Si02
#       7
#     8   8   8   8   8   8   8
#     4   8  15  29  49  75 106 139 188 253 321 383
#     4   8  15  29  50  76 103 140 192 253 319 386
#     4  11  22  39  56  86 125 164 204 251 305 368
#     4  10  21  35  53  78 111 152 195 253 314 371
#     4  10  22  44  74 105 137 175 217 262 313 368
#     4  10  21  36  56  79 109 153 202 256 317 376
#     4  10  23  40  65  96 135 174 212 260 312 369
#
# _framework density 21.662879
#
# number of rings (size 3 to 8) (size 9 to 14) (size 15 to 20)
#    0.000    2.429    1.429    1.286    2.000    4.000 
#    0.000    5.714    0.000    7.714    0.000    0.000 
#    0.000    0.000    0.000    0.000    0.000    0.000 
#
# Total GULP energy -156474.160170 kJ/mol
# GULP energy per Si atom -5588.362863 kJ/mol
# Density = 2.161357 g / cm^3
# Si number density = 21.662879 Si / 1000 Ang^3
#
#
#
# Elastic Constant Matrix: (Units=GPa)
#
#
# Indices 1 2 3 4 5 6 
#
# 1 98.7031 22.3854 38.0827 0.0000 -0.9028 0.0000
# 2 22.3854 67.1037 21.7763 0.0000 6.9994 0.0000
# 3 38.0827 21.7763 91.1695 0.0000 -2.6643 0.0000
# 4 0.0000 0.0000 0.0000 30.3830 0.0000 -0.4558
# 5 -0.9028 6.9994 -2.6643 0.0000 34.8399 0.0000
# 6 0.0000 0.0000 0.0000 -0.4558 0.0000 21.6733
#
#
#
# Elastic Compliance Matrix: (Units=1/GPa)
#
#
# Indices 1 2 3 4 5 6 
#
# 1 0.012518 -0.002753 -0.004556 0.000000 0.000529 0.000000
# 2 -0.002753 0.017210 -0.003071 0.000000 -0.003764 0.000000
# 3 -0.004556 -0.003071 0.013650 0.000000 0.001543 0.000000
# 4 0.000000 0.000000 0.000000 0.032924 0.000000 0.000692
# 5 0.000529 -0.003764 0.001543 0.000000 0.029591 0.000000
# 6 0.000000 0.000000 0.000000 0.000692 0.000000 0.046154
#
#
# Mechanical properties :
#
#
# Convention : Reuss Voigt Hill
#
# Bulk Modulus (GPa) = 44.21029 46.82945 45.51987
# Shear Modulus (GPa) = 27.72451 29.02802 28.37627
#
# Velocity S-wave (km/s) = 3.58133 3.66456 3.62318
# Velocity P-wave (km/s) = 6.12812 6.29044 6.20981
#
# Compressibility (1/GPa) = 0.02261917
#
# Stress axis : x y z
#
# Youngs Moduli (GPa) = 79.88222 58.10680 73.25848
#
# Poissons Ratio (x) = 0.15995 0.33378
# Poissons Ratio (y) = 0.21989 0.22496
# Poissons Ratio (z) = 0.36396 0.17843
#
# Static dielectric constant tensor:
#      x y z
#    x 1.776470 0.000000 0.013350 
#    y 0.000000 1.843540 0.000000 
#    z 0.013350 0.000000 1.775510 
# 
# From -- ./inp_files/356201.got.cif
#   From: 2010.05.17/outbox.cif.g08.bks.cpg/sg12_179_cif.got.tgz:356201.got - 2010.06.03 13:09:07.
