data_PCOD9205596
_publ_section_title
;
Structure prediction by ZEFSAII (Michael W. Deem and Ramdas Pophale) SiO2 
 PCOD9205596
Probable space group: C 2/M
;
_chemical_formula_sum "Si O2"
_cell_formula_units_Z 64
_cell_length_a 20.413831
_cell_length_b 7.904892
_cell_length_c 17.653955
_cell_angle_alpha 90.000000
_cell_angle_beta 94.515274
_cell_angle_gamma 90.000000
_cell_volume 2839.961752
_symmetry_space_group_name_H-M "C 2/M"
_symmetry_group_IT_number 12
_symmetry_cell_setting 'monoclinic'
loop_
_space_group_symop_operation_xyz
x,y,z
-x,y,-z
-x,-y,-z
x,-y,z
1/2+x,1/2+y,z
1/2-x,1/2+y,-z
1/2-x,1/2-y,-z
1/2+x,1/2-y,z
loop_
_atom_site_type_symbol
_atom_site_label
_atom_site_fract_x
_atom_site_fract_y
_atom_site_fract_z
Si Si1 0.097344 0.706173 0.050367
Si Si2 0.143152 0.204101 0.307514
Si Si3 0.110827 0.704037 0.628007
Si Si4 0.238788 0.701352 0.086024
Si Si5 0.277396 0.798114 0.245723
Si Si6 0.825391 0.799458 0.522069
Si Si7 0.995207 0.703713 0.271727
Si Si8 0.042742 0.294157 0.891300
O O1 0.098746 0.500000 0.050363
O O2 0.164249 0.766228 0.094103
O O3 0.030298 0.752857 0.085924
O O4 0.091507 0.763299 0.962103
O O5 0.206013 0.267876 0.266043
O O6 0.151189 0.268556 0.394594
O O7 0.071205 0.250478 0.272026
O O8 0.146670 0.000000 0.307807
O O9 0.111014 0.500000 0.630595
O O10 0.166959 0.766237 0.691842
O O11 0.129955 0.750577 0.544950
O O12 0.041169 0.763300 0.655500
O O13 0.239995 0.500000 0.090867
O O14 0.285269 0.766493 0.157035
O O15 0.250000 0.750000 0.000000
O O16 0.277459 0.000000 0.255232
O O17 0.750000 0.750000 0.500000
O O18 0.826744 0.000000 0.528278
O O19 0.992408 0.500000 0.270447
O O20 0.954269 0.764358 0.194581
O O21 0.046742 0.500000 0.891252
#
# Coordination Sequence:
#
# PCOD9205596 Si02
#       8
#     8   8   8   8   8   8   8   8
#     4   8  15  28  49  75 104 138 183 236 284 335
#     4  10  22  40  62  87 120 159 193 238 305 364
#     4  10  22  40  61  89 123 160 200 246 300 355
#     4  11  23  36  54  83 116 154 196 243 296 347
#     4  10  21  40  62  84 117 159 200 244 297 358
#     4  11  22  40  65  91 119 157 200 245 297 357
#     4  10  21  35  58  88 118 154 198 248 291 343
#     4   8  14  28  51  78 104 137 183 234 285 331
#
# _framework density 22.535515
#
# number of rings (size 3 to 8) (size 9 to 14) (size 15 to 20)
#    0.000    2.250    1.250    2.250    1.750    4.000 
#    0.000    2.500    0.000    0.000    0.000    4.375 
#    0.000    0.000    0.000    0.000    0.000    0.000 
#
# Total GULP energy -178703.011325 kJ/mol
# GULP energy per Si atom -5584.469104 kJ/mol
# Density = 2.248422 g / cm^3
# Si number density = 22.535515 Si / 1000 Ang^3
#
#
#
# Elastic Constant Matrix: (Units=GPa)
#
#
# Indices 1 2 3 4 5 6 
#
# 1 43.9726 0.5044 -1.6547 0.0000 -0.7413 0.0000
# 2 0.5044 23.6833 -2.4251 0.0000 -1.4106 0.0000
# 3 -1.6547 -2.4251 109.0638 0.0000 -0.3269 0.0000
# 4 0.0000 0.0000 0.0000 23.1391 0.0000 -2.3370
# 5 -0.7413 -1.4106 -0.3269 0.0000 37.4722 0.0000
# 6 0.0000 0.0000 0.0000 -2.3370 0.0000 16.7398
#
#
#
# Elastic Compliance Matrix: (Units=1/GPa)
#
#
# Indices 1 2 3 4 5 6 
#
# 1 0.022766 -0.000424 0.000337 0.000000 0.000437 0.000000
# 2 -0.000424 0.042424 0.000942 0.000000 0.001597 0.000000
# 3 0.000337 0.000942 0.009195 0.000000 0.000122 0.000000
# 4 0.000000 0.000000 0.000000 0.043835 0.000000 0.006120
# 5 0.000437 0.001597 0.000122 0.000000 0.026756 0.000000
# 6 0.000000 0.000000 0.000000 0.006120 0.000000 0.060592
#
#
# Mechanical properties :
#
#
# Convention : Reuss Voigt Hill
#
# Bulk Modulus (GPa) = 13.14139 18.84099 15.99119
# Shear Modulus (GPa) = 21.81260 27.48990 24.65125
#
# Velocity S-wave (km/s) = 3.11452 3.49642 3.31098
# Velocity P-wave (km/s) = 4.33333 4.96776 4.66135
#
# Compressibility (1/GPa) = 0.07609545
#
# Stress axis : x y z
#
# Youngs Moduli (GPa) = 43.92443 23.57138 108.75040
#
# Poissons Ratio (x) = 0.01000 -0.03668
# Poissons Ratio (y) = 0.01864 -0.10241
# Poissons Ratio (z) = -0.01482 -0.02220
#
# Static dielectric constant tensor:
#      x y z
#    x 1.829680 0.000000 -0.006110 
#    y 0.000000 1.819640 0.000000 
#    z -0.006110 0.000000 1.908200 
# 
# From -- ./inp_files/281333.got.cif
#   From: 2010.05.17/outbox.cif.g08.bks.cpg/sg12_141_cif.got.tgz:281333.got - 2010.06.03 13:09:07.
