data_PCOD9205447
_publ_section_title
;
Structure prediction by ZEFSAII (Michael W. Deem and Ramdas Pophale) SiO2 
 PCOD9205447
Probable space group: C 2/M
;
_chemical_formula_sum "Si O2"
_cell_formula_units_Z 56
_cell_length_a 5.153303
_cell_length_b 30.894068
_cell_length_c 20.351857
_cell_angle_alpha 90.000000
_cell_angle_beta 118.961629
_cell_angle_gamma 90.000000
_cell_volume 2834.948473
_symmetry_space_group_name_H-M "C 2/M"
_symmetry_group_IT_number 12
_symmetry_cell_setting 'monoclinic'
loop_
_space_group_symop_operation_xyz
x,y,z
-x,y,-z
-x,-y,-z
x,-y,z
1/2+x,1/2+y,z
1/2-x,1/2+y,-z
1/2-x,1/2-y,-z
1/2+x,1/2-y,z
loop_
_atom_site_type_symbol
_atom_site_label
_atom_site_fract_x
_atom_site_fract_y
_atom_site_fract_z
Si Si1 0.301069 0.449466 0.628371
Si Si2 0.700576 0.592227 0.923684
Si Si3 0.027572 0.898973 0.234001
Si Si4 0.779966 0.894371 0.415559
Si Si5 0.356888 0.500000 0.052884
Si Si6 0.000000 0.163324 0.000000
Si Si7 0.605767 0.149977 0.269902
Si Si8 0.629384 0.220137 0.861050
O O1 0.249674 0.500000 0.608573
O O2 0.418556 0.442061 0.717567
O O3 0.541208 0.428703 0.608452
O O4 0.003182 0.420351 0.590634
O O5 0.732045 0.601909 0.851376
O O6 0.544111 0.545351 0.903786
O O7 0.560319 0.631565 0.946172
O O8 0.000000 0.586012 0.000000
O O9 0.325555 0.883560 0.233652
O O10 0.910484 0.865390 0.273505
O O11 0.676672 0.854450 0.356494
O O12 0.000000 0.880673 0.500000
O O13 0.500000 0.500000 0.000000
O O14 0.000000 0.500000 0.000000
O O15 0.739307 0.192819 0.938205
O O16 0.506015 0.190774 0.214297
O O17 0.402947 0.255156 0.861505
#
# Coordination Sequence:
#
# PCOD9205447 Si02
#       8
#     8   8   8   8   4   4   8   8
#     4  10  21  35  55  88 126 162 199 246 296 340
#     4  11  23  37  61  81 118 159 207 255 300 339
#     4  10  21  37  59  81 112 161 207 236 285 356
#     4  10  21  37  62  90 118 157 202 241 288 361
#     4  10  22  38  50  82 108 146 199 250 291 328
#     4  12  24  39  64  86 118 158 198 247 306 366
#     4  10  21  42  61  84 117 154 193 233 297 356
#     4  12  26  42  62  90 121 150 192 248 305 366
#
# _framework density 19.753446
#
# number of rings (size 3 to 8) (size 9 to 14) (size 15 to 20)
#    0.000    1.429    2.143    3.000    3.000    1.714 
#    0.000    0.000    0.000    0.857    0.000    0.000 
#    0.000    0.000    0.000    0.000    0.000    0.000 
#
# Total GULP energy -155974.523425 kJ/mol
# GULP energy per Si atom -5570.518694 kJ/mol
# Density = 1.970849 g / cm^3
# Si number density = 19.753446 Si / 1000 Ang^3
#
#
#
# Elastic Constant Matrix: (Units=GPa)
#
#
# Indices 1 2 3 4 5 6 
#
# 1 208.4374 129.7463 -3.3463 0.0000 -15.4421 0.0000
# 2 129.7463 188.4884 27.8647 0.0000 -9.3571 0.0000
# 3 -3.3463 27.8647 118.1051 0.0000 12.1222 0.0000
# 4 0.0000 0.0000 0.0000 28.8941 0.0000 4.4010
# 5 -15.4421 -9.3571 12.1222 0.0000 25.7145 0.0000
# 6 0.0000 0.0000 0.0000 4.4010 0.0000 24.1211
#
#
#
# Elastic Compliance Matrix: (Units=1/GPa)
#
#
# Indices 1 2 3 4 5 6 
#
# 1 0.008851 -0.006192 0.001468 0.000000 0.002370 0.000000
# 2 -0.006192 0.010020 -0.002661 0.000000 0.001182 0.000000
# 3 0.001468 -0.002661 0.009610 0.000000 -0.004617 0.000000
# 4 0.000000 0.000000 0.000000 0.035598 0.000000 -0.006495
# 5 0.002370 0.001182 -0.004617 0.000000 0.042918 0.000000
# 6 0.000000 0.000000 0.000000 -0.006495 0.000000 0.042643
#
#
# Mechanical properties :
#
#
# Convention : Reuss Voigt Hill
#
# Bulk Modulus (GPa) = 72.92688 91.50669 82.21678
# Shear Modulus (GPa) = 29.58930 39.79702 34.69316
#
# Velocity S-wave (km/s) = 3.87451 4.49340 4.19538
# Velocity P-wave (km/s) = 7.55079 8.56422 8.07342
#
# Compressibility (1/GPa) = 0.01371237
#
# Stress axis : x y z
#
# Youngs Moduli (GPa) = 112.97903 99.80266 104.05560
#
# Poissons Ratio (x) = 0.61800 -0.15280
# Poissons Ratio (y) = 0.69959 0.27686
# Poissons Ratio (z) = -0.16591 0.26555
#
# Static dielectric constant tensor:
#      x y z
#    x 1.703010 0.000000 -0.004810 
#    y 0.000000 1.683580 0.000000 
#    z -0.004810 0.000000 1.743820 
# 
# From -- ./inp_files/254065.got.cif
#   From: 2010.05.17/outbox.cif.g08.bks.cpg/sg12_128_cif.got.tgz:254065.got - 2010.06.03 13:09:07.
