data_PCOD9205724
_publ_section_title
;
Structure prediction by ZEFSAII (Michael W. Deem and Ramdas Pophale) SiO2 
 PCOD9205724
Probable space group: C 2/M
;
_chemical_formula_sum "Si O2"
_cell_formula_units_Z 64
_cell_length_a 22.497161
_cell_length_b 7.900512
_cell_length_c 21.688940
_cell_angle_alpha 90.000000
_cell_angle_beta 126.892678
_cell_angle_gamma 90.000000
_cell_volume 3083.058107
_symmetry_space_group_name_H-M "C 2/M"
_symmetry_group_IT_number 12
_symmetry_cell_setting 'monoclinic'
loop_
_space_group_symop_operation_xyz
x,y,z
-x,y,-z
-x,-y,-z
x,-y,z
1/2+x,1/2+y,z
1/2-x,1/2+y,-z
1/2-x,1/2-y,-z
1/2+x,1/2-y,z
loop_
_atom_site_type_symbol
_atom_site_label
_atom_site_fract_x
_atom_site_fract_y
_atom_site_fract_z
Si Si1 0.183118 0.794954 0.821423
Si Si2 0.632552 0.294730 0.409730
Si Si3 0.481819 0.303381 0.259246
Si Si4 0.668917 0.691441 0.025509
Si Si5 0.225867 0.203807 0.582540
Si Si6 0.900140 0.297031 0.889282
Si Si7 0.474186 0.805077 0.120512
Si Si8 0.250071 0.295857 0.266989
O O1 0.100377 0.729437 0.782180
O O2 0.246533 0.745741 0.910012
O O3 0.209280 0.735914 0.769777
O O4 0.182717 0.000000 0.821294
O O5 0.630180 0.500000 0.409327
O O6 0.551590 0.229830 0.339704
O O7 0.694695 0.245063 0.398439
O O8 0.663728 0.235296 0.495348
O O9 0.476701 0.500000 0.274462
O O10 0.496294 0.292554 0.195467
O O11 0.667366 0.500000 0.002428
O O12 0.629817 0.708614 0.068293
O O13 0.613438 0.792707 0.947004
O O14 0.222569 0.270055 0.650256
O O15 0.219741 0.000000 0.581402
O O16 0.901632 0.500000 0.904279
O O17 0.837436 0.266120 0.798344
O O18 0.978812 0.246138 0.909720
O O19 0.495271 0.000000 0.142989
O O20 0.259274 0.500000 0.273252
#
# Coordination Sequence:
#
# PCOD9205724 Si02
#       8
#     8   8   8   8   8   8   8   8
#     4   9  19  37  55  69  95 136 175 212 254 300
#     4   9  18  31  48  75 108 134 160 203 255 299
#     4  10  21  36  52  72 101 135 171 214 260 298
#     4  11  22  35  53  77 103 130 164 210 258 301
#     4   9  16  29  51  77 104 134 167 201 243 301
#     4   9  18  33  52  75 104 135 166 202 247 300
#     4  11  22  35  54  77 101 133 170 207 251 307
#     4   8  14  28  51  74  95 126 169 206 237 285
#
# _framework density 20.758610000000001
#
# number of rings (size 3 to 8) (size 9 to 14) (size 15 to 20)
#    0.000    2.500    0.000    3.375    0.000    5.000 
#    0.000    4.375    0.000    3.750    0.000    0.000 
#    0.000    9.000    0.000    0.000    0.000    0.000 
#
# Total GULP energy -178566.594090 kJ/mol
# GULP energy per Si atom -5580.206065 kJ/mol
# Density = 2.071136 g / cm^3
# Si number density = 20.758610 Si / 1000 Ang^3
#
#
#
# Elastic Constant Matrix: (Units=GPa)
#
#
# Indices 1 2 3 4 5 6 
#
# 1 65.3701 1.3344 20.5521 0.0000 32.7423 0.0000
# 2 1.3344 23.7128 -1.8749 0.0000 4.3774 0.0000
# 3 20.5521 -1.8749 86.2928 0.0000 25.7583 0.0000
# 4 0.0000 0.0000 0.0000 13.1663 0.0000 -0.3321
# 5 32.7423 4.3774 25.7583 0.0000 32.7709 0.0000
# 6 0.0000 0.0000 0.0000 -0.3321 0.0000 14.3218
#
#
#
# Elastic Compliance Matrix: (Units=1/GPa)
#
#
# Indices 1 2 3 4 5 6 
#
# 1 0.031523 0.004800 0.002860 0.000000 -0.034384 0.000000
# 2 0.004800 0.044783 0.003981 0.000000 -0.013906 0.000000
# 3 0.002860 0.003981 0.015686 0.000000 -0.015719 0.000000
# 4 0.000000 0.000000 0.000000 0.075996 0.000000 0.001762
# 5 -0.034384 -0.013906 -0.015719 0.000000 0.079082 0.000000
# 6 0.000000 0.000000 0.000000 0.001762 0.000000 0.069864
#
#
# Mechanical properties :
#
#
# Convention : Reuss Voigt Hill
#
# Bulk Modulus (GPa) = 8.67506 23.93321 16.30413
# Shear Modulus (GPa) = 15.05679 22.40941 18.73310
#
# Velocity S-wave (km/s) = 2.69611 3.28918 3.00730
# Velocity P-wave (km/s) = 3.72560 5.09698 4.46427
#
# Compressibility (1/GPa) = 0.11527304
#
# Stress axis : x y z
#
# Youngs Moduli (GPa) = 31.72334 22.32984 63.75227
#
# Poissons Ratio (x) = -0.10717 -0.18235
# Poissons Ratio (y) = -0.15226 -0.25379
# Poissons Ratio (z) = -0.09074 -0.08889
#
# Static dielectric constant tensor:
#      x y z
#    x 1.750470 0.000000 0.004690 
#    y 0.000000 1.755150 0.000000 
#    z 0.004690 0.000000 1.753630 
# 
# From -- ./inp_files/320052.got.cif
#   From: 2010.05.17/outbox.cif.g08.bks.cpg/sg12_161_cif.got.tgz:320052.got - 2010.06.03 13:09:07.
