data_PCOD9205254
_publ_section_title
;
Structure prediction by ZEFSAII (Michael W. Deem and Ramdas Pophale) SiO2 
 PCOD9205254
Probable space group: C 2/M
;
_chemical_formula_sum "Si O2"
_cell_formula_units_Z 56
_cell_length_a 20.243785
_cell_length_b 7.804506
_cell_length_c 25.402820
_cell_angle_alpha 90.000000
_cell_angle_beta 43.729427
_cell_angle_gamma 90.000000
_cell_volume 2774.319623
_symmetry_space_group_name_H-M "C 2/M"
_symmetry_group_IT_number 12
_symmetry_cell_setting 'monoclinic'
loop_
_space_group_symop_operation_xyz
x,y,z
-x,y,-z
-x,-y,-z
x,-y,z
1/2+x,1/2+y,z
1/2-x,1/2+y,-z
1/2-x,1/2-y,-z
1/2+x,1/2-y,z
loop_
_atom_site_type_symbol
_atom_site_label
_atom_site_fract_x
_atom_site_fract_y
_atom_site_fract_z
Si Si1 0.171657 0.294736 0.195771
Si Si2 0.157992 0.705595 0.517572
Si Si3 0.804511 0.296330 0.021531
Si Si4 0.774290 0.793895 0.355136
Si Si5 0.458087 0.792409 0.319412
Si Si6 0.989856 0.707398 0.067089
Si Si7 0.284901 0.296471 0.230725
O O1 0.164083 0.500000 0.205462
O O2 0.244839 0.261917 0.106474
O O3 0.215679 0.225863 0.224981
O O4 0.064721 0.230990 0.245319
O O5 0.148594 0.500000 0.518970
O O6 0.250000 0.750000 0.500000
O O7 0.188399 0.770821 0.442474
O O8 0.071426 0.766088 0.604389
O O9 0.014909 0.500000 0.928270
O O10 0.750000 0.250000 0.000000
O O11 0.913359 0.231295 0.960477
O O12 0.875182 0.759381 0.326333
O O13 0.772882 0.725690 0.296569
O O14 0.765550 0.000000 0.357898
O O15 0.457457 0.000000 0.319610
O O16 0.189186 0.500000 0.978739
O O17 0.893167 0.773091 0.148607
O O18 0.000000 0.756796 0.000000
O O19 0.266530 0.500000 0.244441
#
# Coordination Sequence:
#
# PCOD9205254 Si02
#       7
#     8   8   8   8   8   8   8
#     4  10  21  37  53  75 108 140 173 212 258 309
#     4   8  14  28  49  72 101 133 168 209 254 301
#     4  11  24  40  58  79 105 135 171 215 261 309
#     4   9  18  32  51  78 105 132 171 216 257 303
#     4   9  18  32  52  76 102 137 174 211 256 305
#     4  10  21  39  58  76 100 134 175 213 252 305
#     4  10  21  35  53  77 106 138 172 213 258 306
#
# _framework density 20.185127999999999
#
# number of rings (size 3 to 8) (size 9 to 14) (size 15 to 20)
#    0.000    2.429    1.429    0.429    2.000    2.571 
#    0.000    0.714    0.000    4.286    0.000    0.000 
#    0.000   13.714    0.000    0.000    0.000    0.000 
#
# Total GULP energy -156134.815920 kJ/mol
# GULP energy per Si atom -5576.243426 kJ/mol
# Density = 2.013919 g / cm^3
# Si number density = 20.185128 Si / 1000 Ang^3
#
#
#
# Elastic Constant Matrix: (Units=GPa)
#
#
# Indices 1 2 3 4 5 6 
#
# 1 85.5443 3.0479 9.0911 0.0002 21.8855 -0.0003
# 2 3.0479 25.4524 0.2794 0.0001 1.5252 0.0009
# 3 9.0911 0.2794 48.9061 0.0002 28.1254 -0.0001
# 4 0.0002 0.0001 0.0002 9.4777 -0.0001 0.2559
# 5 21.8855 1.5252 28.1254 -0.0001 39.5201 0.0003
# 6 -0.0003 0.0009 -0.0001 0.2559 0.0003 16.6893
#
#
#
# Elastic Compliance Matrix: (Units=1/GPa)
#
#
# Indices 1 2 3 4 5 6 
#
# 1 0.013926 -0.001110 0.003095 0.000000 -0.009872 0.000001
# 2 -0.001110 0.039504 0.000853 0.000000 -0.001517 -0.000002
# 3 0.003095 0.000853 0.035332 -0.000001 -0.026892 0.000001
# 4 0.000000 0.000000 -0.000001 0.105555 0.000001 -0.001619
# 5 -0.009872 -0.001517 -0.026892 0.000001 0.049967 -0.000001
# 6 0.000001 -0.000002 0.000001 -0.001619 -0.000001 0.059943
#
#
# Mechanical properties :
#
#
# Convention : Reuss Voigt Hill
#
# Bulk Modulus (GPa) = 10.58905 20.52663 15.55784
# Shear Modulus (GPa) = 15.15009 22.96971 19.05990
#
# Velocity S-wave (km/s) = 2.74260 3.37701 3.07621
# Velocity P-wave (km/s) = 3.90980 5.03953 4.51018
#
# Compressibility (1/GPa) = 0.09443714
#
# Stress axis : x y z
#
# Youngs Moduli (GPa) = 71.80789 25.31420 28.30263
#
# Poissons Ratio (x) = 0.02810 -0.08759
# Poissons Ratio (y) = 0.07971 -0.02414
# Poissons Ratio (z) = -0.22222 -0.02159
#
# Static dielectric constant tensor:
#      x y z
#    x 1.704160 0.000000 0.005540 
#    y 0.000000 1.755540 0.000000 
#    z 0.005540 0.000000 1.724320 
# 
# From -- ./inp_files/280205.got.cif
#   From: 2010.05.17/outbox.cif.g08.bks.cpg/sg12_141_cif.got.tgz:280205.got - 2010.06.03 13:09:07.
