data_PCOD9205453
_publ_section_title
;
Structure prediction by ZEFSAII (Michael W. Deem and Ramdas Pophale) SiO2 
 PCOD9205453
Probable space group: C 2/M
;
_chemical_formula_sum "Si O2"
_cell_formula_units_Z 64
_cell_length_a 7.043279
_cell_length_b 22.690610
_cell_length_c 21.776966
_cell_angle_alpha 90.000000
_cell_angle_beta 114.335916
_cell_angle_gamma 90.000000
_cell_volume 3171.071241
_symmetry_space_group_name_H-M "C 2/M"
_symmetry_group_IT_number 12
_symmetry_cell_setting 'monoclinic'
loop_
_space_group_symop_operation_xyz
x,y,z
-x,y,-z
-x,-y,-z
x,-y,z
1/2+x,1/2+y,z
1/2-x,1/2+y,-z
1/2-x,1/2-y,-z
1/2+x,1/2-y,z
loop_
_atom_site_type_symbol
_atom_site_label
_atom_site_fract_x
_atom_site_fract_y
_atom_site_fract_z
Si Si1 0.204484 0.628073 0.716026
Si Si2 0.205146 0.180225 0.986956
Si Si3 0.416758 0.696821 0.845111
Si Si4 0.039679 0.302374 0.410674
Si Si5 0.847343 0.172598 0.552531
Si Si6 0.468971 0.432762 0.644392
Si Si7 0.408661 0.066788 0.770981
Si Si8 0.488696 0.167199 0.128414
O O1 0.369938 0.671093 0.771894
O O2 0.317304 0.590926 0.678101
O O3 0.021963 0.668339 0.661636
O O4 0.097828 0.585809 0.751664
O O5 0.127054 0.173290 0.906536
O O6 0.250000 0.250000 0.000000
O O7 0.404059 0.153822 0.048602
O O8 0.000000 0.165879 0.000000
O O9 0.412796 0.767787 0.850389
O O10 0.223409 0.674835 0.860028
O O11 0.032252 0.231571 0.410816
O O12 0.258534 0.320434 0.471664
O O13 0.858702 0.323777 0.432198
O O14 0.952045 0.111812 0.585167
O O15 0.415916 0.500000 0.621068
O O16 0.699746 0.431160 0.702969
O O17 0.392757 0.113974 0.823598
O O18 0.438141 0.000000 0.797314
#
# Coordination Sequence:
#
# PCOD9205453 Si02
#       8
#     8   8   8   8   8   8   8   8
#     4  10  21  35  56  78 104 134 173 219 263 305
#     4   8  14  28  44  69 105 130 161 203 257 310
#     4   9  18  28  49  80 104 130 167 211 269 312
#     4   9  19  33  53  82 104 137 164 215 271 306
#     4   9  19  35  53  78 108 134 173 210 261 312
#     4  10  22  38  56  75 104 142 176 214 252 303
#     4  10  22  37  53  76 105 141 178 211 253 304
#     4   9  18  30  50  74 105 135 168 214 257 308
#
# _framework density 20.182452999999999
#
# number of rings (size 3 to 8) (size 9 to 14) (size 15 to 20)
#    0.000    2.750    0.000    0.375    5.250    2.000 
#    0.000    5.625    0.000   11.625    0.000    1.750 
#    0.000    0.000    0.000    0.000    0.000    0.000 
#
# Total GULP energy -178462.932963 kJ/mol
# GULP energy per Si atom -5576.966655 kJ/mol
# Density = 2.013652 g / cm^3
# Si number density = 20.182453 Si / 1000 Ang^3
#
#
#
# Elastic Constant Matrix: (Units=GPa)
#
#
# Indices 1 2 3 4 5 6 
#
# 1 35.6649 15.5644 -0.8914 0.0000 0.9084 0.0000
# 2 15.5644 148.4017 82.6385 0.0000 7.2772 0.0000
# 3 -0.8914 82.6385 99.1622 0.0000 8.0417 0.0000
# 4 0.0000 0.0000 0.0000 42.5345 0.0000 2.3931
# 5 0.9084 7.2772 8.0417 0.0000 26.8168 0.0000
# 6 0.0000 0.0000 0.0000 2.3931 0.0000 23.1404
#
#
#
# Elastic Compliance Matrix: (Units=1/GPa)
#
#
# Indices 1 2 3 4 5 6 
#
# 1 0.030974 -0.006343 0.005648 0.000000 -0.001021 0.000000
# 2 -0.006343 0.013874 -0.011614 0.000000 -0.000067 0.000000
# 3 0.005648 -0.011614 0.020062 0.000000 -0.003056 0.000000
# 4 0.000000 0.000000 0.000000 0.023648 0.000000 -0.002446
# 5 -0.001021 -0.000067 -0.003056 0.000000 0.038259 0.000000
# 6 0.000000 0.000000 0.000000 -0.002446 0.000000 0.043467
#
#
# Mechanical properties :
#
#
# Convention : Reuss Voigt Hill
#
# Bulk Modulus (GPa) = 24.81951 53.09463 38.95707
# Shear Modulus (GPa) = 23.99980 30.89283 27.44632
#
# Velocity S-wave (km/s) = 3.45213 3.91663 3.69170
# Velocity P-wave (km/s) = 5.31168 6.84235 6.12502
#
# Compressibility (1/GPa) = 0.04029089
#
# Stress axis : x y z
#
# Youngs Moduli (GPa) = 32.28490 72.07499 49.84589
#
# Poissons Ratio (x) = 0.45720 -0.28151
# Poissons Ratio (y) = 0.20480 0.57891
# Poissons Ratio (z) = -0.18233 0.83708
#
# Static dielectric constant tensor:
#      x y z
#    x 1.815850 0.000000 -0.023740 
#    y 0.000000 1.670540 0.000000 
#    z -0.023740 0.000000 1.787010 
# 
# From -- ./inp_files/334003.got.cif
#   From: 2010.05.17/outbox.cif.g08.bks.cpg/sg12_168_cif.got.tgz:334003.got - 2010.06.03 13:09:07.
