data_PCOD9205450
_publ_section_title
;
Structure prediction by ZEFSAII (Michael W. Deem and Ramdas Pophale) SiO2 
 PCOD9205450
Probable space group: C 2/M
;
_chemical_formula_sum "Si O2"
_cell_formula_units_Z 56
_cell_length_a 17.616858
_cell_length_b 20.628675
_cell_length_c 10.996410
_cell_angle_alpha 90.000000
_cell_angle_beta 142.309409
_cell_angle_gamma 90.000000
_cell_volume 2443.284754
_symmetry_space_group_name_H-M "C 2/M"
_symmetry_group_IT_number 12
_symmetry_cell_setting 'monoclinic'
loop_
_space_group_symop_operation_xyz
x,y,z
-x,y,-z
-x,-y,-z
x,-y,z
1/2+x,1/2+y,z
1/2-x,1/2+y,-z
1/2-x,1/2-y,-z
1/2+x,1/2-y,z
loop_
_atom_site_type_symbol
_atom_site_label
_atom_site_fract_x
_atom_site_fract_y
_atom_site_fract_z
Si Si1 0.377890 0.266812 0.998041
Si Si2 0.662931 0.701180 0.315396
Si Si3 0.996689 0.422684 0.304264
Si Si4 0.840902 0.923948 0.528758
Si Si5 0.302555 0.077484 0.265831
Si Si6 0.186671 0.381548 0.107512
Si Si7 0.383116 0.385841 0.155403
O O1 0.313494 0.299412 0.798757
O O2 0.323504 0.195325 0.923362
O O3 0.524969 0.269481 0.159618
O O4 0.367889 0.308802 0.108459
O O5 0.750000 0.750000 0.500000
O O6 0.662438 0.628925 0.368482
O O7 0.992845 0.500000 0.302376
O O8 0.894550 0.398448 0.273558
O O9 0.128816 0.400287 0.523445
O O10 0.947686 0.404114 0.110027
O O11 0.733245 0.904544 0.297157
O O12 0.977425 0.909127 0.644777
O O13 0.831458 0.000000 0.549963
O O14 0.314854 0.000000 0.287203
O O15 0.166270 0.087225 0.036880
O O16 0.292154 0.406923 0.147645
#
# Coordination Sequence:
#
# PCOD9205450 Si02
#       7
#     8   8   8   8   8   8   8
#     4  10  22  38  62  87 111 164 221 261 310 364
#     4  10  21  44  66  84 117 166 220 275 321 361
#     4   8  15  27  46  74 108 153 195 228 284 349
#     4  11  23  39  64  96 127 167 211 261 325 390
#     4   8  14  28  47  70 110 155 192 231 278 346
#     4  11  20  35  58  90 131 166 198 251 315 394
#     4  10  21  35  55  92 131 163 201 250 313 384
#
# _framework density 22.919965000000001
#
# number of rings (size 3 to 8) (size 9 to 14) (size 15 to 20)
#    0.000    2.286    1.429    2.571    0.000    3.429 
#    0.000    6.429    0.000    2.571    0.000    0.000 
#    0.000    0.000    0.000    0.286    0.000    0.000 
#
# Total GULP energy -156125.497289 kJ/mol
# GULP energy per Si atom -5575.910617 kJ/mol
# Density = 2.286780 g / cm^3
# Si number density = 22.919965 Si / 1000 Ang^3
#
#
#
# Elastic Constant Matrix: (Units=GPa)
#
#
# Indices 1 2 3 4 5 6 
#
# 1 35.2136 1.1107 9.5045 0.0000 4.9909 0.0000
# 2 1.1107 105.7675 37.9896 0.0000 1.6460 0.0000
# 3 9.5045 37.9896 170.5076 0.0000 -2.5496 0.0000
# 4 0.0000 0.0000 0.0000 34.5321 0.0000 1.1724
# 5 4.9909 1.6460 -2.5496 0.0000 19.1244 0.0000
# 6 0.0000 0.0000 0.0000 1.1724 0.0000 13.0396
#
#
#
# Elastic Compliance Matrix: (Units=1/GPa)
#
#
# Indices 1 2 3 4 5 6 
#
# 1 0.030051 0.000496 -0.001907 0.000000 -0.008139 0.000000
# 2 0.000496 0.010313 -0.002345 0.000000 -0.001330 0.000000
# 3 -0.001907 -0.002345 0.006517 0.000000 0.001568 0.000000
# 4 0.000000 0.000000 0.000000 0.029047 0.000000 -0.002612
# 5 -0.008139 -0.001330 0.001568 0.000000 0.054737 0.000000
# 6 0.000000 0.000000 0.000000 -0.002612 0.000000 0.076924
#
#
# Mechanical properties :
#
#
# Convention : Reuss Voigt Hill
#
# Bulk Modulus (GPa) = 25.40150 45.41093 35.40621
# Shear Modulus (GPa) = 21.90829 30.86483 26.38656
#
# Velocity S-wave (km/s) = 3.09505 3.67363 3.39669
# Velocity P-wave (km/s) = 4.88664 6.15223 5.55559
#
# Compressibility (1/GPa) = 0.03936776
#
# Stress axis : x y z
#
# Youngs Moduli (GPa) = 33.27691 96.96941 153.44168
#
# Poissons Ratio (x) = -0.04811 0.29267
# Poissons Ratio (y) = -0.01651 0.35985
# Poissons Ratio (z) = 0.06347 0.22741
#
# Static dielectric constant tensor:
#      x y z
#    x 1.898100 0.000000 -0.000640 
#    y 0.000000 1.902360 0.000000 
#    z -0.000640 0.000000 1.873590 
# 
# From -- ./inp_files/170316.got.cif
#   From: 2010.05.17/outbox.cif.g08.bks.cpg/sg12_86_cif.got.tgz:170316.got - 2010.06.03 13:09:07.
