data_PCOD9205401
_publ_section_title
;
Structure prediction by ZEFSAII (Michael W. Deem and Ramdas Pophale) SiO2 
 PCOD9205401
Probable space group: C 2/M
;
_chemical_formula_sum "Si O2"
_cell_formula_units_Z 48
_cell_length_a 20.175742
_cell_length_b 9.946281
_cell_length_c 12.237255
_cell_angle_alpha 90.000000
_cell_angle_beta 65.033165
_cell_angle_gamma 90.000000
_cell_volume 2226.214959
_symmetry_space_group_name_H-M "C 2/M"
_symmetry_group_IT_number 12
_symmetry_cell_setting 'monoclinic'
loop_
_space_group_symop_operation_xyz
x,y,z
-x,y,-z
-x,-y,-z
x,-y,z
1/2+x,1/2+y,z
1/2-x,1/2+y,-z
1/2-x,1/2-y,-z
1/2+x,1/2-y,z
loop_
_atom_site_type_symbol
_atom_site_label
_atom_site_fract_x
_atom_site_fract_y
_atom_site_fract_z
Si Si1 0.939087 0.649434 0.375453
Si Si2 0.193418 0.348096 0.979704
Si Si3 0.583748 0.349521 0.973036
Si Si4 0.225211 0.854369 0.307097
Si Si5 0.565892 0.739174 0.394476
Si Si6 0.833648 0.153669 0.317631
O O1 0.930108 0.500000 0.336408
O O2 0.920502 0.652678 0.518098
O O3 0.888453 0.758809 0.353174
O O4 0.024198 0.696244 0.320957
O O5 0.188706 0.500000 0.028730
O O6 0.117789 0.267343 0.022638
O O7 0.225149 0.359543 0.835212
O O8 0.250000 0.250000 0.000000
O O9 0.589996 0.500000 0.018640
O O10 0.629078 0.352111 0.828326
O O11 0.500000 0.325872 0.000000
O O12 0.269517 0.500000 0.641208
O O13 0.142263 0.831380 0.325894
O O14 0.258008 0.734983 0.357109
O O15 0.500000 0.655871 0.500000
O O16 0.825106 0.000000 0.360493
#
# Coordination Sequence:
#
# PCOD9205401 Si02
#       6
#     8   8   8   8   8   8
#     4   9  19  37  57  78 109 144 180 224 272 324
#     4  10  21  37  57  83 114 145 183 225 272 327
#     4   9  19  37  57  78 110 145 181 228 277 323
#     4  10  21  38  59  82 110 146 184 229 274 321
#     4   8  20  37  57  81 106 144 182 228 272 325
#     4  10  21  35  55  83 110 144 185 225 274 329
#
# _framework density 21.561260000000001
#
# number of rings (size 3 to 8) (size 9 to 14) (size 15 to 20)
#    1.000    1.500    0.000    2.000    0.000    6.667 
#    0.000    5.000    0.000    0.000    0.000    0.000 
#    0.000    0.000    0.000    0.000    0.000    0.000 
#
# Total GULP energy -133679.835206 kJ/mol
# GULP energy per Si atom -5569.993134 kJ/mol
# Density = 2.151219 g / cm^3
# Si number density = 21.561260 Si / 1000 Ang^3
#
#
#
# Elastic Constant Matrix: (Units=GPa)
#
#
# Indices 1 2 3 4 5 6 
#
# 1 139.0691 110.3805 -0.1213 0.0000 -9.1899 0.0000
# 2 110.3805 222.9388 8.0032 0.0000 6.1677 0.0000
# 3 -0.1213 8.0032 24.4637 0.0000 -5.4932 0.0000
# 4 0.0000 0.0000 0.0000 70.6730 0.0000 -15.0403
# 5 -9.1899 6.1677 -5.4932 0.0000 32.5799 0.0000
# 6 0.0000 0.0000 0.0000 -15.0403 0.0000 27.7811
#
#
#
# Elastic Compliance Matrix: (Units=1/GPa)
#
#
# Indices 1 2 3 4 5 6 
#
# 1 0.012802 -0.006613 0.003450 0.000000 0.005445 0.000000
# 2 -0.006613 0.007997 -0.003542 0.000000 -0.003976 0.000000
# 3 0.003450 -0.003542 0.044091 0.000000 0.009078 0.000000
# 4 0.000000 0.000000 0.000000 0.015992 0.000000 0.008658
# 5 0.005445 -0.003976 0.009078 0.000000 0.034513 0.000000
# 6 0.000000 0.000000 0.000000 0.008658 0.000000 0.040683
#
#
# Mechanical properties :
#
#
# Convention : Reuss Voigt Hill
#
# Bulk Modulus (GPa) = 19.42525 69.22182 44.32354
# Shear Modulus (GPa) = 26.78823 44.08742 35.43783
#
# Velocity S-wave (km/s) = 3.52863 4.52680 4.05852
# Velocity P-wave (km/s) = 5.06266 7.71343 6.52409
#
# Compressibility (1/GPa) = 0.05147938
#
# Stress axis : x y z
#
# Youngs Moduli (GPa) = 78.11051 125.04759 22.68040
#
# Poissons Ratio (x) = 0.82695 -0.07824
# Poissons Ratio (y) = 0.51655 0.08033
# Poissons Ratio (z) = -0.26945 0.44290
#
# Static dielectric constant tensor:
#      x y z
#    x 1.703890 0.000000 0.075170 
#    y 0.000000 1.804110 0.000000 
#    z 0.075170 0.000000 1.749040 
# 
# From -- ./inp_files/229944.got.cif
#   From: 2010.05.17/outbox.cif.g08.bks.cpg/sg12_115_cif.got.tgz:229944.got - 2010.06.03 13:09:07.
