data_PCOD9205200
_publ_section_title
;
Structure prediction by ZEFSAII (Michael W. Deem and Ramdas Pophale) SiO2 
 PCOD9205200
Probable space group: C 2/M
;
_chemical_formula_sum "Si O2"
_cell_formula_units_Z 64
_cell_length_a 9.605533
_cell_length_b 14.890269
_cell_length_c 20.572796
_cell_angle_alpha 90.000000
_cell_angle_beta 97.016411
_cell_angle_gamma 90.000000
_cell_volume 2920.470002
_symmetry_space_group_name_H-M "C 2/M"
_symmetry_group_IT_number 12
_symmetry_cell_setting 'monoclinic'
loop_
_space_group_symop_operation_xyz
x,y,z
-x,y,-z
-x,-y,-z
x,-y,z
1/2+x,1/2+y,z
1/2-x,1/2+y,-z
1/2-x,1/2-y,-z
1/2+x,1/2-y,z
loop_
_atom_site_type_symbol
_atom_site_label
_atom_site_fract_x
_atom_site_fract_y
_atom_site_fract_z
Si Si1 0.128214 0.351074 0.051854
Si Si2 0.064496 0.328384 0.190237
Si Si3 0.850654 0.609363 0.569414
Si Si4 0.852578 0.867085 0.964229
Si Si5 0.788544 0.891795 0.307581
Si Si6 0.601256 0.397907 0.307966
Si Si7 0.170055 0.389848 0.579860
Si Si8 0.269777 0.355456 0.818746
O O1 0.102916 0.377385 0.124546
O O2 0.143507 0.242044 0.046128
O O3 0.256696 0.389095 0.019895
O O4 0.000000 0.377217 0.000000
O O5 0.159981 0.362817 0.254456
O O6 0.125846 0.229657 0.180742
O O7 0.896817 0.332691 0.191228
O O8 0.851568 0.500000 0.569331
O O9 0.747533 0.637030 0.621087
O O10 0.809025 0.636388 0.494107
O O11 0.012215 0.637628 0.590871
O O12 0.802850 0.899265 0.890632
O O13 0.000000 0.895754 0.000000
O O14 0.943593 0.858394 0.294812
O O15 0.788466 0.000000 0.304610
O O16 0.577720 0.500000 0.329582
O O17 0.707551 0.355449 0.366119
O O18 0.684033 0.403272 0.244757
O O19 0.170176 0.500000 0.582578
#
# Coordination Sequence:
#
# PCOD9205200 Si02
#       8
#     8   8   8   8   8   8   8   8
#     4   9  16  30  47  74 100 126 168 213 260 302
#     4  11  22  34  55  78 106 137 172 218 259 310
#     4   8  14  27  49  75 101 131 172 213 253 297
#     4   9  18  28  49  74 100 130 165 214 260 302
#     4  10  21  35  52  77 108 142 174 212 258 306
#     4  10  21  35  52  76 109 142 174 212 257 308
#     4   8  14  27  49  75 101 132 170 214 253 297
#     4  11  22  35  53  80 105 137 174 214 262 308
#
# _framework density 21.914280000000002
#
# number of rings (size 3 to 8) (size 9 to 14) (size 15 to 20)
#    0.000    2.500    1.250    2.250    7.000    2.000 
#    0.000    2.500    0.000    2.250    0.000    0.000 
#    0.000    0.000    0.000    0.000    0.000    0.000 
#
# Total GULP energy -178380.704479 kJ/mol
# GULP energy per Si atom -5574.397015 kJ/mol
# Density = 2.186440 g / cm^3
# Si number density = 21.914280 Si / 1000 Ang^3
#
#
#
# Elastic Constant Matrix: (Units=GPa)
#
#
# Indices 1 2 3 4 5 6 
#
# 1 181.4756 17.0899 85.2555 0.0000 -10.1364 0.0000
# 2 17.0899 41.6965 5.2570 0.0000 0.4644 0.0000
# 3 85.2555 5.2570 136.6766 0.0000 -3.5715 0.0000
# 4 0.0000 0.0000 0.0000 23.1909 0.0000 17.8515
# 5 -10.1364 0.4644 -3.5715 0.0000 42.6125 0.0000
# 6 0.0000 0.0000 0.0000 17.8515 0.0000 48.3212
#
#
#
# Elastic Compliance Matrix: (Units=1/GPa)
#
#
# Indices 1 2 3 4 5 6 
#
# 1 0.008187 -0.002747 -0.004960 0.000000 0.001562 0.000000
# 2 -0.002747 0.025027 0.000729 0.000000 -0.000865 0.000000
# 3 -0.004960 0.000729 0.010374 0.000000 -0.000318 0.000000
# 4 0.000000 0.000000 0.000000 0.060256 0.000000 -0.022260
# 5 0.001562 -0.000865 -0.000318 0.000000 0.023822 0.000000
# 6 0.000000 0.000000 0.000000 -0.022260 0.000000 0.028919
#
#
# Mechanical properties :
#
#
# Convention : Reuss Voigt Hill
#
# Bulk Modulus (GPa) = 33.75011 63.89483 48.82247
# Shear Modulus (GPa) = 27.71350 39.64134 33.67742
#
# Velocity S-wave (km/s) = 3.56002 4.25776 3.92443
# Velocity P-wave (km/s) = 5.68619 7.30694 6.54691
#
# Compressibility (1/GPa) = 0.02962953
#
# Stress axis : x y z
#
# Youngs Moduli (GPa) = 122.15186 39.95733 96.39326
#
# Poissons Ratio (x) = 0.10978 0.47812
# Poissons Ratio (y) = 0.33560 -0.07023
# Poissons Ratio (z) = 0.60588 -0.02911
#
# Static dielectric constant tensor:
#      x y z
#    x 1.738410 0.000000 0.003970 
#    y 0.000000 1.891990 0.000000 
#    z 0.003970 0.000000 1.800640 
# 
# From -- ./inp_files/258098.got.cif
#   From: 2010.05.17/outbox.cif.g08.bks.cpg/sg12_130_cif.got.tgz:258098.got - 2010.06.03 13:09:07.
