data_PCOD9205378
_publ_section_title
;
Structure prediction by ZEFSAII (Michael W. Deem and Ramdas Pophale) SiO2 
 PCOD9205378
Probable space group: C 2/M
;
_chemical_formula_sum "Si O2"
_cell_formula_units_Z 50
_cell_length_a 8.111205
_cell_length_b 20.061175
_cell_length_c 13.713164
_cell_angle_alpha 90.000000
_cell_angle_beta 98.628299
_cell_angle_gamma 90.000000
_cell_volume 2206.156000
_symmetry_space_group_name_H-M "C 2/M"
_symmetry_group_IT_number 12
_symmetry_cell_setting 'monoclinic'
loop_
_space_group_symop_operation_xyz
x,y,z
-x,y,-z
-x,-y,-z
x,-y,z
1/2+x,1/2+y,z
1/2-x,1/2+y,-z
1/2-x,1/2-y,-z
1/2+x,1/2-y,z
loop_
_atom_site_type_symbol
_atom_site_label
_atom_site_fract_x
_atom_site_fract_y
_atom_site_fract_z
Si Si1 0.668888 0.643845 0.354108
Si Si2 0.265564 0.421079 0.215903
Si Si3 0.428573 0.919284 0.100546
Si Si4 0.592416 0.577511 0.156419
Si Si5 0.000244 0.730529 0.386672
Si Si6 0.000000 0.500000 0.500000
Si Si7 0.267824 0.890965 0.574959
O O1 0.660422 0.586848 0.272711
O O2 0.530732 0.702016 0.330752
O O3 0.672252 0.614581 0.463641
O O4 0.839499 0.685650 0.354120
O O5 0.256715 0.500000 0.194683
O O6 0.077268 0.395090 0.184869
O O7 0.404827 0.394516 0.152493
O O8 0.318348 0.414403 0.333442
O O9 0.242122 0.893155 0.104836
O O10 0.414975 0.000000 0.110157
O O11 0.500000 0.905861 0.000000
O O12 0.574263 0.500000 0.128284
O O13 0.157872 0.681383 0.394180
O O14 0.000000 0.751006 0.500000
O O15 0.916547 0.441844 0.562557
#
# Coordination Sequence:
#
# PCOD9205378 Si02
#       7
#     8   8   8   8   8   2   8
#     4  11  23  36  56  78 117 160 200 242 282 331
#     4  10  21  35  54  86 121 151 190 238 290 343
#     4   9  19  37  61  85 117 154 184 230 300 364
#     4  10  23  37  57  91 121 149 193 243 289 356
#     4  10  21  36  50  75 106 161 207 244 275 320
#     4  12  20  32  56  86 114 170 204 232 294 344
#     4  11  21  33  55  81 120 164 200 240 283 340
#
# _framework density 22.663855000000002
#
# number of rings (size 3 to 8) (size 9 to 14) (size 15 to 20)
#    0.000    1.760    3.200    2.880    5.600    0.640 
#    0.000    4.800    0.000    0.000    0.000    4.480 
#    0.000    0.000    0.000    0.000    0.000    0.000 
#
# Total GULP energy -139218.230875 kJ/mol
# GULP energy per Si atom -5568.729235 kJ/mol
# Density = 2.261227 g / cm^3
# Si number density = 22.663855 Si / 1000 Ang^3
#
#
#
# Elastic Constant Matrix: (Units=GPa)
#
#
# Indices 1 2 3 4 5 6 
#
# 1 92.1075 2.5555 27.5514 0.0000 -43.0470 0.0000
# 2 2.5555 43.3466 -5.7759 0.0000 -0.8345 0.0000
# 3 27.5514 -5.7759 68.0496 0.0000 -18.8091 0.0000
# 4 0.0000 0.0000 0.0000 6.4884 0.0000 1.8898
# 5 -43.0470 -0.8345 -18.8091 0.0000 42.4820 0.0000
# 6 0.0000 0.0000 0.0000 1.8898 0.0000 10.3821
#
#
#
# Elastic Compliance Matrix: (Units=1/GPa)
#
#
# Indices 1 2 3 4 5 6 
#
# 1 0.021221 -0.001284 -0.003150 0.000000 0.020083 0.000000
# 2 -0.001284 0.023498 0.002601 0.000000 0.000312 0.000000
# 3 -0.003150 0.002601 0.017460 0.000000 0.004590 0.000000
# 4 0.000000 0.000000 0.000000 0.162751 0.000000 -0.029625
# 5 0.020083 0.000312 0.004590 0.000000 0.045928 0.000000
# 6 0.000000 0.000000 0.000000 -0.029625 0.000000 0.101712
#
#
# Mechanical properties :
#
#
# Convention : Reuss Voigt Hill
#
# Bulk Modulus (GPa) = 17.09047 28.01842 22.55444
# Shear Modulus (GPa) = 12.63456 23.81533 18.22494
#
# Velocity S-wave (km/s) = 2.36365 3.24513 2.83882
# Velocity P-wave (km/s) = 3.87381 5.14107 4.55176
#
# Compressibility (1/GPa) = 0.05851215
#
# Stress axis : x y z
#
# Youngs Moduli (GPa) = 47.12410 42.55670 57.27456
#
# Poissons Ratio (x) = 0.05465 0.18039
# Poissons Ratio (y) = 0.06051 -0.14894
# Poissons Ratio (z) = 0.14842 -0.11067
#
# Static dielectric constant tensor:
#      x y z
#    x 2.032700 0.000000 0.010510 
#    y 0.000000 1.796320 0.000000 
#    z 0.010510 0.000000 1.844060 
# 
# From -- ./inp_files/197033.got.cif
#   From: 2010.05.17/outbox.cif.g08.bks.cpg/sg12_99_cif.got.tgz:197033.got - 2010.06.03 13:09:07.
