data_PCOD9205627
_publ_section_title
;
Structure prediction by ZEFSAII (Michael W. Deem and Ramdas Pophale) SiO2 
 PCOD9205627
Probable space group: C 2/M
;
_chemical_formula_sum "Si O2"
_cell_formula_units_Z 60
_cell_length_a 24.476690
_cell_length_b 9.437626
_cell_length_c 15.090502
_cell_angle_alpha 90.000000
_cell_angle_beta 64.342540
_cell_angle_gamma 90.000000
_cell_volume 3142.216382
_symmetry_space_group_name_H-M "C 2/M"
_symmetry_group_IT_number 12
_symmetry_cell_setting 'monoclinic'
loop_
_space_group_symop_operation_xyz
x,y,z
-x,y,-z
-x,-y,-z
x,-y,z
1/2+x,1/2+y,z
1/2-x,1/2+y,-z
1/2-x,1/2-y,-z
1/2+x,1/2-y,z
loop_
_atom_site_type_symbol
_atom_site_label
_atom_site_fract_x
_atom_site_fract_y
_atom_site_fract_z
Si Si1 0.168627 0.662172 0.338992
Si Si2 0.832197 0.711829 0.454089
Si Si3 0.024353 0.328987 0.076183
Si Si4 0.969631 0.334880 0.298615
Si Si5 0.046479 0.165343 0.385065
Si Si6 0.732594 0.500000 0.480697
Si Si7 0.274122 0.667312 0.846969
Si Si8 0.343531 0.831644 0.949638
O O1 0.165782 0.500000 0.309373
O O2 0.178432 0.660587 0.437248
O O3 0.106211 0.745417 0.365431
O O4 0.218961 0.750150 0.250057
O O5 0.900848 0.682562 0.378085
O O6 0.784926 0.623396 0.429311
O O7 0.817231 0.876012 0.464059
O O8 0.028614 0.500000 0.064586
O O9 0.091719 0.283967 0.058262
O O10 0.979133 0.300181 0.188890
O O11 0.000000 0.272409 0.000000
O O12 0.987475 0.500000 0.299370
O O13 0.013037 0.235587 0.325632
O O14 0.000000 0.174266 0.500000
O O15 0.061345 0.000000 0.360321
O O16 0.285958 0.500000 0.827777
O O17 0.321978 0.740510 0.880580
O O18 0.208799 0.683646 0.939371
O O19 0.346532 0.000000 0.924374
#
# Coordination Sequence:
#
# PCOD9205627 Si02
#       8
#     8   8   8   8   8   4   8   8
#     4  12  23  38  58  89 126 158 201 251 300 371
#     4  11  23  42  62  87 118 161 206 251 300 360
#     4   9  19  37  59  88 116 150 200 252 297 356
#     4  11  21  38  64  91 122 163 200 248 307 372
#     4  11  24  37  59  92 125 160 198 246 313 370
#     4  10  24  44  60  82 120 160 206 252 294 344
#     4  10  21  35  59  90 119 157 198 250 311 372
#     4   9  18  38  61  86 119 154 199 252 313 365
#
# _framework density 19.094802999999999
#
# number of rings (size 3 to 8) (size 9 to 14) (size 15 to 20)
#    0.000    1.600    2.667    2.000    2.800    2.133 
#    4.800    0.000    0.000    1.600    0.000    0.000 
#    0.000    0.000    0.000    0.000    0.000    0.000 
#
# Total GULP energy -167025.499514 kJ/mol
# GULP energy per Si atom -5567.516650 kJ/mol
# Density = 1.905134 g / cm^3
# Si number density = 19.094803 Si / 1000 Ang^3
#
#
#
# Elastic Constant Matrix: (Units=GPa)
#
#
# Indices 1 2 3 4 5 6 
#
# 1 47.7499 13.6006 22.2185 0.0000 -1.7523 0.0000
# 2 13.6006 136.3743 28.0067 0.0000 -3.3932 0.0000
# 3 22.2185 28.0067 88.6326 0.0000 0.3189 0.0000
# 4 0.0000 0.0000 0.0000 20.4792 0.0000 -25.8862
# 5 -1.7523 -3.3932 0.3189 0.0000 16.6735 0.0000
# 6 0.0000 0.0000 0.0000 -25.8862 0.0000 -70.4337
#
#
#
# Elastic Compliance Matrix: (Units=1/GPa)
#
#
# Indices 1 2 3 4 5 6 
#
# 1 0.023995 -0.001173 -0.005653 0.000000 0.002391 0.000000
# 2 -0.001173 0.007944 -0.002222 0.000000 0.001536 0.000000
# 3 -0.005653 -0.002222 0.013406 0.000000 -0.001303 0.000000
# 4 0.000000 0.000000 0.000000 0.033341 0.000000 -0.012254
# 5 0.002391 0.001536 -0.001303 0.000000 0.060564 0.000000
# 6 0.000000 0.000000 0.000000 -0.012254 0.000000 -0.009694
#
#
# Mechanical properties :
#
#
# Convention : Reuss Voigt Hill
#
# Bulk Modulus (GPa) = 36.69688 44.48982 40.59335
# Shear Modulus (GPa) = 31.90104 7.27254 19.58679
#
# Velocity S-wave (km/s) = 4.09181 1.95369 3.20623
# Velocity P-wave (km/s) = 6.44856 5.33285 5.91706
#
# Compressibility (1/GPa) = 0.02725028
#
# Stress axis : x y z
#
# Youngs Moduli (GPa) = 41.67603 125.87789 74.59114
#
# Poissons Ratio (x) = 0.14760 0.42167
# Poissons Ratio (y) = 0.04887 0.16573
# Poissons Ratio (z) = 0.23560 0.27968
#
# Static dielectric constant tensor:
#      x y z
#    x 1.669960 0.000000 0.012800 
#    y 0.000000 1.657000 0.000000 
#    z 0.012800 0.000000 1.695940 
# 
# From -- ./inp_files/238554.got.cif
#   From: 2010.05.17/outbox.cif.g08.bks.cpg/sg12_120_cif.got.tgz:238554.got - 2010.06.03 13:09:07.
