data_PCOD9205416
_publ_section_title
;
Structure prediction by ZEFSAII (Michael W. Deem and Ramdas Pophale) SiO2 
 PCOD9205416
Probable space group: C 2/M
;
_chemical_formula_sum "Si O2"
_cell_formula_units_Z 48
_cell_length_a 28.025645
_cell_length_b 7.670799
_cell_length_c 14.965866
_cell_angle_alpha 90.000000
_cell_angle_beta 139.629960
_cell_angle_gamma 90.000000
_cell_volume 2083.945967
_symmetry_space_group_name_H-M "C 2/M"
_symmetry_group_IT_number 12
_symmetry_cell_setting 'monoclinic'
loop_
_space_group_symop_operation_xyz
x,y,z
-x,y,-z
-x,-y,-z
x,-y,z
1/2+x,1/2+y,z
1/2-x,1/2+y,-z
1/2-x,1/2-y,-z
1/2+x,1/2-y,z
loop_
_atom_site_type_symbol
_atom_site_label
_atom_site_fract_x
_atom_site_fract_y
_atom_site_fract_z
Si Si1 0.371314 0.703344 0.166044
Si Si2 0.928032 0.713961 0.843102
Si Si3 0.023907 0.301775 0.440442
Si Si4 0.231005 0.705239 0.317363
Si Si5 0.757571 0.290881 0.149644
Si Si6 0.887016 0.295448 0.592182
O O1 0.386401 0.500000 0.171035
O O2 0.447775 0.803085 0.276945
O O3 0.329455 0.721967 0.201159
O O4 0.312976 0.767929 0.009274
O O5 0.928617 0.500000 0.844147
O O6 0.850612 0.770896 0.776121
O O7 0.924714 0.773624 0.735430
O O8 0.000000 0.770862 0.000000
O O9 0.049013 0.500000 0.498553
O O10 0.083307 0.218923 0.458893
O O11 0.000000 0.216667 0.500000
O O12 0.231348 0.500000 0.335403
O O13 0.248308 0.737894 0.238188
O O14 0.299001 0.781806 0.470060
O O15 0.760962 0.500000 0.149397
O O16 0.905987 0.500000 0.614747
#
# Coordination Sequence:
#
# PCOD9205416 Si02
#       6
#     8   8   8   8   8   8
#     4  10  21  36  56  84 117 153 195 246 295 343
#     4   9  20  38  60  88 117 152 203 250 294 352
#     4  10  21  35  55  84 117 157 200 238 288 354
#     4  11  22  36  61  89 117 152 197 251 297 347
#     4  10  21  37  57  83 118 156 195 238 294 361
#     4  10  21  38  61  85 119 164 200 242 297 354
#
# _framework density 23.033224000000001
#
# number of rings (size 3 to 8) (size 9 to 14) (size 15 to 20)
#    0.000    2.000    0.000    3.000    2.333    4.333 
#    0.000    0.833    0.000    2.500    0.000    0.000 
#    0.000    0.000    0.000    0.000    0.000    0.000 
#
# Total GULP energy -134159.257063 kJ/mol
# GULP energy per Si atom -5589.969044 kJ/mol
# Density = 2.298080 g / cm^3
# Si number density = 23.033224 Si / 1000 Ang^3
#
#
#
# Elastic Constant Matrix: (Units=GPa)
#
#
# Indices 1 2 3 4 5 6 
#
# 1 118.7831 -1.6946 76.7365 0.0000 -5.6018 0.0000
# 2 -1.6946 49.3879 -2.6581 0.0000 0.9474 0.0000
# 3 76.7365 -2.6581 137.8972 0.0000 5.2334 0.0000
# 4 0.0000 0.0000 0.0000 21.7987 0.0000 9.1592
# 5 -5.6018 0.9474 5.2334 0.0000 39.5630 0.0000
# 6 0.0000 0.0000 0.0000 9.1592 0.0000 0.4602
#
#
#
# Elastic Compliance Matrix: (Units=1/GPa)
#
#
# Indices 1 2 3 4 5 6 
#
# 1 0.013470 -0.000003 -0.007606 0.000000 0.002913 0.000000
# 2 -0.000003 0.020280 0.000413 0.000000 -0.000541 0.000000
# 3 -0.007606 0.000413 0.011592 0.000000 -0.002620 0.000000
# 4 0.000000 0.000000 0.000000 -0.006231 0.000000 0.124009
# 5 0.002913 -0.000541 -0.002620 0.000000 0.026048 0.000000
# 6 0.000000 0.000000 0.000000 0.124009 0.000000 -0.295139
#
#
# Mechanical properties :
#
#
# Convention : Reuss Voigt Hill
#
# Bulk Modulus (GPa) = 32.31047 50.09288 41.20168
# Shear Modulus (GPa) = -24.35809 27.94336 1.79263
#
# Velocity S-wave (km/s) = -3.25548 3.48685 0.88316
# Velocity P-wave (km/s) = 0.26954 6.16491 4.35508
#
# Compressibility (1/GPa) = 0.03094972
#
# Stress axis : x y z
#
# Youngs Moduli (GPa) = 74.23961 49.30877 86.26705
#
# Poissons Ratio (x) = 0.00015 0.65617
# Poissons Ratio (y) = 0.00023 -0.03564
# Poissons Ratio (z) = 0.56469 -0.02037
#
# Static dielectric constant tensor:
#      x y z
#    x 1.870870 0.000000 -0.012570 
#    y 0.000000 1.877080 0.000000 
#    z -0.012570 0.000000 1.854560 
# 
# From -- ./inp_files/244853.got.cif
#   From: 2010.05.17/outbox.cif.g08.bks.cpg/sg12_123_cif.got.tgz:244853.got - 2010.06.03 13:09:07.
