data_PCOD9205779
_publ_section_title
;
Structure prediction by ZEFSAII (Michael W. Deem and Ramdas Pophale) SiO2 
 PCOD9205779
Probable space group: C 2/M
;
_chemical_formula_sum "Si O2"
_cell_formula_units_Z 56
_cell_length_a 8.755629
_cell_length_b 19.941009
_cell_length_c 20.071842
_cell_angle_alpha 90.000000
_cell_angle_beta 121.136737
_cell_angle_gamma 90.000000
_cell_volume 2999.596647
_symmetry_space_group_name_H-M "C 2/M"
_symmetry_group_IT_number 12
_symmetry_cell_setting 'monoclinic'
loop_
_space_group_symop_operation_xyz
x,y,z
-x,y,-z
-x,-y,-z
x,-y,z
1/2+x,1/2+y,z
1/2-x,1/2+y,-z
1/2-x,1/2-y,-z
1/2+x,1/2-y,z
loop_
_atom_site_type_symbol
_atom_site_label
_atom_site_fract_x
_atom_site_fract_y
_atom_site_fract_z
Si Si1 0.936740 0.346064 0.638982
Si Si2 0.134611 0.212167 0.668793
Si Si3 0.094843 0.578401 0.797148
Si Si4 0.206274 0.793231 0.924219
Si Si5 0.006270 0.924266 0.921382
Si Si6 0.159768 0.176719 0.482411
Si Si7 0.909376 0.308611 0.839919
O O1 0.791411 0.307816 0.652976
O O2 0.819330 0.368579 0.548290
O O3 0.079429 0.289864 0.650007
O O4 0.023217 0.399532 0.708247
O O5 0.222411 0.199319 0.759499
O O6 0.955178 0.169717 0.611059
O O7 0.060683 0.500000 0.800960
O O8 0.306771 0.589825 0.850167
O O9 0.000144 0.624197 0.831856
O O10 0.137064 0.866370 0.927720
O O11 0.364985 0.802215 0.907571
O O12 0.045592 0.751247 0.854028
O O13 0.250000 0.750000 0.000000
O O14 0.057557 0.000000 0.912667
O O15 0.000000 0.922550 0.000000
O O16 0.250000 0.250000 0.500000
O O17 0.000000 0.176320 0.500000
#
# Coordination Sequence:
#
# PCOD9205779 Si02
#       7
#     8   8   8   8   8   8   8
#     4   9  16  28  47  71 100 129 161 209 263 313
#     4   9  16  27  45  71  98 125 163 207 258 313
#     4  10  21  36  53  75 105 143 184 223 265 317
#     4  12  23  36  55  82 109 137 175 219 269 321
#     4  10  21  38  57  76 104 139 175 216 263 316
#     4   8  14  24  41  66  97 125 155 201 254 310
#     4  11  21  33  53  75 104 137 171 220 265 312
#
# _framework density 18.669177000000001
#
# number of rings (size 3 to 8) (size 9 to 14) (size 15 to 20)
#    0.000    2.143    0.000    5.571    0.000    0.571 
#    0.000    0.000    0.000   15.000    0.000    0.000 
#    0.000   53.714    0.000    0.000    0.000    0.429 
#
# Total GULP energy -155982.138144 kJ/mol
# GULP energy per Si atom -5570.790648 kJ/mol
# Density = 1.862669 g / cm^3
# Si number density = 18.669177 Si / 1000 Ang^3
#
#
#
# Elastic Constant Matrix: (Units=GPa)
#
#
# Indices 1 2 3 4 5 6 
#
# 1 40.7984 36.3858 12.3102 0.0000 5.5572 0.0000
# 2 36.3858 75.0268 18.6793 0.0000 8.4228 0.0000
# 3 12.3102 18.6793 111.2061 0.0000 10.4222 0.0000
# 4 0.0000 0.0000 0.0000 16.7862 0.0000 -1.4348
# 5 5.5572 8.4228 10.4222 0.0000 20.8304 0.0000
# 6 0.0000 0.0000 0.0000 -1.4348 0.0000 26.4815
#
#
#
# Elastic Compliance Matrix: (Units=1/GPa)
#
#
# Indices 1 2 3 4 5 6 
#
# 1 0.043524 -0.020521 -0.001113 0.000000 -0.002757 0.000000
# 2 -0.020521 0.024034 -0.001435 0.000000 -0.003525 0.000000
# 3 -0.001113 -0.001435 0.009731 0.000000 -0.003992 0.000000
# 4 0.000000 0.000000 0.000000 0.059850 0.000000 0.003243
# 5 -0.002757 -0.003525 -0.003992 0.000000 0.052165 0.000000
# 6 0.000000 0.000000 0.000000 0.003243 0.000000 0.037938
#
#
# Mechanical properties :
#
#
# Convention : Reuss Voigt Hill
#
# Bulk Modulus (GPa) = 32.10216 40.19801 36.15008
# Shear Modulus (GPa) = 17.62040 23.46335 20.54188
#
# Velocity S-wave (km/s) = 3.07550 3.54898 3.32069
# Velocity P-wave (km/s) = 5.46299 6.19453 5.84022
#
# Compressibility (1/GPa) = 0.03115055
#
# Stress axis : x y z
#
# Youngs Moduli (GPa) = 22.97598 41.60812 102.76875
#
# Poissons Ratio (x) = 0.85385 0.11434
# Poissons Ratio (y) = 0.47149 0.14746
# Poissons Ratio (z) = 0.02556 0.05970
#
# Static dielectric constant tensor:
#      x y z
#    x 1.668380 0.000000 -0.002290 
#    y 0.000000 1.613940 0.000000 
#    z -0.002290 0.000000 1.776230 
# 
# From -- ./inp_files/301780.got.cif
#   From: 2010.05.17/outbox.cif.g08.bks.cpg/sg12_151_cif.got.tgz:301780.got - 2010.06.03 13:09:07.
