data_PCOD9205699
_publ_section_title
;
Structure prediction by ZEFSAII (Michael W. Deem and Ramdas Pophale) SiO2 
 PCOD9205699
Probable space group: C 2/M
;
_chemical_formula_sum "Si O2"
_cell_formula_units_Z 44
_cell_length_a 8.992066
_cell_length_b 20.606428
_cell_length_c 11.260239
_cell_angle_alpha 90.000000
_cell_angle_beta 70.208059
_cell_angle_gamma 90.000000
_cell_volume 1963.208338
_symmetry_space_group_name_H-M "C 2/M"
_symmetry_group_IT_number 12
_symmetry_cell_setting 'monoclinic'
loop_
_space_group_symop_operation_xyz
x,y,z
-x,y,-z
-x,-y,-z
x,-y,z
1/2+x,1/2+y,z
1/2-x,1/2+y,-z
1/2-x,1/2-y,-z
1/2+x,1/2-y,z
loop_
_atom_site_type_symbol
_atom_site_label
_atom_site_fract_x
_atom_site_fract_y
_atom_site_fract_z
Si Si1 0.186162 0.354252 0.476147
Si Si2 0.577199 0.895913 0.101849
Si Si3 0.208491 0.270018 0.698284
Si Si4 0.815407 0.500000 0.240294
Si Si5 0.810889 0.500000 0.517944
Si Si6 0.875583 0.260858 0.862457
Si Si7 0.338163 0.500000 0.965910
O O1 0.199204 0.329561 0.609432
O O2 0.263941 0.295531 0.382693
O O3 0.244713 0.427342 0.429255
O O4 0.000000 0.353525 0.500000
O O5 0.633746 0.837235 0.167053
O O6 0.436428 0.939967 0.189026
O O7 0.500000 0.869897 0.000000
O O8 0.729348 0.939017 0.032288
O O9 0.346300 0.281949 0.754560
O O10 0.062790 0.255788 0.826832
O O11 0.770617 0.500000 0.388909
O O12 0.679511 0.500000 0.174840
O O13 0.000000 0.500000 0.500000
O O14 0.750000 0.250000 0.000000
O O15 0.500000 0.500000 0.000000
#
# Coordination Sequence:
#
# PCOD9205699 Si02
#       7
#     8   8   8   4   4   8   4
#     4  10  21  42  67  98 127 173 229 278 336 396
#     4   9  19  37  59  87 126 167 220 262 314 409
#     4  11  23  40  66  92 134 173 223 275 338 398
#     4   9  18  35  64  93 122 169 215 275 329 399
#     4  10  21  35  67 104 123 160 233 292 325 392
#     4  12  24  39  61  94 129 175 220 272 331 397
#     4   9  19  36  62  90 130 171 209 264 346 406
#
# _framework density 22.412292999999998
#
# number of rings (size 3 to 8) (size 9 to 14) (size 15 to 20)
#    0.000    1.818    1.818    3.818    2.545    2.909 
#    0.000    0.000    0.000    3.273    0.000    0.000 
#    0.000    0.000    0.000    0.000    0.000    0.000 
#
# Total GULP energy -122516.495316 kJ/mol
# GULP energy per Si atom -5568.931605 kJ/mol
# Density = 2.236128 g / cm^3
# Si number density = 22.412293 Si / 1000 Ang^3
#
#
#
# Elastic Constant Matrix: (Units=GPa)
#
#
# Indices 1 2 3 4 5 6 
#
# 1 89.0302 12.2325 15.5727 0.0000 21.8960 0.0000
# 2 12.2325 118.0875 19.8814 0.0000 -5.0171 0.0000
# 3 15.5727 19.8814 54.2887 0.0000 4.8113 0.0000
# 4 0.0000 0.0000 0.0000 30.2756 0.0000 -2.2460
# 5 21.8960 -5.0171 4.8113 0.0000 43.8876 0.0000
# 6 0.0000 0.0000 0.0000 -2.2460 0.0000 21.0226
#
#
#
# Elastic Compliance Matrix: (Units=1/GPa)
#
#
# Indices 1 2 3 4 5 6 
#
# 1 0.013511 -0.001198 -0.002855 0.000000 -0.006564 0.000000
# 2 -0.001198 0.009218 -0.003210 0.000000 0.002003 0.000000
# 3 -0.002855 -0.003210 0.020520 0.000000 -0.001192 0.000000
# 4 0.000000 0.000000 0.000000 0.033294 0.000000 0.003557
# 5 -0.006564 0.002003 -0.001192 0.000000 0.026420 0.000000
# 6 0.000000 0.000000 0.000000 0.003557 0.000000 0.047948
#
#
# Mechanical properties :
#
#
# Convention : Reuss Voigt Hill
#
# Bulk Modulus (GPa) = 34.81475 39.64218 37.22846
# Shear Modulus (GPa) = 28.56980 33.28514 30.92747
#
# Velocity S-wave (km/s) = 3.57422 3.85792 3.71878
# Velocity P-wave (km/s) = 5.70972 6.12950 5.92333
#
# Compressibility (1/GPa) = 0.02872346
#
# Stress axis : x y z
#
# Youngs Moduli (GPa) = 74.01609 108.48499 48.73273
#
# Poissons Ratio (x) = 0.12994 0.13914
# Poissons Ratio (y) = 0.08865 0.15642
# Poissons Ratio (z) = 0.21132 0.34820
#
# Static dielectric constant tensor:
#      x y z
#    x 1.940880 0.000000 0.052420 
#    y 0.000000 1.912290 0.000000 
#    z 0.052420 0.000000 1.910080 
# 
# From -- ./inp_files/120780.got.cif
#   From: 2010.05.17/outbox.cif.g08.bks.cpg/sg12_61_cif.got.tgz:120780.got - 2010.06.03 13:09:07.
