data_PCOD9205840
_publ_section_title
;
Structure prediction by ZEFSAII (Michael W. Deem and Ramdas Pophale) SiO2 
 PCOD9205840
Probable space group: C 2/M
;
_chemical_formula_sum "Si O2"
_cell_formula_units_Z 64
_cell_length_a 15.186190
_cell_length_b 8.964068
_cell_length_c 27.607693
_cell_angle_alpha 90.000000
_cell_angle_beta 61.427198
_cell_angle_gamma 90.000000
_cell_volume 3300.521152
_symmetry_space_group_name_H-M "C 2/M"
_symmetry_group_IT_number 12
_symmetry_cell_setting 'monoclinic'
loop_
_space_group_symop_operation_xyz
x,y,z
-x,y,-z
-x,-y,-z
x,-y,z
1/2+x,1/2+y,z
1/2-x,1/2+y,-z
1/2-x,1/2-y,-z
1/2+x,1/2-y,z
loop_
_atom_site_type_symbol
_atom_site_label
_atom_site_fract_x
_atom_site_fract_y
_atom_site_fract_z
Si Si1 0.479821 0.681340 0.295846
Si Si2 0.401906 0.677768 0.212650
Si Si3 0.110905 0.829891 0.992715
Si Si4 0.108364 0.179697 0.493768
Si Si5 0.950863 0.668920 0.895137
Si Si6 0.318930 0.320141 0.417011
Si Si7 0.296322 0.322115 0.761255
Si Si8 0.733996 0.827587 0.128431
O O1 0.479161 0.500000 0.296494
O O2 0.459917 0.727309 0.245811
O O3 0.391915 0.730580 0.354699
O O4 0.591329 0.726616 0.282022
O O5 0.401298 0.500000 0.211096
O O6 0.456272 0.737940 0.150155
O O7 0.290476 0.741309 0.245264
O O8 0.183353 0.771767 0.931578
O O9 0.144193 0.000000 0.995040
O O10 0.102138 0.737214 0.043922
O O11 0.000000 0.835195 0.000000
O O12 0.208109 0.249731 0.443482
O O13 0.126345 0.215845 0.546088
O O14 0.000000 0.226883 0.500000
O O15 0.112698 0.000000 0.487805
O O16 0.982988 0.500000 0.896799
O O17 0.868916 0.668836 0.874236
O O18 0.308863 0.500000 0.417845
O O19 0.288070 0.500000 0.758715
O O20 0.278187 0.273249 0.821534
O O21 0.759596 0.000000 0.135590
#
# Coordination Sequence:
#
# PCOD9205840 Si02
#       8
#     8   8   8   8   8   8   8   8
#     4   9  20  38  58  81 113 153 192 232 283 337
#     4  11  22  39  59  80 110 150 191 234 289 344
#     4  10  21  36  54  77 107 144 183 227 285 348
#     4   9  18  33  55  85 119 154 189 232 286 331
#     4  11  22  36  56  82 109 141 187 236 283 339
#     4   9  18  35  57  81 114 154 195 234 274 332
#     4  11  22  38  60  86 112 146 191 236 287 344
#     4  10  21  37  56  81 112 146 185 229 283 345
#
# _framework density 19.390877
#
# number of rings (size 3 to 8) (size 9 to 14) (size 15 to 20)
#    0.000    2.000    1.250    2.250    0.000    3.500 
#    0.000    3.750    0.000    0.000    0.000    0.000 
#    0.000    0.000    0.000    0.000    0.000    0.000 
#
# Total GULP energy -178615.000331 kJ/mol
# GULP energy per Si atom -5581.718760 kJ/mol
# Density = 1.934674 g / cm^3
# Si number density = 19.390877 Si / 1000 Ang^3
#
#
#
# Elastic Constant Matrix: (Units=GPa)
#
#
# Indices 1 2 3 4 5 6 
#
# 1 86.2776 11.1445 19.9373 0.0000 -27.2860 0.0000
# 2 11.1445 37.2890 19.6363 0.0000 -6.7526 0.0000
# 3 19.9373 19.6363 106.0278 0.0000 -31.3034 0.0000
# 4 0.0000 0.0000 0.0000 23.2920 0.0000 -6.4427
# 5 -27.2860 -6.7526 -31.3034 0.0000 27.7017 0.0000
# 6 0.0000 0.0000 0.0000 -6.4427 0.0000 30.8160
#
#
#
# Elastic Compliance Matrix: (Units=1/GPa)
#
#
# Indices 1 2 3 4 5 6 
#
# 1 0.017692 -0.003340 0.003296 0.000000 0.020337 0.000000
# 2 -0.003340 0.030390 -0.005679 0.000000 -0.002300 0.000000
# 3 0.003296 -0.005679 0.015627 0.000000 0.019521 0.000000
# 4 0.000000 0.000000 0.000000 0.045569 0.000000 0.009527
# 5 0.020337 -0.002300 0.019521 0.000000 0.077629 0.000000
# 6 0.000000 0.000000 0.000000 0.009527 0.000000 0.034443
#
#
# Mechanical properties :
#
#
# Convention : Reuss Voigt Hill
#
# Bulk Modulus (GPa) = 19.13446 36.78118 27.95782
# Shear Modulus (GPa) = 19.98274 28.28702 24.13488
#
# Velocity S-wave (km/s) = 3.21366 3.82354 3.53179
# Velocity P-wave (km/s) = 4.86408 6.20501 5.57501
#
# Compressibility (1/GPa) = 0.05226173
#
# Stress axis : x y z
#
# Youngs Moduli (GPa) = 56.52271 32.90548 63.99312
#
# Poissons Ratio (x) = 0.10992 -0.21093
# Poissons Ratio (y) = 0.18881 0.36342
# Poissons Ratio (z) = -0.18630 0.18687
#
# Static dielectric constant tensor:
#      x y z
#    x 1.696980 0.000000 -0.004440 
#    y 0.000000 1.672620 0.000000 
#    z -0.004440 0.000000 1.671030 
# 
# From -- ./inp_files/338727.got.cif
#   From: 2010.05.17/outbox.cif.g08.bks.cpg/sg12_170_cif.got.tgz:338727.got - 2010.06.03 13:09:07.
