data_PCOD9205559
_publ_section_title
;
Structure prediction by ZEFSAII (Michael W. Deem and Ramdas Pophale) SiO2 
 PCOD9205559
Probable space group: C 2/M
;
_chemical_formula_sum "Si O2"
_cell_formula_units_Z 32
_cell_length_a 9.759146
_cell_length_b 23.155508
_cell_length_c 7.137388
_cell_angle_alpha 90.000000
_cell_angle_beta 123.484873
_cell_angle_gamma 90.000000
_cell_volume 1345.203211
_symmetry_space_group_name_H-M "C 2/M"
_symmetry_group_IT_number 12
_symmetry_cell_setting 'monoclinic'
loop_
_space_group_symop_operation_xyz
x,y,z
-x,y,-z
-x,-y,-z
x,-y,z
1/2+x,1/2+y,z
1/2-x,1/2+y,-z
1/2-x,1/2-y,-z
1/2+x,1/2-y,z
loop_
_atom_site_type_symbol
_atom_site_label
_atom_site_fract_x
_atom_site_fract_y
_atom_site_fract_z
Si Si1 0.614440 0.629711 0.315035
Si Si2 0.594901 0.500000 0.375492
Si Si3 0.976057 0.500000 0.760302
Si Si4 0.023361 0.626850 0.309692
Si Si5 0.786853 0.182577 0.016393
O O1 0.565654 0.561957 0.256830
O O2 0.779706 0.630805 0.568566
O O3 0.668256 0.659028 0.159058
O O4 0.449025 0.662932 0.251281
O O5 0.500000 0.500000 0.500000
O O6 0.785949 0.500000 0.567739
O O7 0.038814 0.560294 0.729559
O O8 0.000000 0.500000 0.000000
O O9 0.000000 0.652600 0.500000
O O10 0.889551 0.654620 0.073670
O O11 0.750000 0.250000 0.000000
#
# Coordination Sequence:
#
# PCOD9205559 Si02
#       5
#     8   4   4   8   8
#     4   9  21  41  62  93 121 157 207 259 308 377
#     4  10  22  40  63  94 127 159 203 254 327 375
#     4  10  21  35  57  95 122 154 195 255 316 377
#     4   9  19  38  62  85 121 158 199 252 313 367
#     4  10  21  38  62  90 118 163 213 250 303 361
#
# _framework density 23.788228
#
# number of rings (size 3 to 8) (size 9 to 14) (size 15 to 20)
#    0.000    2.500    0.000    0.375    3.500    6.000 
#    4.500    3.750    0.000    0.000    0.000    0.000 
#    0.000    0.000    0.000    0.000    0.000    0.000 
#
# Total GULP energy -89187.092427 kJ/mol
# GULP energy per Si atom -5574.193277 kJ/mol
# Density = 2.373408 g / cm^3
# Si number density = 23.788228 Si / 1000 Ang^3
#
#
#
# Elastic Constant Matrix: (Units=GPa)
#
#
# Indices 1 2 3 4 5 6 
#
# 1 116.9348 62.6374 46.0859 0.0000 22.9514 0.0000
# 2 62.6374 207.6590 54.9450 0.0000 32.5316 0.0000
# 3 46.0859 54.9450 124.5579 0.0000 30.9636 0.0000
# 4 0.0000 0.0000 0.0000 52.2317 0.0000 25.4690
# 5 22.9514 32.5316 30.9636 0.0000 62.4697 0.0000
# 6 0.0000 0.0000 0.0000 25.4690 0.0000 15.9146
#
#
#
# Elastic Compliance Matrix: (Units=1/GPa)
#
#
# Indices 1 2 3 4 5 6 
#
# 1 0.011216 -0.002431 -0.002701 0.000000 -0.001516 0.000000
# 2 -0.002431 0.006179 -0.001424 0.000000 -0.001619 0.000000
# 3 -0.002701 -0.001424 0.010521 0.000000 -0.003481 0.000000
# 4 0.000000 0.000000 0.000000 0.087168 0.000000 -0.139499
# 5 -0.001516 -0.001619 -0.003481 0.000000 0.019133 0.000000
# 6 0.000000 0.000000 0.000000 -0.139499 0.000000 0.286084
#
#
# Mechanical properties :
#
#
# Convention : Reuss Voigt Hill
#
# Bulk Modulus (GPa) = 67.54330 86.27645 76.90987
# Shear Modulus (GPa) = 11.40647 45.15542 28.28095
#
# Velocity S-wave (km/s) = 2.19213 4.36159 3.45173
# Velocity P-wave (km/s) = 5.90444 7.85569 6.94890
#
# Compressibility (1/GPa) = 0.01480532
#
# Stress axis : x y z
#
# Youngs Moduli (GPa) = 89.15904 161.83205 95.04751
#
# Poissons Ratio (x) = 0.39342 0.25668
# Poissons Ratio (y) = 0.21675 0.13533
# Poissons Ratio (z) = 0.24078 0.23042
#
# Static dielectric constant tensor:
#      x y z
#    x 1.842850 0.000000 0.150850 
#    y 0.000000 1.903060 0.000000 
#    z 0.150850 0.000000 1.777870 
# 
# From -- ./inp_files/48341.got.cif
#   From: 2010.05.17/outbox.cif.g08.bks.cpg/sg12_25_cif.got.tgz:48341.got - 2010.06.03 13:09:07.
