data_PCOD9205952
_publ_section_title
;
Structure prediction by ZEFSAII (Michael W. Deem and Ramdas Pophale) SiO2 
 PCOD9205952
Probable space group: C 2/M
;
_chemical_formula_sum "Si O2"
_cell_formula_units_Z 64
_cell_length_a 19.214120
_cell_length_b 8.113572
_cell_length_c 22.589121
_cell_angle_alpha 90.000000
_cell_angle_beta 57.359674
_cell_angle_gamma 90.000000
_cell_volume 2965.388932
_symmetry_space_group_name_H-M "C 2/M"
_symmetry_group_IT_number 12
_symmetry_cell_setting 'monoclinic'
loop_
_space_group_symop_operation_xyz
x,y,z
-x,y,-z
-x,-y,-z
x,-y,z
1/2+x,1/2+y,z
1/2-x,1/2+y,-z
1/2-x,1/2-y,-z
1/2+x,1/2-y,z
loop_
_atom_site_type_symbol
_atom_site_label
_atom_site_fract_x
_atom_site_fract_y
_atom_site_fract_z
Si Si1 0.041453 0.811045 0.422773
Si Si2 0.150859 0.315995 0.277618
Si Si3 0.726373 0.301867 0.076363
Si Si4 0.380100 0.198279 0.240205
Si Si5 0.730450 0.302755 0.602777
Si Si6 0.811322 0.687970 0.152617
Si Si7 0.119090 0.693510 0.545334
Si Si8 0.054542 0.196986 0.214641
O O1 0.962399 0.802685 0.415898
O O2 0.000000 0.735455 0.500000
O O3 0.115097 0.715120 0.358599
O O4 0.065401 0.000000 0.422552
O O5 0.184420 0.500000 0.256907
O O6 0.221558 0.190633 0.225629
O O7 0.076755 0.289564 0.265089
O O8 0.730039 0.500000 0.078466
O O9 0.789241 0.236701 0.098636
O O10 0.632240 0.256378 0.136677
O O11 0.750000 0.250000 0.000000
O O12 0.304735 0.253731 0.317226
O O13 0.368747 0.261602 0.177799
O O14 0.466284 0.256377 0.228591
O O15 0.378988 0.000000 0.238956
O O16 0.725232 0.500000 0.599662
O O17 0.821980 0.257336 0.537256
O O18 0.670835 0.221552 0.581123
O O19 0.839163 0.500000 0.129895
O O20 0.097879 0.500000 0.550386
O O21 0.056966 0.000000 0.223518
#
# Coordination Sequence:
#
# PCOD9205952 Si02
#       8
#     8   8   8   8   8   8   8   8
#     4  11  24  38  53  73 103 144 186 233 292 345
#     4  11  22  37  59  83 110 146 194 244 288 343
#     4   9  19  38  64  90 118 154 191 229 275 331
#     4  11  22  36  58  85 115 150 192 237 283 336
#     4  10  21  36  55  77 106 143 181 230 288 343
#     4   9  21  40  59  85 121 156 190 232 286 344
#     4  10  21  37  54  75 102 137 186 237 286 342
#     4  10  21  39  61  86 119 154 190 231 280 337
#
# _framework density 21.582331
#
# number of rings (size 3 to 8) (size 9 to 14) (size 15 to 20)
#    0.000    1.875    0.000    4.500    1.750    6.000 
#    0.000    0.625    0.000    3.750    0.000    0.000 
#    0.000    0.000    0.000    0.000    0.000    0.000 
#
# Total GULP energy -178720.716002 kJ/mol
# GULP energy per Si atom -5585.022375 kJ/mol
# Density = 2.153321 g / cm^3
# Si number density = 21.582331 Si / 1000 Ang^3
#
#
#
# Elastic Constant Matrix: (Units=GPa)
#
#
# Indices 1 2 3 4 5 6 
#
# 1 64.4937 -4.8758 2.2362 -0.0001 9.3068 0.0000
# 2 -4.8758 60.7648 4.9955 -0.0002 -2.8866 -0.0001
# 3 2.2362 4.9955 111.5192 -0.0001 15.8091 -0.0001
# 4 -0.0001 -0.0002 -0.0001 29.1540 0.0000 0.4608
# 5 9.3068 -2.8866 15.8091 0.0000 25.6592 -0.0001
# 6 0.0000 -0.0001 -0.0001 0.4608 -0.0001 18.6224
#
#
#
# Elastic Compliance Matrix: (Units=1/GPa)
#
#
# Indices 1 2 3 4 5 6 
#
# 1 0.016452 0.000986 0.000500 0.000000 -0.006164 0.000000
# 2 0.000986 0.016729 -0.001079 0.000000 0.002189 0.000000
# 3 0.000500 -0.001079 0.009914 0.000000 -0.006411 0.000000
# 4 0.000000 0.000000 0.000000 0.034314 0.000000 -0.000849
# 5 -0.006164 0.002189 -0.006411 0.000000 0.045404 0.000000
# 6 0.000000 0.000000 0.000000 -0.000849 0.000000 0.053720
#
#
# Mechanical properties :
#
#
# Convention : Reuss Voigt Hill
#
# Bulk Modulus (GPa) = 22.77479 26.83215 24.80347
# Shear Modulus (GPa) = 26.26652 30.31524 28.29088
#
# Velocity S-wave (km/s) = 3.49239 3.75191 3.62447
# Velocity P-wave (km/s) = 5.18052 5.58825 5.38825
#
# Compressibility (1/GPa) = 0.04390819
#
# Stress axis : x y z
#
# Youngs Moduli (GPa) = 60.78228 59.77719 100.86506
#
# Poissons Ratio (x) = -0.05895 -0.05041
# Poissons Ratio (y) = -0.05995 0.10888
# Poissons Ratio (z) = -0.03038 0.06453
#
# Static dielectric constant tensor:
#      x y z
#    x 1.835480 0.000000 0.051640 
#    y 0.000000 1.761640 0.000000 
#    z 0.051640 0.000000 1.788440 
# 
# From -- ./inp_files/319967.got.cif
#   From: 2010.05.17/outbox.cif.g08.bks.cpg/sg12_160_cif.got.tgz:319967.got - 2010.06.03 13:09:07.
