data_PCOD9205983
_publ_section_title
;
Structure prediction by ZEFSAII (Michael W. Deem and Ramdas Pophale) SiO2 
 PCOD9205983
Probable space group: C 2/M
;
_chemical_formula_sum "Si O2"
_cell_formula_units_Z 64
_cell_length_a 32.597547
_cell_length_b 8.655999
_cell_length_c 26.330909
_cell_angle_alpha 90.000000
_cell_angle_beta 150.647783
_cell_angle_gamma 90.000000
_cell_volume 3641.840437
_symmetry_space_group_name_H-M "C 2/M"
_symmetry_group_IT_number 12
_symmetry_cell_setting 'monoclinic'
loop_
_space_group_symop_operation_xyz
x,y,z
-x,y,-z
-x,-y,-z
x,-y,z
1/2+x,1/2+y,z
1/2-x,1/2+y,-z
1/2-x,1/2-y,-z
1/2+x,1/2-y,z
loop_
_atom_site_type_symbol
_atom_site_label
_atom_site_fract_x
_atom_site_fract_y
_atom_site_fract_z
Si Si1 0.138364 0.184648 0.920034
Si Si2 0.448404 0.812006 0.895994
Si Si3 0.510583 0.186896 0.173083
Si Si4 0.893986 0.684243 0.430011
Si Si5 0.740982 0.813033 0.329140
Si Si6 0.327398 0.184714 0.151978
Si Si7 0.075232 0.815557 0.646504
Si Si8 0.800155 0.314297 0.601419
O O1 0.133211 0.260756 0.858868
O O2 0.063915 0.240224 0.875560
O O3 0.136581 0.000000 0.912306
O O4 0.228988 0.227149 0.041451
O O5 0.488220 0.766623 0.884971
O O6 0.350712 0.768377 0.790975
O O7 0.449439 0.000000 0.897651
O O8 0.500000 0.755818 0.000000
O O9 0.602169 0.231893 0.293047
O O10 0.504327 0.000000 0.168601
O O11 0.900236 0.500000 0.434988
O O12 0.815704 0.737290 0.378938
O O13 0.887171 0.748837 0.365341
O O14 0.980281 0.752322 0.545671
O O15 0.739211 0.768749 0.386740
O O16 0.748031 0.000000 0.333690
O O17 0.372523 0.261306 0.248487
O O18 0.333852 0.000000 0.163239
O O19 0.073405 0.000000 0.641647
O O20 0.798753 0.500000 0.598508
O O21 0.750000 0.250000 0.500000
#
# Coordination Sequence:
#
# PCOD9205983 Si02
#       8
#     8   8   8   8   8   8   8   8
#     4  10  21  36  55  80 109 142 179 219 265 317
#     4   8  15  30  53  78 102 133 175 218 261 312
#     4   9  18  33  52  76 106 137 172 218 268 312
#     4  11  22  37  56  80 111 143 176 218 269 318
#     4   9  18  34  53  76 106 137 174 220 263 308
#     4  10  21  38  57  79 109 141 177 221 267 316
#     4  11  22  38  59  81 106 139 180 221 265 317
#     4   9  19  34  52  74 103 138 176 219 262 308
#
# _framework density 17.573532
#
# number of rings (size 3 to 8) (size 9 to 14) (size 15 to 20)
#    0.000    2.375    0.000    5.250    0.000    4.500 
#    0.000    5.625    0.000    0.750    0.000    0.000 
#    0.000    0.000    0.000    0.000    0.000    0.000 
#
# Total GULP energy -178588.464742 kJ/mol
# GULP energy per Si atom -5580.889523 kJ/mol
# Density = 1.753353 g / cm^3
# Si number density = 17.573532 Si / 1000 Ang^3
#
#
#
# Elastic Constant Matrix: (Units=GPa)
#
#
# Indices 1 2 3 4 5 6 
#
# 1 165.5358 54.2601 114.0577 0.0000 12.8426 0.0000
# 2 54.2601 74.8378 51.0319 0.0000 -2.2714 0.0000
# 3 114.0577 51.0319 143.0849 0.0000 -23.8374 0.0000
# 4 0.0000 0.0000 0.0000 27.3817 0.0000 -0.2631
# 5 12.8426 -2.2714 -23.8374 0.0000 29.3215 0.0000
# 6 0.0000 0.0000 0.0000 -0.2631 0.0000 29.1211
#
#
#
# Elastic Compliance Matrix: (Units=1/GPa)
#
#
# Indices 1 2 3 4 5 6 
#
# 1 0.029399 -0.003070 -0.028367 0.000000 -0.036176 0.000000
# 2 -0.003070 0.018468 -0.004253 0.000000 -0.000682 0.000000
# 3 -0.028367 -0.004253 0.038323 0.000000 0.043251 0.000000
# 4 0.000000 0.000000 0.000000 0.036524 0.000000 0.000330
# 5 -0.036176 -0.000682 0.043251 0.000000 0.085058 0.000000
# 6 0.000000 0.000000 0.000000 0.000330 0.000000 0.034342
#
#
# Mechanical properties :
#
#
# Convention : Reuss Voigt Hill
#
# Bulk Modulus (GPa) = 67.52103 91.35091 79.43597
# Shear Modulus (GPa) = 15.70196 28.10546 21.90371
#
# Velocity S-wave (km/s) = 2.99239 4.00347 3.53427
# Velocity P-wave (km/s) = 7.10244 8.57119 7.87115
#
# Compressibility (1/GPa) = 0.01481020
#
# Stress axis : x y z
#
# Youngs Moduli (GPa) = 34.01422 54.14912 26.09368
#
# Poissons Ratio (x) = 0.16624 0.74020
# Poissons Ratio (y) = 0.10443 0.11097
# Poissons Ratio (z) = 0.96489 0.23029
#
# Static dielectric constant tensor:
#      x y z
#    x 1.570890 0.000000 -0.002760 
#    y 0.000000 1.594910 0.000000 
#    z -0.002760 0.000000 1.585050 
# 
# From -- ./inp_files/353557.got.cif
#   From: 2010.05.17/outbox.cif.g08.bks.cpg/sg12_177_cif.got.tgz:353557.got - 2010.06.03 13:09:07.
