data_PCOD9205705
_publ_section_title
;
Structure prediction by ZEFSAII (Michael W. Deem and Ramdas Pophale) SiO2 
 PCOD9205705
Probable space group: C 2/M
;
_chemical_formula_sum "Si O2"
_cell_formula_units_Z 56
_cell_length_a 20.867811
_cell_length_b 23.648859
_cell_length_c 17.709326
_cell_angle_alpha 90.000000
_cell_angle_beta 158.848335
_cell_angle_gamma 90.000000
_cell_volume 3153.561466
_symmetry_space_group_name_H-M "C 2/M"
_symmetry_group_IT_number 12
_symmetry_cell_setting 'monoclinic'
loop_
_space_group_symop_operation_xyz
x,y,z
-x,y,-z
-x,-y,-z
x,-y,z
1/2+x,1/2+y,z
1/2-x,1/2+y,-z
1/2-x,1/2-y,-z
1/2+x,1/2-y,z
loop_
_atom_site_type_symbol
_atom_site_label
_atom_site_fract_x
_atom_site_fract_y
_atom_site_fract_z
Si Si1 0.313804 0.235954 0.458685
Si Si2 0.578801 0.436284 0.670649
Si Si3 0.702896 0.279010 0.727183
Si Si4 0.714662 0.568721 0.528971
Si Si5 0.432801 0.332228 0.706351
Si Si6 0.939064 0.384532 0.015083
Si Si7 0.304856 0.207701 0.127483
O O1 0.277591 0.249137 0.331887
O O2 0.369809 0.294163 0.564074
O O3 0.148452 0.206053 0.316404
O O4 0.487635 0.195606 0.657230
O O5 0.500000 0.436633 0.500000
O O6 0.614599 0.500000 0.734192
O O7 0.429900 0.415853 0.564751
O O8 0.767034 0.407606 0.869157
O O9 0.500000 0.305302 0.500000
O O10 0.701628 0.238557 0.798463
O O11 0.865623 0.321978 0.917197
O O12 0.730044 0.500000 0.540369
O O13 0.646317 0.604996 0.383343
O O14 0.895997 0.599127 0.752371
O O15 0.645389 0.336614 0.946953
O O16 0.000000 0.408949 0.000000
O O17 0.250000 0.250000 0.000000
#
# Coordination Sequence:
#
# PCOD9205705 Si02
#       7
#     8   8   8   8   8   8   8
#     4   9  20  36  54  83 108 141 182 228 281 339
#     4  10  21  36  49  67 100 142 192 238 268 307
#     4  10  22  36  54  84 117 144 184 225 279 346
#     4  11  25  39  53  77 109 152 200 235 272 328
#     4  10  21  36  55  76 110 145 185 233 282 324
#     4  12  23  31  54  77 108 151 186 227 272 326
#     4   9  20  34  53  78 110 144 177 219 279 342
#
# _framework density 17.757701000000001
#
# number of rings (size 3 to 8) (size 9 to 14) (size 15 to 20)
#    0.000    1.857    1.429    1.714   14.000    0.571 
#    0.000    0.000    0.000    0.000    0.000    2.000 
#    0.000    3.429    0.000    0.000    0.000    0.000 
#
# Total GULP energy -155945.213738 kJ/mol
# GULP energy per Si atom -5569.471919 kJ/mol
# Density = 1.771728 g / cm^3
# Si number density = 17.757701 Si / 1000 Ang^3
#
#
#
# Elastic Constant Matrix: (Units=GPa)
#
#
# Indices 1 2 3 4 5 6 
#
# 1 48.9552 2.4896 -14.2030 0.0001 -13.4653 0.0001
# 2 2.4896 48.9471 31.4625 0.0000 -1.9514 0.0000
# 3 -14.2030 31.4625 66.2936 0.0003 3.5374 0.0003
# 4 0.0001 0.0000 0.0003 -8.7434 0.0003 -14.2969
# 5 -13.4653 -1.9514 3.5374 0.0003 24.3031 0.0002
# 6 0.0001 0.0000 0.0003 -14.2969 0.0002 7.4910
#
#
#
# Elastic Compliance Matrix: (Units=1/GPa)
#
#
# Indices 1 2 3 4 5 6 
#
# 1 0.026584 -0.005812 0.007753 0.000001 0.013134 0.000000
# 2 -0.005812 0.031149 -0.016115 0.000000 0.001627 0.000000
# 3 0.007753 -0.016115 0.024423 0.000001 -0.000553 0.000000
# 4 0.000001 0.000000 0.000001 -0.027755 0.000001 -0.052972
# 5 0.013134 0.001627 -0.000553 0.000001 0.048635 0.000000
# 6 0.000000 0.000000 0.000000 -0.052972 0.000000 0.032395
#
#
# Mechanical properties :
#
#
# Convention : Reuss Voigt Hill
#
# Bulk Modulus (GPa) = 18.58453 22.63269 20.60861
# Shear Modulus (GPa) = 27.51531 14.23993 20.87762
#
# Velocity S-wave (km/s) = 3.94062 2.83486 3.43256
# Velocity P-wave (km/s) = 5.58507 4.84646 5.22882
#
# Compressibility (1/GPa) = 0.05380819
#
# Stress axis : x y z
#
# Youngs Moduli (GPa) = 37.61622 32.10333 40.94469
#
# Poissons Ratio (x) = 0.18659 -0.31745
# Poissons Ratio (y) = 0.21863 0.65984
# Poissons Ratio (z) = -0.29164 0.51736
#
# Static dielectric constant tensor:
#      x y z
#    x 0.962450 0.000000 -0.751490 
#    y 0.000000 1.599750 0.000000 
#    z -0.751490 0.000000 0.768950 
# 
# From -- ./inp_files/286357.got.cif
#   From: 2010.05.17/outbox.cif.g08.bks.cpg/sg12_144_cif.got.tgz:286357.got - 2010.06.03 13:09:07.
