data_PCOD9205201
_publ_section_title
;
Structure prediction by ZEFSAII (Michael W. Deem and Ramdas Pophale) SiO2 
 PCOD9205201
Probable space group: C 2/M
;
_chemical_formula_sum "Si O2"
_cell_formula_units_Z 48
_cell_length_a 24.457927
_cell_length_b 13.735888
_cell_length_c 7.980958
_cell_angle_alpha 90.000000
_cell_angle_beta 99.156098
_cell_angle_gamma 90.000000
_cell_volume 2647.050851
_symmetry_space_group_name_H-M "C 2/M"
_symmetry_group_IT_number 12
_symmetry_cell_setting 'monoclinic'
loop_
_space_group_symop_operation_xyz
x,y,z
-x,y,-z
-x,-y,-z
x,-y,z
1/2+x,1/2+y,z
1/2-x,1/2+y,-z
1/2-x,1/2-y,-z
1/2+x,1/2-y,z
loop_
_atom_site_type_symbol
_atom_site_label
_atom_site_fract_x
_atom_site_fract_y
_atom_site_fract_z
Si Si1 0.486384 0.392168 0.686757
Si Si2 0.235065 0.117204 0.276240
Si Si3 0.879009 0.214515 0.739133
Si Si4 0.894886 0.117041 0.098688
Si Si5 0.225763 0.882736 0.883373
Si Si6 0.308317 0.883365 0.624994
O O1 0.500000 0.400403 0.500000
O O2 0.470535 0.500000 0.745684
O O3 0.434393 0.322573 0.680175
O O4 0.544474 0.364453 0.799203
O O5 0.177688 0.155971 0.326963
O O6 0.240592 0.148628 0.082762
O O7 0.283565 0.142160 0.430317
O O8 0.231413 0.000000 0.270423
O O9 0.864035 0.325010 0.690894
O O10 0.888475 0.185668 0.936115
O O11 0.891913 0.000000 0.057459
O O12 0.839444 0.137837 0.179316
O O13 0.230954 0.000000 0.887580
O O14 0.265477 0.850977 0.751677
O O15 0.314464 0.000000 0.635567
#
# Coordination Sequence:
#
# PCOD9205201 Si02
#       6
#     8   8   8   8   8   8
#     4  10  21  35  54  81 109 135 167 215 271 325
#     4   9  18  32  51  77 109 141 172 215 266 317
#     4  11  20  33  52  78 106 140 180 214 260 316
#     4   9  18  33  54  78 105 137 168 210 268 324
#     4   8  16  32  52  76 105 138 173 208 258 315
#     4  10  21  35  52  76 110 145 180 220 258 304
#
# _framework density 18.133388
#
# number of rings (size 3 to 8) (size 9 to 14) (size 15 to 20)
#    0.000    2.500    0.000    3.500    2.333    4.000 
#    3.000    0.000    0.000    2.500    0.000    0.000 
#    0.000    0.000    0.000    0.000    0.000    0.000 
#
# Total GULP energy -133760.340881 kJ/mol
# GULP energy per Si atom -5573.347537 kJ/mol
# Density = 1.809212 g / cm^3
# Si number density = 18.133388 Si / 1000 Ang^3
#
#
#
# Elastic Constant Matrix: (Units=GPa)
#
#
# Indices 1 2 3 4 5 6 
#
# 1 118.4892 44.5624 46.5502 0.0000 7.4742 0.0000
# 2 44.5624 63.2800 38.3780 0.0000 15.1033 0.0000
# 3 46.5502 38.3780 67.5086 0.0000 16.5234 0.0000
# 4 0.0000 0.0000 0.0000 39.4174 0.0000 -3.5828
# 5 7.4742 15.1033 16.5234 0.0000 27.9420 0.0000
# 6 0.0000 0.0000 0.0000 -3.5828 0.0000 14.7740
#
#
#
# Elastic Compliance Matrix: (Units=1/GPa)
#
#
# Indices 1 2 3 4 5 6 
#
# 1 0.013036 -0.006188 -0.006356 0.000000 0.003617 0.000000
# 2 -0.006188 0.027877 -0.009702 0.000000 -0.007676 0.000000
# 3 -0.006356 -0.009702 0.026906 0.000000 -0.008966 0.000000
# 4 0.000000 0.000000 0.000000 0.025941 0.000000 0.006291
# 5 0.003617 -0.007676 -0.008966 0.000000 0.044272 0.000000
# 6 0.000000 0.000000 0.000000 0.006291 0.000000 0.069212
#
#
# Mechanical properties :
#
#
# Convention : Reuss Voigt Hill
#
# Bulk Modulus (GPa) = 42.87090 56.47326 49.67208
# Shear Modulus (GPa) = 19.26699 24.41247 21.83973
#
# Velocity S-wave (km/s) = 3.26316 3.67314 3.47420
# Velocity P-wave (km/s) = 6.15556 7.01428 6.59890
#
# Compressibility (1/GPa) = 0.02332584
#
# Stress axis : x y z
#
# Youngs Moduli (GPa) = 76.71131 35.87239 37.16700
#
# Poissons Ratio (x) = 0.22199 0.23623
# Poissons Ratio (y) = 0.47472 0.36058
# Poissons Ratio (z) = 0.48757 0.34802
#
# Static dielectric constant tensor:
#      x y z
#    x 1.632670 0.000000 -0.000510 
#    y 0.000000 1.652890 0.000000 
#    z -0.000510 0.000000 1.654800 
# 
# From -- ./inp_files/85676.got.cif
#   From: 2010.05.17/outbox.cif.g08.bks.cpg/sg12_43_cif.got.tgz:85676.got - 2010.06.03 13:09:07.
