data_PCOD9205933
_publ_section_title
;
Structure prediction by ZEFSAII (Michael W. Deem and Ramdas Pophale) SiO2 
 PCOD9205933
Probable space group: C 2/M
;
_chemical_formula_sum "Si O2"
_cell_formula_units_Z 50
_cell_length_a 25.872622
_cell_length_b 7.356654
_cell_length_c 10.401414
_cell_angle_alpha 90.000000
_cell_angle_beta 82.175312
_cell_angle_gamma 90.000000
_cell_volume 1961.329752
_symmetry_space_group_name_H-M "C 2/M"
_symmetry_group_IT_number 12
_symmetry_cell_setting 'monoclinic'
loop_
_space_group_symop_operation_xyz
x,y,z
-x,y,-z
-x,-y,-z
x,-y,z
1/2+x,1/2+y,z
1/2-x,1/2+y,-z
1/2-x,1/2-y,-z
1/2+x,1/2-y,z
loop_
_atom_site_type_symbol
_atom_site_label
_atom_site_fract_x
_atom_site_fract_y
_atom_site_fract_z
Si Si1 0.288588 0.720913 0.288286
Si Si2 0.898262 0.221071 0.355929
Si Si3 0.567129 0.798253 0.377718
Si Si4 0.334142 0.280552 0.998015
Si Si5 0.000000 0.000000 0.500000
Si Si6 0.443428 0.720847 0.063891
Si Si7 0.820649 0.292561 0.721507
O O1 0.286232 0.500000 0.288437
O O2 0.336966 0.767395 0.362442
O O3 0.229865 0.787453 0.331937
O O4 0.306702 0.777153 0.139257
O O5 0.920367 0.308697 0.474844
O O6 0.926608 0.271535 0.214127
O O7 0.903712 0.000000 0.372445
O O8 0.520520 0.657237 0.390852
O O9 0.621487 0.713702 0.308144
O O10 0.556729 0.000000 0.329296
O O11 0.332138 0.500000 0.994060
O O12 0.308742 0.208021 0.877383
O O13 0.394905 0.224493 0.990151
O O14 0.444037 0.500000 0.062441
O O15 0.500000 0.784412 0.000000
O O16 0.827129 0.500000 0.674995
#
# Coordination Sequence:
#
# PCOD9205933 Si02
#       7
#     8   8   8   8   2   8   8
#     4   8  16  33  57  84 123 164 203 246 311 367
#     4   9  17  35  60  86 117 161 202 246 307 369
#     4  11  25  43  64  92 121 158 210 256 307 367
#     4   9  17  30  53  84 117 159 204 248 299 369
#     4  12  26  48  68  82 118 172 198 256 318 362
#     4   8  15  29  51  82 112 146 197 250 298 358
#     4  10  21  36  54  83 123 162 200 258 306 365
#
# _framework density 25.492909000000001
#
# number of rings (size 3 to 8) (size 9 to 14) (size 15 to 20)
#    0.000    2.720    0.800    2.640    1.120    1.920 
#    2.880    4.000    0.000    0.960    0.000    0.000 
#    0.000    0.000    0.000    0.000    0.000    0.000 
#
# Total GULP energy -139522.599835 kJ/mol
# GULP energy per Si atom -5580.903993 kJ/mol
# Density = 2.543489 g / cm^3
# Si number density = 25.492909 Si / 1000 Ang^3
#
#
#
# Elastic Constant Matrix: (Units=GPa)
#
#
# Indices 1 2 3 4 5 6 
#
# 1 97.0883 14.8406 14.8515 0.0000 -20.7965 0.0000
# 2 14.8406 117.9126 1.1276 0.0000 -8.5894 0.0000
# 3 14.8515 1.1276 44.3090 0.0000 -0.4329 0.0000
# 4 0.0000 0.0000 0.0000 16.3979 0.0000 -4.7803
# 5 -20.7965 -8.5894 -0.4329 0.0000 41.1183 0.0000
# 6 0.0000 0.0000 0.0000 -4.7803 0.0000 45.3672
#
#
#
# Elastic Compliance Matrix: (Units=1/GPa)
#
#
# Indices 1 2 3 4 5 6 
#
# 1 0.012369 -0.001082 -0.004060 0.000000 0.005987 0.000000
# 2 -0.001082 0.008708 0.000153 0.000000 0.001274 0.000000
# 3 -0.004060 0.000153 0.023908 0.000000 -0.001770 0.000000
# 4 0.000000 0.000000 0.000000 0.062916 0.000000 0.006629
# 5 0.005987 0.001274 -0.001770 0.000000 0.027596 0.000000
# 6 0.000000 0.000000 0.000000 0.006629 0.000000 0.022741
#
#
# Mechanical properties :
#
#
# Convention : Reuss Voigt Hill
#
# Bulk Modulus (GPa) = 28.56393 35.66104 32.11249
# Shear Modulus (GPa) = 27.79577 35.80936 31.80256
#
# Velocity S-wave (km/s) = 3.30560 3.75197 3.53584
# Velocity P-wave (km/s) = 5.07920 5.72614 5.41235
#
# Compressibility (1/GPa) = 0.03500918
#
# Stress axis : x y z
#
# Youngs Moduli (GPa) = 80.84929 114.83270 41.82641
#
# Poissons Ratio (x) = 0.12422 0.16980
# Poissons Ratio (y) = 0.08746 -0.00642
# Poissons Ratio (z) = 0.32822 -0.01762
#
# Static dielectric constant tensor:
#      x y z
#    x 2.133960 0.000000 -0.030370 
#    y 0.000000 1.978920 0.000000 
#    z -0.030370 0.000000 1.973460 
# 
# From -- ./inp_files/179826.got.cif
#   From: 2010.05.17/outbox.cif.g08.bks.cpg/sg12_90_cif.got.tgz:179826.got - 2010.06.03 13:09:07.
