data_PCOD9205048
_publ_section_title
;
Structure prediction by ZEFSAII (Michael W. Deem and Ramdas Pophale) SiO2 
 PCOD9205048
Probable space group: C 2/M
;
_chemical_formula_sum "Si O2"
_cell_formula_units_Z 64
_cell_length_a 8.469738
_cell_length_b 21.738902
_cell_length_c 23.845130
_cell_angle_alpha 90.000000
_cell_angle_beta 134.857444
_cell_angle_gamma 90.000000
_cell_volume 3112.218997
_symmetry_space_group_name_H-M "C 2/M"
_symmetry_group_IT_number 12
_symmetry_cell_setting 'monoclinic'
loop_
_space_group_symop_operation_xyz
x,y,z
-x,y,-z
-x,-y,-z
x,-y,z
1/2+x,1/2+y,z
1/2-x,1/2+y,-z
1/2-x,1/2-y,-z
1/2+x,1/2-y,z
loop_
_atom_site_type_symbol
_atom_site_label
_atom_site_fract_x
_atom_site_fract_y
_atom_site_fract_z
Si Si1 0.611669 0.650441 0.825838
Si Si2 0.721061 0.690194 0.351227
Si Si3 0.237436 0.762579 0.061665
Si Si4 0.939141 0.365218 0.813611
Si Si5 0.904295 0.820914 0.368515
Si Si6 0.242123 0.567559 0.392340
Si Si7 0.474896 0.066824 0.427188
Si Si8 0.774069 0.428720 0.207747
O O1 0.469014 0.689388 0.744373
O O2 0.742617 0.699179 0.897960
O O3 0.430167 0.611946 0.817529
O O4 0.786427 0.613511 0.828821
O O5 0.847467 0.753920 0.376947
O O6 0.631017 0.684499 0.391560
O O7 0.851126 0.627114 0.375248
O O8 0.428511 0.806387 0.131326
O O9 0.250000 0.750000 0.000000
O O10 0.000000 0.795951 0.000000
O O11 0.120583 0.407005 0.825876
O O12 0.771034 0.342335 0.723265
O O13 0.881201 0.874490 0.407538
O O14 0.324023 0.500000 0.394056
O O15 0.201060 0.566030 0.448343
O O16 0.992532 0.574262 0.302967
O O17 0.500000 0.070152 0.500000
O O18 0.363532 0.000000 0.386912
O O19 0.704739 0.500000 0.187342
#
# Coordination Sequence:
#
# PCOD9205048 Si02
#       8
#     8   8   8   8   8   8   8   8
#     4  11  22  36  60  89 121 159 201 256 308 357
#     4  11  21  35  59  87 119 157 201 247 303 364
#     4  12  22  36  59  90 124 159 201 252 312 373
#     4  10  22  37  57  90 123 158 202 252 308 362
#     4  10  21  34  59  88 118 156 197 252 303 352
#     4   9  18  36  57  83 119 155 195 246 298 356
#     4  10  21  39  62  87 119 159 199 244 302 367
#     4  10  21  37  61  88 117 157 205 253 301 362
#
# _framework density 20.564105999999999
#
# number of rings (size 3 to 8) (size 9 to 14) (size 15 to 20)
#    0.000    1.625    3.750    1.500    1.750    1.000 
#    0.000    5.625    0.000    6.000    0.000    0.000 
#    0.000    0.000    0.000    0.000    0.000    0.000 
#
# Total GULP energy -178304.217320 kJ/mol
# GULP energy per Si atom -5572.006791 kJ/mol
# Density = 2.051730 g / cm^3
# Si number density = 20.564106 Si / 1000 Ang^3
#
#
#
# Elastic Constant Matrix: (Units=GPa)
#
#
# Indices 1 2 3 4 5 6 
#
# 1 133.9231 72.6190 16.4863 0.0002 -19.2765 0.0000
# 2 72.6190 130.9020 16.4353 0.0000 -11.6721 0.0000
# 3 16.4863 16.4353 59.6620 0.0002 -13.2730 0.0000
# 4 0.0002 0.0000 0.0002 19.2215 0.0001 4.5546
# 5 -19.2765 -11.6721 -13.2730 0.0001 33.8885 0.0001
# 6 0.0000 0.0000 0.0000 4.5546 0.0001 30.6290
#
#
#
# Elastic Compliance Matrix: (Units=1/GPa)
#
#
# Indices 1 2 3 4 5 6 
#
# 1 0.011299 -0.005821 -0.000586 0.000000 0.004193 0.000000
# 2 -0.005821 0.011044 -0.001451 0.000000 -0.000075 0.000000
# 3 -0.000586 -0.001451 0.018773 0.000000 0.006520 0.000000
# 4 0.000000 0.000000 0.000000 0.053925 0.000000 -0.008019
# 5 0.004193 -0.000075 0.006520 0.000000 0.034421 0.000000
# 6 0.000000 0.000000 0.000000 -0.008019 0.000000 0.033841
#
#
# Mechanical properties :
#
#
# Convention : Reuss Voigt Hill
#
# Bulk Modulus (GPa) = 39.36833 59.50760 49.43796
# Shear Modulus (GPa) = 26.66884 31.34424 29.00654
#
# Velocity S-wave (km/s) = 3.60511 3.90836 3.75979
# Velocity P-wave (km/s) = 6.04275 7.02620 6.55295
#
# Compressibility (1/GPa) = 0.02540113
#
# Stress axis : x y z
#
# Youngs Moduli (GPa) = 88.50465 90.54849 53.26772
#
# Poissons Ratio (x) = 0.52706 0.03121
# Poissons Ratio (y) = 0.51516 0.07727
# Poissons Ratio (z) = 0.05186 0.13135
#
# Static dielectric constant tensor:
#      x y z
#    x 1.776880 0.000000 -0.007870 
#    y 0.000000 2.116340 0.000000 
#    z -0.007870 0.000000 1.739280 
# 
# From -- ./inp_files/301773.got.cif
#   From: 2010.05.17/outbox.cif.g08.bks.cpg/sg12_151_cif.got.tgz:301773.got - 2010.06.03 13:09:07.
