data_PCOD9205982
_publ_section_title
;
Structure prediction by ZEFSAII (Michael W. Deem and Ramdas Pophale) SiO2 
 PCOD9205982
Probable space group: C 2/M
;
_chemical_formula_sum "Si O2"
_cell_formula_units_Z 40
_cell_length_a 27.517093
_cell_length_b 8.916758
_cell_length_c 19.597320
_cell_angle_alpha 90.000000
_cell_angle_beta 28.055859
_cell_angle_gamma 90.000000
_cell_volume 2261.574395
_symmetry_space_group_name_H-M "C 2/M"
_symmetry_group_IT_number 12
_symmetry_cell_setting 'monoclinic'
loop_
_space_group_symop_operation_xyz
x,y,z
-x,y,-z
-x,-y,-z
x,-y,z
1/2+x,1/2+y,z
1/2-x,1/2+y,-z
1/2-x,1/2-y,-z
1/2+x,1/2-y,z
loop_
_atom_site_type_symbol
_atom_site_label
_atom_site_fract_x
_atom_site_fract_y
_atom_site_fract_z
Si Si1 0.054077 0.820211 0.567049
Si Si2 0.828450 0.319779 0.848017
Si Si3 0.200931 0.320656 0.273262
Si Si4 0.380999 0.320338 0.153073
Si Si5 0.737068 0.321597 0.442506
O O1 0.111890 0.761152 0.427247
O O2 0.130819 0.782199 0.534703
O O3 0.943865 0.743652 0.713886
O O4 0.043242 0.000000 0.576719
O O5 0.827959 0.500000 0.854909
O O6 0.797896 0.280879 0.807705
O O7 0.750000 0.250000 0.000000
O O8 0.182572 0.500000 0.301294
O O9 0.310032 0.287519 0.174989
O O10 0.376585 0.500000 0.169422
O O11 0.327256 0.238127 0.282196
O O12 0.500000 0.276592 0.000000
O O13 0.741005 0.500000 0.442981
O O14 0.750000 0.250000 0.500000
#
# Coordination Sequence:
#
# PCOD9205982 Si02
#       5
#     8   8   8   8   8
#     4  10  21  37  57  80 106 139 181 224 266 318
#     4  11  23  37  54  79 111 144 179 222 271 319
#     4   9  19  36  56  78 106 141 180 219 263 319
#     4   9  18  34  56  80 107 141 178 217 265 319
#     4  10  21  36  55  80 109 141 178 221 267 318
#
# _framework density 17.686795
#
# number of rings (size 3 to 8) (size 9 to 14) (size 15 to 20)
#    0.000    2.200    0.000    2.400    0.000    8.400 
#    0.000    4.000    0.000    0.000    0.000    0.000 
#    0.000    0.000    0.000    0.000    0.000    0.000 
#
# Total GULP energy -111653.949058 kJ/mol
# GULP energy per Si atom -5582.697453 kJ/mol
# Density = 1.764654 g / cm^3
# Si number density = 17.686795 Si / 1000 Ang^3
#
#
#
# Elastic Constant Matrix: (Units=GPa)
#
#
# Indices 1 2 3 4 5 6 
#
# 1 155.7696 72.1111 126.4857 0.0004 17.6669 -0.0001
# 2 72.1111 52.0265 73.0801 0.0008 2.7440 -0.0004
# 3 126.4857 73.0801 173.0323 0.0010 -6.8208 -0.0004
# 4 0.0004 0.0008 0.0010 37.3734 -0.0006 3.0306
# 5 17.6669 2.7440 -6.8208 -0.0006 29.2416 0.0002
# 6 -0.0001 -0.0004 -0.0004 3.0306 0.0002 28.0986
#
#
#
# Elastic Compliance Matrix: (Units=1/GPa)
#
#
# Indices 1 2 3 4 5 6 
#
# 1 0.028233 -0.020106 -0.012863 0.000000 -0.018171 0.000000
# 2 -0.020106 0.064146 -0.012266 -0.000001 0.003267 0.000001
# 3 -0.012863 -0.012266 0.020906 0.000000 0.013799 0.000000
# 4 0.000000 -0.000001 0.000000 0.026993 0.000001 -0.002911
# 5 -0.018171 0.003267 0.013799 0.000001 0.048089 0.000000
# 6 0.000000 0.000001 0.000000 -0.002911 0.000000 0.035903
#
#
# Mechanical properties :
#
#
# Convention : Reuss Voigt Hill
#
# Bulk Modulus (GPa) = 43.82872 102.68693 73.25782
# Shear Modulus (GPa) = 15.51138 26.21948 20.86543
#
# Velocity S-wave (km/s) = 2.96464 3.85441 3.43843
# Velocity P-wave (km/s) = 6.04591 8.83138 7.56790
#
# Compressibility (1/GPa) = 0.02281609
#
# Stress axis : x y z
#
# Youngs Moduli (GPa) = 35.41963 15.58948 47.83241
#
# Poissons Ratio (x) = 0.31344 0.61526
# Poissons Ratio (y) = 0.71214 0.58671
# Poissons Ratio (z) = 0.45559 0.19122
#
# Static dielectric constant tensor:
#      x y z
#    x 1.610450 0.000000 -0.010700 
#    y 0.000000 1.591610 0.000000 
#    z -0.010700 0.000000 1.558460 
# 
# From -- ./inp_files/151973.got.cif
#   From: 2010.05.17/outbox.cif.g08.bks.cpg/sg12_76_cif.got.tgz:151973.got - 2010.06.03 13:09:07.
