data_PCOD9205068
_publ_section_title
;
Structure prediction by ZEFSAII (Michael W. Deem and Ramdas Pophale) SiO2 
 PCOD9205068
Probable space group: C 2/M
;
_chemical_formula_sum "Si O2"
_cell_formula_units_Z 56
_cell_length_a 9.306798
_cell_length_b 27.086523
_cell_length_c 19.620080
_cell_angle_alpha 90.000000
_cell_angle_beta 34.597015
_cell_angle_gamma 90.000000
_cell_volume 2808.344410
_symmetry_space_group_name_H-M "C 2/M"
_symmetry_group_IT_number 12
_symmetry_cell_setting 'monoclinic'
loop_
_space_group_symop_operation_xyz
x,y,z
-x,y,-z
-x,-y,-z
x,-y,z
1/2+x,1/2+y,z
1/2-x,1/2+y,-z
1/2-x,1/2-y,-z
1/2+x,1/2-y,z
loop_
_atom_site_type_symbol
_atom_site_label
_atom_site_fract_x
_atom_site_fract_y
_atom_site_fract_z
Si Si1 0.547202 0.598900 0.775041
Si Si2 0.700464 0.303712 0.633005
Si Si3 0.212132 0.902221 0.357304
Si Si4 0.896359 0.057163 0.965141
Si Si5 0.850124 0.794974 0.631258
Si Si6 0.802768 0.441792 0.185691
Si Si7 0.305621 0.000000 0.377018
Si Si8 0.361138 0.000000 0.624132
O O1 0.624655 0.648872 0.707354
O O2 0.531417 0.595633 0.862314
O O3 0.272603 0.584364 0.854022
O O4 0.711519 0.551299 0.689371
O O5 0.688275 0.254742 0.685546
O O6 0.536241 0.296993 0.625960
O O7 0.000000 0.310113 0.500000
O O8 0.303641 0.846465 0.311266
O O9 0.129691 0.919402 0.314055
O O10 0.000000 0.899906 0.500000
O O11 0.384338 0.948928 0.310706
O O12 0.936448 0.000000 0.924301
O O13 0.596877 0.066051 0.084575
O O14 0.000000 0.059863 0.000000
O O15 0.000000 0.795032 0.500000
O O16 0.757040 0.500000 0.200182
O O17 0.000000 0.000000 0.500000
O O18 0.423597 0.000000 0.403562
O O19 0.500000 0.000000 0.500000
#
# Coordination Sequence:
#
# PCOD9205068 Si02
#       8
#     8   8   8   8   8   8   4   4
#     4  12  24  40  61  92 126 162 212 261 319 372
#     4  11  23  40  62  93 127 168 213 263 314 377
#     4  10  21  34  61  91 127 160 207 241 310 380
#     4  10  23  43  64  91 124 164 220 260 308 375
#     4  10  21  39  61  88 125 171 210 256 306 378
#     4  11  21  38  66  88 126 170 198 254 312 379
#     4  10  24  36  55  84 131 172 202 234 300 381
#     4  12  28  36  55  93 138 167 196 253 321 378
#
# _framework density 19.940573000000001
#
# number of rings (size 3 to 8) (size 9 to 14) (size 15 to 20)
#    0.000    1.286    3.571    2.571    6.000    5.714 
#    0.000    0.000    0.000    0.857    0.000    0.000 
#    0.000    0.000    0.000    0.000    0.000    0.000 
#
# Total GULP energy -156044.842700 kJ/mol
# GULP energy per Si atom -5573.030096 kJ/mol
# Density = 1.989519 g / cm^3
# Si number density = 19.940573 Si / 1000 Ang^3
#
#
#
# Elastic Constant Matrix: (Units=GPa)
#
#
# Indices 1 2 3 4 5 6 
#
# 1 131.8144 62.3664 32.5009 -0.0001 10.0341 0.0000
# 2 62.3664 190.2759 46.0176 0.0000 5.4682 0.0000
# 3 32.5009 46.0176 61.6028 0.0000 16.8981 -0.0001
# 4 -0.0001 0.0000 0.0000 13.4899 0.0001 13.2098
# 5 10.0341 5.4682 16.8981 0.0001 28.6332 0.0001
# 6 0.0000 0.0000 -0.0001 13.2098 0.0001 22.9849
#
#
#
# Elastic Compliance Matrix: (Units=1/GPa)
#
#
# Indices 1 2 3 4 5 6 
#
# 1 0.009522 -0.002379 -0.002930 0.000000 -0.001153 0.000000
# 2 -0.002379 0.007098 -0.004658 0.000000 0.002227 0.000000
# 3 -0.002930 -0.004658 0.024737 0.000000 -0.012683 0.000000
# 4 0.000000 0.000000 0.000000 0.169548 0.000000 -0.097442
# 5 -0.001153 0.002227 -0.012683 0.000000 0.042388 0.000000
# 6 0.000000 0.000000 0.000000 -0.097442 0.000000 0.099508
#
#
# Mechanical properties :
#
#
# Convention : Reuss Voigt Hill
#
# Bulk Modulus (GPa) = 46.67873 73.94031 60.30952
# Shear Modulus (GPa) = 13.16215 29.20882 21.18548
#
# Velocity S-wave (km/s) = 2.57197 3.83141 3.26303
# Velocity P-wave (km/s) = 5.68153 7.53218 6.67134
#
# Compressibility (1/GPa) = 0.02142303
#
# Stress axis : x y z
#
# Youngs Moduli (GPa) = 105.01480 140.88749 40.42492
#
# Poissons Ratio (x) = 0.33522 0.11845
# Poissons Ratio (y) = 0.24987 0.18829
# Poissons Ratio (z) = 0.30771 0.65622
#
# Static dielectric constant tensor:
#      x y z
#    x 1.752010 0.000000 -0.003220 
#    y 0.000000 1.765470 0.000000 
#    z -0.003220 0.000000 1.683350 
# 
# From -- ./inp_files/259824.got.cif
#   From: 2010.05.17/outbox.cif.g08.bks.cpg/sg12_130_cif.got.tgz:259824.got - 2010.06.03 13:09:07.
