data_PCOD9205425
_publ_section_title
;
Structure prediction by ZEFSAII (Michael W. Deem and Ramdas Pophale) SiO2 
 PCOD9205425
Probable space group: C 2/M
;
_chemical_formula_sum "Si O2"
_cell_formula_units_Z 56
_cell_length_a 14.201912
_cell_length_b 14.545280
_cell_length_c 25.320893
_cell_angle_alpha 90.000000
_cell_angle_beta 149.339427
_cell_angle_gamma 90.000000
_cell_volume 2667.328217
_symmetry_space_group_name_H-M "C 2/M"
_symmetry_group_IT_number 12
_symmetry_cell_setting 'monoclinic'
loop_
_space_group_symop_operation_xyz
x,y,z
-x,y,-z
-x,-y,-z
x,-y,z
1/2+x,1/2+y,z
1/2-x,1/2+y,-z
1/2-x,1/2-y,-z
1/2+x,1/2-y,z
loop_
_atom_site_type_symbol
_atom_site_label
_atom_site_fract_x
_atom_site_fract_y
_atom_site_fract_z
Si Si1 0.770160 0.744159 0.169068
Si Si2 0.030402 0.754302 0.889028
Si Si3 0.364404 0.396994 0.385465
Si Si4 0.997787 0.888110 0.773554
Si Si5 0.957689 0.605576 0.185544
Si Si6 0.529844 0.763536 0.393793
Si Si7 0.841660 0.402843 0.465985
O O1 0.579734 0.737008 0.109390
O O2 0.820792 0.841225 0.165508
O O3 0.807565 0.665825 0.143632
O O4 0.925362 0.728180 0.288826
O O5 0.975310 0.832541 0.818556
O O6 0.991566 0.654511 0.844998
O O7 0.250000 0.750000 0.000000
O O8 0.500000 0.392031 0.500000
O O9 0.372959 0.500000 0.365652
O O10 0.429043 0.318382 0.376677
O O11 0.158459 0.386978 0.309455
O O12 0.831271 0.864092 0.651707
O O13 0.003627 0.000000 0.782429
O O14 0.903602 0.500000 0.154308
O O15 0.750000 0.750000 0.500000
O O16 0.537126 0.855722 0.430458
O O17 0.769757 0.500000 0.452404
O O18 0.000000 0.413115 0.500000
#
# Coordination Sequence:
#
# PCOD9205425 Si02
#       7
#     8   8   8   8   8   8   8
#     4  11  23  40  64  96 126 165 210 262 307 374
#     4  11  25  45  67  93 124 163 211 266 326 377
#     4  10  21  36  57  86 126 168 206 250 303 368
#     4  10  23  43  64  91 128 167 209 261 315 370
#     4  10  23  43  65  93 128 166 209 260 317 375
#     4  12  21  32  59  90 125 166 205 247 301 365
#     4  10  21  35  55  84 122 167 206 242 295 366
#
# _framework density 20.994790999999999
#
# number of rings (size 3 to 8) (size 9 to 14) (size 15 to 20)
#    0.000    1.429    2.857    2.143    4.000    5.714 
#    0.000    1.429    0.000    0.000    0.000    0.000 
#    0.000    0.000    0.000    0.000    0.000    0.000 
#
# Total GULP energy -155958.250338 kJ/mol
# GULP energy per Si atom -5569.937512 kJ/mol
# Density = 2.094701 g / cm^3
# Si number density = 20.994791 Si / 1000 Ang^3
#
#
#
# Elastic Constant Matrix: (Units=GPa)
#
#
# Indices 1 2 3 4 5 6 
#
# 1 98.0393 38.6757 3.3278 0.0000 24.6751 0.0000
# 2 38.6757 113.9184 12.9687 0.0000 -0.0301 0.0000
# 3 3.3278 12.9687 61.6163 -0.0003 22.3377 0.0001
# 4 0.0000 0.0000 -0.0003 13.5056 0.0000 -3.7421
# 5 24.6751 -0.0301 22.3377 0.0000 33.5268 0.0000
# 6 0.0000 0.0000 0.0001 -3.7421 0.0000 29.6611
#
#
#
# Elastic Compliance Matrix: (Units=1/GPa)
#
#
# Indices 1 2 3 4 5 6 
#
# 1 0.016682 -0.006403 0.006460 0.000000 -0.016587 0.000000
# 2 -0.006403 0.011523 -0.004999 0.000000 0.008054 0.000000
# 3 0.006460 -0.004999 0.024600 0.000000 -0.021149 0.000000
# 4 0.000000 0.000000 0.000000 0.076726 0.000000 0.009680
# 5 -0.016587 0.008054 -0.021149 0.000000 0.056133 0.000000
# 6 0.000000 0.000000 0.000000 0.009680 0.000000 0.034935
#
#
# Mechanical properties :
#
#
# Convention : Reuss Voigt Hill
#
# Bulk Modulus (GPa) = 23.29919 42.61316 32.95617
# Shear Modulus (GPa) = 20.42563 29.91214 25.16888
#
# Velocity S-wave (km/s) = 3.12250 3.77867 3.46615
# Velocity P-wave (km/s) = 4.91139 6.27526 5.63474
#
# Compressibility (1/GPa) = 0.04291995
#
# Stress axis : x y z
#
# Youngs Moduli (GPa) = 59.94658 86.77981 40.65044
#
# Poissons Ratio (x) = 0.55567 -0.26261
# Poissons Ratio (y) = 0.38385 0.20323
# Poissons Ratio (z) = -0.38726 0.43384
#
# Static dielectric constant tensor:
#      x y z
#    x 1.721440 0.000000 0.019550 
#    y 0.000000 1.204770 0.000000 
#    z 0.019550 0.000000 1.834240 
# 
# From -- ./inp_files/361460.got.cif
#   From: 2010.05.17/outbox.cif.g08.bks.cpg/sg12_181_cif.got.tgz:361460.got - 2010.06.03 13:09:07.
