data_PCOD9205797
_publ_section_title
;
Structure prediction by ZEFSAII (Michael W. Deem and Ramdas Pophale) SiO2 
 PCOD9205797
Probable space group: C 2/M
;
_chemical_formula_sum "Si O2"
_cell_formula_units_Z 56
_cell_length_a 24.981734
_cell_length_b 16.014304
_cell_length_c 24.182825
_cell_angle_alpha 90.000000
_cell_angle_beta 18.916379
_cell_angle_gamma 90.000000
_cell_volume 3136.421548
_symmetry_space_group_name_H-M "C 2/M"
_symmetry_group_IT_number 12
_symmetry_cell_setting 'monoclinic'
loop_
_space_group_symop_operation_xyz
x,y,z
-x,y,-z
-x,-y,-z
x,-y,z
1/2+x,1/2+y,z
1/2-x,1/2+y,-z
1/2-x,1/2-y,-z
1/2+x,1/2-y,z
loop_
_atom_site_type_symbol
_atom_site_label
_atom_site_fract_x
_atom_site_fract_y
_atom_site_fract_z
Si Si1 0.111562 0.217365 0.049272
Si Si2 0.512150 0.209195 0.332241
Si Si3 0.335124 0.088503 0.428217
Si Si4 0.375444 0.907529 0.945147
Si Si5 0.067993 0.592400 0.495043
Si Si6 0.962805 0.903787 0.100929
Si Si7 0.980951 0.858667 0.744720
O O1 0.108290 0.317279 0.040316
O O2 0.033431 0.198873 0.185921
O O3 0.036758 0.160592 0.073490
O O4 0.302812 0.191436 0.869175
O O5 0.374265 0.162029 0.431693
O O6 0.499148 0.170116 0.404932
O O7 0.490864 0.305538 0.338719
O O8 0.471309 0.093236 0.247095
O O9 0.148454 0.091472 0.589834
O O10 0.359891 0.000000 0.433453
O O11 0.380850 0.000000 0.967849
O O12 0.196359 0.902180 0.089875
O O13 0.016556 0.500000 0.566614
O O14 0.265768 0.595995 0.301007
O O15 0.000000 0.597618 0.500000
O O16 0.022032 0.000000 0.052654
O O17 0.000000 0.883465 0.000000
#
# Coordination Sequence:
#
# PCOD9205797 Si02
#       7
#     8   8   8   8   8   8   8
#     4  11  21  36  56  79 111 150 185 229 287 330
#     4  11  20  34  52  76 108 142 184 231 276 329
#     4  11  21  32  51  76 106 147 185 223 279 330
#     4  10  21  37  52  77 112 143 186 233 273 330
#     4  10  21  36  53  77 109 145 185 228 275 329
#     4  10  22  38  57  83 113 147 186 228 276 334
#     4  11  21  36  52  79 112 147 186 233 279 337
#
# _framework density 17.854744
#
# number of rings (size 3 to 8) (size 9 to 14) (size 15 to 20)
#    0.000    1.429    2.857    3.857    2.000    4.571 
#    0.000    0.000    0.000    0.429    0.000    0.000 
#    0.000    6.571    0.000    0.000    0.000    0.000 
#
# Total GULP energy -155976.509729 kJ/mol
# GULP energy per Si atom -5570.589633 kJ/mol
# Density = 1.781411 g / cm^3
# Si number density = 17.854744 Si / 1000 Ang^3
#
#
#
# Elastic Constant Matrix: (Units=GPa)
#
#
# Indices 1 2 3 4 5 6 
#
# 1 76.5002 51.0890 16.3380 -0.0024 -3.9337 -0.0005
# 2 51.0890 112.8063 25.7870 -0.0056 1.8815 -0.0149
# 3 16.3380 25.7870 78.3221 0.0020 -11.8181 -0.0050
# 4 -0.0024 -0.0056 0.0020 -30.6404 -0.0005 -26.7775
# 5 -3.9337 1.8815 -11.8181 -0.0005 29.8555 0.0006
# 6 -0.0005 -0.0149 -0.0050 -26.7775 0.0006 -26.0064
#
#
#
# Elastic Compliance Matrix: (Units=1/GPa)
#
#
# Indices 1 2 3 4 5 6 
#
# 1 0.019052 -0.008500 -0.000762 -0.000041 0.002745 0.000047
# 2 -0.008500 0.013489 -0.003154 0.000042 -0.003218 -0.000050
# 3 -0.000762 -0.003154 0.014868 0.000023 0.005984 -0.000024
# 4 -0.000041 0.000042 0.000023 -0.325837 -0.000012 0.335498
# 5 0.002745 -0.003218 0.005984 -0.000012 0.036428 0.000013
# 6 0.000047 -0.000050 -0.000024 0.335498 0.000013 -0.383897
#
#
# Mechanical properties :
#
#
# Convention : Reuss Voigt Hill
#
# Bulk Modulus (GPa) = 44.29040 50.45077 47.37058
# Shear Modulus (GPa) = -8.42403 6.26937 -1.07733
#
# Velocity S-wave (km/s) = -2.17447 1.87588 -0.77762
# Velocity P-wave (km/s) = 4.30759 5.74539 5.07764
#
# Compressibility (1/GPa) = 0.02257826
#
# Stress axis : x y z
#
# Youngs Moduli (GPa) = 52.48682 74.13406 67.25929
#
# Poissons Ratio (x) = 0.63017 0.05122
# Poissons Ratio (y) = 0.44616 0.21211
# Poissons Ratio (z) = 0.03997 0.23379
#
# Static dielectric constant tensor:
#      x y z
#    x 1.589310 0.000000 0.000000 
#    y 0.000000 1.712030 -0.000020 
#    z 0.000000 -0.000020 1.631880 
# 
# From -- ./inp_files/96298.got.cif
#   From: 2010.05.17/outbox.cif.g08.bks.cpg/sg12_49_cif.got.tgz:96298.got - 2010.06.03 13:09:07.
