data_PCOD9205413
_publ_section_title
;
Structure prediction by ZEFSAII (Michael W. Deem and Ramdas Pophale) SiO2 
 PCOD9205413
Probable space group: C 2/M
;
_chemical_formula_sum "Si O2"
_cell_formula_units_Z 64
_cell_length_a 9.639016
_cell_length_b 30.120054
_cell_length_c 11.101740
_cell_angle_alpha 90.000000
_cell_angle_beta 89.646800
_cell_angle_gamma 90.000000
_cell_volume 3223.081204
_symmetry_space_group_name_H-M "C 2/M"
_symmetry_group_IT_number 12
_symmetry_cell_setting 'monoclinic'
loop_
_space_group_symop_operation_xyz
x,y,z
-x,y,-z
-x,-y,-z
x,-y,z
1/2+x,1/2+y,z
1/2-x,1/2+y,-z
1/2-x,1/2-y,-z
1/2+x,1/2-y,z
loop_
_atom_site_type_symbol
_atom_site_label
_atom_site_fract_x
_atom_site_fract_y
_atom_site_fract_z
Si Si1 0.925669 0.111688 0.370096
Si Si2 0.159049 0.707739 0.975171
Si Si3 0.211266 0.888992 0.265050
Si Si4 0.932684 0.214754 0.368871
Si Si5 0.831933 0.610891 0.993775
Si Si6 0.214156 0.552329 0.233701
Si Si7 0.730137 0.709294 0.288631
Si Si8 0.564719 0.051749 0.622130
O O1 0.882669 0.163705 0.360504
O O2 0.804237 0.078303 0.333445
O O3 0.000000 0.104898 0.500000
O O4 0.047592 0.103882 0.272074
O O5 0.196531 0.662248 0.043566
O O6 0.189224 0.700956 0.835304
O O7 0.250000 0.750000 0.000000
O O8 0.000000 0.717128 0.000000
O O9 0.266430 0.892840 0.127575
O O10 0.230698 0.841462 0.334794
O O11 0.297630 0.924025 0.339625
O O12 0.813619 0.251180 0.351318
O O13 0.000000 0.220306 0.500000
O O14 0.066440 0.221035 0.279975
O O15 0.774637 0.576963 0.895049
O O16 0.000000 0.606458 0.000000
O O17 0.249661 0.500000 0.227943
O O18 0.053699 0.555696 0.275842
O O19 0.500000 0.070476 0.500000
O O20 0.594338 0.000000 0.601923
#
# Coordination Sequence:
#
# PCOD9205413 Si02
#       8
#     8   8   8   8   8   8   8   8
#     4  10  23  41  60  87 125 161 198 251 309 365
#     4  10  21  36  57  85 115 154 196 239 294 343
#     4  10  21  39  59  85 122 159 197 247 305 357
#     4  10  21  37  57  84 118 157 196 242 299 354
#     4  10  21  40  61  88 124 157 200 252 301 358
#     4  11  24  40  64  92 119 160 205 251 311 367
#     4  10  21  35  55  84 115 150 198 237 285 359
#     4  10  21  37  61  91 116 152 207 252 297 357
#
# _framework density 19.856776
#
# number of rings (size 3 to 8) (size 9 to 14) (size 15 to 20)
#    0.000    1.875    1.250    1.875    1.750    3.500 
#    0.000    0.625    0.000    0.000    0.000    0.000 
#    0.000    0.000    0.000    0.000    0.000    0.000 
#
# Total GULP energy -178426.288415 kJ/mol
# GULP energy per Si atom -5575.821513 kJ/mol
# Density = 1.981158 g / cm^3
# Si number density = 19.856776 Si / 1000 Ang^3
#
#
#
# Elastic Constant Matrix: (Units=GPa)
#
#
# Indices 1 2 3 4 5 6 
#
# 1 50.0690 40.7558 -5.8852 0.0000 -7.6261 0.0000
# 2 40.7558 122.5136 18.3357 0.0000 24.2890 0.0000
# 3 -5.8852 18.3357 53.7338 0.0000 -4.6951 0.0000
# 4 0.0000 0.0000 0.0000 29.8650 0.0000 7.7467
# 5 -7.6261 24.2890 -4.6951 0.0000 33.6329 0.0000
# 6 0.0000 0.0000 0.0000 7.7467 0.0000 29.9962
#
#
#
# Elastic Compliance Matrix: (Units=1/GPa)
#
#
# Indices 1 2 3 4 5 6 
#
# 1 0.044783 -0.022889 0.015233 0.000000 0.028811 0.000000
# 2 -0.022889 0.022107 -0.012046 0.000000 -0.022837 0.000000
# 3 0.015233 -0.012046 0.025765 0.000000 0.015750 0.000000
# 4 0.000000 0.000000 0.000000 0.035888 0.000000 -0.009268
# 5 0.028811 -0.022837 0.015750 0.000000 0.054956 0.000000
# 6 0.000000 0.000000 0.000000 -0.009268 0.000000 0.035731
#
#
# Mechanical properties :
#
#
# Convention : Reuss Voigt Hill
#
# Bulk Modulus (GPa) = 18.77927 36.96991 27.87459
# Shear Modulus (GPa) = 18.09062 30.23949 24.16505
#
# Velocity S-wave (km/s) = 3.02164 3.90664 3.49229
# Velocity P-wave (km/s) = 4.65313 6.24563 5.50725
#
# Compressibility (1/GPa) = 0.05325021
#
# Stress axis : x y z
#
# Youngs Moduli (GPa) = 22.32999 45.23421 38.81187
#
# Poissons Ratio (x) = 1.03538 -0.59121
# Poissons Ratio (y) = 0.51112 0.46753
# Poissons Ratio (z) = -0.34015 0.54489
#
# Static dielectric constant tensor:
#      x y z
#    x 1.676100 0.000000 -0.006010 
#    y 0.000000 1.711450 0.000000 
#    z -0.006010 0.000000 1.667820 
# 
# From -- ./inp_files/125756.got.cif
#   From: 2010.05.17/outbox.cif.g08.bks.cpg/sg12_63_cif.got.tgz:125756.got - 2010.06.03 13:09:07.
