data_PCOD9205124
_publ_section_title
;
Structure prediction by ZEFSAII (Michael W. Deem and Ramdas Pophale) SiO2 
 PCOD9205124
Probable space group: C 2/M
;
_chemical_formula_sum "Si O2"
_cell_formula_units_Z 64
_cell_length_a 14.628785
_cell_length_b 7.527337
_cell_length_c 30.165734
_cell_angle_alpha 90.000000
_cell_angle_beta 116.246325
_cell_angle_gamma 90.000000
_cell_volume 2979.257730
_symmetry_space_group_name_H-M "C 2/M"
_symmetry_group_IT_number 12
_symmetry_cell_setting 'monoclinic'
loop_
_space_group_symop_operation_xyz
x,y,z
-x,y,-z
-x,-y,-z
x,-y,z
1/2+x,1/2+y,z
1/2-x,1/2+y,-z
1/2-x,1/2-y,-z
1/2+x,1/2-y,z
loop_
_atom_site_type_symbol
_atom_site_label
_atom_site_fract_x
_atom_site_fract_y
_atom_site_fract_z
Si Si1 0.712583 0.295595 0.876770
Si Si2 0.915002 0.215286 0.614697
Si Si3 0.133693 0.214965 0.681572
Si Si4 0.497328 0.292765 0.857913
Si Si5 0.313351 0.291927 0.404654
Si Si6 0.776452 0.791520 0.794243
Si Si7 0.064557 0.283836 0.056347
Si Si8 0.133779 0.212420 0.490382
O O1 0.710135 0.500000 0.891904
O O2 0.605004 0.211975 0.866821
O O3 0.725296 0.293484 0.826439
O O4 0.818071 0.220101 0.918703
O O5 0.807153 0.279956 0.610142
O O6 0.928197 0.273857 0.565963
O O7 0.015780 0.268754 0.662755
O O8 0.909086 0.000000 0.613143
O O9 0.166393 0.280849 0.639779
O O10 0.209461 0.271924 0.736259
O O11 0.136177 0.000000 0.681670
O O12 0.500818 0.500000 0.845147
O O13 0.391951 0.219541 0.814963
O O14 0.483745 0.278230 0.907806
O O15 0.341723 0.500000 0.408764
O O16 0.372204 0.217145 0.460665
O O17 0.784886 0.000000 0.806761
O O18 0.065545 0.500000 0.057896
O O19 0.000000 0.228058 0.000000
O O20 0.250000 0.250000 0.500000
O O21 0.118816 0.000000 0.490058
#
# Coordination Sequence:
#
# PCOD9205124 Si02
#       8
#     8   8   8   8   8   8   8   8
#     4   9  18  35  56  75 101 137 171 204 246 294
#     4   9  18  32  50  71  96 126 159 195 239 294
#     4  10  21  35  50  71  98 128 161 199 249 302
#     4   9  19  35  54  75  99 133 174 209 246 291
#     4   9  18  32  50  72  98 126 158 197 241 291
#     4  10  21  36  52  72  97 125 165 214 253 290
#     4   9  18  32  51  79 113 142 168 202 243 287
#     4   8  14  27  47  69  93 122 155 192 234 284
#
# _framework density 21.481860999999999
#
# number of rings (size 3 to 8) (size 9 to 14) (size 15 to 20)
#    0.000    2.875    0.000    0.375    0.000    4.250 
#    0.000    6.250    0.000    0.000    0.000    9.625 
#    0.000    0.000    0.000    0.000    0.000    0.000 
#
# Total GULP energy -178477.388276 kJ/mol
# GULP energy per Si atom -5577.418384 kJ/mol
# Density = 2.143297 g / cm^3
# Si number density = 21.481861 Si / 1000 Ang^3
#
#
#
# Elastic Constant Matrix: (Units=GPa)
#
#
# Indices 1 2 3 4 5 6 
#
# 1 128.9478 -3.7048 47.1161 0.0000 22.8182 0.0000
# 2 -3.7048 56.8095 -11.1618 0.0000 3.9347 0.0000
# 3 47.1161 -11.1618 121.0402 0.0000 36.3009 0.0000
# 4 0.0000 0.0000 0.0000 12.5803 0.0000 -5.3937
# 5 22.8182 3.9347 36.3009 0.0000 17.8421 0.0000
# 6 0.0000 0.0000 0.0000 -5.3937 0.0000 -1.2874
#
#
#
# Elastic Compliance Matrix: (Units=1/GPa)
#
#
# Indices 1 2 3 4 5 6 
#
# 1 0.010176 0.001787 0.000577 0.000000 -0.014582 0.000000
# 2 0.001787 0.021080 0.008537 0.000000 -0.024303 0.000000
# 3 0.000577 0.008537 0.024653 0.000000 -0.052778 0.000000
# 4 0.000000 0.000000 0.000000 0.028426 0.000000 -0.119100
# 5 -0.014582 -0.024303 -0.052778 0.000000 0.187436 0.000000
# 6 0.000000 0.000000 0.000000 -0.119100 0.000000 -0.277788
#
#
# Mechanical properties :
#
#
# Convention : Reuss Voigt Hill
#
# Bulk Modulus (GPa) = 12.86837 41.25518 27.06177
# Shear Modulus (GPa) = -2611.65875 24.13022 -1293.76427
#
# Velocity S-wave (km/s) = -34.90544 3.35518 -24.56759
# Velocity P-wave (km/s) = 40.23079 5.85286 28.14481
#
# Compressibility (1/GPa) = 0.07770994
#
# Stress axis : x y z
#
# Youngs Moduli (GPa) = 98.27074 47.43892 40.56289
#
# Poissons Ratio (x) = -0.08477 -0.02340
# Poissons Ratio (y) = -0.17560 -0.34628
# Poissons Ratio (z) = -0.05668 -0.40498
#
# Static dielectric constant tensor:
#      x y z
#    x 1.796250 0.000000 0.024080 
#    y 0.000000 1.848700 0.000000 
#    z 0.024080 0.000000 1.749300 
# 
# From -- ./inp_files/359975.got.cif
#   From: 2010.05.17/outbox.cif.g08.bks.cpg/sg12_180_cif.got.tgz:359975.got - 2010.06.03 13:09:07.
