data_PCOD9205615
_publ_section_title
;
Structure prediction by ZEFSAII (Michael W. Deem and Ramdas Pophale) SiO2 
 PCOD9205615
Probable space group: C 2/M
;
_chemical_formula_sum "Si O2"
_cell_formula_units_Z 58
_cell_length_a 8.587033
_cell_length_b 25.467653
_cell_length_c 20.061069
_cell_angle_alpha 90.000000
_cell_angle_beta 39.288868
_cell_angle_gamma 90.000000
_cell_volume 2778.100547
_symmetry_space_group_name_H-M "C 2/M"
_symmetry_group_IT_number 12
_symmetry_cell_setting 'monoclinic'
loop_
_space_group_symop_operation_xyz
x,y,z
-x,y,-z
-x,-y,-z
x,-y,z
1/2+x,1/2+y,z
1/2-x,1/2+y,-z
1/2-x,1/2-y,-z
1/2+x,1/2-y,z
loop_
_atom_site_type_symbol
_atom_site_label
_atom_site_fract_x
_atom_site_fract_y
_atom_site_fract_z
Si Si1 0.227513 0.208036 0.066173
Si Si2 0.252469 0.415190 0.612835
Si Si3 0.981199 0.359276 0.429141
Si Si4 0.600132 0.718627 0.703835
Si Si5 0.535981 0.692199 0.395259
Si Si6 0.500000 0.000000 0.000000
Si Si7 0.344747 0.058464 0.851820
Si Si8 0.332387 0.409190 0.956856
O O1 0.128682 0.150154 0.081088
O O2 0.072332 0.232822 0.177945
O O3 0.500000 0.197078 0.000000
O O4 0.250000 0.250000 0.000000
O O5 0.500000 0.440550 0.500000
O O6 0.085630 0.401645 0.604033
O O7 0.350523 0.362053 0.616071
O O8 0.080872 0.439699 0.726062
O O9 0.757248 0.316805 0.498733
O O10 0.000000 0.377509 0.500000
O O11 0.236718 0.331346 0.330037
O O12 0.446603 0.704879 0.688952
O O13 0.803020 0.763339 0.622532
O O14 0.298324 0.952424 0.046605
O O15 0.099663 0.070222 0.891283
O O16 0.328355 0.000000 0.886239
O O17 0.336212 0.094815 0.919914
#
# Coordination Sequence:
#
# PCOD9205615 Si02
#       8
#     8   8   8   8   8   2   8   8
#     4  12  28  41  58  93 138 183 215 261 337 412
#     4  10  22  38  62  93 127 169 207 266 328 395
#     4   9  19  37  59  88 117 161 214 267 317 376
#     4  11  21  36  56  83 121 169 215 266 314 382
#     4  10  21  35  59  85 120 162 219 259 314 381
#     4  12  20  46  76 104 130 158 246 294 338 372
#     4  11  23  43  71  97 126 168 221 273 342 389
#     4  11  24  44  71 100 131 171 225 291 330 394
#
# _framework density 20.877575
#
# number of rings (size 3 to 8) (size 9 to 14) (size 15 to 20)
#    0.000    1.379    2.069    3.310    5.793    4.138 
#    0.000    0.000    0.000    0.414    0.000    0.000 
#    0.000    0.000    0.000    0.000    0.000    0.000 
#
# Total GULP energy -161550.111414 kJ/mol
# GULP energy per Si atom -5570.693497 kJ/mol
# Density = 2.083006 g / cm^3
# Si number density = 20.877575 Si / 1000 Ang^3
#
#
#
# Elastic Constant Matrix: (Units=GPa)
#
#
# Indices 1 2 3 4 5 6 
#
# 1 78.8234 16.9990 9.3182 0.0000 9.2571 0.0000
# 2 16.9990 74.0351 2.6249 -0.0001 8.0531 0.0000
# 3 9.3182 2.6249 111.1436 -0.0002 15.9731 0.0001
# 4 0.0000 -0.0001 -0.0002 16.7614 0.0000 3.5176
# 5 9.2571 8.0531 15.9731 0.0000 27.6861 0.0000
# 6 0.0000 0.0000 0.0001 3.5176 0.0000 18.9936
#
#
#
# Elastic Compliance Matrix: (Units=1/GPa)
#
#
# Indices 1 2 3 4 5 6 
#
# 1 0.013758 -0.002762 -0.000592 0.000000 -0.003455 0.000000
# 2 -0.002762 0.014511 0.000396 0.000000 -0.003525 0.000000
# 3 -0.000592 0.000396 0.009842 0.000000 -0.005595 0.000000
# 4 0.000000 0.000000 0.000000 0.062073 0.000000 -0.011496
# 5 -0.003455 -0.003525 -0.005595 0.000000 0.041528 0.000000
# 6 0.000000 0.000000 0.000000 -0.011496 0.000000 0.054778
#
#
# Mechanical properties :
#
#
# Convention : Reuss Voigt Hill
#
# Bulk Modulus (GPa) = 31.06161 35.76516 33.41339
# Shear Modulus (GPa) = 23.45895 28.35888 25.90892
#
# Velocity S-wave (km/s) = 3.35572 3.68957 3.52659
# Velocity P-wave (km/s) = 5.47035 5.94295 5.71154
#
# Compressibility (1/GPa) = 0.03219408
#
# Stress axis : x y z
#
# Youngs Moduli (GPa) = 72.68497 68.91438 101.60782
#
# Poissons Ratio (x) = 0.19035 0.06012
# Poissons Ratio (y) = 0.20076 -0.04019
# Poissons Ratio (z) = 0.04300 -0.02726
#
# Static dielectric constant tensor:
#      x y z
#    x 1.731270 0.000000 0.011250 
#    y 0.000000 1.715250 0.000000 
#    z 0.011250 0.000000 1.769060 
# 
# From -- ./inp_files/125258.got.cif
#   From: 2010.05.17/outbox.cif.g08.bks.cpg/sg12_63_cif.got.tgz:125258.got - 2010.06.03 13:09:07.
