data_PCOD9205180
_publ_section_title
;
Structure prediction by ZEFSAII (Michael W. Deem and Ramdas Pophale) SiO2 
 PCOD9205180
Probable space group: C 2/M
;
_chemical_formula_sum "Si O2"
_cell_formula_units_Z 56
_cell_length_a 5.400932
_cell_length_b 35.437890
_cell_length_c 15.608288
_cell_angle_alpha 90.000000
_cell_angle_beta 114.181742
_cell_angle_gamma 90.000000
_cell_volume 2725.248058
_symmetry_space_group_name_H-M "C 2/M"
_symmetry_group_IT_number 12
_symmetry_cell_setting 'monoclinic'
loop_
_space_group_symop_operation_xyz
x,y,z
-x,y,-z
-x,-y,-z
x,-y,z
1/2+x,1/2+y,z
1/2-x,1/2+y,-z
1/2-x,1/2-y,-z
1/2+x,1/2-y,z
loop_
_atom_site_type_symbol
_atom_site_label
_atom_site_fract_x
_atom_site_fract_y
_atom_site_fract_z
Si Si1 0.612515 0.306109 0.606810
Si Si2 0.115007 0.957981 0.112630
Si Si3 0.109417 0.644273 0.605017
Si Si4 0.523584 0.909040 0.098641
Si Si5 0.856063 0.729068 0.807353
Si Si6 0.965603 0.885283 0.789725
Si Si7 0.762091 0.835344 0.911067
O O1 0.500000 0.290001 0.500000
O O2 0.358277 0.327491 0.615616
O O3 0.735644 0.278496 0.695109
O O4 0.859556 0.334181 0.615061
O O5 0.418792 0.942475 0.144515
O O6 0.986371 0.924375 0.150347
O O7 0.089018 0.000000 0.144103
O O8 0.000000 0.958215 0.000000
O O9 0.248687 0.613373 0.685003
O O10 0.000000 0.628792 0.500000
O O11 0.307140 0.874589 0.050880
O O12 0.720213 0.883174 0.187483
O O13 0.500000 0.926504 0.000000
O O14 0.602133 0.741234 0.829363
O O15 0.011882 0.692459 0.864150
O O16 0.876210 0.850765 0.836749
O O17 0.000000 0.816505 0.000000
#
# Coordination Sequence:
#
# PCOD9205180 Si02
#       7
#     8   8   8   8   8   8   8
#     4  10  21  41  64  88 117 149 193 253 311 359
#     4  10  21  35  51  86 130 159 194 238 289 354
#     4  10  21  37  64  94 117 148 198 255 301 348
#     4  11  19  33  59  87 111 154 204 240 296 346
#     4  12  27  41  59  85 120 159 198 244 308 361
#     4  11  20  36  61  84 114 158 194 246 297 348
#     4  11  23  38  58  81 112 153 203 252 287 351
#
# _framework density 20.548589
#
# number of rings (size 3 to 8) (size 9 to 14) (size 15 to 20)
#    0.000    1.286    4.286    2.571    4.000    2.000 
#    0.000    0.000    0.000    0.429    0.000    1.000 
#    0.000    0.000    0.000    0.000    0.000    0.000 
#
# Total GULP energy -155925.917378 kJ/mol
# GULP energy per Si atom -5568.782764 kJ/mol
# Density = 2.050182 g / cm^3
# Si number density = 20.548589 Si / 1000 Ang^3
#
#
#
# Elastic Constant Matrix: (Units=GPa)
#
#
# Indices 1 2 3 4 5 6 
#
# 1 -609.5928 -330.0069 -144.9355 0.0000 -4.4388 0.0000
# 2 -330.0069 -86.6539 -55.4264 0.0000 -1.6387 0.0000
# 3 -144.9355 -55.4264 53.0783 0.0000 20.1371 0.0000
# 4 0.0000 0.0000 0.0000 24.2730 0.0000 -0.6393
# 5 -4.4388 -1.6387 20.1371 0.0000 29.5377 0.0000
# 6 0.0000 0.0000 0.0000 -0.6393 0.0000 12.5999
#
#
#
# Elastic Compliance Matrix: (Units=1/GPa)
#
#
# Indices 1 2 3 4 5 6 
#
# 1 0.001696 -0.005517 -0.001499 0.000000 0.000971 0.000000
# 2 -0.005517 0.011766 -0.003657 0.000000 0.002317 0.000000
# 3 -0.001499 -0.003657 0.014959 0.000000 -0.010626 0.000000
# 4 0.000000 0.000000 0.000000 0.041253 0.000000 0.002093
# 5 0.000971 0.002317 -0.010626 0.000000 0.041374 0.000000
# 6 0.000000 0.000000 0.000000 0.002093 0.000000 0.079472
#
#
# Mechanical properties :
#
#
# Convention : Reuss Voigt Hill
#
# Bulk Modulus (GPa) = 141.37596 -189.32288 -23.97346
# Shear Modulus (GPa) = 23.34000 5.76214 14.55107
#
# Velocity S-wave (km/s) = 3.37389 1.67638 2.66396
# Velocity P-wave (km/s) = 9.17211 9.41208 1.49326
#
# Compressibility (1/GPa) = 0.00707334
#
# Stress axis : x y z
#
# Youngs Moduli (GPa) = 589.73054 84.98819 66.85152
#
# Poissons Ratio (x) = 0.46889 0.10023
# Poissons Ratio (y) = 3.25362 0.24449
# Poissons Ratio (z) = 0.88417 0.31082
#
# Static dielectric constant tensor:
#      x y z
#    x 2.570770 0.000000 0.228960 
#    y 0.000000 1.482330 0.000000 
#    z 0.228960 0.000000 1.862650 
# 
# From -- ./inp_files/254037.got.cif
#   From: 2010.05.17/outbox.cif.g08.bks.cpg/sg12_128_cif.got.tgz:254037.got - 2010.06.03 13:09:07.
