data_PCOD9205284
_publ_section_title
;
Structure prediction by ZEFSAII (Michael W. Deem and Ramdas Pophale) SiO2 
 PCOD9205284
Probable space group: C 2/M
;
_chemical_formula_sum "Si O2"
_cell_formula_units_Z 56
_cell_length_a 26.100833
_cell_length_b 7.769498
_cell_length_c 16.277764
_cell_angle_alpha 90.000000
_cell_angle_beta 52.496848
_cell_angle_gamma 90.000000
_cell_volume 2618.728023
_symmetry_space_group_name_H-M "C 2/M"
_symmetry_group_IT_number 12
_symmetry_cell_setting 'monoclinic'
loop_
_space_group_symop_operation_xyz
x,y,z
-x,y,-z
-x,-y,-z
x,-y,z
1/2+x,1/2+y,z
1/2-x,1/2+y,-z
1/2-x,1/2-y,-z
1/2+x,1/2-y,z
loop_
_atom_site_type_symbol
_atom_site_label
_atom_site_fract_x
_atom_site_fract_y
_atom_site_fract_z
Si Si1 0.192037 0.791112 0.961178
Si Si2 0.809166 0.207520 0.385551
Si Si3 0.173722 0.192389 0.799802
Si Si4 0.468288 0.796626 0.615924
Si Si5 0.549270 0.705316 0.695622
Si Si6 0.538942 0.797883 0.879441
Si Si7 0.840628 0.296692 0.831105
O O1 0.168245 0.730769 0.895289
O O2 0.267174 0.731139 0.890282
O O3 0.190040 0.000000 0.968644
O O4 0.151492 0.727177 0.078582
O O5 0.750000 0.250000 0.500000
O O6 0.791907 0.278432 0.311110
O O7 0.877336 0.268438 0.357791
O O8 0.813972 0.000000 0.373425
O O9 0.102685 0.186923 0.830774
O O10 0.200872 0.000000 0.785810
O O11 0.500000 0.726638 0.500000
O O12 0.517149 0.777502 0.644937
O O13 0.399160 0.725759 0.718019
O O14 0.457821 0.000000 0.611583
O O15 0.550228 0.500000 0.686244
O O16 0.511360 0.751530 0.817014
O O17 0.555394 0.000000 0.861981
O O18 0.500000 0.765866 0.000000
O O19 0.837951 0.500000 0.817191
#
# Coordination Sequence:
#
# PCOD9205284 Si02
#       7
#     8   8   8   8   8   8   8
#     4   9  18  34  55  79 107 143 183 226 280 333
#     4   9  19  35  54  78 107 141 179 223 273 326
#     4   9  19  34  52  78 109 139 178 222 269 330
#     4  10  22  39  59  83 112 150 192 234 284 336
#     4  10  22  39  57  80 112 146 183 229 276 328
#     4  10  21  35  53  80 111 143 179 220 271 331
#     4   9  19  35  54  78 110 143 183 232 277 330
#
# _framework density 21.384426999999999
#
# number of rings (size 3 to 8) (size 9 to 14) (size 15 to 20)
#    0.000    2.571    0.000    1.714    2.000    6.571 
#    0.000    2.857    0.000    3.429    0.000    0.000 
#    0.000    0.000    0.000    0.000    0.000    0.000 
#
# Total GULP energy -155918.105273 kJ/mol
# GULP energy per Si atom -5568.503760 kJ/mol
# Density = 2.133576 g / cm^3
# Si number density = 21.384427 Si / 1000 Ang^3
#
#
#
# Elastic Constant Matrix: (Units=GPa)
#
#
# Indices 1 2 3 4 5 6 
#
# 1 62.3441 -8.9248 47.3880 0.0000 17.1975 -0.0001
# 2 -8.9248 17.6460 14.2595 -0.0003 -7.3970 -0.0001
# 3 47.3880 14.2595 187.8019 -0.0001 15.9661 0.0001
# 4 0.0000 -0.0003 -0.0001 23.3607 0.0000 1.4357
# 5 17.1975 -7.3970 15.9661 0.0000 37.5455 0.0000
# 6 -0.0001 -0.0001 0.0001 1.4357 0.0000 17.6415
#
#
#
# Elastic Compliance Matrix: (Units=1/GPa)
#
#
# Indices 1 2 3 4 5 6 
#
# 1 0.025304 0.016369 -0.007176 0.000000 -0.005314 0.000000
# 2 0.016369 0.079483 -0.011267 0.000001 0.012953 0.000000
# 3 -0.007176 -0.011267 0.008197 0.000000 -0.002418 0.000000
# 4 0.000000 0.000001 0.000000 0.043022 0.000000 -0.003501
# 5 -0.005314 0.012953 -0.002418 0.000000 0.032648 0.000000
# 6 0.000000 0.000000 0.000000 -0.003501 0.000000 0.056970
#
#
# Mechanical properties :
#
#
# Convention : Reuss Voigt Hill
#
# Bulk Modulus (GPa) = 9.18812 41.47082 25.32947
# Shear Modulus (GPa) = 17.47953 30.04747 23.76350
#
# Velocity S-wave (km/s) = 2.86211 3.75255 3.33716
# Velocity P-wave (km/s) = 3.90234 6.18147 5.16908
#
# Compressibility (1/GPa) = 0.10883615
#
# Stress axis : x y z
#
# Youngs Moduli (GPa) = 39.52015 12.58130 122.00296
#
# Poissons Ratio (x) = -0.20594 0.87549
# Poissons Ratio (y) = -0.64691 1.37456
# Poissons Ratio (z) = 0.28360 0.14175
#
# Static dielectric constant tensor:
#      x y z
#    x 1.794610 0.000000 0.025130 
#    y 0.000000 1.819040 0.000000 
#    z 0.025130 0.000000 1.939930 
# 
# From -- ./inp_files/248904.got.cif
#   From: 2010.05.17/outbox.cif.g08.bks.cpg/sg12_125_cif.got.tgz:248904.got - 2010.06.03 13:09:07.
