data_PCOD9205682
_publ_section_title
;
Structure prediction by ZEFSAII (Michael W. Deem and Ramdas Pophale) SiO2 
 PCOD9205682
Probable space group: C 2/M
;
_chemical_formula_sum "Si O2"
_cell_formula_units_Z 64
_cell_length_a 14.260142
_cell_length_b 27.018524
_cell_length_c 9.355741
_cell_angle_alpha 90.000000
_cell_angle_beta 106.535904
_cell_angle_gamma 90.000000
_cell_volume 3455.571779
_symmetry_space_group_name_H-M "C 2/M"
_symmetry_group_IT_number 12
_symmetry_cell_setting 'monoclinic'
loop_
_space_group_symop_operation_xyz
x,y,z
-x,y,-z
-x,-y,-z
x,-y,z
1/2+x,1/2+y,z
1/2-x,1/2+y,-z
1/2-x,1/2-y,-z
1/2+x,1/2-y,z
loop_
_atom_site_type_symbol
_atom_site_label
_atom_site_fract_x
_atom_site_fract_y
_atom_site_fract_z
Si Si1 0.022259 0.674539 0.843439
Si Si2 0.023959 0.941463 0.351127
Si Si3 0.243348 0.643840 0.856609
Si Si4 0.954407 0.771681 0.322364
Si Si5 0.065517 0.136158 0.886695
Si Si6 0.249589 0.941435 0.364153
Si Si7 0.592246 0.124834 0.439328
Si Si8 0.712332 0.217902 0.616105
O O1 0.135230 0.659429 0.862213
O O2 0.004358 0.726182 0.752556
O O3 0.950676 0.635544 0.734977
O O4 0.000000 0.679140 0.000000
O O5 0.138313 0.933486 0.367016
O O6 0.000000 0.923027 0.500000
O O7 0.959103 0.914268 0.205531
O O8 0.005270 0.000000 0.338971
O O9 0.237255 0.591197 0.773266
O O10 0.277635 0.684104 0.750231
O O11 0.322802 0.641536 0.015024
O O12 0.962347 0.820853 0.235515
O O13 0.842895 0.756371 0.305819
O O14 0.000000 0.775404 0.500000
O O15 0.000000 0.139211 0.000000
O O16 0.325867 0.916994 0.508144
O O17 0.265665 0.000000 0.352341
O O18 0.500000 0.112628 0.500000
O O19 0.638718 0.175830 0.522196
O O20 0.750000 0.250000 0.500000
#
# Coordination Sequence:
#
# PCOD9205682 Si02
#       8
#     8   8   8   8   8   8   8   8
#     4  11  22  40  63  86 127 170 200 253 318 364
#     4  10  23  44  66  91 123 163 206 257 319 375
#     4  10  23  41  56  93 128 155 215 257 302 376
#     4  11  22  39  57  85 122 164 212 247 298 362
#     4  12  25  37  60  92 126 162 204 257 305 370
#     4  10  21  40  70  94 119 160 212 262 312 378
#     4  11  19  41  63  92 126 161 210 259 306 372
#     4  10  21  35  62  83 119 168 209 252 297 358
#
# _framework density 18.520813
#
# number of rings (size 3 to 8) (size 9 to 14) (size 15 to 20)
#    0.000    1.375    6.250    0.750    1.750    8.000 
#    0.000    0.000    0.000    1.500    0.000    0.000 
#    0.000    0.000    0.000    0.000    0.000    0.000 
#
# Total GULP energy -178596.037575 kJ/mol
# GULP energy per Si atom -5581.126174 kJ/mol
# Density = 1.847866 g / cm^3
# Si number density = 18.520813 Si / 1000 Ang^3
#
#
#
# Elastic Constant Matrix: (Units=GPa)
#
#
# Indices 1 2 3 4 5 6 
#
# 1 53.8807 38.8315 49.7283 0.0000 4.2134 0.0000
# 2 38.8315 82.4745 56.6074 0.0000 0.0702 0.0000
# 3 49.7283 56.6074 158.9565 0.0000 1.4894 0.0000
# 4 0.0000 0.0000 0.0000 23.7987 0.0000 2.2279
# 5 4.2134 0.0702 1.4894 0.0000 40.4963 0.0000
# 6 0.0000 0.0000 0.0000 2.2279 0.0000 17.6988
#
#
#
# Elastic Compliance Matrix: (Units=1/GPa)
#
#
# Indices 1 2 3 4 5 6 
#
# 1 0.032481 -0.011033 -0.006203 0.000000 -0.003132 0.000000
# 2 -0.011033 0.019796 -0.003610 0.000000 0.001246 0.000000
# 3 -0.006203 -0.003610 0.009514 0.000000 0.000302 0.000000
# 4 0.000000 0.000000 0.000000 0.042520 0.000000 -0.005352
# 5 -0.003132 0.001246 0.000302 0.000000 0.025006 0.000000
# 6 0.000000 0.000000 0.000000 -0.005352 0.000000 0.057175
#
#
# Mechanical properties :
#
#
# Convention : Reuss Voigt Hill
#
# Bulk Modulus (GPa) = 49.75175 65.07179 57.41177
# Shear Modulus (GPa) = 21.28715 26.40839 23.84777
#
# Velocity S-wave (km/s) = 3.39390 3.78017 3.59224
# Velocity P-wave (km/s) = 6.50223 7.36639 6.94776
#
# Compressibility (1/GPa) = 0.02009980
#
# Stress axis : x y z
#
# Youngs Moduli (GPa) = 30.78765 50.51489 105.10442
#
# Poissons Ratio (x) = 0.55731 0.65196
# Poissons Ratio (y) = 0.33967 0.37943
# Poissons Ratio (z) = 0.19098 0.18236
#
# Static dielectric constant tensor:
#      x y z
#    x 1.661680 0.000000 0.020280 
#    y 0.000000 1.634170 0.000000 
#    z 0.020280 0.000000 1.645310 
# 
# From -- ./inp_files/67029.got.cif
#   From: 2010.05.17/outbox.cif.g08.bks.cpg/sg12_34_cif.got.tgz:67029.got - 2010.06.03 13:09:07.
