data_PCOD9205535
_publ_section_title
;
Structure prediction by ZEFSAII (Michael W. Deem and Ramdas Pophale) SiO2 
 PCOD9205535
Probable space group: C 2/M
;
_chemical_formula_sum "Si O2"
_cell_formula_units_Z 32
_cell_length_a 10.098738
_cell_length_b 17.452647
_cell_length_c 9.662085
_cell_angle_alpha 90.000000
_cell_angle_beta 69.155140
_cell_angle_gamma 90.000000
_cell_volume 1591.477772
_symmetry_space_group_name_H-M "C 2/M"
_symmetry_group_IT_number 12
_symmetry_cell_setting 'monoclinic'
loop_
_space_group_symop_operation_xyz
x,y,z
-x,y,-z
-x,-y,-z
x,-y,z
1/2+x,1/2+y,z
1/2-x,1/2+y,-z
1/2-x,1/2-y,-z
1/2+x,1/2-y,z
loop_
_atom_site_type_symbol
_atom_site_label
_atom_site_fract_x
_atom_site_fract_y
_atom_site_fract_z
Si Si1 0.857362 0.500000 0.469731
Si Si2 0.009660 0.786349 0.149896
Si Si3 0.361666 0.000000 0.146929
Si Si4 0.132155 0.129388 0.538191
Si Si5 0.771906 0.670370 0.212950
O O1 0.901659 0.500000 0.293189
O O2 0.755279 0.571585 0.533245
O O3 0.000000 0.500000 0.500000
O O4 0.169337 0.784928 0.146572
O O5 0.927517 0.831215 0.302591
O O6 0.928034 0.705758 0.163850
O O7 0.000000 0.822457 0.000000
O O8 0.277555 0.919163 0.165598
O O9 0.500000 0.000000 0.000000
O O10 0.202871 0.180398 0.390994
O O11 0.000000 0.093458 0.500000
#
# Coordination Sequence:
#
# PCOD9205535 Si02
#       5
#     4   8   4   8   8
#     4  10  21  35  57  86 116 150 194 240 285 339
#     4  11  22  36  59  89 117 148 191 242 287 335
#     4  10  22  41  61  84 117 156 191 234 291 345
#     4   9  20  38  57  80 115 157 191 230 287 348
#     4  10  22  40  61  85 116 155 192 234 288 345
#
# _framework density 20.107099999999999
#
# number of rings (size 3 to 8) (size 9 to 14) (size 15 to 20)
#    0.000    2.000    0.000    2.625    0.000    9.000 
#    0.000    2.500    0.000    1.500    0.000    0.000 
#    0.000    0.000    0.000    0.000    0.000    0.000 
#
# Total GULP energy -89167.068969 kJ/mol
# GULP energy per Si atom -5572.941811 kJ/mol
# Density = 2.006134 g / cm^3
# Si number density = 20.107100 Si / 1000 Ang^3
#
#
#
# Elastic Constant Matrix: (Units=GPa)
#
#
# Indices 1 2 3 4 5 6 
#
# 1 109.1684 62.2633 7.5706 0.0000 15.4372 0.0000
# 2 62.2633 74.8379 42.9338 0.0000 5.7522 0.0000
# 3 7.5706 42.9338 136.9823 0.0000 -23.0188 0.0000
# 4 0.0000 0.0000 0.0000 -6.3940 0.0000 -17.5907
# 5 15.4372 5.7522 -23.0188 0.0000 30.4312 0.0000
# 6 0.0000 0.0000 0.0000 -17.5907 0.0000 14.3451
#
#
#
# Elastic Compliance Matrix: (Units=1/GPa)
#
#
# Indices 1 2 3 4 5 6 
#
# 1 0.020152 -0.018937 0.004245 0.000000 -0.003432 0.000000
# 2 -0.018937 0.035961 -0.011173 0.000000 -0.005642 0.000000
# 3 0.004245 -0.011173 0.012098 0.000000 0.009110 0.000000
# 4 0.000000 0.000000 0.000000 -0.035759 0.000000 -0.043850
# 5 -0.003432 -0.005642 0.009110 0.000000 0.042559 0.000000
# 6 0.000000 0.000000 0.000000 -0.043850 0.000000 0.015939
#
#
# Mechanical properties :
#
#
# Convention : Reuss Voigt Hill
#
# Bulk Modulus (GPa) = 60.67559 60.72489 60.70024
# Shear Modulus (GPa) = 33.74423 21.55784 27.65104
#
# Velocity S-wave (km/s) = 4.10106 3.27792 3.71238
# Velocity P-wave (km/s) = 7.25718 6.67777 6.97350
#
# Compressibility (1/GPa) = 0.01648109
#
# Stress axis : x y z
#
# Youngs Moduli (GPa) = 49.62314 27.80799 82.65692
#
# Poissons Ratio (x) = 0.52661 -0.35088
# Poissons Ratio (y) = 0.93973 0.92349
# Poissons Ratio (z) = -0.21065 0.31069
#
# Static dielectric constant tensor:
#      x y z
#    x 1.726960 0.000000 -0.037950 
#    y 0.000000 1.754240 0.000000 
#    z -0.037950 0.000000 1.721850 
# 
# From -- ./inp_files/37605.got.cif
#   From: 2010.05.17/outbox.cif.g08.bks.cpg/sg12_19_cif.got.tgz:37605.got - 2010.06.03 13:09:07.
