data_PCOD9205479
_publ_section_title
;
Structure prediction by ZEFSAII (Michael W. Deem and Ramdas Pophale) SiO2 
 PCOD9205479
Probable space group: C 2/M
;
_chemical_formula_sum "Si O2"
_cell_formula_units_Z 64
_cell_length_a 28.517478
_cell_length_b 13.983295
_cell_length_c 12.213602
_cell_angle_alpha 90.000000
_cell_angle_beta 138.851842
_cell_angle_gamma 90.000000
_cell_volume 3204.762377
_symmetry_space_group_name_H-M "C 2/M"
_symmetry_group_IT_number 12
_symmetry_cell_setting 'monoclinic'
loop_
_space_group_symop_operation_xyz
x,y,z
-x,y,-z
-x,-y,-z
x,-y,z
1/2+x,1/2+y,z
1/2-x,1/2+y,-z
1/2-x,1/2-y,-z
1/2+x,1/2-y,z
loop_
_atom_site_type_symbol
_atom_site_label
_atom_site_fract_x
_atom_site_fract_y
_atom_site_fract_z
Si Si1 0.882665 0.300463 0.833528
Si Si2 0.680397 0.112644 0.490893
Si Si3 0.786476 0.111934 0.112183
Si Si4 0.547666 0.111381 0.850902
Si Si5 0.364513 0.207424 0.182638
Si Si6 0.762168 0.886498 0.326008
Si Si7 0.403717 0.888668 0.461246
Si Si8 0.660028 0.610682 0.318941
O O1 0.868428 0.342449 0.688415
O O2 0.808703 0.327987 0.767189
O O3 0.889563 0.187457 0.826862
O O4 0.944161 0.348492 0.012756
O O5 0.662817 0.145971 0.582210
O O6 0.762114 0.123571 0.599968
O O7 0.664621 0.000000 0.463859
O O8 0.843155 0.182176 0.155820
O O9 0.785987 0.126947 0.243184
O O10 0.796875 0.000000 0.108153
O O11 0.708777 0.146949 0.936659
O O12 0.598002 0.175095 0.862159
O O13 0.470390 0.116278 0.660314
O O14 0.570746 0.000000 0.889018
O O15 0.411578 0.174383 0.368005
O O16 0.822805 0.865791 0.523377
O O17 0.744624 0.000000 0.309703
O O18 0.395534 0.000000 0.413266
O O19 0.638797 0.500000 0.272494
#
# Coordination Sequence:
#
# PCOD9205479 Si02
#       8
#     8   8   8   8   8   8   8   8
#     4  11  19  30  55  78 109 144 178 217 264 320
#     4   9  18  32  50  80 110 136 168 220 274 321
#     4  10  21  35  56  86 113 140 177 221 274 326
#     4  11  22  38  56  77 104 148 191 222 264 322
#     4  11  22  35  58  81 111 141 183 222 272 317
#     4   9  16  30  51  78 111 142 170 208 261 330
#     4  10  22  36  55  79 110 143 181 227 272 318
#     4   9  19  31  50  81 115 145 173 209 270 332
#
# _framework density 19.970279999999999
#
# number of rings (size 3 to 8) (size 9 to 14) (size 15 to 20)
#    0.000    2.000    1.250    4.875    3.500    1.500 
#    0.000    3.750    0.000    2.250    0.000    0.875 
#    0.000    0.000    0.000    0.000    0.000    0.000 
#
# Total GULP energy -178729.549696 kJ/mol
# GULP energy per Si atom -5585.298428 kJ/mol
# Density = 1.992483 g / cm^3
# Si number density = 19.970280 Si / 1000 Ang^3
#
#
#
# Elastic Constant Matrix: (Units=GPa)
#
#
# Indices 1 2 3 4 5 6 
#
# 1 43.1748 20.2043 4.4045 0.0000 -11.4495 0.0000
# 2 20.2043 113.6394 35.4593 0.0000 -8.6424 0.0000
# 3 4.4045 35.4593 40.8697 0.0000 -13.6898 0.0000
# 4 0.0000 0.0000 0.0000 25.0159 0.0000 -6.2138
# 5 -11.4495 -8.6424 -13.6898 0.0000 18.7349 0.0000
# 6 0.0000 0.0000 0.0000 -6.2138 0.0000 21.8198
#
#
#
# Elastic Compliance Matrix: (Units=1/GPa)
#
#
# Indices 1 2 3 4 5 6 
#
# 1 0.031819 -0.007230 0.010911 0.000000 0.024083 0.000000
# 2 -0.007230 0.013818 -0.013975 0.000000 -0.008256 0.000000
# 3 0.010911 -0.013975 0.046993 0.000000 0.034559 0.000000
# 4 0.000000 0.000000 0.000000 0.043017 0.000000 0.012250
# 5 0.024083 -0.008256 0.034559 0.000000 0.089538 0.000000
# 6 0.000000 0.000000 0.000000 0.012250 0.000000 0.049319
#
#
# Mechanical properties :
#
#
# Convention : Reuss Voigt Hill
#
# Bulk Modulus (GPa) = 13.88104 35.31336 24.59720
# Shear Modulus (GPa) = 15.66875 22.28851 18.97863
#
# Velocity S-wave (km/s) = 2.80412 3.34441 3.08611
# Velocity P-wave (km/s) = 4.17732 5.71269 5.00424
#
# Compressibility (1/GPa) = 0.07204072
#
# Stress axis : x y z
#
# Youngs Moduli (GPa) = 31.42823 72.36932 21.27970
#
# Poissons Ratio (x) = 0.52324 -0.23217
# Poissons Ratio (y) = 0.22723 0.29738
# Poissons Ratio (z) = -0.34290 1.01136
#
# Static dielectric constant tensor:
#      x y z
#    x 1.707880 0.000000 0.008520 
#    y 0.000000 1.714380 0.000000 
#    z 0.008520 0.000000 1.720140 
# 
# From -- ./inp_files/189478.got.cif
#   From: 2010.05.17/outbox.cif.g08.bks.cpg/sg12_95_cif.got.tgz:189478.got - 2010.06.03 13:09:07.
