data_PCOD9205412
_publ_section_title
;
Structure prediction by ZEFSAII (Michael W. Deem and Ramdas Pophale) SiO2 
 PCOD9205412
Probable space group: C 2/M
;
_chemical_formula_sum "Si O2"
_cell_formula_units_Z 64
_cell_length_a 27.159876
_cell_length_b 10.608273
_cell_length_c 12.741945
_cell_angle_alpha 90.000000
_cell_angle_beta 112.075472
_cell_angle_gamma 90.000000
_cell_volume 3402.064069
_symmetry_space_group_name_H-M "C 2/M"
_symmetry_group_IT_number 12
_symmetry_cell_setting 'monoclinic'
loop_
_space_group_symop_operation_xyz
x,y,z
-x,y,-z
-x,-y,-z
x,-y,z
1/2+x,1/2+y,z
1/2-x,1/2+y,-z
1/2-x,1/2-y,-z
1/2+x,1/2-y,z
loop_
_atom_site_type_symbol
_atom_site_label
_atom_site_fract_x
_atom_site_fract_y
_atom_site_fract_z
Si Si1 0.567345 0.140198 0.836083
Si Si2 0.990854 0.853670 0.867592
Si Si3 0.140475 0.144712 0.593390
Si Si4 0.781516 0.855312 0.158862
Si Si5 0.561533 0.140113 0.580011
Si Si6 0.373134 0.650139 0.805817
Si Si7 0.792683 0.854570 0.564071
Si Si8 0.668340 0.258513 0.007305
O O1 0.531433 0.254960 0.849480
O O2 0.567726 0.147720 0.710586
O O3 0.547387 0.000000 0.849788
O O4 0.626981 0.156897 0.928376
O O5 0.930125 0.805623 0.808307
O O6 0.996674 0.000000 0.834298
O O7 0.000000 0.857514 0.000000
O O8 0.183802 0.189748 0.714585
O O9 0.093291 0.244125 0.557084
O O10 0.166779 0.140891 0.500655
O O11 0.124936 0.000000 0.609010
O O12 0.725573 0.787787 0.094348
O O13 0.769003 0.000000 0.169948
O O14 0.816796 0.843360 0.081536
O O15 0.500000 0.148214 0.500000
O O16 0.580911 0.000000 0.562583
O O17 0.376593 0.500000 0.801262
O O18 0.324484 0.688153 0.692931
O O19 0.361461 0.682508 0.916921
O O20 0.750000 0.750000 0.500000
O O21 0.772836 0.000000 0.562804
#
# Coordination Sequence:
#
# PCOD9205412 Si02
#       8
#     8   8   8   8   8   8   8   8
#     4  11  23  39  59  88 120 152 192 242 297 352
#     4  10  21  38  60  85 115 154 196 235 284 350
#     4  10  21  39  61  88 118 150 197 250 292 340
#     4  10  21  35  55  84 115 150 191 241 294 343
#     4  10  23  42  61  84 118 156 194 240 294 354
#     4  10  21  38  59  86 117 156 200 240 287 350
#     4  10  22  40  61  86 120 157 200 247 291 344
#     4  11  20  36  58  84 118 155 190 237 290 356
#
# _framework density 18.812107999999998
#
# number of rings (size 3 to 8) (size 9 to 14) (size 15 to 20)
#    0.000    1.750    2.500    1.500    1.750    2.000 
#    0.000    1.875    0.000    0.000    0.000    0.000 
#    0.000    0.000    0.000    0.000    0.000    0.000 
#
# Total GULP energy -178442.891347 kJ/mol
# GULP energy per Si atom -5576.340355 kJ/mol
# Density = 1.876929 g / cm^3
# Si number density = 18.812108 Si / 1000 Ang^3
#
#
#
# Elastic Constant Matrix: (Units=GPa)
#
#
# Indices 1 2 3 4 5 6 
#
# 1 65.5641 40.4650 4.5255 0.0000 6.7775 0.0000
# 2 40.4650 71.8978 -3.1434 0.0000 10.0991 0.0000
# 3 4.5255 -3.1434 68.1283 0.0000 9.6544 0.0000
# 4 0.0000 0.0000 0.0000 60.3774 0.0000 38.9221
# 5 6.7775 10.0991 9.6544 0.0000 26.9951 0.0000
# 6 0.0000 0.0000 0.0000 38.9221 0.0000 54.4981
#
#
#
# Elastic Compliance Matrix: (Units=1/GPa)
#
#
# Indices 1 2 3 4 5 6 
#
# 1 0.023693 -0.013408 -0.002170 0.000000 -0.000156 0.000000
# 2 -0.013408 0.022421 0.002778 0.000000 -0.006015 0.000000
# 3 -0.002170 0.002778 0.015822 0.000000 -0.006153 0.000000
# 4 0.000000 0.000000 0.000000 0.030694 0.000000 -0.021921
# 5 -0.000156 -0.006015 -0.006153 0.000000 0.041534 0.000000
# 6 0.000000 0.000000 0.000000 -0.021921 0.000000 0.034005
#
#
# Mechanical properties :
#
#
# Convention : Reuss Voigt Hill
#
# Bulk Modulus (GPa) = 27.52129 32.14271 29.83200
# Shear Modulus (GPa) = 24.28562 39.29032 31.78797
#
# Velocity S-wave (km/s) = 3.59689 4.57504 4.11513
# Velocity P-wave (km/s) = 5.64902 6.71053 6.20253
#
# Compressibility (1/GPa) = 0.03633551
#
# Stress axis : x y z
#
# Youngs Moduli (GPa) = 42.20600 44.60090 63.20149
#
# Poissons Ratio (x) = 0.59800 0.13717
# Poissons Ratio (y) = 0.56589 -0.17554
# Poissons Ratio (z) = 0.09160 -0.12388
#
# Static dielectric constant tensor:
#      x y z
#    x 1.653950 0.000000 0.031180 
#    y 0.000000 1.655760 0.000000 
#    z 0.031180 0.000000 1.661310 
# 
# From -- ./inp_files/175321.got.cif
#   From: 2010.05.17/outbox.cif.g08.bks.cpg/sg12_88_cif.got.tgz:175321.got - 2010.06.03 13:09:07.
