data_PCOD9205084
_publ_section_title
;
Structure prediction by ZEFSAII (Michael W. Deem and Ramdas Pophale) SiO2 
 PCOD9205084
Probable space group: C 2/M
;
_chemical_formula_sum "Si O2"
_cell_formula_units_Z 40
_cell_length_a 13.606850
_cell_length_b 7.208251
_cell_length_c 15.964509
_cell_angle_alpha 90.000000
_cell_angle_beta 67.838031
_cell_angle_gamma 90.000000
_cell_volume 1450.143165
_symmetry_space_group_name_H-M "C 2/M"
_symmetry_group_IT_number 12
_symmetry_cell_setting 'monoclinic'
loop_
_space_group_symop_operation_xyz
x,y,z
-x,y,-z
-x,-y,-z
x,-y,z
1/2+x,1/2+y,z
1/2-x,1/2+y,-z
1/2-x,1/2-y,-z
1/2+x,1/2-y,z
loop_
_atom_site_type_symbol
_atom_site_label
_atom_site_fract_x
_atom_site_fract_y
_atom_site_fract_z
Si Si1 0.141657 0.776605 0.881909
Si Si2 0.180627 0.773746 0.687512
Si Si3 0.389104 0.793328 0.562306
Si Si4 0.563462 0.724612 0.265714
Si Si5 0.391571 0.723031 0.928827
O O1 0.195528 0.709210 0.779238
O O2 0.016531 0.737704 0.906265
O O3 0.150656 0.000000 0.880367
O O4 0.166931 0.708624 0.967981
O O5 0.271762 0.709069 0.594433
O O6 0.061037 0.725455 0.701650
O O7 0.184738 0.000000 0.685774
O O8 0.500000 0.702473 0.500000
O O9 0.397839 0.803996 0.659958
O O10 0.611327 0.000000 0.475308
O O11 0.568730 0.500000 0.266940
O O12 0.623275 0.788166 0.161760
O O13 0.383276 0.500000 0.930553
#
# Coordination Sequence:
#
# PCOD9205084 Si02
#       5
#     8   8   8   8   8
#     4   7   9  17  37  64  90 115 144 176 213 261
#     4   8  15  29  48  68  92 123 154 183 221 272
#     4  10  21  35  48  65  92 123 154 190 232 275
#     4   9  17  31  51  72  92 116 151 192 228 265
#     4   7  10  18  37  66  92 111 139 182 221 254
#
# _framework density 27.583486000000001
#
# number of rings (size 3 to 8) (size 9 to 14) (size 15 to 20)
#    0.000    3.800    0.000    3.600    0.000    1.200 
#    0.000    2.000    0.000    0.000    0.000   11.200 
#    0.000    0.000    0.000    0.000    0.000    0.000 
#
# Total GULP energy -111776.423371 kJ/mol
# GULP energy per Si atom -5588.821169 kJ/mol
# Density = 2.752070 g / cm^3
# Si number density = 27.583486 Si / 1000 Ang^3
#
#
#
# Elastic Constant Matrix: (Units=GPa)
#
#
# Indices 1 2 3 4 5 6 
#
# 1 84.2191 3.7380 37.7590 0.0000 -27.0839 0.0000
# 2 3.7380 143.1901 4.3862 0.0000 -5.0477 0.0000
# 3 37.7590 4.3862 120.7918 0.0000 -34.3001 0.0000
# 4 0.0000 0.0000 0.0000 -28.8252 0.0000 9.4662
# 5 -27.0839 -5.0477 -34.3001 0.0000 78.9037 0.0000
# 6 0.0000 0.0000 0.0000 9.4662 0.0000 -1.5642
#
#
#
# Elastic Compliance Matrix: (Units=1/GPa)
#
#
# Indices 1 2 3 4 5 6 
#
# 1 0.014592 -0.000150 -0.003578 0.000000 0.003444 0.000000
# 2 -0.000150 0.007003 -0.000108 0.000000 0.000350 0.000000
# 3 -0.003578 -0.000108 0.010325 0.000000 0.003253 0.000000
# 4 0.000000 0.000000 0.000000 0.035135 0.000000 0.212628
# 5 0.003444 0.000350 0.003253 0.000000 0.015292 0.000000
# 6 0.000000 0.000000 0.000000 0.212628 0.000000 0.647463
#
#
# Mechanical properties :
#
#
# Convention : Reuss Voigt Hill
#
# Bulk Modulus (GPa) = 41.24066 48.88524 45.06295
# Shear Modulus (GPa) = 6.70631 29.85740 18.28186
#
# Velocity S-wave (km/s) = 1.56095 3.29361 2.57725
# Velocity P-wave (km/s) = 4.26994 5.67670 5.02282
#
# Compressibility (1/GPa) = 0.02424792
#
# Stress axis : x y z
#
# Youngs Moduli (GPa) = 68.53006 142.79040 96.85315
#
# Poissons Ratio (x) = 0.02141 0.34655
# Poissons Ratio (y) = 0.01027 0.01048
# Poissons Ratio (z) = 0.24521 0.01545
#
# Static dielectric constant tensor:
#      x y z
#    x 2.239780 0.000000 -0.035540 
#    y 0.000000 2.016760 0.000000 
#    z -0.035540 0.000000 2.124940 
# 
# From -- ./inp_files/202968.got.cif
#   From: 2010.05.17/outbox.cif.g08.bks.cpg/sg12_102_cif.got.tgz:202968.got - 2010.06.03 13:09:07.
