data_PCOD9205229
_publ_section_title
;
Structure prediction by ZEFSAII (Michael W. Deem and Ramdas Pophale) SiO2 
 PCOD9205229
Probable space group: C 2/M
;
_chemical_formula_sum "Si O2"
_cell_formula_units_Z 60
_cell_length_a 14.775608
_cell_length_b 7.472996
_cell_length_c 23.299497
_cell_angle_alpha 90.000000
_cell_angle_beta 71.899151
_cell_angle_gamma 90.000000
_cell_volume 2445.365955
_symmetry_space_group_name_H-M "C 2/M"
_symmetry_group_IT_number 12
_symmetry_cell_setting 'monoclinic'
loop_
_space_group_symop_operation_xyz
x,y,z
-x,y,-z
-x,-y,-z
x,-y,z
1/2+x,1/2+y,z
1/2-x,1/2+y,-z
1/2-x,1/2-y,-z
1/2+x,1/2-y,z
loop_
_atom_site_type_symbol
_atom_site_label
_atom_site_fract_x
_atom_site_fract_y
_atom_site_fract_z
Si Si1 0.489143 0.282715 0.339889
Si Si2 0.196106 0.206627 0.900649
Si Si3 0.270545 0.718819 0.357929
Si Si4 0.920830 0.294419 0.557063
Si Si5 0.000000 0.265349 0.000000
Si Si6 0.874025 0.791425 0.924929
Si Si7 0.303486 0.716509 0.226534
Si Si8 0.976394 0.215570 0.790576
O O1 0.492790 0.500000 0.341558
O O2 0.377274 0.232510 0.356039
O O3 0.535744 0.208666 0.387735
O O4 0.540726 0.221779 0.270898
O O5 0.261775 0.291224 0.936269
O O6 0.217903 0.284802 0.833090
O O7 0.223430 0.000000 0.894757
O O8 0.084583 0.207699 0.938446
O O9 0.268252 0.500000 0.357590
O O10 0.185193 0.782894 0.415253
O O11 0.253595 0.778023 0.295066
O O12 0.908094 0.500000 0.539984
O O13 0.000000 0.210406 0.500000
O O14 0.075550 0.316132 0.034720
O O15 0.913483 0.725448 0.855901
O O16 0.901944 0.000000 0.931155
O O17 0.294669 0.500000 0.226003
O O18 0.414484 0.756585 0.215951
O O19 0.967866 0.000000 0.790887
#
# Coordination Sequence:
#
# PCOD9205229 Si02
#       8
#     8   8   8   8   4   8   8   8
#     4   9  18  34  56  79 103 138 185 228 262 310
#     4  11  22  36  57  84 107 139 185 226 265 319
#     4   8  16  32  53  76 105 141 179 217 260 315
#     4  10  21  35  52  79 114 147 176 214 272 329
#     4  12  23  40  61  78 109 152 189 218 261 332
#     4  11  22  37  57  81 108 142 180 223 274 326
#     4   8  14  29  54  78 100 136 183 219 253 314
#     4   8  15  31  55  79 103 136 179 224 269 315
#
# _framework density 24.536204999999999
#
# number of rings (size 3 to 8) (size 9 to 14) (size 15 to 20)
#    0.000    2.533    1.333    3.200    1.867    0.800 
#    0.000    2.000    0.000    3.200    0.000    0.000 
#    0.000    0.000    0.000    0.000    0.000    0.000 
#
# Total GULP energy -167256.823724 kJ/mol
# GULP energy per Si atom -5575.227457 kJ/mol
# Density = 2.448036 g / cm^3
# Si number density = 24.536205 Si / 1000 Ang^3
#
#
#
# Elastic Constant Matrix: (Units=GPa)
#
#
# Indices 1 2 3 4 5 6 
#
# 1 83.6075 0.2340 1.7358 0.0000 -11.9333 0.0000
# 2 0.2340 78.7432 -4.3533 0.0000 -6.8625 0.0000
# 3 1.7358 -4.3533 66.1688 0.0000 -19.6568 0.0000
# 4 0.0000 0.0000 0.0000 -10.4054 0.0000 16.0511
# 5 -11.9333 -6.8625 -19.6568 0.0000 45.9500 0.0000
# 6 0.0000 0.0000 0.0000 16.0511 0.0000 10.4198
#
#
#
# Elastic Compliance Matrix: (Units=1/GPa)
#
#
# Indices 1 2 3 4 5 6 
#
# 1 0.012459 0.000320 0.000767 0.000000 0.003612 0.000000
# 2 0.000320 0.013029 0.001663 0.000000 0.002740 0.000000
# 3 0.000767 0.001663 0.017568 0.000000 0.007963 0.000000
# 4 0.000000 0.000000 0.000000 -0.028465 0.000000 0.043848
# 5 0.003612 0.002740 0.007963 0.000000 0.026516 0.000000
# 6 0.000000 0.000000 0.000000 0.043848 0.000000 0.028425
#
#
# Mechanical properties :
#
#
# Convention : Reuss Voigt Hill
#
# Bulk Modulus (GPa) = 20.59451 24.86140 22.72796
# Shear Modulus (GPa) = 62.32981 24.58643 43.45812
#
# Velocity S-wave (km/s) = 5.04563 3.16895 4.21311
# Velocity P-wave (km/s) = 6.50816 4.85223 5.74022
#
# Compressibility (1/GPa) = 0.04855663
#
# Stress axis : x y z
#
# Youngs Moduli (GPa) = 80.26121 76.75004 56.92290
#
# Poissons Ratio (x) = -0.02457 -0.04367
# Poissons Ratio (y) = -0.02570 -0.09466
# Poissons Ratio (z) = -0.06157 -0.12763
#
# Static dielectric constant tensor:
#      x y z
#    x 1.911480 0.000000 -0.030180 
#    y 0.000000 1.986040 0.000000 
#    z -0.030180 0.000000 1.958700 
# 
# From -- ./inp_files/338638.got.cif
#   From: 2010.05.17/outbox.cif.g08.bks.cpg/sg12_170_cif.got.tgz:338638.got - 2010.06.03 13:09:07.
