data_PCOD9205600
_publ_section_title
;
Structure prediction by ZEFSAII (Michael W. Deem and Ramdas Pophale) SiO2 
 PCOD9205600
Probable space group: C 2/M
;
_chemical_formula_sum "Si O2"
_cell_formula_units_Z 40
_cell_length_a 27.577141
_cell_length_b 14.488258
_cell_length_c 7.515011
_cell_angle_alpha 90.000000
_cell_angle_beta 37.757657
_cell_angle_gamma 90.000000
_cell_volume 1838.550499
_symmetry_space_group_name_H-M "C 2/M"
_symmetry_group_IT_number 12
_symmetry_cell_setting 'monoclinic'
loop_
_space_group_symop_operation_xyz
x,y,z
-x,y,-z
-x,-y,-z
x,-y,z
1/2+x,1/2+y,z
1/2-x,1/2+y,-z
1/2-x,1/2-y,-z
1/2+x,1/2-y,z
loop_
_atom_site_type_symbol
_atom_site_label
_atom_site_fract_x
_atom_site_fract_y
_atom_site_fract_z
Si Si1 0.828200 0.274900 0.379978
Si Si2 0.688247 0.395171 0.340673
Si Si3 0.966427 0.100014 0.398826
Si Si4 0.491629 0.802756 0.819903
Si Si5 0.846923 0.389507 0.684115
O O1 0.750000 0.250000 0.500000
O O2 0.847704 0.176802 0.416712
O O3 0.822932 0.343742 0.564136
O O4 0.898671 0.313996 0.050828
O O5 0.691270 0.500000 0.400924
O O6 0.628829 0.395487 0.344233
O O7 0.775783 0.366548 0.025467
O O8 0.000000 0.101492 0.500000
O O9 0.995689 0.193522 0.227508
O O10 0.989759 0.000000 0.251973
O O11 0.566691 0.850535 0.509218
O O12 0.500000 0.834578 0.000000
O O13 0.850936 0.500000 0.656088
#
# Coordination Sequence:
#
# PCOD9205600 Si02
#       5
#     8   8   8   8   8
#     4  11  24  38  60  91 122 157 198 249 309 360
#     4  10  21  40  62  88 121 158 200 252 304 358
#     4  10  21  35  58  89 120 156 198 243 303 368
#     4  10  21  38  58  87 118 161 193 246 305 350
#     4  10  22  41  65  86 116 166 211 246 294 357
#
# _framework density 21.756267000000001
#
# number of rings (size 3 to 8) (size 9 to 14) (size 15 to 20)
#    0.000    1.800    4.000    0.600    2.800    5.600 
#    0.000    0.000    0.000    3.000    0.000    0.000 
#    0.000    0.000    0.000    0.000    0.000    0.000 
#
# Total GULP energy -111457.585552 kJ/mol
# GULP energy per Si atom -5572.879278 kJ/mol
# Density = 2.170675 g / cm^3
# Si number density = 21.756267 Si / 1000 Ang^3
#
#
#
# Elastic Constant Matrix: (Units=GPa)
#
#
# Indices 1 2 3 4 5 6 
#
# 1 88.3715 4.2107 32.0266 0.0000 -32.3110 0.0000
# 2 4.2107 82.9817 29.7024 0.0000 -0.5774 0.0000
# 3 32.0266 29.7024 116.9488 0.0000 -23.5072 0.0000
# 4 0.0000 0.0000 0.0000 618.3089 0.0000 -145.2783
# 5 -32.3110 -0.5774 -23.5072 0.0000 30.1338 0.0000
# 6 0.0000 0.0000 0.0000 -145.2783 0.0000 30.5210
#
#
#
# Elastic Compliance Matrix: (Units=1/GPa)
#
#
# Indices 1 2 3 4 5 6 
#
# 1 0.018790 -0.000397 -0.001182 0.000000 0.019217 0.000000
# 2 -0.000397 0.013469 -0.003968 0.000000 -0.003262 0.000000
# 3 -0.001182 -0.003968 0.011400 0.000000 0.007549 0.000000
# 4 0.000000 0.000000 0.000000 -0.013660 0.000000 -0.065020
# 5 0.019217 -0.003262 0.007549 0.000000 0.059618 0.000000
# 6 0.000000 0.000000 0.000000 -0.065020 0.000000 -0.276728
#
#
# Mechanical properties :
#
#
# Convention : Reuss Voigt Hill
#
# Bulk Modulus (GPa) = 30.70815 46.68683 38.69749
# Shear Modulus (GPa) = -30.27284 150.61692 60.17204
#
# Velocity S-wave (km/s) = -3.73427 8.32944 5.26473
# Velocity P-wave (km/s) = 2.10896 10.67762 7.40148
#
# Compressibility (1/GPa) = 0.03256465
#
# Stress axis : x y z
#
# Youngs Moduli (GPa) = 53.22117 74.24720 87.72204
#
# Poissons Ratio (x) = 0.02945 0.10369
# Poissons Ratio (y) = 0.02111 0.34807
# Poissons Ratio (z) = 0.06291 0.29460
#
# Static dielectric constant tensor:
#      x y z
#    x 1.839130 0.000000 -0.043510 
#    y 0.000000 1.790000 0.000000 
#    z -0.043510 0.000000 1.832340 
# 
# From -- ./inp_files/72844.got.cif
#   From: 2010.05.17/outbox.cif.g08.bks.cpg/sg12_37_cif.got.tgz:72844.got - 2010.06.03 13:09:07.
