data_PCOD9205858
_publ_section_title
;
Structure prediction by ZEFSAII (Michael W. Deem and Ramdas Pophale) SiO2 
 PCOD9205858
Probable space group: C 2/M
;
_chemical_formula_sum "Si O2"
_cell_formula_units_Z 40
_cell_length_a 10.527403
_cell_length_b 7.578011
_cell_length_c 23.290400
_cell_angle_alpha 90.000000
_cell_angle_beta 96.852756
_cell_angle_gamma 90.000000
_cell_volume 1844.759350
_symmetry_space_group_name_H-M "C 2/M"
_symmetry_group_IT_number 12
_symmetry_cell_setting 'monoclinic'
loop_
_space_group_symop_operation_xyz
x,y,z
-x,y,-z
-x,-y,-z
x,-y,z
1/2+x,1/2+y,z
1/2-x,1/2+y,-z
1/2-x,1/2-y,-z
1/2+x,1/2-y,z
loop_
_atom_site_type_symbol
_atom_site_label
_atom_site_fract_x
_atom_site_fract_y
_atom_site_fract_z
Si Si1 0.378831 0.710287 0.164334
Si Si2 0.473670 0.711634 0.434461
Si Si3 0.887120 0.788059 0.034925
Si Si4 0.210877 0.712103 0.364612
Si Si5 0.151791 0.286778 0.233089
O O1 0.359904 0.500000 0.158221
O O2 0.391569 0.781281 0.100337
O O3 0.257020 0.779197 0.193149
O O4 0.509434 0.739692 0.205893
O O5 0.500000 0.780444 0.500000
O O6 0.459759 0.500000 0.438423
O O7 0.342641 0.780113 0.399263
O O8 0.592681 0.747772 0.399616
O O9 0.902785 0.000000 0.038804
O O10 0.750000 0.750000 0.000000
O O11 0.000000 0.719371 0.000000
O O12 0.221938 0.500000 0.361161
O O13 0.184381 0.778026 0.298814
O O14 0.159174 0.500000 0.234507
#
# Coordination Sequence:
#
# PCOD9205858 Si02
#       5
#     8   8   8   8   8
#     4  10  21  37  56  79 109 143 179 222 269 317
#     4  10  21  37  57  81 109 142 179 219 266 319
#     4  10  21  36  55  81 110 141 180 223 267 318
#     4  10  21  36  54  79 109 139 177 223 266 316
#     4  10  21  36  54  78 107 140 179 221 267 319
#
# _framework density 21.683045
#
# number of rings (size 3 to 8) (size 9 to 14) (size 15 to 20)
#    0.000    2.000    0.000    3.000    0.000    5.600 
#    0.000    0.000    0.000    0.000    0.000    0.000 
#    0.000    0.000    0.000    0.000    0.000    0.000 
#
# Total GULP energy -111824.042926 kJ/mol
# GULP energy per Si atom -5591.202146 kJ/mol
# Density = 2.163369 g / cm^3
# Si number density = 21.683045 Si / 1000 Ang^3
#
#
#
# Elastic Constant Matrix: (Units=GPa)
#
#
# Indices 1 2 3 4 5 6 
#
# 1 143.8010 -27.0038 51.4702 0.0000 -3.5360 0.0000
# 2 -27.0038 45.1338 -11.0731 0.0000 -3.3353 0.0000
# 3 51.4702 -11.0731 163.8343 0.0000 -1.4621 0.0000
# 4 0.0000 0.0000 0.0000 -376.2486 0.0000 516.6067
# 5 -3.5360 -3.3353 -1.4621 0.0000 47.3301 0.0000
# 6 0.0000 0.0000 0.0000 516.6067 0.0000 -657.3929
#
#
#
# Elastic Compliance Matrix: (Units=1/GPa)
#
#
# Indices 1 2 3 4 5 6 
#
# 1 0.008722 0.004693 -0.002415 0.000000 0.000908 0.000000
# 2 0.004693 0.025182 0.000247 0.000000 0.002133 0.000000
# 3 -0.002415 0.000247 0.006879 0.000000 0.000049 0.000000
# 4 0.000000 0.000000 0.000000 0.033645 0.000000 0.026439
# 5 0.000908 0.002133 0.000049 0.000000 0.021348 0.000000
# 6 0.000000 0.000000 0.000000 0.026439 0.000000 0.019256
#
#
# Mechanical properties :
#
#
# Convention : Reuss Voigt Hill
#
# Bulk Modulus (GPa) = 21.81803 42.17283 31.99543
# Shear Modulus (GPa) = 39.91688 -174.63721 -67.36017
#
# Velocity S-wave (km/s) = 4.29526 -8.98419 -5.57972
# Velocity P-wave (km/s) = 5.88923 9.38771 5.16943
#
# Compressibility (1/GPa) = 0.04583365
#
# Stress axis : x y z
#
# Youngs Moduli (GPa) = 114.65272 39.71035 145.35981
#
# Poissons Ratio (x) = -0.18636 0.35102
# Poissons Ratio (y) = -0.53807 -0.03586
# Poissons Ratio (z) = 0.27686 -0.00980
#
# Static dielectric constant tensor:
#      x y z
#    x 1.717560 0.000000 -0.005750 
#    y 0.000000 1.835830 0.000000 
#    z -0.005750 0.000000 1.773330 
# 
# From -- ./inp_files/254615.got.cif
#   From: 2010.05.17/outbox.cif.g08.bks.cpg/sg12_128_cif.got.tgz:254615.got - 2010.06.03 13:09:07.
