data_PCOD9205798
_publ_section_title
;
Structure prediction by ZEFSAII (Michael W. Deem and Ramdas Pophale) SiO2 
 PCOD9205798
Probable space group: C 2/M
;
_chemical_formula_sum "Si O2"
_cell_formula_units_Z 48
_cell_length_a 16.760836
_cell_length_b 19.265303
_cell_length_c 14.900746
_cell_angle_alpha 90.000000
_cell_angle_beta 149.449184
_cell_angle_gamma 90.000000
_cell_volume 2445.691352
_symmetry_space_group_name_H-M "C 2/M"
_symmetry_group_IT_number 12
_symmetry_cell_setting 'monoclinic'
loop_
_space_group_symop_operation_xyz
x,y,z
-x,y,-z
-x,-y,-z
x,-y,z
1/2+x,1/2+y,z
1/2-x,1/2+y,-z
1/2-x,1/2-y,-z
1/2+x,1/2-y,z
loop_
_atom_site_type_symbol
_atom_site_label
_atom_site_fract_x
_atom_site_fract_y
_atom_site_fract_z
Si Si1 0.690477 0.579129 0.673004
Si Si2 0.096928 0.081682 0.391200
Si Si3 0.157023 0.579955 0.524732
Si Si4 0.204530 0.171260 0.851022
Si Si5 0.134598 0.327137 0.810101
Si Si6 0.667216 0.580456 0.120599
O O1 0.500000 0.579905 0.500000
O O2 0.743604 0.500000 0.742148
O O3 0.709656 0.595986 0.586463
O O4 0.753954 0.633311 0.806997
O O5 0.191520 0.092188 0.391420
O O6 0.942170 0.127145 0.252640
O O7 0.054527 0.000000 0.356369
O O8 0.104817 0.500000 0.457914
O O9 0.208358 0.585110 0.677634
O O10 0.023219 0.633471 0.369081
O O11 0.144464 0.249650 0.780714
O O12 0.337453 0.174440 0.056051
O O13 0.275279 0.371091 0.902570
O O14 0.656404 0.500000 0.080877
O O15 0.500000 0.600079 0.000000
#
# Coordination Sequence:
#
# PCOD9205798 Si02
#       6
#     8   8   8   8   8   8
#     4   8  15  30  54  79  98 126 175 223 257 303
#     4   9  18  35  58  81 104 136 182 225 265 323
#     4  10  21  36  56  83 111 140 178 227 278 321
#     4  10  21  36  53  77 109 147 184 216 265 326
#     4  11  23  36  51  79 115 144 179 224 269 321
#     4  10  21  38  60  82 105 141 186 226 270 328
#
# _framework density 19.626352000000001
#
# number of rings (size 3 to 8) (size 9 to 14) (size 15 to 20)
#    0.000    2.333    0.000    3.500    0.000   10.000 
#    0.000    4.167    0.000    3.000    0.000    0.000 
#    0.000    0.000    0.000    0.000    0.000    0.000 
#
# Total GULP energy -133999.118593 kJ/mol
# GULP energy per Si atom -5583.296608 kJ/mol
# Density = 1.958168 g / cm^3
# Si number density = 19.626352 Si / 1000 Ang^3
#
#
#
# Elastic Constant Matrix: (Units=GPa)
#
#
# Indices 1 2 3 4 5 6 
#
# 1 34.4423 6.9511 -10.4756 0.0000 -13.5637 0.0000
# 2 6.9511 59.0272 23.9060 0.0000 -4.4053 0.0000
# 3 -10.4756 23.9060 44.6399 0.0000 -4.7856 0.0000
# 4 0.0000 0.0000 0.0000 67.0391 0.0000 -30.1102
# 5 -13.5637 -4.4053 -4.7856 0.0000 32.1648 0.0000
# 6 0.0000 0.0000 0.0000 -30.1102 0.0000 20.7706
#
#
#
# Elastic Compliance Matrix: (Units=1/GPa)
#
#
# Indices 1 2 3 4 5 6 
#
# 1 0.045050 -0.011435 0.018865 0.000000 0.020238 0.000000
# 2 -0.011435 0.024586 -0.016266 0.000000 -0.003875 0.000000
# 3 0.018865 -0.016266 0.036739 0.000000 0.011194 0.000000
# 4 0.000000 0.000000 0.000000 0.042754 0.000000 0.061978
# 5 0.020238 -0.003875 0.011194 0.000000 0.040759 0.000000
# 6 0.000000 0.000000 0.000000 0.061978 0.000000 0.137992
#
#
# Mechanical properties :
#
#
# Convention : Reuss Voigt Hill
#
# Bulk Modulus (GPa) = 11.27341 19.87470 15.57405
# Shear Modulus (GPa) = 13.32911 31.84341 22.58626
#
# Velocity S-wave (km/s) = 2.60887 4.03237 3.39604
# Velocity P-wave (km/s) = 3.85115 5.64168 4.83011
#
# Compressibility (1/GPa) = 0.08870432
#
# Stress axis : x y z
#
# Youngs Moduli (GPa) = 22.19773 40.67308 27.21884
#
# Poissons Ratio (x) = 0.46510 -0.51349
# Poissons Ratio (y) = 0.25383 0.44273
# Poissons Ratio (z) = -0.41876 0.66157
#
# Static dielectric constant tensor:
#      x y z
#    x 1.691020 0.000000 -0.022460 
#    y 0.000000 1.661140 0.000000 
#    z -0.022460 0.000000 1.705420 
# 
# From -- ./inp_files/112946.got.cif
#   From: 2010.05.17/outbox.cif.g08.bks.cpg/sg12_57_cif.got.tgz:112946.got - 2010.06.03 13:09:07.
