data_PCOD9205266
_publ_section_title
;
Structure prediction by ZEFSAII (Michael W. Deem and Ramdas Pophale) SiO2 
 PCOD9205266
Probable space group: C 2/M
;
_chemical_formula_sum "Si O2"
_cell_formula_units_Z 56
_cell_length_a 14.893635
_cell_length_b 8.468535
_cell_length_c 29.159515
_cell_angle_alpha 90.000000
_cell_angle_beta 51.231670
_cell_angle_gamma 90.000000
_cell_volume 2867.530342
_symmetry_space_group_name_H-M "C 2/M"
_symmetry_group_IT_number 12
_symmetry_cell_setting 'monoclinic'
loop_
_space_group_symop_operation_xyz
x,y,z
-x,y,-z
-x,-y,-z
x,-y,z
1/2+x,1/2+y,z
1/2-x,1/2+y,-z
1/2-x,1/2-y,-z
1/2+x,1/2-y,z
loop_
_atom_site_type_symbol
_atom_site_label
_atom_site_fract_x
_atom_site_fract_y
_atom_site_fract_z
Si Si1 0.037445 0.680296 0.935614
Si Si2 0.518515 0.188598 0.277092
Si Si3 0.151131 0.178631 0.063267
Si Si4 0.479446 0.691038 0.190132
Si Si5 0.394255 0.690646 0.502066
Si Si6 0.218476 0.190105 0.819649
Si Si7 0.859626 0.188718 0.408909
O O1 0.013772 0.500000 0.927388
O O2 0.167392 0.724875 0.881074
O O3 0.960605 0.806993 0.933436
O O4 0.000000 0.687695 0.000000
O O5 0.468742 0.241918 0.244083
O O6 0.652472 0.238686 0.233732
O O7 0.447223 0.259144 0.341750
O O8 0.514736 0.000000 0.281678
O O9 0.097287 0.249704 0.127191
O O10 0.185981 0.000000 0.061924
O O11 0.250000 0.250000 0.000000
O O12 0.485917 0.500000 0.189550
O O13 0.370190 0.731477 0.193090
O O14 0.500000 0.746853 0.500000
O O15 0.396703 0.500000 0.501841
O O16 0.268421 0.744839 0.558943
O O17 0.400392 0.742562 0.446726
O O18 0.216369 0.000000 0.826616
O O19 0.852202 0.000000 0.412219
#
# Coordination Sequence:
#
# PCOD9205266 Si02
#       7
#     8   8   8   8   8   8   8
#     4  10  21  35  53  79 107 138 182 233 288 348
#     4  11  23  38  59  85 115 153 196 239 287 342
#     4  10  21  36  55  78 107 140 179 231 291 353
#     4   9  20  39  57  77 109 145 186 236 290 347
#     4   9  19  38  63  90 122 156 193 236 279 326
#     4   9  21  40  57  78 109 148 189 236 293 350
#     4  10  21  37  58  88 122 156 194 234 281 335
#
# _framework density 19.529
#
# number of rings (size 3 to 8) (size 9 to 14) (size 15 to 20)
#    0.000    2.286    0.000    2.571    2.000    7.143 
#    0.000    2.857    0.000    0.000    0.000    0.000 
#    0.000    0.000    0.000    0.000    0.000    0.000 
#
# Total GULP energy -156173.454175 kJ/mol
# GULP energy per Si atom -5577.623363 kJ/mol
# Density = 1.948455 g / cm^3
# Si number density = 19.529000 Si / 1000 Ang^3
#
#
#
# Elastic Constant Matrix: (Units=GPa)
#
#
# Indices 1 2 3 4 5 6 
#
# 1 104.7285 16.3001 61.6452 -0.0001 -9.1222 -0.0002
# 2 16.3001 13.9231 24.0603 -0.0001 -0.9888 -0.0002
# 3 61.6452 24.0603 172.2522 0.0000 -7.6178 -0.0001
# 4 -0.0001 -0.0001 0.0000 24.8723 0.0000 -1.4263
# 5 -9.1222 -0.9888 -7.6178 0.0000 19.6613 0.0000
# 6 -0.0002 -0.0002 -0.0001 -1.4263 0.0000 21.2177
#
#
#
# Elastic Compliance Matrix: (Units=1/GPa)
#
#
# Indices 1 2 3 4 5 6 
#
# 1 0.013348 -0.009750 -0.003218 0.000000 0.004456 0.000000
# 2 -0.009750 0.101800 -0.010891 0.000001 -0.003624 0.000001
# 3 -0.003218 -0.010891 0.008534 0.000000 0.001266 0.000000
# 4 0.000000 0.000001 0.000000 0.040361 0.000000 0.002713
# 5 0.004456 -0.003624 0.001266 0.000000 0.053237 0.000000
# 6 0.000000 0.000001 0.000000 0.002713 0.000000 0.047313
#
#
# Mechanical properties :
#
#
# Convention : Reuss Voigt Hill
#
# Bulk Modulus (GPa) = 13.16380 54.99055 34.07717
# Shear Modulus (GPa) = 14.80903 25.74347 20.27625
#
# Velocity S-wave (km/s) = 2.75673 3.63467 3.22571
# Velocity P-wave (km/s) = 4.10950 6.77008 5.60009
#
# Compressibility (1/GPa) = 0.07596594
#
# Stress axis : x y z
#
# Youngs Moduli (GPa) = 74.91565 9.82320 117.17364
#
# Poissons Ratio (x) = 0.09577 0.37709
# Poissons Ratio (y) = 0.73039 1.27609
# Poissons Ratio (z) = 0.24109 0.10698
#
# Static dielectric constant tensor:
#      x y z
#    x 1.700090 0.000000 -0.008940 
#    y 0.000000 1.675590 0.000000 
#    z -0.008940 0.000000 1.693970 
# 
# From -- ./inp_files/374931.got.cif
#   From: 2010.05.17/outbox.cif.g08.bks.cpg/sg12_188_cif.got.tgz:374931.got - 2010.06.03 13:09:07.
