data_PCOD9205653
_publ_section_title
;
Structure prediction by ZEFSAII (Michael W. Deem and Ramdas Pophale) SiO2 
 PCOD9205653
Probable space group: C 2/M
;
_chemical_formula_sum "Si O2"
_cell_formula_units_Z 56
_cell_length_a 15.287747
_cell_length_b 23.200352
_cell_length_c 9.086432
_cell_angle_alpha 90.000000
_cell_angle_beta 119.745454
_cell_angle_gamma 90.000000
_cell_volume 2798.145689
_symmetry_space_group_name_H-M "C 2/M"
_symmetry_group_IT_number 12
_symmetry_cell_setting 'monoclinic'
loop_
_space_group_symop_operation_xyz
x,y,z
-x,y,-z
-x,-y,-z
x,-y,z
1/2+x,1/2+y,z
1/2-x,1/2+y,-z
1/2-x,1/2-y,-z
1/2+x,1/2-y,z
loop_
_atom_site_type_symbol
_atom_site_label
_atom_site_fract_x
_atom_site_fract_y
_atom_site_fract_z
Si Si1 0.066270 0.666869 0.916334
Si Si2 0.718853 0.435370 0.120971
Si Si3 0.973055 0.222537 0.305024
Si Si4 0.794447 0.131442 0.176806
Si Si5 0.540559 0.065180 0.691129
Si Si6 0.896829 0.935023 0.505862
Si Si7 0.582746 0.637355 0.197119
O O1 0.058302 0.716583 0.788230
O O2 0.020505 0.608920 0.806183
O O3 0.181647 0.654915 0.059796
O O4 0.000000 0.684469 0.000000
O O5 0.681037 0.500000 0.128697
O O6 0.839057 0.437201 0.224074
O O7 0.682608 0.382461 0.193218
O O8 0.689347 0.419138 0.929549
O O9 0.877792 0.179739 0.213260
O O10 0.000000 0.225572 0.500000
O O11 0.062363 0.194288 0.279034
O O12 0.817646 0.106156 0.357287
O O13 0.500000 0.085565 0.500000
O O14 0.502588 0.000000 0.685848
O O15 0.925873 0.912897 0.690178
O O16 0.000000 0.932299 0.500000
O O17 0.858679 0.000000 0.477270
O O18 0.500000 0.637320 0.000000
#
# Coordination Sequence:
#
# PCOD9205653 Si02
#       7
#     8   8   8   8   8   8   8
#     4  11  26  42  67  94 123 161 224 269 319 373
#     4  10  21  35  60  96 128 166 211 258 321 388
#     4  12  23  45  64  87 128 175 214 263 321 385
#     4  11  21  43  63  88 127 172 209 260 322 384
#     4   9  20  43  68  91 126 167 208 262 324 381
#     4  11  21  36  60  93 132 171 207 257 324 387
#     4  12  21  36  59  91 132 169 211 258 307 375
#
# _framework density 20.013254
#
# number of rings (size 3 to 8) (size 9 to 14) (size 15 to 20)
#    0.000    1.143    4.286    2.143    0.000    4.286 
#    0.000    2.143    0.000    0.000    0.000    0.000 
#    0.000    0.000    0.000    0.000    0.000    0.000 
#
# Total GULP energy -156253.520825 kJ/mol
# GULP energy per Si atom -5580.482887 kJ/mol
# Density = 1.996770 g / cm^3
# Si number density = 20.013254 Si / 1000 Ang^3
#
#
#
# Elastic Constant Matrix: (Units=GPa)
#
#
# Indices 1 2 3 4 5 6 
#
# 1 27.5185 13.6217 21.6551 0.0000 -7.2233 0.0000
# 2 13.6217 80.5885 40.0954 0.0000 1.1229 0.0000
# 3 21.6551 40.0954 130.5521 0.0000 -11.5931 0.0000
# 4 0.0000 0.0000 0.0000 21.0027 0.0000 -2.9286
# 5 -7.2233 1.1229 -11.5931 0.0000 24.6958 0.0000
# 6 0.0000 0.0000 0.0000 -2.9286 0.0000 20.1519
#
#
#
# Elastic Compliance Matrix: (Units=1/GPa)
#
#
# Indices 1 2 3 4 5 6 
#
# 1 0.045904 -0.005466 -0.004926 0.000000 0.011362 0.000000
# 2 -0.005466 0.015499 -0.004235 0.000000 -0.004291 0.000000
# 3 -0.004926 -0.004235 0.010087 0.000000 0.003487 0.000000
# 4 0.000000 0.000000 0.000000 0.048598 0.000000 0.007063
# 5 0.011362 -0.004291 0.003487 0.000000 0.045648 0.000000
# 6 0.000000 0.000000 0.000000 0.007063 0.000000 0.050650
#
#
# Mechanical properties :
#
#
# Convention : Reuss Voigt Hill
#
# Bulk Modulus (GPa) = 23.67648 43.26704 33.47176
# Shear Modulus (GPa) = 19.25153 24.05585 21.65369
#
# Velocity S-wave (km/s) = 3.10488 3.47074 3.29290
# Velocity P-wave (km/s) = 4.97089 6.14227 5.58737
#
# Compressibility (1/GPa) = 0.04223601
#
# Stress axis : x y z
#
# Youngs Moduli (GPa) = 21.78445 64.51903 99.13660
#
# Poissons Ratio (x) = 0.35268 0.48839
# Poissons Ratio (y) = 0.11908 0.41980
# Poissons Ratio (z) = 0.10732 0.27321
#
# Static dielectric constant tensor:
#      x y z
#    x 1.713340 0.000000 -0.012080 
#    y 0.000000 1.724470 0.000000 
#    z -0.012080 0.000000 1.697020 
# 
# From -- ./inp_files/65948.got.cif
#   From: 2010.05.17/outbox.cif.g08.bks.cpg/sg12_33_cif.got.tgz:65948.got - 2010.06.03 13:09:07.
