data_PCOD9205911
_publ_section_title
;
Structure prediction by ZEFSAII (Michael W. Deem and Ramdas Pophale) SiO2 
 PCOD9205911
Probable space group: C 2/M
;
_chemical_formula_sum "Si O2"
_cell_formula_units_Z 56
_cell_length_a 8.937236
_cell_length_b 31.511925
_cell_length_c 14.410350
_cell_angle_alpha 90.000000
_cell_angle_beta 129.207686
_cell_angle_gamma 90.000000
_cell_volume 3144.674958
_symmetry_space_group_name_H-M "C 2/M"
_symmetry_group_IT_number 12
_symmetry_cell_setting 'monoclinic'
loop_
_space_group_symop_operation_xyz
x,y,z
-x,y,-z
-x,-y,-z
x,-y,z
1/2+x,1/2+y,z
1/2-x,1/2+y,-z
1/2-x,1/2-y,-z
1/2+x,1/2-y,z
loop_
_atom_site_type_symbol
_atom_site_label
_atom_site_fract_x
_atom_site_fract_y
_atom_site_fract_z
Si Si1 0.510765 0.097707 0.108369
Si Si2 0.640665 0.382705 0.467922
Si Si3 0.578369 0.449075 0.733464
Si Si4 0.112247 0.050666 0.955042
Si Si5 0.276257 0.269196 0.408893
Si Si6 0.713876 0.822197 0.632062
Si Si7 0.008425 0.648390 0.292471
O O1 0.712323 0.072730 0.199844
O O2 0.483029 0.130961 0.179890
O O3 0.500000 0.116525 0.000000
O O4 0.332504 0.065502 0.043047
O O5 0.500000 0.373832 0.500000
O O6 0.569414 0.425875 0.392765
O O7 0.652098 0.347206 0.389490
O O8 0.852893 0.383574 0.595810
O O9 0.587340 0.500000 0.725608
O O10 0.526509 0.438747 0.820390
O O11 0.109437 0.000000 0.959420
O O12 0.000000 0.068282 0.000000
O O13 0.500000 0.282406 0.500000
O O14 0.250000 0.250000 0.500000
O O15 0.238410 0.227307 0.332529
O O16 0.132117 0.307875 0.336603
O O17 0.500000 0.821730 0.500000
O O18 0.679133 0.844364 0.717303
#
# Coordination Sequence:
#
# PCOD9205911 Si02
#       7
#     8   8   8   8   8   8   8
#     4  10  21  37  57  80 105 145 184 230 268 319
#     4  11  20  33  53  83 112 145 177 221 271 334
#     4  10  21  36  54  81 111 144 183 226 270 326
#     4   9  19  37  59  79 100 137 188 233 270 314
#     4  11  18  31  52  81 111 142 180 222 267 322
#     4   9  20  33  51  79 111 145 180 221 267 320
#     4  11  21  35  54  82 115 143 181 223 276 326
#
# _framework density 17.807881999999999
#
# number of rings (size 3 to 8) (size 9 to 14) (size 15 to 20)
#    0.000    1.857    5.714    0.857    2.000    2.000 
#    0.000    0.000    0.000    4.714    0.000    0.000 
#    0.000    0.000    0.000    0.000    0.000    0.000 
#
# Total GULP energy -155979.853652 kJ/mol
# GULP energy per Si atom -5570.709059 kJ/mol
# Density = 1.776735 g / cm^3
# Si number density = 17.807882 Si / 1000 Ang^3
#
#
#
# Elastic Constant Matrix: (Units=GPa)
#
#
# Indices 1 2 3 4 5 6 
#
# 1 109.3992 29.5372 27.3712 0.0000 -33.3740 0.0000
# 2 29.5372 70.0140 32.7367 0.0000 -20.1335 0.0000
# 3 27.3712 32.7367 62.8803 0.0000 -22.7683 0.0000
# 4 0.0000 0.0000 0.0000 11.0176 0.0000 -7.1885
# 5 -33.3740 -20.1335 -22.7683 0.0000 25.1530 0.0000
# 6 0.0000 0.0000 0.0000 -7.1885 0.0000 22.8000
#
#
#
# Elastic Compliance Matrix: (Units=1/GPa)
#
#
# Indices 1 2 3 4 5 6 
#
# 1 0.015472 -0.001201 0.001451 0.000000 0.020882 0.000000
# 2 -0.001201 0.020536 -0.007131 0.000000 0.008389 0.000000
# 3 0.001451 -0.007131 0.026203 0.000000 0.019936 0.000000
# 4 0.000000 0.000000 0.000000 0.114271 0.000000 0.036028
# 5 0.020882 0.008389 0.019936 0.000000 0.092225 0.000000
# 6 0.000000 0.000000 0.000000 0.036028 0.000000 0.055219
#
#
# Mechanical properties :
#
#
# Convention : Reuss Voigt Hill
#
# Bulk Modulus (GPa) = 20.63994 46.84262 33.74128
# Shear Modulus (GPa) = 14.13080 21.97068 18.05074
#
# Velocity S-wave (km/s) = 2.81999 3.51630 3.18722
# Velocity P-wave (km/s) = 4.71367 6.54579 5.70377
#
# Compressibility (1/GPa) = 0.04844975
#
# Stress axis : x y z
#
# Youngs Moduli (GPa) = 64.63176 48.69402 38.16390
#
# Poissons Ratio (x) = 0.05849 -0.05539
# Poissons Ratio (y) = 0.07764 0.27215
# Poissons Ratio (z) = -0.09381 0.34724
#
# Static dielectric constant tensor:
#      x y z
#    x 1.667250 0.000000 -0.039110 
#    y 0.000000 1.639530 0.000000 
#    z -0.039110 0.000000 1.598000 
# 
# From -- ./inp_files/200995.got.cif
#   From: 2010.05.17/outbox.cif.g08.bks.cpg/sg12_101_cif.got.tgz:200995.got - 2010.06.03 13:09:07.
