data_PCOD9205111
_publ_section_title
;
Structure prediction by ZEFSAII (Michael W. Deem and Ramdas Pophale) SiO2 
 PCOD9205111
Probable space group: C 2/M
;
_chemical_formula_sum "Si O2"
_cell_formula_units_Z 56
_cell_length_a 18.767188
_cell_length_b 7.561081
_cell_length_c 23.831297
_cell_angle_alpha 90.000000
_cell_angle_beta 53.911938
_cell_angle_gamma 90.000000
_cell_volume 2732.767402
_symmetry_space_group_name_H-M "C 2/M"
_symmetry_group_IT_number 12
_symmetry_cell_setting 'monoclinic'
loop_
_space_group_symop_operation_xyz
x,y,z
-x,y,-z
-x,-y,-z
x,-y,z
1/2+x,1/2+y,z
1/2-x,1/2+y,-z
1/2-x,1/2-y,-z
1/2+x,1/2-y,z
loop_
_atom_site_type_symbol
_atom_site_label
_atom_site_fract_x
_atom_site_fract_y
_atom_site_fract_z
Si Si1 0.405177 0.789781 0.562819
Si Si2 0.449041 0.712302 0.300454
Si Si3 0.885245 0.785773 0.702363
Si Si4 0.071237 0.289416 0.148306
Si Si5 0.237057 0.202957 0.148015
Si Si6 0.739370 0.287438 0.570441
Si Si7 0.335227 0.211844 0.999491
O O1 0.500000 0.716552 0.500000
O O2 0.388895 0.763948 0.636122
O O3 0.323635 0.717053 0.564996
O O4 0.407849 0.000000 0.550522
O O5 0.447800 0.500000 0.305971
O O6 0.526278 0.776810 0.306572
O O7 0.480872 0.754608 0.222719
O O8 0.353632 0.780472 0.362503
O O9 0.799878 0.719319 0.776845
O O10 0.883994 0.000000 0.706593
O O11 0.087433 0.500000 0.142057
O O12 0.148388 0.203346 0.150401
O O13 0.084507 0.229073 0.077772
O O14 0.262885 0.000000 0.147388
O O15 0.311252 0.283568 0.072416
O O16 0.737593 0.500000 0.578279
O O17 0.750000 0.250000 0.500000
O O18 0.342401 0.000000 0.002760
O O19 0.250000 0.250000 0.000000
#
# Coordination Sequence:
#
# PCOD9205111 Si02
#       7
#     8   8   8   8   8   8   8
#     4  10  21  35  50  70  95 119 144 182 232 275
#     4   9  18  32  47  65  93 126 156 186 225 273
#     4   9  17  29  47  69  91 120 155 186 219 264
#     4   9  15  22  37  63  90 118 154 192 229 266
#     4   8  14  25  39  58  89 125 155 185 226 272
#     4  10  21  36  53  72  93 120 152 185 226 275
#     4   8  13  21  34  55  86 120 151 186 226 267
#
# _framework density 20.492046999999999
#
# number of rings (size 3 to 8) (size 9 to 14) (size 15 to 20)
#    0.000    3.000    0.000    2.143    0.000    4.286 
#    0.000    0.000    0.000    0.000    0.000    1.000 
#    0.000    8.000    0.000    0.000    0.000    0.000 
#
# Total GULP energy -155956.514766 kJ/mol
# GULP energy per Si atom -5569.875527 kJ/mol
# Density = 2.044541 g / cm^3
# Si number density = 20.492047 Si / 1000 Ang^3
#
#
#
# Elastic Constant Matrix: (Units=GPa)
#
#
# Indices 1 2 3 4 5 6 
#
# 1 75.1572 3.2887 80.7741 -0.0001 -1.9499 0.0006
# 2 3.2887 50.0425 -11.1682 -0.0009 -3.2601 0.0008
# 3 80.7741 -11.1682 239.8587 0.0000 -6.5302 -0.0003
# 4 -0.0001 -0.0009 0.0000 18.0229 -0.0001 6.2554
# 5 -1.9499 -3.2601 -6.5302 -0.0001 19.0995 -0.0001
# 6 0.0006 0.0008 -0.0003 6.2554 -0.0001 2.2227
#
#
#
# Elastic Compliance Matrix: (Units=1/GPa)
#
#
# Indices 1 2 3 4 5 6 
#
# 1 0.021312 -0.003096 -0.007345 0.000082 -0.000864 -0.000235
# 2 -0.003096 0.020920 0.002125 0.000131 0.003981 -0.000375
# 3 -0.007345 0.002125 0.006794 -0.000029 0.001936 0.000085
# 4 0.000082 0.000131 -0.000029 2.390608 -0.000019 -6.727858
# 5 -0.000864 0.003981 0.001936 -0.000019 0.053611 0.000055
# 6 -0.000235 -0.000375 0.000085 -6.727858 0.000055 19.384022
#
#
# Mechanical properties :
#
#
# Convention : Reuss Voigt Hill
#
# Bulk Modulus (GPa) = 30.86884 56.76084 43.81484
# Shear Modulus (GPa) = 0.22826 27.34662 13.78744
#
# Velocity S-wave (km/s) = 0.33411 3.65704 2.59669
# Velocity P-wave (km/s) = 3.90453 6.75211 5.51527
#
# Compressibility (1/GPa) = 0.03239513
#
# Stress axis : x y z
#
# Youngs Moduli (GPa) = 46.92177 47.80093 147.18577
#
# Poissons Ratio (x) = 0.14799 1.08103
# Poissons Ratio (y) = 0.14527 -0.31278
# Poissons Ratio (z) = 0.34462 -0.10158
#
# Static dielectric constant tensor:
#      x y z
#    x 1.693710 0.000000 -0.027270 
#    y 0.000000 1.913140 0.000000 
#    z -0.027270 0.000000 1.795360 
# 
# From -- ./inp_files/341918.got.cif
#   From: 2010.05.17/outbox.cif.g08.bks.cpg/sg12_171_cif.got.tgz:341918.got - 2010.06.03 13:09:07.
