data_PCOD9205686
_publ_section_title
;
Structure prediction by ZEFSAII (Michael W. Deem and Ramdas Pophale) SiO2 
 PCOD9205686
Probable space group: C 2/M
;
_chemical_formula_sum "Si O2"
_cell_formula_units_Z 48
_cell_length_a 14.601541
_cell_length_b 29.032754
_cell_length_c 11.982603
_cell_angle_alpha 90.000000
_cell_angle_beta 30.076629
_cell_angle_gamma 90.000000
_cell_volume 2545.731468
_symmetry_space_group_name_H-M "C 2/M"
_symmetry_group_IT_number 12
_symmetry_cell_setting 'monoclinic'
loop_
_space_group_symop_operation_xyz
x,y,z
-x,y,-z
-x,-y,-z
x,-y,z
1/2+x,1/2+y,z
1/2-x,1/2+y,-z
1/2-x,1/2-y,-z
1/2+x,1/2-y,z
loop_
_atom_site_type_symbol
_atom_site_label
_atom_site_fract_x
_atom_site_fract_y
_atom_site_fract_z
Si Si1 0.384002 0.551293 0.510578
Si Si2 0.647418 0.185585 0.252042
Si Si3 0.000000 0.577787 0.000000
Si Si4 0.391769 0.289920 0.729444
Si Si5 0.945786 0.652662 0.872843
Si Si6 0.000000 0.161793 0.000000
Si Si7 0.629542 0.641585 0.624179
O O1 0.500000 0.560909 0.500000
O O2 0.434881 0.500000 0.415777
O O3 0.172251 0.551099 0.770617
O O4 0.404332 0.593217 0.402937
O O5 0.500000 0.173428 0.500000
O O6 0.600591 0.235789 0.252282
O O7 0.637590 0.148597 0.163602
O O8 0.837688 0.189966 0.114755
O O9 0.928072 0.610273 0.975598
O O10 0.500000 0.297028 0.500000
O O11 0.496233 0.320187 0.711254
O O12 0.183134 0.307611 0.939077
O O13 0.162939 0.658157 0.622535
O O14 0.909394 0.136469 0.202570
#
# Coordination Sequence:
#
# PCOD9205686 Si02
#       7
#     8   8   4   8   8   4   8
#     4  10  21  39  63  92 119 146 189 244 306 360
#     4  11  24  40  55  83 117 164 206 251 278 339
#     4  10  21  35  62  92 117 151 184 236 304 362
#     4  11  23  38  56  83 120 155 204 248 295 339
#     4  11  21  38  57  85 119 154 199 240 296 346
#     4  12  24  39  59  82 119 163 209 236 295 342
#     4  11  23  38  62  86 114 161 196 247 297 356
#
# _framework density 18.855091000000002
#
# number of rings (size 3 to 8) (size 9 to 14) (size 15 to 20)
#    0.000    1.167    3.333    4.250    0.000    4.000 
#    0.000    0.417    0.000    0.000    0.000    2.333 
#    0.000    0.000    0.000    0.000    0.000    0.000 
#
# Total GULP energy -133851.465475 kJ/mol
# GULP energy per Si atom -5577.144395 kJ/mol
# Density = 1.881218 g / cm^3
# Si number density = 18.855091 Si / 1000 Ang^3
#
#
#
# Elastic Constant Matrix: (Units=GPa)
#
#
# Indices 1 2 3 4 5 6 
#
# 1 108.8309 58.7069 35.5409 -0.0001 7.5844 -0.0001
# 2 58.7069 73.8025 25.7320 0.0000 15.9744 0.0000
# 3 35.5409 25.7320 101.5744 0.0000 12.2532 -0.0001
# 4 -0.0001 0.0000 0.0000 4.5654 0.0001 -19.1529
# 5 7.5844 15.9744 12.2532 0.0001 40.2459 0.0001
# 6 -0.0001 0.0000 -0.0001 -19.1529 0.0001 -15.6606
#
#
#
# Elastic Compliance Matrix: (Units=1/GPa)
#
#
# Indices 1 2 3 4 5 6 
#
# 1 0.017060 -0.013161 -0.002987 0.000000 0.002918 0.000000
# 2 -0.013161 0.026023 -0.001080 0.000000 -0.007520 0.000000
# 3 -0.002987 -0.001080 0.011465 0.000000 -0.002499 0.000000
# 4 0.000000 0.000000 0.000000 0.035728 0.000000 -0.043695
# 5 0.002918 -0.007520 -0.002499 0.000000 0.028043 0.000000
# 6 0.000000 0.000000 0.000000 -0.043695 0.000000 -0.010415
#
#
# Mechanical properties :
#
#
# Convention : Reuss Voigt Hill
#
# Bulk Modulus (GPa) = 49.77207 58.24082 54.00644
# Shear Modulus (GPa) = 33.54410 16.77866 25.16138
#
# Velocity S-wave (km/s) = 4.22245 2.98631 3.65699
# Velocity P-wave (km/s) = 7.08707 6.54572 6.82177
#
# Compressibility (1/GPa) = 0.02009159
#
# Stress axis : x y z
#
# Youngs Moduli (GPa) = 58.61646 38.42786 87.21881
#
# Poissons Ratio (x) = 0.50574 0.26055
# Poissons Ratio (y) = 0.77143 0.09422
# Poissons Ratio (z) = 0.17511 0.04151
#
# Static dielectric constant tensor:
#      x y z
#    x 1.657000 0.000000 -0.003590 
#    y 0.000000 1.629540 0.000000 
#    z -0.003590 0.000000 1.725890 
# 
# From -- ./inp_files/150229.got.cif
#   From: 2010.05.17/outbox.cif.g08.bks.cpg/sg12_76_cif.got.tgz:150229.got - 2010.06.03 13:09:07.
