data_PCOD9205190
_publ_section_title
;
Structure prediction by ZEFSAII (Michael W. Deem and Ramdas Pophale) SiO2 
 PCOD9205190
Probable space group: C 2/M
;
_chemical_formula_sum "Si O2"
_cell_formula_units_Z 64
_cell_length_a 26.859723
_cell_length_b 20.722260
_cell_length_c 17.672577
_cell_angle_alpha 90.000000
_cell_angle_beta 157.316371
_cell_angle_gamma 90.000000
_cell_volume 3793.353737
_symmetry_space_group_name_H-M "C 2/M"
_symmetry_group_IT_number 12
_symmetry_cell_setting 'monoclinic'
loop_
_space_group_symop_operation_xyz
x,y,z
-x,y,-z
-x,-y,-z
x,-y,z
1/2+x,1/2+y,z
1/2-x,1/2+y,-z
1/2-x,1/2-y,-z
1/2+x,1/2-y,z
loop_
_atom_site_type_symbol
_atom_site_label
_atom_site_fract_x
_atom_site_fract_y
_atom_site_fract_z
Si Si1 0.374429 0.287601 0.378283
Si Si2 0.780513 0.078595 0.693966
Si Si3 0.453476 0.172456 0.599967
Si Si4 0.608013 0.399750 0.882563
Si Si5 0.597578 0.930907 0.707321
Si Si6 0.555863 0.428349 0.492961
Si Si7 0.007048 0.924780 0.123237
Si Si8 0.669181 0.250756 0.965729
O O1 0.500000 0.286640 0.500000
O O2 0.393732 0.230784 0.466521
O O3 0.366637 0.360277 0.401643
O O4 0.258263 0.270335 0.159756
O O5 0.653013 0.121207 0.523157
O O6 0.862353 0.098158 0.733944
O O7 0.756585 0.000000 0.662626
O O8 0.877349 0.097985 0.898556
O O9 0.555903 0.131121 0.695041
O O10 0.543607 0.205823 0.787924
O O11 0.555324 0.421452 0.726988
O O12 0.509959 0.417987 0.811636
O O13 0.621996 0.323474 0.905185
O O14 0.751411 0.426537 0.100856
O O15 0.500000 0.931025 0.500000
O O16 0.578084 0.000000 0.720236
O O17 0.500000 0.429423 0.500000
O O18 0.617047 0.500000 0.566996
O O19 0.008277 0.000000 0.106254
O O20 0.750000 0.250000 0.000000
#
# Coordination Sequence:
#
# PCOD9205190 Si02
#       8
#     8   8   8   8   8   8   8   8
#     4  11  20  35  52  74 107 151 187 225 276 337
#     4   9  19  36  55  83 116 148 184 225 283 342
#     4  12  21  34  53  78 111 149 181 222 280 340
#     4  12  20  36  56  82 107 146 192 231 276 336
#     4  11  22  31  47  80 115 142 171 218 278 344
#     4  10  21  35  52  75 107 145 190 238 269 311
#     4   9  18  34  59  83 110 147 185 229 280 340
#     4  12  21  34  52  78 110 148 190 223 284 348
#
# _framework density 16.871614999999998
#
# number of rings (size 3 to 8) (size 9 to 14) (size 15 to 20)
#    0.000    1.250    3.750    5.625    0.000    2.000 
#    0.000    1.250    0.000    0.000    0.000    0.000 
#    0.000    3.000    0.000    0.000    0.000    0.000 
#
# Total GULP energy -178287.640919 kJ/mol
# GULP energy per Si atom -5571.488779 kJ/mol
# Density = 1.683321 g / cm^3
# Si number density = 16.871615 Si / 1000 Ang^3
#
#
#
# Elastic Constant Matrix: (Units=GPa)
#
#
# Indices 1 2 3 4 5 6 
#
# 1 63.8631 17.0494 38.4290 0.0000 -3.5578 0.0000
# 2 17.0494 126.8959 34.8839 0.0000 0.9273 0.0000
# 3 38.4290 34.8839 79.4191 0.0000 -11.3494 0.0000
# 4 0.0000 0.0000 0.0000-2778.5456 0.0000-3706.6265
# 5 -3.5578 0.9273 -11.3494 0.0000 26.2399 0.0000
# 6 0.0000 0.0000 0.0000-3706.6265 0.0000-4903.4329
#
#
#
# Elastic Compliance Matrix: (Units=1/GPa)
#
#
# Indices 1 2 3 4 5 6 
#
# 1 0.022165 0.000059 -0.011002 0.000000 -0.001755 0.000000
# 2 0.000059 0.009078 -0.004328 0.000000 -0.002185 0.000000
# 3 -0.011002 -0.004328 0.020918 0.000000 0.007709 0.000000
# 4 0.000000 0.000000 0.000000 0.042762 0.000000 -0.032325
# 5 -0.001755 -0.002185 0.007709 0.000000 0.041283 0.000000
# 6 0.000000 0.000000 0.000000 -0.032325 0.000000 0.024231
#
#
# Mechanical properties :
#
#
# Convention : Reuss Voigt Hill
#
# Bulk Modulus (GPa) = 46.25580 50.10029 48.17804
# Shear Modulus (GPa) = 25.22865 -1519.16001 -746.96568
#
# Velocity S-wave (km/s) = 3.87115 -30.03961 -21.06410
# Velocity P-wave (km/s) = 6.88890 34.25510 23.72714
#
# Compressibility (1/GPa) = 0.02161891
#
# Stress axis : x y z
#
# Youngs Moduli (GPa) = 45.11549 110.15173 47.80578
#
# Poissons Ratio (x) = -0.00653 0.52597
# Poissons Ratio (y) = -0.00267 0.20693
# Poissons Ratio (z) = 0.49637 0.47679
#
# Static dielectric constant tensor:
#      x y z
#    x 1.549570 0.000000 0.015470 
#    y 0.000000 1.674990 0.000000 
#    z 0.015470 0.000000 1.568940 
# 
# From -- ./inp_files/294157.got.cif
#   From: 2010.05.17/outbox.cif.g08.bks.cpg/sg12_148_cif.got.tgz:294157.got - 2010.06.03 13:09:07.
