data_PCOD9205147
_publ_section_title
;
Structure prediction by ZEFSAII (Michael W. Deem and Ramdas Pophale) SiO2 
 PCOD9205147
Probable space group: C 2/M
;
_chemical_formula_sum "Si O2"
_cell_formula_units_Z 64
_cell_length_a 28.356827
_cell_length_b 13.963194
_cell_length_c 9.502491
_cell_angle_alpha 90.000000
_cell_angle_beta 62.800943
_cell_angle_gamma 90.000000
_cell_volume 3346.483331
_symmetry_space_group_name_H-M "C 2/M"
_symmetry_group_IT_number 12
_symmetry_cell_setting 'monoclinic'
loop_
_space_group_symop_operation_xyz
x,y,z
-x,y,-z
-x,-y,-z
x,-y,z
1/2+x,1/2+y,z
1/2-x,1/2+y,-z
1/2-x,1/2-y,-z
1/2+x,1/2-y,z
loop_
_atom_site_type_symbol
_atom_site_label
_atom_site_fract_x
_atom_site_fract_y
_atom_site_fract_z
Si Si1 0.171736 0.605168 0.736417
Si Si2 0.204491 0.257253 0.251327
Si Si3 0.620327 0.608428 0.395431
Si Si4 0.375823 0.302682 0.210476
Si Si5 0.764817 0.110180 0.393324
Si Si6 0.031812 0.888997 0.741742
Si Si7 0.713149 0.889831 0.989890
Si Si8 0.590588 0.611769 0.110936
O O1 0.152083 0.500000 0.721661
O O2 0.135728 0.692873 0.741805
O O3 0.228837 0.617390 0.582363
O O4 0.178730 0.608292 0.894720
O O5 0.157087 0.197757 0.386005
O O6 0.240519 0.315480 0.313268
O O7 0.236795 0.174462 0.124751
O O8 0.187774 0.335431 0.157051
O O9 0.641470 0.500000 0.397316
O O10 0.564402 0.615877 0.551680
O O11 0.611432 0.616276 0.240799
O O12 0.325990 0.364055 0.334189
O O13 0.431625 0.334615 0.197293
O O14 0.377253 0.324279 0.042050
O O15 0.760931 0.000000 0.348808
O O16 0.971185 0.858941 0.808963
O O17 0.031052 0.000000 0.786557
O O18 0.727289 0.000000 0.004590
O O19 0.594600 0.500000 0.060346
#
# Coordination Sequence:
#
# PCOD9205147 Si02
#       8
#     8   8   8   8   8   8   8   8
#     4  10  22  38  54  77 110 146 182 222 265 311
#     4  11  21  35  52  80 110 144 180 221 260 320
#     4  10  21  35  56  81 109 145 182 219 268 327
#     4  12  21  36  56  81 107 145 185 217 267 323
#     4  11  23  36  53  80 115 148 178 220 264 318
#     4  10  21  36  56  82 110 140 177 225 277 327
#     4  10  21  35  51  72 108 145 180 219 257 305
#     4  10  21  37  56  81 111 139 176 228 278 324
#
# _framework density 19.124554
#
# number of rings (size 3 to 8) (size 9 to 14) (size 15 to 20)
#    0.000    1.500    1.250    4.500    3.500    2.500 
#    0.000    0.000    0.000    1.500    0.000    0.000 
#    0.000   10.000    0.000    0.000    0.000    0.000 
#
# Total GULP energy -178787.944164 kJ/mol
# GULP energy per Si atom -5587.123255 kJ/mol
# Density = 1.908103 g / cm^3
# Si number density = 19.124554 Si / 1000 Ang^3
#
#
#
# Elastic Constant Matrix: (Units=GPa)
#
#
# Indices 1 2 3 4 5 6 
#
# 1 47.6018 34.0664 0.4894 0.0000 -3.4967 0.0000
# 2 34.0664 134.8774 32.4034 0.0000 -5.8244 0.0000
# 3 0.4894 32.4034 68.1537 0.0000 5.0116 0.0000
# 4 0.0000 0.0000 0.0000 19.3426 0.0000 -2.3599
# 5 -3.4967 -5.8244 5.0116 0.0000 22.7356 0.0000
# 6 0.0000 0.0000 0.0000 -2.3599 0.0000 12.8028
#
#
#
# Elastic Compliance Matrix: (Units=1/GPa)
#
#
# Indices 1 2 3 4 5 6 
#
# 1 0.026351 -0.007362 0.003204 0.000000 0.001460 0.000000
# 2 -0.007362 0.010644 -0.005209 0.000000 0.002743 0.000000
# 3 0.003204 -0.005209 0.017472 0.000000 -0.004693 0.000000
# 4 0.000000 0.000000 0.000000 0.052889 0.000000 0.009749
# 5 0.001460 0.002743 -0.004693 0.000000 0.045946 0.000000
# 6 0.000000 0.000000 0.000000 0.009749 0.000000 0.079905
#
#
# Mechanical properties :
#
#
# Convention : Reuss Voigt Hill
#
# Bulk Modulus (GPa) = 27.98735 42.72792 35.35763
# Shear Modulus (GPa) = 18.95013 23.22112 21.08562
#
# Velocity S-wave (km/s) = 3.15124 3.48832 3.32406
# Velocity P-wave (km/s) = 5.28265 6.21409 5.76721
#
# Compressibility (1/GPa) = 0.03573043
#
# Stress axis : x y z
#
# Youngs Moduli (GPa) = 37.94970 93.95391 57.23604
#
# Poissons Ratio (x) = 0.69169 -0.18336
# Poissons Ratio (y) = 0.27939 0.29816
# Poissons Ratio (z) = -0.12158 0.48943
#
# Static dielectric constant tensor:
#      x y z
#    x 1.651720 0.000000 0.023590 
#    y 0.000000 1.671360 0.000000 
#    z 0.023590 0.000000 1.706040 
# 
# From -- ./inp_files/104492.got.cif
#   From: 2010.05.17/outbox.cif.g08.bks.cpg/sg12_53_cif.got.tgz:104492.got - 2010.06.03 13:09:07.
