data_PCOD9205424
_publ_section_title
;
Structure prediction by ZEFSAII (Michael W. Deem and Ramdas Pophale) SiO2 
 PCOD9205424
Probable space group: C 2/M
;
_chemical_formula_sum "Si O2"
_cell_formula_units_Z 56
_cell_length_a 14.233941
_cell_length_b 14.389184
_cell_length_c 19.485066
_cell_angle_alpha 90.000000
_cell_angle_beta 139.828128
_cell_angle_gamma 90.000000
_cell_volume 2574.415046
_symmetry_space_group_name_H-M "C 2/M"
_symmetry_group_IT_number 12
_symmetry_cell_setting 'monoclinic'
loop_
_space_group_symop_operation_xyz
x,y,z
-x,y,-z
-x,-y,-z
x,-y,z
1/2+x,1/2+y,z
1/2-x,1/2+y,-z
1/2-x,1/2-y,-z
1/2+x,1/2-y,z
loop_
_atom_site_type_symbol
_atom_site_label
_atom_site_fract_x
_atom_site_fract_y
_atom_site_fract_z
Si Si1 0.067835 0.771289 0.337757
Si Si2 0.368338 0.112621 0.269229
Si Si3 0.581943 0.261358 0.886634
Si Si4 0.608690 0.392607 0.662723
Si Si5 0.069219 0.608188 0.110762
Si Si6 0.867105 0.098379 0.976428
Si Si7 0.661212 0.784137 0.608029
O O1 0.225414 0.785932 0.391402
O O2 0.018566 0.669864 0.339170
O O3 0.960493 0.785295 0.213317
O O4 0.024617 0.845965 0.371099
O O5 0.264096 0.134204 0.145288
O O6 0.301210 0.158048 0.301431
O O7 0.381605 0.000000 0.281803
O O8 0.494048 0.171990 0.864254
O O9 0.750000 0.250000 0.000000
O O10 0.553823 0.347512 0.919348
O O11 0.585244 0.500000 0.631921
O O12 0.756025 0.386818 0.791115
O O13 0.645464 0.323759 0.621002
O O14 0.028977 0.500000 0.098197
O O15 0.000000 0.640423 0.000000
O O16 0.812186 0.000000 0.973748
O O17 0.000000 0.087263 0.000000
O O18 0.500000 0.818787 0.500000
#
# Coordination Sequence:
#
# PCOD9205424 Si02
#       7
#     8   8   8   8   8   8   8
#     4  11  23  40  64  96 126 165 210 262 306 374
#     4  10  23  43  64  91 127 166 209 260 316 374
#     4  12  21  32  59  90 124 166 206 248 301 366
#     4  10  23  43  65  93 129 167 209 261 317 371
#     4  10  21  36  57  86 126 170 209 251 303 367
#     4  10  21  35  55  84 122 165 204 244 297 365
#     4  11  25  45  67  93 124 163 211 266 326 377
#
# _framework density 21.752514000000001
#
# number of rings (size 3 to 8) (size 9 to 14) (size 15 to 20)
#    0.000    1.429    2.857    2.143    4.000    5.714 
#    0.000    1.429    0.000    0.000    0.000    0.000 
#    0.000    0.000    0.000    0.000    0.000    0.000 
#
# Total GULP energy -156185.265969 kJ/mol
# GULP energy per Si atom -5578.045213 kJ/mol
# Density = 2.170300 g / cm^3
# Si number density = 21.752514 Si / 1000 Ang^3
#
#
#
# Elastic Constant Matrix: (Units=GPa)
#
#
# Indices 1 2 3 4 5 6 
#
# 1 109.0016 30.1300 3.6943 0.0000 25.3884 0.0000
# 2 30.1300 99.9778 8.0645 0.0000 -1.3958 0.0000
# 3 3.6943 8.0645 68.4707 0.0000 14.7210 0.0000
# 4 0.0000 0.0000 0.0000 12.8524 0.0000 -2.0666
# 5 25.3884 -1.3958 14.7210 0.0000 31.4405 0.0000
# 6 0.0000 0.0000 0.0000 -2.0666 0.0000 16.5955
#
#
#
# Elastic Compliance Matrix: (Units=1/GPa)
#
#
# Indices 1 2 3 4 5 6 
#
# 1 0.013027 -0.004280 0.002339 0.000000 -0.011805 0.000000
# 2 -0.004280 0.011539 -0.002203 0.000000 0.005000 0.000000
# 3 0.002339 -0.002203 0.016863 0.000000 -0.009882 0.000000
# 4 0.000000 0.000000 0.000000 0.079397 0.000000 0.009887
# 5 -0.011805 0.005000 -0.009882 0.000000 0.046188 0.000000
# 6 0.000000 0.000000 0.000000 0.009887 0.000000 0.061488
#
#
# Mechanical properties :
#
#
# Convention : Reuss Voigt Hill
#
# Bulk Modulus (GPa) = 30.17263 40.13643 35.15453
# Shear Modulus (GPa) = 20.17457 27.88176 24.02817
#
# Velocity S-wave (km/s) = 3.04873 3.58407 3.32718
# Velocity P-wave (km/s) = 5.12776 5.96815 5.56385
#
# Compressibility (1/GPa) = 0.03314262
#
# Stress axis : x y z
#
# Youngs Moduli (GPa) = 76.76113 86.65934 59.30256
#
# Poissons Ratio (x) = 0.37086 -0.13872
# Poissons Ratio (y) = 0.32850 0.13065
# Poissons Ratio (z) = -0.17956 0.19092
#
# Static dielectric constant tensor:
#      x y z
#    x 1.745590 0.000000 0.037270 
#    y 0.000000 4.831330 0.000000 
#    z 0.037270 0.000000 1.836760 
# 
# From -- ./inp_files/310853.got.cif
#   From: 2010.05.17/outbox.cif.g08.bks.cpg/sg12_156_cif.got.tgz:310853.got - 2010.06.03 13:09:07.
