data_PCOD9205508
_publ_section_title
;
Structure prediction by ZEFSAII (Michael W. Deem and Ramdas Pophale) SiO2 
 PCOD9205508
Probable space group: C 2/M
;
_chemical_formula_sum "Si O2"
_cell_formula_units_Z 44
_cell_length_a 19.684966
_cell_length_b 15.509522
_cell_length_c 10.279092
_cell_angle_alpha 90.000000
_cell_angle_beta 137.345947
_cell_angle_gamma 90.000000
_cell_volume 2126.385838
_symmetry_space_group_name_H-M "C 2/M"
_symmetry_group_IT_number 12
_symmetry_cell_setting 'monoclinic'
loop_
_space_group_symop_operation_xyz
x,y,z
-x,y,-z
-x,-y,-z
x,-y,z
1/2+x,1/2+y,z
1/2-x,1/2+y,-z
1/2-x,1/2-y,-z
1/2+x,1/2-y,z
loop_
_atom_site_type_symbol
_atom_site_label
_atom_site_fract_x
_atom_site_fract_y
_atom_site_fract_z
Si Si1 0.700467 0.500000 0.013249
Si Si2 0.500000 0.191352 0.000000
Si Si3 0.934586 0.181744 0.691579
Si Si4 0.718171 0.809114 0.834055
Si Si5 0.982286 0.000000 0.778482
Si Si6 0.775542 0.671912 0.714858
Si Si7 0.500000 0.736382 0.500000
Si Si8 0.829925 0.000000 0.328671
O O1 0.600703 0.500000 0.956427
O O2 0.656980 0.500000 0.805867
O O3 0.757554 0.409763 0.115882
O O4 0.489877 0.247446 0.854690
O O5 0.390201 0.147547 0.845091
O O6 0.947358 0.090979 0.780604
O O7 0.814662 0.191788 0.512916
O O8 0.982018 0.184662 0.611015
O O9 0.774803 0.760229 0.796822
O O10 0.599802 0.793174 0.650883
O O11 0.750000 0.750000 0.000000
O O12 0.927860 0.000000 0.558095
O O13 0.730445 0.587731 0.724081
#
# Coordination Sequence:
#
# PCOD9205508 Si02
#       8
#     4   4   8   8   4   8   4   4
#     4  12  21  31  60  90 127 157 201 244 312 366
#     4  12  22  40  62  82 122 168 202 243 300 357
#     4  10  23  37  62  90 119 160 202 250 307 362
#     4  11  21  37  58  90 123 160 200 251 302 366
#     4  10  21  35  56  92 122 154 196 260 310 354
#     4  10  22  39  59  86 121 157 207 247 301 359
#     4  10  22  40  62  86 126 162 198 251 312 355
#     4  10  21  35  58  90 119 155 205 258 294 360
#
# _framework density 20.692387
#
# number of rings (size 3 to 8) (size 9 to 14) (size 15 to 20)
#    0.000    1.455    1.818    4.091    5.091    1.091 
#    0.000    0.909    0.000    3.273    0.000    0.000 
#    0.000    0.000    0.000    0.000    0.000    0.000 
#
# Total GULP energy -122567.872711 kJ/mol
# GULP energy per Si atom -5571.266941 kJ/mol
# Density = 2.064529 g / cm^3
# Si number density = 20.692387 Si / 1000 Ang^3
#
#
#
# Elastic Constant Matrix: (Units=GPa)
#
#
# Indices 1 2 3 4 5 6 
#
# 1 61.7331 16.4723 25.0048 0.0000 19.0883 0.0000
# 2 16.4723 121.0533 15.4623 0.0000 6.3381 0.0000
# 3 25.0048 15.4623 93.1242 0.0000 26.2390 0.0000
# 4 0.0000 0.0000 0.0000 16.4662 0.0000 -5.6320
# 5 19.0883 6.3381 26.2390 0.0000 46.1451 0.0000
# 6 0.0000 0.0000 0.0000 -5.6320 0.0000 10.9792
#
#
#
# Elastic Compliance Matrix: (Units=1/GPa)
#
#
# Indices 1 2 3 4 5 6 
#
# 1 0.019952 -0.001973 -0.003311 0.000000 -0.006100 0.000000
# 2 -0.001973 0.008642 -0.000953 0.000000 0.000171 0.000000
# 3 -0.003311 -0.000953 0.013531 0.000000 -0.006193 0.000000
# 4 0.000000 0.000000 0.000000 0.073653 0.000000 0.037782
# 5 -0.006100 0.000171 -0.006193 0.000000 0.027692 0.000000
# 6 0.000000 0.000000 0.000000 0.037782 0.000000 0.110463
#
#
# Mechanical properties :
#
#
# Convention : Reuss Voigt Hill
#
# Bulk Modulus (GPa) = 33.72625 43.30994 38.51809
# Shear Modulus (GPa) = 18.09684 29.31617 23.70650
#
# Velocity S-wave (km/s) = 2.96051 3.76807 3.38844
# Velocity P-wave (km/s) = 5.29343 6.31720 5.82784
#
# Compressibility (1/GPa) = 0.02965050
#
# Stress axis : x y z
#
# Youngs Moduli (GPa) = 50.11926 115.71279 73.90567
#
# Poissons Ratio (x) = 0.22827 0.24472
# Poissons Ratio (y) = 0.09887 0.07047
# Poissons Ratio (z) = 0.16595 0.11033
#
# Static dielectric constant tensor:
#      x y z
#    x 1.820170 0.000000 -0.041580 
#    y 0.000000 1.734430 0.000000 
#    z -0.041580 0.000000 1.774530 
# 
# From -- ./inp_files/167461.got.cif
#   From: 2010.05.17/outbox.cif.g08.bks.cpg/sg12_84_cif.got.tgz:167461.got - 2010.06.03 13:09:07.
