data_PCOD9205924
_publ_section_title
;
Structure prediction by ZEFSAII (Michael W. Deem and Ramdas Pophale) SiO2 
 PCOD9205924
Probable space group: C 2/M
;
_chemical_formula_sum "Si O2"
_cell_formula_units_Z 40
_cell_length_a 31.384271
_cell_length_b 9.018127
_cell_length_c 7.574712
_cell_angle_alpha 90.000000
_cell_angle_beta 103.619590
_cell_angle_gamma 90.000000
_cell_volume 2083.566694
_symmetry_space_group_name_H-M "C 2/M"
_symmetry_group_IT_number 12
_symmetry_cell_setting 'monoclinic'
loop_
_space_group_symop_operation_xyz
x,y,z
-x,y,-z
-x,-y,-z
x,-y,z
1/2+x,1/2+y,z
1/2-x,1/2+y,-z
1/2-x,1/2-y,-z
1/2+x,1/2-y,z
loop_
_atom_site_type_symbol
_atom_site_label
_atom_site_fract_x
_atom_site_fract_y
_atom_site_fract_z
Si Si1 0.295269 0.167735 0.582144
Si Si2 0.705431 0.165844 0.995652
Si Si3 0.949196 0.822832 0.423437
Si Si4 0.889941 0.679297 0.073104
Si Si5 0.615455 0.323098 0.316764
O O1 0.250000 0.250000 0.500000
O O2 0.298215 0.158368 0.796597
O O3 0.338337 0.257686 0.568804
O O4 0.295378 0.000000 0.511654
O O5 0.709531 0.000000 0.927154
O O6 0.750000 0.250000 0.000000
O O7 0.657898 0.228727 0.896567
O O8 0.927114 0.736217 0.240527
O O9 0.921800 0.792909 0.574968
O O10 0.000000 0.784403 0.500000
O O11 0.946363 0.000000 0.385770
O O12 0.889080 0.500000 0.060707
O O13 0.894713 0.747480 0.881909
O O14 0.619465 0.500000 0.296009
#
# Coordination Sequence:
#
# PCOD9205924 Si02
#       5
#     8   8   8   8   8
#     4  10  21  36  54  82 117 154 196 238 289 350
#     4   9  20  35  52  79 112 149 191 232 282 343
#     4  10  23  42  64  90 118 155 204 252 301 358
#     4  10  22  40  60  87 122 158 197 246 303 357
#     4  10  21  39  62  87 118 158 200 246 300 354
#
# _framework density 19.197849999999999
#
# number of rings (size 3 to 8) (size 9 to 14) (size 15 to 20)
#    0.000    2.200    0.000    3.000    2.800    7.600 
#    0.000    4.000    0.000    0.000    0.000    0.000 
#    0.000    0.000    0.000    0.000    0.000    0.000 
#
# Total GULP energy -111629.755401 kJ/mol
# GULP energy per Si atom -5581.487770 kJ/mol
# Density = 1.915415 g / cm^3
# Si number density = 19.197850 Si / 1000 Ang^3
#
#
#
# Elastic Constant Matrix: (Units=GPa)
#
#
# Indices 1 2 3 4 5 6 
#
# 1 169.9846 76.0451 70.4373 0.0000 26.1791 0.0000
# 2 76.0451 91.4917 56.3349 0.0000 11.0905 0.0000
# 3 70.4373 56.3349 113.1902 0.0000 23.0846 0.0000
# 4 0.0000 0.0000 0.0000 28.6545 0.0000 6.9330
# 5 26.1791 11.0905 23.0846 0.0000 35.3200 0.0000
# 6 0.0000 0.0000 0.0000 6.9330 0.0000 28.5248
#
#
#
# Elastic Compliance Matrix: (Units=1/GPa)
#
#
# Indices 1 2 3 4 5 6 
#
# 1 0.010536 -0.006832 -0.002309 0.000000 -0.004155 0.000000
# 2 -0.006832 0.020191 -0.006389 0.000000 0.002900 0.000000
# 3 -0.002309 -0.006389 0.014645 0.000000 -0.005854 0.000000
# 4 0.000000 0.000000 0.000000 0.037079 0.000000 -0.009012
# 5 -0.004155 0.002900 -0.005854 0.000000 0.034308 0.000000
# 6 0.000000 0.000000 0.000000 -0.009012 0.000000 0.037248
#
#
# Mechanical properties :
#
#
# Convention : Reuss Voigt Hill
#
# Bulk Modulus (GPa) = 69.86776 86.70014 78.28395
# Shear Modulus (GPa) = 26.33845 29.95647 28.14746
#
# Velocity S-wave (km/s) = 3.70800 3.95448 3.83322
# Velocity P-wave (km/s) = 7.40303 8.13081 7.77544
#
# Compressibility (1/GPa) = 0.01431275
#
# Stress axis : x y z
#
# Youngs Moduli (GPa) = 94.91478 49.52756 68.28172
#
# Poissons Ratio (x) = 0.33836 0.15765
# Poissons Ratio (y) = 0.64844 0.43625
# Poissons Ratio (z) = 0.21914 0.31643
#
# Static dielectric constant tensor:
#      x y z
#    x 1.668740 0.000000 0.002600 
#    y 0.000000 1.666930 0.000000 
#    z 0.002600 0.000000 1.661780 
# 
# From -- ./inp_files/101023.got.cif
#   From: 2010.05.17/outbox.cif.g08.bks.cpg/sg12_51_cif.got.tgz:101023.got - 2010.06.03 13:09:07.
