data_PCOD9205583
_publ_section_title
;
Structure prediction by ZEFSAII (Michael W. Deem and Ramdas Pophale) SiO2 
 PCOD9205583
Probable space group: C 2/M
;
_chemical_formula_sum "Si O2"
_cell_formula_units_Z 48
_cell_length_a 8.111269
_cell_length_b 23.503471
_cell_length_c 20.167682
_cell_angle_alpha 90.000000
_cell_angle_beta 140.742764
_cell_angle_gamma 90.000000
_cell_volume 2433.018476
_symmetry_space_group_name_H-M "C 2/M"
_symmetry_group_IT_number 12
_symmetry_cell_setting 'monoclinic'
loop_
_space_group_symop_operation_xyz
x,y,z
-x,y,-z
-x,-y,-z
x,-y,z
1/2+x,1/2+y,z
1/2-x,1/2+y,-z
1/2-x,1/2-y,-z
1/2+x,1/2-y,z
loop_
_atom_site_type_symbol
_atom_site_label
_atom_site_fract_x
_atom_site_fract_y
_atom_site_fract_z
Si Si1 0.457372 0.660414 0.321035
Si Si2 0.125955 0.265826 0.612813
Si Si3 0.464875 0.065899 0.825808
Si Si4 0.737977 0.135981 0.462478
Si Si5 0.261253 0.568597 0.045280
Si Si6 0.819624 0.434221 0.256238
O O1 0.613325 0.697185 0.315644
O O2 0.338283 0.707280 0.335763
O O3 0.254818 0.613750 0.232960
O O4 0.669287 0.628255 0.433140
O O5 0.000000 0.260113 0.500000
O O6 0.914619 0.303923 0.586301
O O7 0.704631 0.077721 0.950051
O O8 0.555972 0.068857 0.778411
O O9 0.378802 0.000000 0.812414
O O10 0.520971 0.093519 0.368870
O O11 0.000000 0.131853 0.500000
O O12 0.273662 0.500000 0.057395
O O13 0.530229 0.591528 0.158508
O O14 0.000000 0.589002 0.000000
O O15 0.792559 0.500000 0.266026
#
# Coordination Sequence:
#
# PCOD9205583 Si02
#       6
#     8   8   8   8   8   8
#     4  11  21  37  59  88 117 157 192 247 285 345
#     4  10  22  36  58  83 113 157 204 241 274 340
#     4  10  21  36  60  89 118 152 192 238 297 348
#     4  11  20  35  56  86 119 150 195 236 288 344
#     4   9  19  37  59  83 113 151 199 242 282 345
#     4  10  21  35  58  86 119 158 192 235 290 354
#
# _framework density 19.728580000000001
#
# number of rings (size 3 to 8) (size 9 to 14) (size 15 to 20)
#    0.000    1.833    1.667    4.000    2.333    3.000 
#    0.000    0.000    0.000    4.000    0.000    0.000 
#    0.000    0.000    0.000    0.000    0.000    0.000 
#
# Total GULP energy -133882.605681 kJ/mol
# GULP energy per Si atom -5578.441903 kJ/mol
# Density = 1.968368 g / cm^3
# Si number density = 19.728580 Si / 1000 Ang^3
#
#
#
# Elastic Constant Matrix: (Units=GPa)
#
#
# Indices 1 2 3 4 5 6 
#
# 1 52.2991 32.9255 38.7295 0.0000 14.5260 0.0000
# 2 32.9255 78.2094 61.9866 -0.0001 17.7811 0.0000
# 3 38.7295 61.9866 133.7844 -0.0001 21.4201 0.0001
# 4 0.0000 -0.0001 -0.0001 9.8586 0.0000 8.8715
# 5 14.5260 17.7811 21.4201 0.0000 29.2359 0.0000
# 6 0.0000 0.0000 0.0001 8.8715 0.0000 16.6089
#
#
#
# Elastic Compliance Matrix: (Units=1/GPa)
#
#
# Indices 1 2 3 4 5 6 
#
# 1 0.028480 -0.007526 -0.003653 0.000000 -0.006896 0.000000
# 2 -0.007526 0.023222 -0.007837 0.000000 -0.004642 0.000000
# 3 -0.003653 -0.007837 0.012586 0.000000 -0.002640 0.000000
# 4 0.000000 0.000000 0.000000 0.195315 0.000000 -0.104326
# 5 -0.006896 -0.004642 -0.002640 0.000000 0.042388 0.000000
# 6 0.000000 0.000000 0.000000 -0.104326 0.000000 0.115934
#
#
# Mechanical properties :
#
#
# Convention : Reuss Voigt Hill
#
# Bulk Modulus (GPa) = 38.08992 59.06404 48.57698
# Shear Modulus (GPa) = 10.75939 19.85078 15.30508
#
# Velocity S-wave (km/s) = 2.33785 3.17550 2.78831
# Velocity P-wave (km/s) = 5.16104 6.59154 5.91966
#
# Compressibility (1/GPa) = 0.02625366
#
# Stress axis : x y z
#
# Youngs Moduli (GPa) = 35.11240 43.06312 79.45173
#
# Poissons Ratio (x) = 0.32411 0.29026
# Poissons Ratio (y) = 0.26427 0.62269
# Poissons Ratio (z) = 0.12828 0.33750
#
# Static dielectric constant tensor:
#      x y z
#    x 1.781450 0.000000 0.017680 
#    y 0.000000 1.715270 0.000000 
#    z 0.017680 0.000000 1.689270 
# 
# From -- ./inp_files/334118.got.cif
#   From: 2010.05.17/outbox.cif.g08.bks.cpg/sg12_168_cif.got.tgz:334118.got - 2010.06.03 13:09:07.
