data_PCOD9205599
_publ_section_title
;
Structure prediction by ZEFSAII (Michael W. Deem and Ramdas Pophale) SiO2 
 PCOD9205599
Probable space group: C 2/M
;
_chemical_formula_sum "Si O2"
_cell_formula_units_Z 56
_cell_length_a 23.858587
_cell_length_b 23.283127
_cell_length_c 20.098329
_cell_angle_alpha 90.000000
_cell_angle_beta 163.619912
_cell_angle_gamma 90.000000
_cell_volume 3148.527438
_symmetry_space_group_name_H-M "C 2/M"
_symmetry_group_IT_number 12
_symmetry_cell_setting 'monoclinic'
loop_
_space_group_symop_operation_xyz
x,y,z
-x,y,-z
-x,-y,-z
x,-y,z
1/2+x,1/2+y,z
1/2-x,1/2+y,-z
1/2-x,1/2-y,-z
1/2+x,1/2-y,z
loop_
_atom_site_type_symbol
_atom_site_label
_atom_site_fract_x
_atom_site_fract_y
_atom_site_fract_z
Si Si1 0.885638 0.240106 0.219274
Si Si2 0.534803 0.433138 0.617977
Si Si3 0.976724 0.365668 0.308498
Si Si4 0.570748 0.432128 0.871761
Si Si5 0.397468 0.147339 0.061702
Si Si6 0.182280 0.861203 0.524221
Si Si7 0.375771 0.567623 0.793386
O O1 0.952294 0.303477 0.315164
O O2 0.067501 0.198846 0.405527
O O3 0.750000 0.250000 0.000000
O O4 0.742603 0.203624 0.104793
O O5 0.500000 0.427066 0.500000
O O6 0.532047 0.500000 0.632530
O O7 0.366054 0.399351 0.466301
O O8 0.746350 0.405218 0.877983
O O9 0.973468 0.355974 0.224680
O O10 0.177205 0.396000 0.558924
O O11 0.788252 0.405585 0.109616
O O12 0.565156 0.500000 0.848444
O O13 0.425143 0.395571 0.658318
O O14 0.502331 0.425871 0.870027
O O15 0.588019 0.146641 0.231638
O O16 0.324698 0.500000 0.741536
O O17 0.500000 0.584177 0.000000
#
# Coordination Sequence:
#
# PCOD9205599 Si02
#       7
#     8   8   8   8   8   8   8
#     4   9  19  35  57  87 116 148 191 242 290 334
#     4  10  22  39  58  84 121 155 190 238 291 349
#     4  11  20  37  62  86 116 153 194 239 290 342
#     4  11  21  34  58  89 116 148 192 240 286 346
#     4  10  21  35  58  89 114 150 193 240 286 337
#     4  11  20  36  60  88 115 152 195 240 286 341
#     4  10  23  40  58  86 122 154 190 239 295 349
#
# _framework density 17.786092
#
# number of rings (size 3 to 8) (size 9 to 14) (size 15 to 20)
#    0.000    1.714    5.714    0.857    0.000    6.286 
#    0.000    3.571   18.857    0.000    0.000    0.000 
#    0.000    0.000    0.000    0.000    0.000    0.000 
#
# Total GULP energy -156230.953161 kJ/mol
# GULP energy per Si atom -5579.676899 kJ/mol
# Density = 1.774561 g / cm^3
# Si number density = 17.786092 Si / 1000 Ang^3
#
#
#
# Elastic Constant Matrix: (Units=GPa)
#
#
# Indices 1 2 3 4 5 6 
#
# 1 77.6376 34.9807 45.4129 -0.0009 21.4821 -0.0008
# 2 34.9807 83.5366 49.9566 -0.0004 17.5935 -0.0008
# 3 45.4129 49.9566 90.9741 -0.0030 32.1651 -0.0020
# 4 -0.0009 -0.0004 -0.0030 21.1284 -0.0016 2.8266
# 5 21.4821 17.5935 32.1651 -0.0016 40.7247 -0.0012
# 6 -0.0008 -0.0008 -0.0020 2.8266 -0.0012 3.0130
#
#
#
# Elastic Compliance Matrix: (Units=1/GPa)
#
#
# Indices 1 2 3 4 5 6 
#
# 1 0.019171 -0.003436 -0.006427 0.000000 -0.003552 -0.000001
# 2 -0.003436 0.018440 -0.008651 -0.000001 0.000679 0.000000
# 3 -0.006427 -0.008651 0.022797 0.000001 -0.010878 0.000006
# 4 0.000000 -0.000001 0.000001 0.054122 0.000000 -0.050773
# 5 -0.003552 0.000679 -0.010878 0.000000 0.034727 0.000005
# 6 -0.000001 0.000000 0.000006 -0.050773 0.000005 0.379522
#
#
# Mechanical properties :
#
#
# Convention : Reuss Voigt Hill
#
# Bulk Modulus (GPa) = 42.77190 56.98316 49.87753
# Shear Modulus (GPa) = 8.71688 21.09312 14.90500
#
# Velocity S-wave (km/s) = 2.21621 3.44747 2.89799
# Velocity P-wave (km/s) = 5.53615 6.92491 6.26910
#
# Compressibility (1/GPa) = 0.02337984
#
# Stress axis : x y z
#
# Youngs Moduli (GPa) = 52.16284 54.23001 43.86584
#
# Poissons Ratio (x) = 0.18634 0.28193
# Poissons Ratio (y) = 0.17924 0.37947
# Poissons Ratio (z) = 0.33525 0.46912
#
# Static dielectric constant tensor:
#      x y z
#    x 1.600420 0.000010 0.003800 
#    y 0.000010 1.464700 0.000000 
#    z 0.003800 0.000000 1.568910 
# 
# From -- ./inp_files/286093.got.cif
#   From: 2010.05.17/outbox.cif.g08.bks.cpg/sg12_144_cif.got.tgz:286093.got - 2010.06.03 13:09:07.
