data_PCOD9205750
_publ_section_title
;
Structure prediction by ZEFSAII (Michael W. Deem and Ramdas Pophale) SiO2 
 PCOD9205750
Probable space group: C 2/M
;
_chemical_formula_sum "Si O2"
_cell_formula_units_Z 64
_cell_length_a 18.400453
_cell_length_b 14.311798
_cell_length_c 20.655434
_cell_angle_alpha 90.000000
_cell_angle_beta 138.190923
_cell_angle_gamma 90.000000
_cell_volume 3626.229508
_symmetry_space_group_name_H-M "C 2/M"
_symmetry_group_IT_number 12
_symmetry_cell_setting 'monoclinic'
loop_
_space_group_symop_operation_xyz
x,y,z
-x,y,-z
-x,-y,-z
x,-y,z
1/2+x,1/2+y,z
1/2-x,1/2+y,-z
1/2-x,1/2-y,-z
1/2+x,1/2-y,z
loop_
_atom_site_type_symbol
_atom_site_label
_atom_site_fract_x
_atom_site_fract_y
_atom_site_fract_z
Si Si1 0.194310 0.888983 0.861714
Si Si2 0.281582 0.888779 0.063571
Si Si3 0.612616 0.262256 0.222888
Si Si4 0.476281 0.770326 0.252634
Si Si5 0.050841 0.889777 0.963014
Si Si6 0.519579 0.107309 0.404994
Si Si7 0.181584 0.393011 0.629583
Si Si8 0.112539 0.610801 0.112267
O O1 0.087469 0.827100 0.779230
O O2 0.286320 0.870750 0.868693
O O3 0.170472 0.000000 0.846194
O O4 0.244636 0.865709 0.965839
O O5 0.387005 0.834425 0.156708
O O6 0.301521 0.000000 0.079261
O O7 0.178684 0.867162 0.041780
O O8 0.578229 0.239108 0.272772
O O9 0.516170 0.327309 0.130906
O O10 0.723129 0.320845 0.294496
O O11 0.619969 0.172869 0.181186
O O12 0.510214 0.820006 0.341197
O O13 0.040126 0.000000 0.939999
O O14 0.000000 0.875016 0.000000
O O15 0.411377 0.113947 0.377410
O O16 0.620437 0.122450 0.520711
O O17 0.525457 0.000000 0.384695
O O18 0.223280 0.500000 0.658387
O O19 0.110866 0.500000 0.125868
O O20 0.000000 0.632897 0.000000
#
# Coordination Sequence:
#
# PCOD9205750 Si02
#       8
#     8   8   8   8   8   8   8   8
#     4  10  21  37  53  72 109 151 190 226 260 317
#     4  10  21  36  52  78 115 151 187 226 274 325
#     4  12  23  34  57  83 115 146 183 231 276 334
#     4  12  23  33  56  84 111 147 185 224 279 329
#     4  10  22  35  50  81 120 151 182 226 279 337
#     4   9  20  40  63  87 110 137 180 229 282 344
#     4   9  20  40  64  86 110 139 176 230 290 342
#     4  10  22  37  53  74 106 154 198 230 261 305
#
# _framework density 17.649187000000001
#
# number of rings (size 3 to 8) (size 9 to 14) (size 15 to 20)
#    0.000    1.750    1.250    3.750    5.250    3.000 
#    0.000    0.000    0.000    0.750    0.000    3.500 
#    0.000    0.000    0.000    0.000    0.000    0.000 
#
# Total GULP energy -178839.467032 kJ/mol
# GULP energy per Si atom -5588.733345 kJ/mol
# Density = 1.760902 g / cm^3
# Si number density = 17.649187 Si / 1000 Ang^3
#
#
#
# Elastic Constant Matrix: (Units=GPa)
#
#
# Indices 1 2 3 4 5 6 
#
# 1 67.5456 36.3911 16.5766 0.0000 -9.2327 0.0000
# 2 36.3911 78.6336 38.7290 0.0000 -7.8291 0.0000
# 3 16.5766 38.7290 38.8571 0.0000 -7.2677 0.0000
# 4 0.0000 0.0000 0.0000 27.7387 0.0000 -1.2398
# 5 -9.2327 -7.8291 -7.2677 0.0000 29.6749 0.0000
# 6 0.0000 0.0000 0.0000 -1.2398 0.0000 17.0079
#
#
#
# Elastic Compliance Matrix: (Units=1/GPa)
#
#
# Indices 1 2 3 4 5 6 
#
# 1 0.020240 -0.009985 0.002098 0.000000 0.004177 0.000000
# 2 -0.009985 0.029913 -0.025844 0.000000 -0.001544 0.000000
# 3 0.002098 -0.025844 0.051819 0.000000 0.006526 0.000000
# 4 0.000000 0.000000 0.000000 0.036169 0.000000 0.002637
# 5 0.004177 -0.001544 0.006526 0.000000 0.036189 0.000000
# 6 0.000000 0.000000 0.000000 0.002637 0.000000 0.058988
#
#
# Mechanical properties :
#
#
# Convention : Reuss Voigt Hill
#
# Bulk Modulus (GPa) = 28.97501 40.93664 34.95583
# Shear Modulus (GPa) = 16.01119 21.10694 18.55907
#
# Velocity S-wave (km/s) = 3.01523 3.46195 3.24628
# Velocity P-wave (km/s) = 5.34556 6.26300 5.82238
#
# Compressibility (1/GPa) = 0.03451250
#
# Stress axis : x y z
#
# Youngs Moduli (GPa) = 49.40676 33.43036 19.29795
#
# Poissons Ratio (x) = 0.33379 -0.04050
# Poissons Ratio (y) = 0.49331 0.49873
# Poissons Ratio (z) = -0.10368 0.86396
#
# Static dielectric constant tensor:
#      x y z
#    x 1.605160 0.000000 -0.009540 
#    y 0.000000 1.611960 0.000000 
#    z -0.009540 0.000000 1.560920 
# 
# From -- ./inp_files/278207.got.cif
#   From: 2010.05.17/outbox.cif.g08.bks.cpg/sg12_140_cif.got.tgz:278207.got - 2010.06.03 13:09:07.
