data_PCOD9205263
_publ_section_title
;
Structure prediction by ZEFSAII (Michael W. Deem and Ramdas Pophale) SiO2 
 PCOD9205263
Probable space group: C 2/M
;
_chemical_formula_sum "Si O2"
_cell_formula_units_Z 56
_cell_length_a 14.967385
_cell_length_b 32.325627
_cell_length_c 5.849898
_cell_angle_alpha 90.000000
_cell_angle_beta 61.767514
_cell_angle_gamma 90.000000
_cell_volume 2493.644445
_symmetry_space_group_name_H-M "C 2/M"
_symmetry_group_IT_number 12
_symmetry_cell_setting 'monoclinic'
loop_
_space_group_symop_operation_xyz
x,y,z
-x,y,-z
-x,-y,-z
x,-y,z
1/2+x,1/2+y,z
1/2-x,1/2+y,-z
1/2-x,1/2-y,-z
1/2+x,1/2-y,z
loop_
_atom_site_type_symbol
_atom_site_label
_atom_site_fract_x
_atom_site_fract_y
_atom_site_fract_z
Si Si1 0.077403 0.453897 0.608719
Si Si2 0.887244 0.340396 0.717313
Si Si3 0.118405 0.758063 0.336587
Si Si4 0.885469 0.213748 0.157445
Si Si5 0.684939 0.624341 0.725940
Si Si6 0.719219 0.453952 0.920510
Si Si7 0.680817 0.101491 0.824115
O O1 0.047590 0.500000 0.722019
O O2 0.190916 0.457489 0.372606
O O3 0.094752 0.419173 0.773960
O O4 0.000000 0.443007 0.500000
O O5 0.879298 0.291411 0.691323
O O6 0.795362 0.361703 0.691411
O O7 0.000000 0.351633 0.500000
O O8 0.865499 0.358703 0.993918
O O9 0.158609 0.771716 0.540878
O O10 0.000000 0.771625 0.500000
O O11 0.159096 0.775107 0.041614
O O12 0.884020 0.164183 0.169407
O O13 0.000000 0.231051 0.000000
O O14 0.650916 0.583411 0.903961
O O15 0.716565 0.614435 0.430498
O O16 0.676523 0.500000 0.010596
O O17 0.779875 0.435350 0.060994
#
# Coordination Sequence:
#
# PCOD9205263 Si02
#       7
#     8   8   8   8   8   8   8
#     4   9  18  32  51  75 104 148 205 254 298 349
#     4  10  23  39  55  82 120 163 200 245 291 354
#     4   9  21  40  64  88 121 161 202 242 303 360
#     4  10  22  42  67  92 120 154 197 252 305 366
#     4  10  23  36  59  91 115 150 200 246 300 354
#     4   9  19  35  53  77 112 149 193 241 295 358
#     4  10  21  35  53  78 114 155 201 246 300 353
#
# _framework density 22.457091999999999
#
# number of rings (size 3 to 8) (size 9 to 14) (size 15 to 20)
#    0.000    2.429    0.000    0.429    6.000    9.143 
#    0.000    2.143    0.000    4.286    0.000    1.000 
#    0.000    0.000    0.000    0.000    0.000    0.000 
#
# Total GULP energy -156086.695084 kJ/mol
# GULP energy per Si atom -5574.524824 kJ/mol
# Density = 2.240598 g / cm^3
# Si number density = 22.457092 Si / 1000 Ang^3
#
#
#
# Elastic Constant Matrix: (Units=GPa)
#
#
# Indices 1 2 3 4 5 6 
#
# 1 44.4644 9.0341 22.7945 0.0000 4.7495 0.0000
# 2 9.0341 163.3295 49.6705 0.0000 24.3233 0.0000
# 3 22.7945 49.6705 105.9805 0.0000 36.8309 0.0000
# 4 0.0000 0.0000 0.0000 13.3902 0.0000 3.2126
# 5 4.7495 24.3233 36.8309 0.0000 23.1935 0.0000
# 6 0.0000 0.0000 0.0000 3.2126 0.0000 26.6319
#
#
#
# Elastic Compliance Matrix: (Units=1/GPa)
#
#
# Indices 1 2 3 4 5 6 
#
# 1 0.025912 -0.000097 -0.008299 0.000000 0.007974 0.000000
# 2 -0.000097 0.007394 -0.001688 0.000000 -0.005053 0.000000
# 3 -0.008299 -0.001688 0.024113 0.000000 -0.034821 0.000000
# 4 0.000000 0.000000 0.000000 0.076908 0.000000 -0.009277
# 5 0.007974 -0.005053 -0.034821 0.000000 0.102077 0.000000
# 6 0.000000 0.000000 0.000000 -0.009277 0.000000 0.038668
#
#
# Mechanical properties :
#
#
# Convention : Reuss Voigt Hill
#
# Bulk Modulus (GPa) = 26.84523 52.97473 39.90998
# Shear Modulus (GPa) = 16.25178 28.12813 22.18995
#
# Velocity S-wave (km/s) = 2.69305 3.54295 3.14682
# Velocity P-wave (km/s) = 4.65296 6.35430 5.56898
#
# Compressibility (1/GPa) = 0.03725056
#
# Stress axis : x y z
#
# Youngs Moduli (GPa) = 38.59169 135.24590 41.47077
#
# Poissons Ratio (x) = 0.01311 0.34417
# Poissons Ratio (y) = 0.00374 0.07002
# Poissons Ratio (z) = 0.32028 0.22836
#
# Static dielectric constant tensor:
#      x y z
#    x 1.851850 0.000000 0.054510 
#    y 0.000000 1.858150 0.000000 
#    z 0.054510 0.000000 1.945560 
# 
# From -- ./inp_files/18256.got.cif
#   From: 2010.05.17/outbox.cif.g08.bks.cpg/sg12_10_cif.got.tgz:18256.got - 2010.06.03 13:09:07.
