data_PCOD9205859
_publ_section_title
;
Structure prediction by ZEFSAII (Michael W. Deem and Ramdas Pophale) SiO2 
 PCOD9205859
Probable space group: C 2/M
;
_chemical_formula_sum "Si O2"
_cell_formula_units_Z 48
_cell_length_a 9.856963
_cell_length_b 7.495038
_cell_length_c 25.393669
_cell_angle_alpha 90.000000
_cell_angle_beta 86.817652
_cell_angle_gamma 90.000000
_cell_volume 1873.148391
_symmetry_space_group_name_H-M "C 2/M"
_symmetry_group_IT_number 12
_symmetry_cell_setting 'monoclinic'
loop_
_space_group_symop_operation_xyz
x,y,z
-x,y,-z
-x,-y,-z
x,-y,z
1/2+x,1/2+y,z
1/2-x,1/2+y,-z
1/2-x,1/2-y,-z
1/2+x,1/2-y,z
loop_
_atom_site_type_symbol
_atom_site_label
_atom_site_fract_x
_atom_site_fract_y
_atom_site_fract_z
Si Si1 0.180304 0.216482 0.389030
Si Si2 0.321547 0.783517 0.277800
Si Si3 0.079526 0.292852 0.547748
Si Si4 0.422344 0.705958 0.119062
Si Si5 0.819461 0.287261 0.942916
Si Si6 0.081349 0.207030 0.214574
O O1 0.250931 0.273177 0.333417
O O2 0.278240 0.280599 0.434519
O O3 0.028863 0.282713 0.402345
O O4 0.177489 0.000000 0.389440
O O5 0.472948 0.717215 0.264452
O O6 0.223557 0.719626 0.232320
O O7 0.324445 0.000000 0.277406
O O8 0.104336 0.500000 0.534736
O O9 0.000000 0.209511 0.500000
O O10 0.394523 0.500000 0.132918
O O11 0.282198 0.783470 0.100468
O O12 0.531429 0.711264 0.069390
O O13 0.502170 0.789710 0.166683
O O14 0.830722 0.500000 0.937673
O O15 0.750000 0.250000 0.000000
O O16 0.106287 0.000000 0.201456
#
# Coordination Sequence:
#
# PCOD9205859 Si02
#       6
#     8   8   8   8   8   8
#     4  10  21  36  54  79 109 140 178 222 267 318
#     4  10  21  36  55  81 110 140 178 222 266 317
#     4  10  21  36  54  78 107 140 180 223 267 318
#     4  10  22  39  57  81 112 142 178 223 265 314
#     4  11  23  38  58  83 110 143 181 220 266 317
#     4  10  21  37  57  81 109 142 179 219 266 318
#
# _framework density 25.625306999999999
#
# number of rings (size 3 to 8) (size 9 to 14) (size 15 to 20)
#    0.000    1.833    0.000    3.500    0.000    6.333 
#    0.000    0.000    0.000    0.000    0.000    0.000 
#    0.000    0.000    0.000    0.000    0.000    0.000 
#
# Total GULP energy -134359.170696 kJ/mol
# GULP energy per Si atom -5598.298779 kJ/mol
# Density = 2.556698 g / cm^3
# Si number density = 25.625307 Si / 1000 Ang^3
#
#
#
# Elastic Constant Matrix: (Units=GPa)
#
#
# Indices 1 2 3 4 5 6 
#
# 1 120.7651 -1.5487 -7.2396 0.0000 0.9624 0.0000
# 2 -1.5487 92.0358 7.9241 0.0000 6.9479 0.0000
# 3 -7.2396 7.9241 73.8271 0.0000 -2.2039 0.0000
# 4 0.0000 0.0000 0.0000 14.8120 0.0000 -12.8421
# 5 0.9624 6.9479 -2.2039 0.0000 51.6340 0.0000
# 6 0.0000 0.0000 0.0000 -12.8421 0.0000 12.3127
#
#
#
# Elastic Compliance Matrix: (Units=1/GPa)
#
#
# Indices 1 2 3 4 5 6 
#
# 1 0.008331 0.000081 0.000804 0.000000 -0.000132 0.000000
# 2 0.000081 0.011089 -0.001228 0.000000 -0.001546 0.000000
# 3 0.000804 -0.001228 0.013778 0.000000 0.000738 0.000000
# 4 0.000000 0.000000 0.000000 0.705394 0.000000 0.735727
# 5 -0.000132 -0.001546 0.000738 0.000000 0.019609 0.000000
# 6 0.000000 0.000000 0.000000 0.735727 0.000000 0.848582
#
#
# Mechanical properties :
#
#
# Convention : Reuss Voigt Hill
#
# Bulk Modulus (GPa) = 30.75839 31.65551 31.20695
# Shear Modulus (GPa) = 3.08965 34.91790 19.00377
#
# Velocity S-wave (km/s) = 1.09924 3.69539 2.72619
# Velocity P-wave (km/s) = 3.69328 5.53064 4.70256
#
# Compressibility (1/GPa) = 0.03251145
#
# Stress axis : x y z
#
# Youngs Moduli (GPa) = 120.03588 90.17800 72.57981
#
# Poissons Ratio (x) = -0.00729 -0.05838
# Poissons Ratio (y) = -0.00971 0.08916
# Poissons Ratio (z) = -0.09655 0.11078
#
# Static dielectric constant tensor:
#      x y z
#    x 1.942560 0.000000 0.024010 
#    y 0.000000 1.950720 0.000000 
#    z 0.024010 0.000000 2.089640 
# 
# From -- ./inp_files/331986.got.cif
#   From: 2010.05.17/outbox.cif.g08.bks.cpg/sg12_166_cif.got.tgz:331986.got - 2010.06.03 13:09:07.
