data_PCOD9205765
_publ_section_title
;
Structure prediction by ZEFSAII (Michael W. Deem and Ramdas Pophale) SiO2 
 PCOD9205765
Probable space group: C 2/M
;
_chemical_formula_sum "Si O2"
_cell_formula_units_Z 56
_cell_length_a 17.042314
_cell_length_b 15.694599
_cell_length_c 13.633184
_cell_angle_alpha 90.000000
_cell_angle_beta 116.993597
_cell_angle_gamma 90.000000
_cell_volume 3249.239265
_symmetry_space_group_name_H-M "C 2/M"
_symmetry_group_IT_number 12
_symmetry_cell_setting 'monoclinic'
loop_
_space_group_symop_operation_xyz
x,y,z
-x,y,-z
-x,-y,-z
x,-y,z
1/2+x,1/2+y,z
1/2-x,1/2+y,-z
1/2-x,1/2-y,-z
1/2+x,1/2-y,z
loop_
_atom_site_type_symbol
_atom_site_label
_atom_site_fract_x
_atom_site_fract_y
_atom_site_fract_z
Si Si1 0.414307 0.098989 0.521585
Si Si2 0.111538 0.897528 0.154578
Si Si3 0.087816 0.603072 0.989818
Si Si4 0.232078 0.803732 0.889188
Si Si5 0.419145 0.397266 0.088580
Si Si6 0.048025 0.600286 0.750429
Si Si7 0.199961 0.330915 0.703118
O O1 0.500000 0.093583 0.500000
O O2 0.459336 0.132413 0.647207
O O3 0.346329 0.161709 0.429310
O O4 0.381538 0.000000 0.512174
O O5 0.201886 0.865969 0.250493
O O6 0.020929 0.869279 0.154301
O O7 0.110810 0.000000 0.154606
O O8 0.109115 0.871524 0.038294
O O9 0.097711 0.500000 0.994740
O O10 0.070390 0.635398 0.869431
O O11 0.178250 0.643872 0.077766
O O12 0.000000 0.623964 0.000000
O O13 0.148519 0.860669 0.872000
O O14 0.208623 0.751790 0.777396
O O15 0.250000 0.750000 0.000000
O O16 0.416420 0.500000 0.090379
O O17 0.032185 0.500000 0.752576
O O18 0.134283 0.611460 0.732189
#
# Coordination Sequence:
#
# PCOD9205765 Si02
#       7
#     8   8   8   8   8   8   8
#     4   8  15  27  47  74 101 130 163 201 248 297
#     4   9  16  27  45  65  90 124 161 202 243 287
#     4  10  21  36  53  73  99 134 172 204 237 289
#     4  12  21  30  44  71 102 135 160 194 251 300
#     4   9  18  31  43  60  90 130 169 197 233 291
#     4   9  16  30  51  75 103 132 164 203 246 298
#     4  11  18  27  44  75 104 127 153 199 249 301
#
# _framework density 17.234802999999999
#
# number of rings (size 3 to 8) (size 9 to 14) (size 15 to 20)
#    0.000    2.286    2.857    3.429    0.000    3.429 
#    0.000    0.000    0.000    0.857    3.714    0.000 
#    0.000   10.286    0.000    0.000    0.000    0.000 
#
# Total GULP energy -155875.530998 kJ/mol
# GULP energy per Si atom -5566.983250 kJ/mol
# Density = 1.719558 g / cm^3
# Si number density = 17.234803 Si / 1000 Ang^3
#
#
#
# Elastic Constant Matrix: (Units=GPa)
#
#
# Indices 1 2 3 4 5 6 
#
# 1 99.6356 31.5116 38.3921 0.0000 31.6424 0.0000
# 2 31.5116 33.6930 31.1579 0.0000 12.1197 0.0000
# 3 38.3921 31.1579 101.3535 0.0000 34.0043 0.0000
# 4 0.0000 0.0000 0.0000 18.9493 0.0000 -6.8406
# 5 31.6424 12.1197 34.0043 0.0000 25.7800 0.0000
# 6 0.0000 0.0000 0.0000 -6.8406 0.0000 -10.9909
#
#
#
# Elastic Compliance Matrix: (Units=1/GPa)
#
#
# Indices 1 2 3 4 5 6 
#
# 1 0.020943 -0.015351 0.005362 0.000000 -0.025562 0.000000
# 2 -0.015351 0.053056 -0.015155 0.000000 0.013890 0.000000
# 3 0.005362 -0.015155 0.022086 0.000000 -0.028588 0.000000
# 4 0.000000 0.000000 0.000000 0.043091 0.000000 -0.026819
# 5 -0.025562 0.013890 -0.028588 0.000000 0.101342 0.000000
# 6 0.000000 0.000000 0.000000 -0.026819 0.000000 -0.074292
#
#
# Mechanical properties :
#
#
# Convention : Reuss Voigt Hill
#
# Bulk Modulus (GPa) = 21.83619 48.53390 35.18505
# Shear Modulus (GPa) = 21.57216 15.65572 18.61394
#
# Velocity S-wave (km/s) = 3.54172 3.01720 3.28993
# Velocity P-wave (km/s) = 5.42424 6.35292 5.90686
#
# Compressibility (1/GPa) = 0.04579553
#
# Stress axis : x y z
#
# Youngs Moduli (GPa) = 47.74759 18.84801 45.27816
#
# Poissons Ratio (x) = 0.28934 -0.24278
# Poissons Ratio (y) = 0.73299 0.68621
# Poissons Ratio (z) = -0.25602 0.28565
#
# Static dielectric constant tensor:
#      x y z
#    x 1.576380 0.000000 -0.002040 
#    y 0.000000 1.617050 0.000000 
#    z -0.002040 0.000000 1.629870 
# 
# From -- ./inp_files/224893.got.cif
#   From: 2010.05.17/outbox.cif.g08.bks.cpg/sg12_113_cif.got.tgz:224893.got - 2010.06.03 13:09:07.
