data_PCOD9205108
_publ_section_title
;
Structure prediction by ZEFSAII (Michael W. Deem and Ramdas Pophale) SiO2 
 PCOD9205108
Probable space group: C 2/M
;
_chemical_formula_sum "Si O2"
_cell_formula_units_Z 56
_cell_length_a 8.013491
_cell_length_b 20.111209
_cell_length_c 21.913307
_cell_angle_alpha 90.000000
_cell_angle_beta 111.450100
_cell_angle_gamma 90.000000
_cell_volume 3286.961057
_symmetry_space_group_name_H-M "C 2/M"
_symmetry_group_IT_number 12
_symmetry_cell_setting 'monoclinic'
loop_
_space_group_symop_operation_xyz
x,y,z
-x,y,-z
-x,-y,-z
x,-y,z
1/2+x,1/2+y,z
1/2-x,1/2+y,-z
1/2-x,1/2-y,-z
1/2+x,1/2-y,z
loop_
_atom_site_type_symbol
_atom_site_label
_atom_site_fract_x
_atom_site_fract_y
_atom_site_fract_z
Si Si1 0.227580 0.174499 0.926458
Si Si2 0.026712 0.419026 0.334048
Si Si3 0.887716 0.575108 0.187595
Si Si4 0.075618 0.918886 0.575618
Si Si5 0.641384 0.419026 0.334048
Si Si6 0.874664 0.674499 0.073542
Si Si7 0.012526 0.075108 0.812405
O O1 0.160861 0.250000 0.910862
O O2 0.429070 0.172011 0.929070
O O3 0.115901 0.123625 0.871118
O O4 0.235412 0.158978 0.000000
O O5 0.022919 0.500000 0.334289
O O6 0.009929 0.400567 0.260276
O O7 0.845933 0.397361 0.345933
O O8 0.218113 0.397753 0.386223
O O9 0.943007 0.500000 0.177149
O O10 0.873665 0.623625 0.128882
O O11 0.690722 0.570818 0.190722
O O12 0.000000 0.897791 0.500000
O O13 0.945669 0.897753 0.613778
O O14 0.076441 0.000000 0.576440
O O15 0.645657 0.500000 0.334288
O O16 0.510621 0.400567 0.260275
O O17 0.088709 0.000000 0.822851
#
# Coordination Sequence:
#
# PCOD9205108 Si02
#       7
#     8   8   8   8   8   8   8
#     4  10  21  35  50  69  95 128 162 202 251 295
#     4   8  15  27  41  61  91 125 159 197 241 285
#     4   9  18  32  50  71  95 128 165 202 247 293
#     4   9  16  24  38  62  91 127 163 193 237 292
#     4   8  15  27  41  61  91 125 159 197 241 285
#     4  10  21  35  50  69  95 128 162 202 251 295
#     4   9  18  32  50  71  95 128 165 202 247 293
#
# _framework density 17.037013000000002
#
# number of rings (size 3 to 8) (size 9 to 14) (size 15 to 20)
#    0.000    3.000    0.000    2.571    2.000    3.429 
#    0.000    5.714    0.000    0.000    0.000    0.000 
#    0.000    1.143    0.571    0.000    0.000    0.000 
#
# Total GULP energy -155923.594692 kJ/mol
# GULP energy per Si atom -5568.699810 kJ/mol
# Density = 1.699824 g / cm^3
# Si number density = 17.037013 Si / 1000 Ang^3
#
#
#
# Elastic Constant Matrix: (Units=GPa)
#
#
# Indices 1 2 3 4 5 6 
#
# 1 64.5374 22.3965 68.0076 0.0000 0.0003 0.0000
# 2 22.3965 36.6386 66.9975 0.0000 0.0002 0.0000
# 3 68.0076 66.9975 178.8110 0.0000 0.0003 0.0000
# 4 0.0000 0.0000 0.0000 -5.4678 0.0000 0.0000
# 5 0.0003 0.0002 0.0003 0.0000 22.7384 0.0000
# 6 0.0000 0.0000 0.0000 0.0000 0.0000 18.1855
#
#
#
# Elastic Compliance Matrix: (Units=1/GPa)
#
#
# Indices 1 2 3 4 5 6 
#
# 1 0.026422 0.007066 -0.012697 0.000000 0.000000 0.000000
# 2 0.007066 0.088576 -0.035875 0.000000 0.000000 0.000000
# 3 -0.012697 -0.035875 0.023863 0.000000 0.000000 0.000000
# 4 0.000000 0.000000 0.000000 -0.182889 0.000000 0.000000
# 5 0.000000 0.000000 0.000000 0.000000 0.043979 0.000000
# 6 0.000000 0.000000 0.000000 0.000000 0.000000 0.054989
#
#
# Mechanical properties :
#
#
# Convention : Reuss Voigt Hill
#
# Bulk Modulus (GPa) = 17.90538 66.08780 41.99659
# Shear Modulus (GPa) = 31.93472 15.26358 23.59915
#
# Velocity S-wave (km/s) = 4.33417 2.99642 3.72582
# Velocity P-wave (km/s) = 5.96483 7.13066 6.57364
#
# Compressibility (1/GPa) = 0.05584912
#
# Stress axis : x y z
#
# Youngs Moduli (GPa) = 37.84704 11.28969 41.90541
#
# Poissons Ratio (x) = -0.07977 0.53205
# Poissons Ratio (y) = -0.26741 1.50337
# Poissons Ratio (z) = 0.48053 0.40502
#
# Static dielectric constant tensor:
#      x y z
#    x 1.603760 0.000000 0.000000 
#    y 0.000000 1.507090 0.000000 
#    z 0.000000 0.000000 1.603470 
# 
# From -- ./inp_files/258217.got.cif
#   From: 2010.05.17/outbox.cif.g08.bks.cpg/sg12_130_cif.got.tgz:258217.got - 2010.06.03 13:09:07.
