data_PCOD9205088
_publ_section_title
;
Structure prediction by ZEFSAII (Michael W. Deem and Ramdas Pophale) SiO2 
 PCOD9205088
Probable space group: C 2/M
;
_chemical_formula_sum "Si O2"
_cell_formula_units_Z 56
_cell_length_a 15.797475
_cell_length_b 7.451658
_cell_length_c 18.820354
_cell_angle_alpha 90.000000
_cell_angle_beta 63.660493
_cell_angle_gamma 90.000000
_cell_volume 1985.472927
_symmetry_space_group_name_H-M "C 2/M"
_symmetry_group_IT_number 12
_symmetry_cell_setting 'monoclinic'
loop_
_space_group_symop_operation_xyz
x,y,z
-x,y,-z
-x,-y,-z
x,-y,z
1/2+x,1/2+y,z
1/2-x,1/2+y,-z
1/2-x,1/2-y,-z
1/2+x,1/2-y,z
loop_
_atom_site_type_symbol
_atom_site_label
_atom_site_fract_x
_atom_site_fract_y
_atom_site_fract_z
Si Si1 0.660602 0.719261 0.620736
Si Si2 0.427427 0.215919 0.804820
Si Si3 0.883784 0.210927 0.514059
Si Si4 0.788448 0.782763 0.093088
Si Si5 0.458485 0.208896 0.944134
Si Si6 0.609664 0.711105 0.335146
Si Si7 0.172006 0.206832 0.769564
O O1 0.656345 0.500000 0.623588
O O2 0.770639 0.771993 0.570203
O O3 0.609143 0.786141 0.568574
O O4 0.634143 0.787472 0.709584
O O5 0.319110 0.276567 0.858699
O O6 0.478044 0.281082 0.858083
O O7 0.448709 0.270927 0.716143
O O8 0.428669 0.000000 0.805368
O O9 0.925259 0.277998 0.574416
O O10 0.907919 0.000000 0.498018
O O11 0.839993 0.717194 0.146864
O O12 0.788981 0.000000 0.092713
O O13 0.846663 0.716956 0.004045
O O14 0.483420 0.000000 0.933684
O O15 0.500000 0.297082 0.000000
O O16 0.624113 0.500000 0.339789
O O17 0.712938 0.792522 0.282313
O O18 0.145522 0.000000 0.781235
#
# Coordination Sequence:
#
# PCOD9205088 Si02
#       7
#     8   8   8   8   8   8   8
#     4   8  12  19  31  46  71 108 140 164 196 238
#     4   9  18  32  47  63  85 112 142 173 207 253
#     4   8  13  19  28  47  75 105 136 168 200 235
#     4   9  17  29  46  67  88 111 140 172 206 247
#     4  10  21  35  49  65  85 109 138 173 213 256
#     4   9  15  22  35  57  82 107 139 175 207 240
#     4   8  14  24  37  55  80 110 142 171 202 244
#
# _framework density 28.20487
#
# number of rings (size 3 to 8) (size 9 to 14) (size 15 to 20)
#    0.000    3.286    0.000    1.714    0.000    3.714 
#    0.000    0.000    0.000    0.000    0.000    0.000 
#    0.000    1.143    0.000   14.286    0.000    8.571 
#
# Total GULP energy -156586.008101 kJ/mol
# GULP energy per Si atom -5592.357432 kJ/mol
# Density = 2.814067 g / cm^3
# Si number density = 28.204870 Si / 1000 Ang^3
#
#
#
# Elastic Constant Matrix: (Units=GPa)
#
#
# Indices 1 2 3 4 5 6 
#
# 1 105.1898 19.8369 59.4280 0.0000 36.1404 0.0000
# 2 19.8369 121.9907 12.0951 0.0001 -0.6106 0.0001
# 3 59.4280 12.0951 295.2381 0.0000 31.2253 0.0000
# 4 0.0000 0.0001 0.0000 9.4571 0.0000 1.9521
# 5 36.1404 -0.6106 31.2253 0.0000 79.4603 0.0000
# 6 0.0000 0.0001 0.0000 1.9521 0.0000 14.4978
#
#
#
# Elastic Compliance Matrix: (Units=1/GPa)
#
#
# Indices 1 2 3 4 5 6 
#
# 1 0.012688 -0.001895 -0.001945 0.000000 -0.005021 0.000000
# 2 -0.001895 0.008517 -0.000068 0.000000 0.000954 0.000000
# 3 -0.001945 -0.000068 0.003848 0.000000 -0.000628 0.000000
# 4 0.000000 0.000000 0.000000 0.108763 0.000000 -0.014644
# 5 -0.005021 0.000954 -0.000628 0.000000 0.015123 0.000000
# 6 0.000000 0.000000 0.000000 -0.014644 0.000000 0.070948
#
#
# Mechanical properties :
#
#
# Convention : Reuss Voigt Hill
#
# Bulk Modulus (GPa) = 58.02159 78.34873 68.18516
# Shear Modulus (GPa) = 21.41786 49.42030 35.41908
#
# Velocity S-wave (km/s) = 2.75865 4.19046 3.54754
# Velocity P-wave (km/s) = 5.54644 7.15905 6.40371
#
# Compressibility (1/GPa) = 0.01723496
#
# Stress axis : x y z
#
# Youngs Moduli (GPa) = 78.81355 117.41056 259.88452
#
# Poissons Ratio (x) = 0.22255 0.50555
# Poissons Ratio (y) = 0.14939 0.01776
# Poissons Ratio (z) = 0.15332 0.00802
#
# Static dielectric constant tensor:
#      x y z
#    x 2.349320 0.000000 0.029800 
#    y 0.000000 2.071500 0.000000 
#    z 0.029800 0.000000 2.205580 
# 
# From -- ./inp_files/280211.got.cif
#   From: 2010.05.17/outbox.cif.g08.bks.cpg/sg12_141_cif.got.tgz:280211.got - 2010.06.03 13:09:07.
