data_PCOD9205242
_publ_section_title
;
Structure prediction by ZEFSAII (Michael W. Deem and Ramdas Pophale) SiO2 
 PCOD9205242
Probable space group: C 2/M
;
_chemical_formula_sum "Si O2"
_cell_formula_units_Z 48
_cell_length_a 17.558231
_cell_length_b 25.395027
_cell_length_c 7.117452
_cell_angle_alpha 90.000000
_cell_angle_beta 124.606130
_cell_angle_gamma 90.000000
_cell_volume 2612.123566
_symmetry_space_group_name_H-M "C 2/M"
_symmetry_group_IT_number 12
_symmetry_cell_setting 'monoclinic'
loop_
_space_group_symop_operation_xyz
x,y,z
-x,y,-z
-x,-y,-z
x,-y,z
1/2+x,1/2+y,z
1/2-x,1/2+y,-z
1/2-x,1/2-y,-z
1/2+x,1/2-y,z
loop_
_atom_site_type_symbol
_atom_site_label
_atom_site_fract_x
_atom_site_fract_y
_atom_site_fract_z
Si Si1 0.590027 0.753804 0.769239
Si Si2 0.402734 0.170669 0.873453
Si Si3 0.891784 0.941021 0.304995
Si Si4 0.905907 0.856474 0.995914
Si Si5 0.341393 0.746844 0.502872
Si Si6 0.801870 0.132128 0.481689
O O1 0.500000 0.753083 0.500000
O O2 0.669616 0.764291 0.725522
O O3 0.600271 0.800325 0.931889
O O4 0.594007 0.699813 0.895733
O O5 0.408261 0.216843 0.720820
O O6 0.307032 0.140564 0.706469
O O7 0.500000 0.140261 0.000000
O O8 0.840362 0.915412 0.412016
O O9 0.000000 0.945121 0.500000
O O10 0.856551 0.000000 0.214481
O O11 0.891204 0.900877 0.131206
O O12 0.823837 0.866820 0.732554
O O13 0.000000 0.860745 0.000000
O O14 0.250000 0.750000 0.500000
O O15 0.359296 0.684824 0.503106
#
# Coordination Sequence:
#
# PCOD9205242 Si02
#       6
#     8   8   8   8   8   8
#     4  12  21  34  58  83 123 166 200 242 292 346
#     4  11  23  39  56  88 125 163 209 246 284 354
#     4  11  24  42  64  90 119 154 197 252 314 368
#     4  12  22  36  60  89 124 160 197 244 301 365
#     4  10  21  35  52  83 115 159 202 236 287 346
#     4  11  23  39  60  87 122 162 202 247 303 359
#
# _framework density 18.375854
#
# number of rings (size 3 to 8) (size 9 to 14) (size 15 to 20)
#    0.000    0.833    6.667    2.000    0.000    6.333 
#    0.000    0.000    0.000    0.500    0.000    1.167 
#    0.000    0.000    0.000    0.000    0.000    0.000 
#
# Total GULP energy -133764.831464 kJ/mol
# GULP energy per Si atom -5573.534644 kJ/mol
# Density = 1.833403 g / cm^3
# Si number density = 18.375854 Si / 1000 Ang^3
#
#
#
# Elastic Constant Matrix: (Units=GPa)
#
#
# Indices 1 2 3 4 5 6 
#
# 1 92.3788 27.3574 59.6153 0.0000 -1.0848 0.0000
# 2 27.3574 60.0561 31.6248 0.0000 -2.2498 0.0000
# 3 59.6153 31.6248 140.9029 0.0000 -7.5939 0.0000
# 4 0.0000 0.0000 0.0000 6.1254 0.0000 15.7806
# 5 -1.0848 -2.2498 -7.5939 0.0000 45.2181 0.0000
# 6 0.0000 0.0000 0.0000 15.7806 0.0000 -26.8698
#
#
#
# Elastic Compliance Matrix: (Units=1/GPa)
#
#
# Indices 1 2 3 4 5 6 
#
# 1 0.015785 -0.004174 -0.005785 0.000000 -0.000800 0.000000
# 2 -0.004174 0.019989 -0.002697 0.000000 0.000442 0.000000
# 3 -0.005785 -0.002697 0.010228 0.000000 0.001445 0.000000
# 4 0.000000 0.000000 0.000000 0.064963 0.000000 0.038153
# 5 -0.000800 0.000442 0.001445 0.000000 0.022360 0.000000
# 6 0.000000 0.000000 0.000000 0.038153 0.000000 -0.014809
#
#
# Mechanical properties :
#
#
# Convention : Reuss Voigt Hill
#
# Bulk Modulus (GPa) = 48.33130 58.94810 53.63970
# Shear Modulus (GPa) = 33.17320 16.54408 24.85864
#
# Velocity S-wave (km/s) = 4.25344 3.00378 3.68202
# Velocity P-wave (km/s) = 7.10500 6.64673 6.87968
#
# Compressibility (1/GPa) = 0.02069053
#
# Stress axis : x y z
#
# Youngs Moduli (GPa) = 63.35177 50.02718 97.77411
#
# Poissons Ratio (x) = 0.20883 0.56560
# Poissons Ratio (y) = 0.26445 0.26365
# Poissons Ratio (z) = 0.36647 0.13490
#
# Static dielectric constant tensor:
#      x y z
#    x 1.787280 0.000000 0.018960 
#    y 0.000000 1.634330 0.000000 
#    z 0.018960 0.000000 1.774600 
# 
# From -- ./inp_files/17499.got.cif
#   From: 2010.05.17/outbox.cif.g08.bks.cpg/sg12_9_cif.got.tgz:17499.got - 2010.06.03 13:09:07.
