data_PCOD9205650
_publ_section_title
;
Structure prediction by ZEFSAII (Michael W. Deem and Ramdas Pophale) SiO2 
 PCOD9205650
Probable space group: C 2/M
;
_chemical_formula_sum "Si O2"
_cell_formula_units_Z 64
_cell_length_a 19.582487
_cell_length_b 14.484695
_cell_length_c 26.149153
_cell_angle_alpha 90.000000
_cell_angle_beta 155.379233
_cell_angle_gamma 90.000000
_cell_volume 3090.045338
_symmetry_space_group_name_H-M "C 2/M"
_symmetry_group_IT_number 12
_symmetry_cell_setting 'monoclinic'
loop_
_space_group_symop_operation_xyz
x,y,z
-x,y,-z
-x,-y,-z
x,-y,z
1/2+x,1/2+y,z
1/2-x,1/2+y,-z
1/2-x,1/2-y,-z
1/2+x,1/2-y,z
loop_
_atom_site_type_symbol
_atom_site_label
_atom_site_fract_x
_atom_site_fract_y
_atom_site_fract_z
Si Si1 0.403536 0.210315 0.669878
Si Si2 0.470533 0.265320 0.602501
Si Si3 0.962274 0.696955 0.050849
Si Si4 0.525472 0.603607 0.908248
Si Si5 0.498677 0.099593 0.559969
Si Si6 0.111138 0.394167 0.892133
Si Si7 0.385081 0.599847 0.704148
Si Si8 0.743869 0.109268 0.177303
O O1 0.441961 0.210543 0.636110
O O2 0.206359 0.206557 0.540245
O O3 0.494455 0.135826 0.766074
O O4 0.459639 0.310472 0.729266
O O5 0.563331 0.192457 0.629294
O O6 0.577735 0.354597 0.686649
O O7 0.990611 0.806995 0.067402
O O8 0.921149 0.670105 0.081010
O O9 0.119432 0.641411 0.137192
O O10 0.818464 0.663306 0.915387
O O11 0.514151 0.500000 0.923028
O O12 0.397887 0.609041 0.774140
O O13 0.703125 0.611845 0.001789
O O14 0.500000 0.105474 0.500000
O O15 0.304765 0.097688 0.441586
O O16 0.571448 0.000000 0.624820
O O17 0.080659 0.500000 0.886613
O O18 0.460879 0.500000 0.742445
O O19 0.734398 0.000000 0.163197
#
# Coordination Sequence:
#
# PCOD9205650 Si02
#       8
#     8   8   8   8   8   8   8   8
#     4  10  21  39  57  88 121 157 195 245 307 356
#     4  10  23  38  60  87 121 156 199 248 295 352
#     4  11  22  42  62  85 121 159 201 253 301 353
#     4  10  21  35  60  94 118 146 194 251 307 357
#     4   9  19  36  59  85 115 156 197 237 295 358
#     4  11  22  36  60  89 119 157 200 251 304 355
#     4   9  18  33  55  86 117 147 193 247 291 351
#     4  11  25  42  61  86 118 163 211 246 290 356
#
# _framework density 20.711670999999999
#
# number of rings (size 3 to 8) (size 9 to 14) (size 15 to 20)
#    0.000    1.875    1.250    2.625    3.500    1.500 
#    0.000    4.375    0.000    1.875    0.000    0.000 
#    0.000    0.000    0.000    0.000    0.000    0.000 
#
# Total GULP energy -178713.051911 kJ/mol
# GULP energy per Si atom -5584.782872 kJ/mol
# Density = 2.066453 g / cm^3
# Si number density = 20.711671 Si / 1000 Ang^3
#
#
#
# Elastic Constant Matrix: (Units=GPa)
#
#
# Indices 1 2 3 4 5 6 
#
# 1 29.1444 9.4782 -0.0037 -0.0023 -3.0244 0.0002
# 2 9.4782 136.5073 33.5790 -0.0072 -13.7906 -0.0006
# 3 -0.0037 33.5790 74.2888 -0.0149 0.9735 -0.0032
# 4 -0.0023 -0.0072 -0.0149 22.5468 -0.0002 5.2080
# 5 -3.0244 -13.7906 0.9735 -0.0002 20.5223 0.0000
# 6 0.0002 -0.0006 -0.0032 5.2080 0.0000 14.4150
#
#
#
# Elastic Compliance Matrix: (Units=1/GPa)
#
#
# Indices 1 2 3 4 5 6 
#
# 1 0.035449 -0.002348 0.001016 0.000004 0.003598 -0.000002
# 2 -0.002348 0.009128 -0.004204 0.000000 0.005987 -0.000001
# 3 0.001016 -0.004204 0.015406 0.000009 -0.003406 0.000000
# 4 0.000004 0.000000 0.000009 0.048391 0.000001 -0.017483
# 5 0.003598 0.005987 -0.003406 0.000001 0.053443 -0.000001
# 6 -0.000002 -0.000001 0.000000 -0.017483 -0.000001 0.075689
#
#
# Mechanical properties :
#
#
# Convention : Reuss Voigt Hill
#
# Bulk Modulus (GPa) = 20.44564 36.22750 28.33657
# Shear Modulus (GPa) = 18.87643 24.62260 21.74952
#
# Velocity S-wave (km/s) = 3.02220 3.45168 3.24405
# Velocity P-wave (km/s) = 4.69800 5.78055 5.26716
#
# Compressibility (1/GPa) = 0.04891019
#
# Stress axis : x y z
#
# Youngs Moduli (GPa) = 28.20956 109.55685 64.90956
#
# Poissons Ratio (x) = 0.25720 -0.06593
# Poissons Ratio (y) = 0.06623 0.27290
# Poissons Ratio (z) = -0.02865 0.46061
#
# Static dielectric constant tensor:
#      x y z
#    x 1.750530 0.000000 0.032430 
#    y 0.000000 1.767120 0.000000 
#    z 0.032430 0.000000 1.755420 
# 
# From -- ./inp_files/344101.got.cif
#   From: 2010.05.17/outbox.cif.g08.bks.cpg/sg12_173_cif.got.tgz:344101.got - 2010.06.03 13:09:07.
