data_PCOD9205711
_publ_section_title
;
Structure prediction by ZEFSAII (Michael W. Deem and Ramdas Pophale) SiO2 
 PCOD9205711
Probable space group: C 2/M
;
_chemical_formula_sum "Si O2"
_cell_formula_units_Z 56
_cell_length_a 14.350823
_cell_length_b 7.453247
_cell_length_c 23.872986
_cell_angle_alpha 90.000000
_cell_angle_beta 109.231661
_cell_angle_gamma 90.000000
_cell_volume 2410.962918
_symmetry_space_group_name_H-M "C 2/M"
_symmetry_group_IT_number 12
_symmetry_cell_setting 'monoclinic'
loop_
_space_group_symop_operation_xyz
x,y,z
-x,y,-z
-x,-y,-z
x,-y,z
1/2+x,1/2+y,z
1/2-x,1/2+y,-z
1/2-x,1/2-y,-z
1/2+x,1/2-y,z
loop_
_atom_site_type_symbol
_atom_site_label
_atom_site_fract_x
_atom_site_fract_y
_atom_site_fract_z
Si Si1 0.720702 0.789854 0.414454
Si Si2 0.706658 0.716857 0.281694
Si Si3 0.695279 0.292090 0.076292
Si Si4 0.899102 0.219632 0.050602
Si Si5 0.320111 0.217715 0.200441
Si Si6 0.913036 0.296482 0.518028
Si Si7 0.020495 0.791803 0.175752
O O1 0.711559 0.774448 0.346512
O O2 0.818372 0.700848 0.458606
O O3 0.627239 0.719151 0.431517
O O4 0.729580 0.000000 0.430689
O O5 0.703841 0.500000 0.282288
O O6 0.797729 0.769209 0.259654
O O7 0.609153 0.784206 0.230007
O O8 0.668340 0.500000 0.079292
O O9 0.799481 0.280230 0.063080
O O10 0.728462 0.219525 0.143012
O O11 0.615569 0.219007 0.016344
O O12 0.988707 0.280174 0.108189
O O13 0.899223 0.000000 0.050351
O O14 0.421449 0.283270 0.193707
O O15 0.322111 0.000000 0.197310
O O16 0.946698 0.500000 0.537769
O O17 0.000000 0.207456 0.500000
O O18 0.045737 0.000000 0.171162
#
# Coordination Sequence:
#
# PCOD9205711 Si02
#       7
#     8   8   8   8   8   8   8
#     4  10  21  36  56  83 110 136 170 207 241 285
#     4  10  21  36  51  70 104 143 172 204 250 299
#     4   8  13  23  41  64  88 117 158 207 256 305
#     4   8  13  23  41  64  89 118 156 206 260 306
#     4   9  18  32  49  69  95 131 172 211 255 307
#     4   9  19  38  62  85 110 138 165 198 244 293
#     4   9  18  32  49  70  97 131 170 212 259 307
#
# _framework density 23.227233999999999
#
# number of rings (size 3 to 8) (size 9 to 14) (size 15 to 20)
#    0.000    3.000    0.000    0.429    0.000    3.143 
#    0.000    5.000    0.000    4.286    0.000    0.000 
#    0.000   24.000    0.000    0.000    0.000    0.000 
#
# Total GULP energy -156217.406931 kJ/mol
# GULP energy per Si atom -5579.193105 kJ/mol
# Density = 2.317437 g / cm^3
# Si number density = 23.227234 Si / 1000 Ang^3
#
#
#
# Elastic Constant Matrix: (Units=GPa)
#
#
# Indices 1 2 3 4 5 6 
#
# 1 82.0294 -0.8189 27.0026 0.0000 -26.1888 0.0000
# 2 -0.8189 80.2710 -2.2737 0.0000 -2.8708 0.0000
# 3 27.0026 -2.2737 129.7034 0.0000 -37.8078 0.0000
# 4 0.0000 0.0000 0.0000 12.2903 0.0000 0.3053
# 5 -26.1888 -2.8708 -37.8078 0.0000 33.4851 0.0000
# 6 0.0000 0.0000 0.0000 0.3053 0.0000 0.9571
#
#
#
# Elastic Compliance Matrix: (Units=1/GPa)
#
#
# Indices 1 2 3 4 5 6 
#
# 1 0.016302 0.000660 0.000523 0.000000 0.013397 0.000000
# 2 0.000660 0.012578 0.000817 0.000000 0.002517 0.000000
# 3 0.000523 0.000817 0.011559 0.000000 0.013531 0.000000
# 4 0.000000 0.000000 0.000000 0.082015 0.000000 -0.026167
# 5 0.013397 0.002517 0.013531 0.000000 0.055835 0.000000
# 6 0.000000 0.000000 0.000000 -0.026167 0.000000 1.053219
#
#
# Mechanical properties :
#
#
# Convention : Reuss Voigt Hill
#
# Bulk Modulus (GPa) = 22.50282 37.75819 30.13051
# Shear Modulus (GPa) = 4.02472 27.21943 15.62208
#
# Velocity S-wave (km/s) = 1.31777 3.42698 2.59622
# Velocity P-wave (km/s) = 3.46764 5.65245 4.68907
#
# Compressibility (1/GPa) = 0.04443888
#
# Stress axis : x y z
#
# Youngs Moduli (GPa) = 61.34069 79.50591 86.50929
#
# Poissons Ratio (x) = -0.05249 -0.04522
# Poissons Ratio (y) = -0.04050 -0.07065
# Poissons Ratio (z) = -0.03207 -0.06493
#
# Static dielectric constant tensor:
#      x y z
#    x 1.898580 0.000000 -0.017730 
#    y 0.000000 2.065400 0.000000 
#    z -0.017730 0.000000 1.855800 
# 
# From -- ./inp_files/338178.got.cif
#   From: 2010.05.17/outbox.cif.g08.bks.cpg/sg12_170_cif.got.tgz:338178.got - 2010.06.03 13:09:07.
