data_PCOD9205303
_publ_section_title
;
Structure prediction by ZEFSAII (Michael W. Deem and Ramdas Pophale) SiO2 
 PCOD9205303
Probable space group: C 2/M
;
_chemical_formula_sum "Si O2"
_cell_formula_units_Z 64
_cell_length_a 30.273375
_cell_length_b 13.929102
_cell_length_c 11.309314
_cell_angle_alpha 90.000000
_cell_angle_beta 41.001803
_cell_angle_gamma 90.000000
_cell_volume 3128.807611
_symmetry_space_group_name_H-M "C 2/M"
_symmetry_group_IT_number 12
_symmetry_cell_setting 'monoclinic'
loop_
_space_group_symop_operation_xyz
x,y,z
-x,y,-z
-x,-y,-z
x,-y,z
1/2+x,1/2+y,z
1/2-x,1/2+y,-z
1/2-x,1/2-y,-z
1/2+x,1/2-y,z
loop_
_atom_site_type_symbol
_atom_site_label
_atom_site_fract_x
_atom_site_fract_y
_atom_site_fract_z
Si Si1 0.357798 0.274313 0.672117
Si Si2 0.692205 0.889505 0.616872
Si Si3 0.366019 0.611429 0.893899
Si Si4 0.281181 0.392500 0.641161
Si Si5 0.914535 0.106183 0.215103
Si Si6 0.000253 0.815785 0.255862
Si Si7 0.936423 0.300901 0.046288
Si Si8 0.219488 0.613814 0.295224
O O1 0.360386 0.311877 0.799796
O O2 0.301987 0.337921 0.716178
O O3 0.432595 0.294223 0.466825
O O4 0.328827 0.169391 0.699255
O O5 0.731460 0.843956 0.647817
O O6 0.616375 0.880833 0.813755
O O7 0.700707 0.852387 0.466504
O O8 0.716155 0.000000 0.562400
O O9 0.362462 0.500000 0.858991
O O10 0.439529 0.626117 0.804364
O O11 0.299405 0.627114 0.109084
O O12 0.257193 0.500000 0.719509
O O13 0.349461 0.398924 0.428475
O O14 0.973900 0.131401 0.188878
O O15 0.905102 0.197489 0.149517
O O16 0.922263 0.000000 0.145325
O O17 0.035611 0.717246 0.140646
O O18 0.000000 0.317163 0.000000
O O19 0.206590 0.500000 0.314398
#
# Coordination Sequence:
#
# PCOD9205303 Si02
#       8
#     8   8   8   8   8   8   8   8
#     4  11  22  41  63  83 120 164 203 248 301 359
#     4  10  21  38  60  86 119 157 198 247 300 357
#     4  11  24  40  62  92 123 158 205 257 308 362
#     4   9  19  33  56  86 113 148 193 238 297 362
#     4   9  18  32  50  77 115 151 180 224 292 362
#     4  10  22  36  56  88 121 155 199 245 296 362
#     4  10  21  35  53  84 118 154 197 238 295 358
#     4  10  23  41  62  91 121 158 206 254 307 359
#
# _framework density 20.455075000000001
#
# number of rings (size 3 to 8) (size 9 to 14) (size 15 to 20)
#    0.000    2.000    0.000    3.750    3.500    6.000 
#    0.000    0.625    0.000    1.500    0.000    0.000 
#    0.000    0.000    0.000    0.000    0.000    0.000 
#
# Total GULP energy -178380.855774 kJ/mol
# GULP energy per Si atom -5574.401743 kJ/mol
# Density = 2.040852 g / cm^3
# Si number density = 20.455075 Si / 1000 Ang^3
#
#
#
# Elastic Constant Matrix: (Units=GPa)
#
#
# Indices 1 2 3 4 5 6 
#
# 1 88.0443 22.0822 16.3575 0.0000 -10.2962 0.0000
# 2 22.0822 56.3609 12.7616 0.0000 -6.6924 0.0000
# 3 16.3575 12.7616 59.0868 0.0000 -5.9716 0.0000
# 4 0.0000 0.0000 0.0000 19.1958 0.0000 6.9317
# 5 -10.2962 -6.6924 -5.9716 0.0000 23.8831 0.0000
# 6 0.0000 0.0000 0.0000 6.9317 0.0000 0.6812
#
#
#
# Elastic Compliance Matrix: (Units=1/GPa)
#
#
# Indices 1 2 3 4 5 6 
#
# 1 0.013319 -0.004209 -0.002377 0.000000 0.003968 0.000000
# 2 -0.004209 0.020432 -0.002926 0.000000 0.003179 0.000000
# 3 -0.002377 -0.002926 0.018495 0.000000 0.002780 0.000000
# 4 0.000000 0.000000 0.000000 -0.019480 0.000000 0.198211
# 5 0.003968 0.003179 0.002780 0.000000 0.045167 0.000000
# 6 0.000000 0.000000 0.000000 0.198211 0.000000 -0.548905
#
#
# Mechanical properties :
#
#
# Convention : Reuss Voigt Hill
#
# Bulk Modulus (GPa) = 30.10110 33.98829 32.04470
# Shear Modulus (GPa) = -11.34116 18.90475 3.78180
#
# Velocity S-wave (km/s) = -2.35721 3.04338 1.36119
# Velocity P-wave (km/s) = 2.70907 5.38532 4.26267
#
# Compressibility (1/GPa) = 0.03322137
#
# Stress axis : x y z
#
# Youngs Moduli (GPa) = 75.07907 48.94284 54.06776
#
# Poissons Ratio (x) = 0.20600 0.12853
# Poissons Ratio (y) = 0.31601 0.15822
# Poissons Ratio (z) = 0.17848 0.14323
#
# Static dielectric constant tensor:
#      x y z
#    x 1.740050 0.000000 -0.002410 
#    y 0.000000 1.797700 0.000000 
#    z -0.002410 0.000000 1.778420 
# 
# From -- ./inp_files/183769.got.cif
#   From: 2010.05.17/outbox.cif.g08.bks.cpg/sg12_92_cif.got.tgz:183769.got - 2010.06.03 13:09:07.
