data_PCOD9205971
_publ_section_title
;
Structure prediction by ZEFSAII (Michael W. Deem and Ramdas Pophale) SiO2 
 PCOD9205971
Probable space group: C 2/M
;
_chemical_formula_sum "Si O2"
_cell_formula_units_Z 64
_cell_length_a 33.182049
_cell_length_b 7.789113
_cell_length_c 20.353795
_cell_angle_alpha 90.000000
_cell_angle_beta 148.154563
_cell_angle_gamma 90.000000
_cell_volume 2775.656796
_symmetry_space_group_name_H-M "C 2/M"
_symmetry_group_IT_number 12
_symmetry_cell_setting 'monoclinic'
loop_
_space_group_symop_operation_xyz
x,y,z
-x,y,-z
-x,-y,-z
x,-y,z
1/2+x,1/2+y,z
1/2-x,1/2+y,-z
1/2-x,1/2-y,-z
1/2+x,1/2-y,z
loop_
_atom_site_type_symbol
_atom_site_label
_atom_site_fract_x
_atom_site_fract_y
_atom_site_fract_z
Si Si1 0.984720 0.692639 0.073494
Si Si2 0.587136 0.789281 0.634600
Si Si3 0.447476 0.700672 0.158604
Si Si4 0.839008 0.704550 0.125850
Si Si5 0.151257 0.804309 0.330297
Si Si6 0.197200 0.700117 0.671882
Si Si7 0.339592 0.708064 0.797392
Si Si8 0.120891 0.208260 0.430406
O O1 0.012100 0.500000 0.100088
O O2 0.938587 0.701614 0.078093
O O3 0.059777 0.805280 0.189653
O O4 0.925301 0.746686 0.935891
O O5 0.500000 0.735044 0.500000
O O6 0.619667 0.733164 0.750179
O O7 0.644367 0.728120 0.656367
O O8 0.586602 0.000000 0.632953
O O9 0.449731 0.500000 0.144893
O O10 0.383110 0.729180 0.123198
O O11 0.530698 0.749557 0.302230
O O12 0.845736 0.500000 0.135247
O O13 0.750000 0.750000 0.000000
O O14 0.181840 0.724611 0.305015
O O15 0.157627 0.728284 0.412142
O O16 0.178636 0.000000 0.372669
O O17 0.208630 0.500000 0.704599
O O18 0.280423 0.773640 0.770081
O O19 0.154858 0.714368 0.543304
O O20 0.334400 0.500000 0.787570
O O21 0.127791 0.000000 0.442107
#
# Coordination Sequence:
#
# PCOD9205971 Si02
#       8
#     8   8   8   8   8   8   8   8
#     4  11  22  35  56  86 115 146 190 242 292 347
#     4   9  19  37  60  85 116 156 201 249 296 351
#     4  10  21  39  61  83 113 153 193 236 291 355
#     4  11  23  38  60  91 124 157 198 251 307 363
#     4   9  19  37  57  79 111 154 196 234 286 351
#     4  10  21  36  57  84 111 149 196 238 288 351
#     4  10  21  36  55  79 113 156 197 235 285 353
#     4   9  19  36  57  81 110 146 189 240 295 344
#
# _framework density 23.057604000000001
#
# number of rings (size 3 to 8) (size 9 to 14) (size 15 to 20)
#    0.000    2.125    0.000    3.750    1.750    6.500 
#    0.000    1.250    0.000    3.375    0.000    0.000 
#    0.000    0.000    0.000    0.000    0.000    0.000 
#
# Total GULP energy -178841.248390 kJ/mol
# GULP energy per Si atom -5588.789012 kJ/mol
# Density = 2.300512 g / cm^3
# Si number density = 23.057604 Si / 1000 Ang^3
#
#
#
# Elastic Constant Matrix: (Units=GPa)
#
#
# Indices 1 2 3 4 5 6 
#
# 1 139.8341 6.7217 24.6070 0.0000 -0.9326 0.0000
# 2 6.7217 44.8707 -1.8801 0.0000 4.7582 0.0000
# 3 24.6070 -1.8801 96.9564 0.0000 5.7255 0.0000
# 4 0.0000 0.0000 0.0000 15.4385 0.0000 -6.2633
# 5 -0.9326 4.7582 5.7255 0.0000 34.0053 0.0000
# 6 0.0000 0.0000 0.0000 -6.2633 0.0000 15.1055
#
#
#
# Elastic Compliance Matrix: (Units=1/GPa)
#
#
# Indices 1 2 3 4 5 6 
#
# 1 0.007568 -0.001294 -0.001989 0.000000 0.000723 0.000000
# 2 -0.001294 0.022881 0.000973 0.000000 -0.003401 0.000000
# 3 -0.001989 0.000973 0.010958 0.000000 -0.002036 0.000000
# 4 0.000000 0.000000 0.000000 0.077872 0.000000 0.032289
# 5 0.000723 -0.003401 -0.002036 0.000000 0.030246 0.000000
# 6 0.000000 0.000000 0.000000 0.032289 0.000000 0.079589
#
#
# Mechanical properties :
#
#
# Convention : Reuss Voigt Hill
#
# Bulk Modulus (GPa) = 27.18242 37.83981 32.51112
# Shear Modulus (GPa) = 20.32552 29.72403 25.02478
#
# Velocity S-wave (km/s) = 2.97225 3.59433 3.29799
# Velocity P-wave (km/s) = 4.85731 5.80278 5.35097
#
# Compressibility (1/GPa) = 0.03678848
#
# Stress axis : x y z
#
# Youngs Moduli (GPa) = 132.13028 43.70348 91.26017
#
# Poissons Ratio (x) = 0.05654 0.18148
# Poissons Ratio (y) = 0.17095 -0.08879
# Poissons Ratio (z) = 0.26275 -0.04252
#
# Static dielectric constant tensor:
#      x y z
#    x 1.872330 0.000000 0.006840 
#    y 0.000000 1.844450 0.000000 
#    z 0.006840 0.000000 1.836080 
# 
# From -- ./inp_files/295811.got.cif
#   From: 2010.05.17/outbox.cif.g08.bks.cpg/sg12_148_cif.got.tgz:295811.got - 2010.06.03 13:09:07.
