data_PCOD9205240
_publ_section_title
;
Structure prediction by ZEFSAII (Michael W. Deem and Ramdas Pophale) SiO2 
 PCOD9205240
Probable space group: C 2/M
;
_chemical_formula_sum "Si O2"
_cell_formula_units_Z 64
_cell_length_a 11.233318
_cell_length_b 21.535190
_cell_length_c 23.381683
_cell_angle_alpha 90.000000
_cell_angle_beta 147.112773
_cell_angle_gamma 90.000000
_cell_volume 3071.299497
_symmetry_space_group_name_H-M "C 2/M"
_symmetry_group_IT_number 12
_symmetry_cell_setting 'monoclinic'
loop_
_space_group_symop_operation_xyz
x,y,z
-x,y,-z
-x,-y,-z
x,-y,z
1/2+x,1/2+y,z
1/2-x,1/2+y,-z
1/2-x,1/2-y,-z
1/2+x,1/2-y,z
loop_
_atom_site_type_symbol
_atom_site_label
_atom_site_fract_x
_atom_site_fract_y
_atom_site_fract_z
Si Si1 0.577603 0.396998 0.095488
Si Si2 0.509159 0.256550 0.933712
Si Si3 0.543390 0.070542 0.249806
Si Si4 0.690688 0.424478 0.292680
Si Si5 0.244344 0.069657 0.939805
Si Si6 0.097351 0.074516 0.377359
Si Si7 0.122623 0.369832 0.164067
Si Si8 0.629015 0.075799 0.404413
O O1 0.580133 0.325140 0.115591
O O2 0.807855 0.430608 0.185255
O O3 0.399165 0.432031 0.060389
O O4 0.500000 0.395001 0.000000
O O5 0.369988 0.202207 0.848394
O O6 0.500000 0.249008 0.000000
O O7 0.750000 0.250000 0.000000
O O8 0.522136 0.114355 0.186125
O O9 0.684007 0.093552 0.361043
O O10 0.605638 0.000000 0.257442
O O11 0.679333 0.500000 0.282825
O O12 0.444914 0.400986 0.177121
O O13 0.737121 0.409766 0.377327
O O14 0.890699 0.403845 0.333293
O O15 0.286909 0.000000 0.937061
O O16 0.468505 0.101682 0.051395
O O17 0.196989 0.096158 0.477440
O O18 0.857679 0.099598 0.266848
O O19 0.087440 0.000000 0.375999
O O20 0.627610 0.000000 0.403350
#
# Coordination Sequence:
#
# PCOD9205240 Si02
#       8
#     8   8   8   8   8   8   8   8
#     4  11  20  35  59  85 115 156 204 263 304 355
#     4  11  24  44  63  86 123 171 225 257 302 371
#     4  11  21  36  61  93 123 157 205 261 319 368
#     4   9  18  32  52  80 113 154 200 242 295 365
#     4  11  20  31  54  89 122 149 188 245 316 375
#     4  10  21  35  52  81 121 163 202 245 310 378
#     4  12  24  36  55  85 128 164 193 241 313 385
#     4   9  18  34  57  83 114 155 206 258 301 360
#
# _framework density 20.838085
#
# number of rings (size 3 to 8) (size 9 to 14) (size 15 to 20)
#    0.000    1.500    3.750    2.625    1.750    2.500 
#    0.000    3.750    0.000    0.750    0.000    0.000 
#    0.000    0.000    0.000    0.000    0.000    0.000 
#
# Total GULP energy -178400.272027 kJ/mol
# GULP energy per Si atom -5575.008501 kJ/mol
# Density = 2.079066 g / cm^3
# Si number density = 20.838085 Si / 1000 Ang^3
#
#
#
# Elastic Constant Matrix: (Units=GPa)
#
#
# Indices 1 2 3 4 5 6 
#
# 1 82.7473 14.3845 31.4382 0.0005 -11.9490 0.0002
# 2 14.3845 52.2651 17.3437 0.0003 -18.8008 0.0004
# 3 31.4382 17.3437 116.0404 -0.0014 -22.5989 -0.0002
# 4 0.0005 0.0003 -0.0014 7.1009 0.0007 -7.4127
# 5 -11.9490 -18.8008 -22.5989 0.0007 32.9590 0.0006
# 6 0.0002 0.0004 -0.0002 -7.4127 0.0006 18.8916
#
#
#
# Elastic Compliance Matrix: (Units=1/GPa)
#
#
# Indices 1 2 3 4 5 6 
#
# 1 0.013888 -0.002197 -0.003113 -0.000003 0.001647 -0.000001
# 2 -0.002197 0.024535 -0.000579 -0.000006 0.012802 -0.000003
# 3 -0.003113 -0.000579 0.010691 0.000003 0.005872 0.000001
# 4 -0.000003 -0.000006 0.000003 0.238536 -0.000010 0.093598
# 5 0.001647 0.012802 0.005872 -0.000010 0.042267 -0.000005
# 6 -0.000001 -0.000003 0.000001 0.093598 -0.000005 0.089660
#
#
# Mechanical properties :
#
#
# Convention : Reuss Voigt Hill
#
# Bulk Modulus (GPa) = 26.78336 41.93172 34.35754
# Shear Modulus (GPa) = 11.26634 24.31604 17.79119
#
# Velocity S-wave (km/s) = 2.32773 3.41970 2.92513
# Velocity P-wave (km/s) = 4.48391 5.97987 5.28509
#
# Compressibility (1/GPa) = 0.03733661
#
# Stress axis : x y z
#
# Youngs Moduli (GPa) = 72.00695 40.75793 93.53486
#
# Poissons Ratio (x) = 0.08953 0.29121
# Poissons Ratio (y) = 0.15816 0.05413
# Poissons Ratio (z) = 0.22419 0.02359
#
# Static dielectric constant tensor:
#      x y z
#    x 1.867700 0.000000 -0.013760 
#    y 0.000000 1.723120 0.000000 
#    z -0.013760 0.000000 1.838330 
# 
# From -- ./inp_files/337134.got.cif
#   From: 2010.05.17/outbox.cif.g08.bks.cpg/sg12_169_cif.got.tgz:337134.got - 2010.06.03 13:09:07.
