data_PCOD9205141
_publ_section_title
;
Structure prediction by ZEFSAII (Michael W. Deem and Ramdas Pophale) SiO2 
 PCOD9205141
Probable space group: C 2/M
;
_chemical_formula_sum "Si O2"
_cell_formula_units_Z 50
_cell_length_a 14.650503
_cell_length_b 7.367789
_cell_length_c 18.958972
_cell_angle_alpha 90.000000
_cell_angle_beta 99.486469
_cell_angle_gamma 90.000000
_cell_volume 2018.479508
_symmetry_space_group_name_H-M "C 2/M"
_symmetry_group_IT_number 12
_symmetry_cell_setting 'monoclinic'
loop_
_space_group_symop_operation_xyz
x,y,z
-x,y,-z
-x,-y,-z
x,-y,z
1/2+x,1/2+y,z
1/2-x,1/2+y,-z
1/2-x,1/2-y,-z
1/2+x,1/2-y,z
loop_
_atom_site_type_symbol
_atom_site_label
_atom_site_fract_x
_atom_site_fract_y
_atom_site_fract_z
Si Si1 0.306026 0.283062 0.078014
Si Si2 0.299916 0.790930 0.800136
Si Si3 0.860246 0.780648 0.446298
Si Si4 0.987360 0.220315 0.165044
Si Si5 0.000000 0.500000 0.500000
Si Si6 0.324498 0.780560 0.646447
Si Si7 0.962325 0.793566 0.318259
O O1 0.308990 0.500000 0.084934
O O2 0.253771 0.209959 0.140591
O O3 0.412540 0.222995 0.097551
O O4 0.250000 0.250000 0.000000
O O5 0.408871 0.786283 0.831500
O O6 0.290100 0.716325 0.719825
O O7 0.270007 0.000000 0.790869
O O8 0.752467 0.733984 0.421206
O O9 0.920673 0.659172 0.505639
O O10 0.908120 0.716939 0.377833
O O11 0.870659 0.000000 0.456645
O O12 0.952863 0.282860 0.238321
O O13 0.993159 0.000000 0.168302
O O14 0.428111 0.709342 0.652974
O O15 0.330056 0.000000 0.650110
O O16 0.929036 0.000000 0.310156
#
# Coordination Sequence:
#
# PCOD9205141 Si02
#       7
#     8   8   8   8   2   8   8
#     4  10  21  35  51  71 108 151 190 223 277 341
#     4   9  18  34  55  81 107 140 181 233 284 332
#     4  10  22  41  62  84 120 156 190 237 284 342
#     4   9  18  34  55  81 107 140 181 233 284 332
#     4  12  26  40  64  86 120 158 202 224 280 342
#     4   9  18  34  61  87 112 141 185 237 291 336
#     4   9  18  34  61  87 112 141 185 237 291 336
#
# _framework density 24.771122999999999
#
# number of rings (size 3 to 8) (size 9 to 14) (size 15 to 20)
#    0.000    2.560    0.000    1.200    2.240    5.760 
#    0.000    4.000    3.520    0.000    0.000    0.000 
#    0.000    0.000    0.000    0.000    0.000    0.000 
#
# Total GULP energy -139508.311042 kJ/mol
# GULP energy per Si atom -5580.332442 kJ/mol
# Density = 2.471474 g / cm^3
# Si number density = 24.771123 Si / 1000 Ang^3
#
#
#
# Elastic Constant Matrix: (Units=GPa)
#
#
# Indices 1 2 3 4 5 6 
#
# 1 87.2218 1.6868 67.2767 0.0000 30.3887 0.0000
# 2 1.6868 112.5303 11.0795 0.0000 10.5914 0.0000
# 3 67.2767 11.0795 101.9662 0.0000 36.4188 0.0000
# 4 0.0000 0.0000 0.0000 -7.3600 0.0000 18.3016
# 5 30.3887 10.5914 36.4188 0.0000 44.2058 0.0000
# 6 0.0000 0.0000 0.0000 18.3016 0.0000 12.7424
#
#
#
# Elastic Compliance Matrix: (Units=1/GPa)
#
#
# Indices 1 2 3 4 5 6 
#
# 1 0.024335 0.001544 -0.014334 0.000000 -0.005289 0.000000
# 2 0.001544 0.009196 -0.001207 0.000000 -0.002270 0.000000
# 3 -0.014334 -0.001207 0.022350 0.000000 -0.008269 0.000000
# 4 0.000000 0.000000 0.000000 -0.029721 0.000000 0.042688
# 5 -0.005289 -0.002270 -0.008269 0.000000 0.033614 0.000000
# 6 0.000000 0.000000 0.000000 0.042688 0.000000 0.017167
#
#
# Mechanical properties :
#
#
# Convention : Reuss Voigt Hill
#
# Bulk Modulus (GPa) = 35.86126 51.31157 43.58642
# Shear Modulus (GPa) = 43.77142 24.69601 34.23371
#
# Velocity S-wave (km/s) = 4.20817 3.16090 3.72156
# Velocity P-wave (km/s) = 6.17415 5.83789 6.00837
#
# Compressibility (1/GPa) = 0.02788525
#
# Stress axis : x y z
#
# Youngs Moduli (GPa) = 41.09389 108.74415 44.74336
#
# Poissons Ratio (x) = -0.16794 0.64137
# Poissons Ratio (y) = -0.06347 0.05402
# Poissons Ratio (z) = 0.58906 0.13129
#
# Static dielectric constant tensor:
#      x y z
#    x 1.965980 0.000000 -0.012380 
#    y 0.000000 1.994670 0.000000 
#    z -0.012380 0.000000 2.060710 
# 
# From -- ./inp_files/308512.got.cif
#   From: 2010.05.17/outbox.cif.g08.bks.cpg/sg12_155_cif.got.tgz:308512.got - 2010.06.03 13:09:07.
