data_PCOD9205547
_publ_section_title
;
Structure prediction by ZEFSAII (Michael W. Deem and Ramdas Pophale) SiO2 
 PCOD9205547
Probable space group: C 2/M
;
_chemical_formula_sum "Si O2"
_cell_formula_units_Z 64
_cell_length_a 23.164343
_cell_length_b 14.567629
_cell_length_c 9.265681
_cell_angle_alpha 90.000000
_cell_angle_beta 98.201571
_cell_angle_gamma 90.000000
_cell_volume 3094.721042
_symmetry_space_group_name_H-M "C 2/M"
_symmetry_group_IT_number 12
_symmetry_cell_setting 'monoclinic'
loop_
_space_group_symop_operation_xyz
x,y,z
-x,y,-z
-x,-y,-z
x,-y,z
1/2+x,1/2+y,z
1/2-x,1/2+y,-z
1/2-x,1/2-y,-z
1/2+x,1/2-y,z
loop_
_atom_site_type_symbol
_atom_site_label
_atom_site_fract_x
_atom_site_fract_y
_atom_site_fract_z
Si Si1 0.736156 0.347548 0.564604
Si Si2 0.777296 0.723283 0.860403
Si Si3 0.891361 0.390686 0.874434
Si Si4 0.557326 0.766942 0.597603
Si Si5 0.857834 0.891373 0.865864
Si Si6 0.634534 0.102103 0.461707
Si Si7 0.394007 0.601671 0.564165
Si Si8 0.555513 0.273204 0.935104
O O1 0.750000 0.250000 0.500000
O O2 0.733677 0.324030 0.733123
O O3 0.796169 0.399154 0.546193
O O4 0.675410 0.389113 0.493200
O O5 0.827840 0.647466 0.895671
O O6 0.805299 0.819569 0.814788
O O7 0.750000 0.750000 0.000000
O O8 0.898150 0.500000 0.898191
O O9 0.894156 0.370912 0.703027
O O10 0.932365 0.324165 0.980416
O O11 0.500000 0.808573 0.500000
O O12 0.612809 0.830736 0.578569
O O13 0.571276 0.674641 0.515226
O O14 0.549160 0.746409 0.763281
O O15 0.898117 0.884509 0.737600
O O16 0.843309 0.000000 0.880132
O O17 0.891629 0.843482 0.010578
O O18 0.615532 0.000000 0.491559
O O19 0.413363 0.500000 0.534208
O O20 0.500000 0.312505 0.000000
#
# Coordination Sequence:
#
# PCOD9205547 Si02
#       8
#     8   8   8   8   8   8   8   8
#     4  11  19  36  63  91 128 165 203 249 307 361
#     4  10  21  35  57  88 127 164 198 243 300 358
#     4   9  20  39  61  87 120 160 203 247 300 361
#     4  12  25  42  65  92 124 159 206 263 311 367
#     4  10  22  41  61  86 120 161 205 248 302 363
#     4  10  21  40  65  93 126 164 207 255 308 366
#     4  11  23  41  65  93 125 164 210 259 309 364
#     4  11  24  42  64  87 119 163 204 250 312 368
#
# _framework density 20.680378000000001
#
# number of rings (size 3 to 8) (size 9 to 14) (size 15 to 20)
#    0.000    1.500    2.500    3.375    3.500    3.000 
#    0.000    0.000    0.000    0.000    0.000    0.000 
#    0.000    0.000    0.000    0.000    0.000    0.000 
#
# Total GULP energy -178534.668464 kJ/mol
# GULP energy per Si atom -5579.208390 kJ/mol
# Density = 2.063331 g / cm^3
# Si number density = 20.680378 Si / 1000 Ang^3
#
#
#
# Elastic Constant Matrix: (Units=GPa)
#
#
# Indices 1 2 3 4 5 6 
#
# 1 38.9806 2.1655 23.1839 0.0000 -1.7839 0.0000
# 2 2.1655 96.9666 5.7199 0.0000 -6.5655 0.0000
# 3 23.1839 5.7199 89.6327 0.0000 -3.3880 0.0000
# 4 0.0000 0.0000 0.0000 11.2064 0.0000 4.6285
# 5 -1.7839 -6.5655 -3.3880 0.0000 33.4689 0.0000
# 6 0.0000 0.0000 0.0000 4.6285 0.0000 -1.5844
#
#
#
# Elastic Compliance Matrix: (Units=1/GPa)
#
#
# Indices 1 2 3 4 5 6 
#
# 1 0.030343 -0.000163 -0.007808 0.000000 0.000795 0.000000
# 2 -0.000163 0.010484 -0.000552 0.000000 0.001992 0.000000
# 3 -0.007808 -0.000552 0.013242 0.000000 0.000816 0.000000
# 4 0.000000 0.000000 0.000000 0.040442 0.000000 0.118138
# 5 0.000795 0.001992 0.000816 0.000000 0.030394 0.000000
# 6 0.000000 0.000000 0.000000 0.118138 0.000000 -0.286035
#
#
# Mechanical properties :
#
#
# Convention : Reuss Voigt Hill
#
# Bulk Modulus (GPa) = 27.00962 31.96872 29.48917
# Shear Modulus (GPa) = -37.95262 21.58554 -8.18354
#
# Velocity S-wave (km/s) = -4.28857 3.23425 -1.99142
# Velocity P-wave (km/s) = 3.38136 5.42579 3.00047
#
# Compressibility (1/GPa) = 0.03702385
#
# Stress axis : x y z
#
# Youngs Moduli (GPa) = 32.95653 95.38450 75.51593
#
# Poissons Ratio (x) = 0.01557 0.58962
# Poissons Ratio (y) = 0.00538 0.04165
# Poissons Ratio (z) = 0.25732 0.05260
#
# Static dielectric constant tensor:
#      x y z
#    x 1.795680 0.000000 0.039290 
#    y 0.000000 1.741480 0.000000 
#    z 0.039290 0.000000 1.774130 
# 
# From -- ./inp_files/96904.got.cif
#   From: 2010.05.17/outbox.cif.g08.bks.cpg/sg12_49_cif.got.tgz:96904.got - 2010.06.03 13:09:07.
