data_PCOD9205870
_publ_section_title
;
Structure prediction by ZEFSAII (Michael W. Deem and Ramdas Pophale) SiO2 
 PCOD9205870
Probable space group: C 2/M
;
_chemical_formula_sum "Si O2"
_cell_formula_units_Z 40
_cell_length_a 14.989759
_cell_length_b 7.775750
_cell_length_c 22.242952
_cell_angle_alpha 90.000000
_cell_angle_beta 130.046539
_cell_angle_gamma 90.000000
_cell_volume 1984.664430
_symmetry_space_group_name_H-M "C 2/M"
_symmetry_group_IT_number 12
_symmetry_cell_setting 'monoclinic'
loop_
_space_group_symop_operation_xyz
x,y,z
-x,y,-z
-x,-y,-z
x,-y,z
1/2+x,1/2+y,z
1/2-x,1/2+y,-z
1/2-x,1/2-y,-z
1/2+x,1/2-y,z
loop_
_atom_site_type_symbol
_atom_site_label
_atom_site_fract_x
_atom_site_fract_y
_atom_site_fract_z
Si Si1 0.054011 0.200542 0.290121
Si Si2 0.523812 0.791749 0.413550
Si Si3 0.314343 0.209710 0.410573
Si Si4 0.867396 0.299239 0.112873
Si Si5 0.107984 0.200352 0.009394
O O1 0.024224 0.218972 0.347310
O O2 0.185074 0.272410 0.340943
O O3 0.958500 0.283866 0.206017
O O4 0.056527 0.000000 0.274778
O O5 0.633231 0.735839 0.502252
O O6 0.408672 0.743016 0.401125
O O7 0.526291 0.000000 0.410760
O O8 0.310880 0.000000 0.410699
O O9 0.851592 0.500000 0.090841
O O10 0.912008 0.212958 0.070868
O O11 0.739218 0.227998 0.074839
O O12 0.115077 0.000000 0.030716
O O13 0.000000 0.276910 0.000000
#
# Coordination Sequence:
#
# PCOD9205870 Si02
#       5
#     8   8   8   8   8
#     4  11  21  33  50  76 108 137 166 207 258 302
#     4   9  17  34  55  73  96 133 180 218 250 294
#     4   8  17  33  53  73  98 136 176 212 253 302
#     4  10  21  36  54  79 106 132 167 207 248 300
#     4   9  19  38  61  79  99 131 167 205 252 302
#
# _framework density 20.154540999999998
#
# number of rings (size 3 to 8) (size 9 to 14) (size 15 to 20)
#    0.000    2.600    0.000    3.000    0.000    2.800 
#    0.000   13.000    0.000    0.000    0.000    0.000 
#    0.000    0.000    0.000    0.000    0.000    0.000 
#
# Total GULP energy -111587.118037 kJ/mol
# GULP energy per Si atom -5579.355902 kJ/mol
# Density = 2.010867 g / cm^3
# Si number density = 20.154541 Si / 1000 Ang^3
#
#
#
# Elastic Constant Matrix: (Units=GPa)
#
#
# Indices 1 2 3 4 5 6 
#
# 1 176.4422 -36.3080 194.4514 -0.0276 -71.9732 -0.0146
# 2 -36.3080 63.1565 -120.1687 0.0522 87.8315 0.0277
# 3 194.4514 -120.1687 541.3340 -0.0879 -266.3488 -0.0465
# 4 -0.0276 0.0522 -0.0879********** 0.0627**********
# 5 -71.9732 87.8315 -266.3488 0.0627 219.9956 0.0332
# 6 -0.0146 0.0277 -0.0465********** 0.0332**********
#
#
#
# Elastic Compliance Matrix: (Units=1/GPa)
#
#
# Indices 1 2 3 4 5 6 
#
# 1 0.009975 0.000290 -0.004872 0.000000 -0.002752 0.000000
# 2 0.000290 0.036751 0.002180 0.000000 -0.011938 0.000000
# 3 -0.004872 0.002180 0.007096 0.000000 0.006126 0.000000
# 4 0.000000 0.000000 0.000000 0.009253 0.000000 -0.017463
# 5 -0.002752 -0.011938 0.006126 0.000000 0.015829 0.000000
# 6 0.000000 0.000000 0.000000 -0.017463 0.000000 0.032963
#
#
# Mechanical properties :
#
#
# Convention : Reuss Voigt Hill
#
# Bulk Modulus (GPa) = 20.40099 95.20912 57.80506
# Shear Modulus (GPa) = 37.59121 192847.19385 96442.39253
#
# Velocity S-wave (km/s) = 4.32342 309.66427 218.98705
# Velocity P-wave (km/s) = 5.92173 357.63570 252.92129
#
# Compressibility (1/GPa) = 0.04901722
#
# Stress axis : x y z
#
# Youngs Moduli (GPa) = 100.25499 27.21020 140.92838
#
# Poissons Ratio (x) = -0.00789 0.68665
# Poissons Ratio (y) = -0.02909 -0.30725
# Poissons Ratio (z) = 0.48848 -0.05932
#
# Static dielectric constant tensor:
#      x y z
#    x 1.723800 0.000000 0.035550 
#    y 0.000000 1.760600 0.000000 
#    z 0.035550 0.000000 1.677390 
# 
# From -- ./inp_files/211348.got.cif
#   From: 2010.05.17/outbox.cif.g08.bks.cpg/sg12_106_cif.got.tgz:211348.got - 2010.06.03 13:09:07.
