data_PCOD9205648
_publ_section_title
;
Structure prediction by ZEFSAII (Michael W. Deem and Ramdas Pophale) SiO2 
 PCOD9205648
Probable space group: C 2/M
;
_chemical_formula_sum "Si O2"
_cell_formula_units_Z 60
_cell_length_a 18.177656
_cell_length_b 14.196520
_cell_length_c 9.116150
_cell_angle_alpha 90.000000
_cell_angle_beta 97.435456
_cell_angle_gamma 90.000000
_cell_volume 2332.727110
_symmetry_space_group_name_H-M "C 2/M"
_symmetry_group_IT_number 12
_symmetry_cell_setting 'monoclinic'
loop_
_space_group_symop_operation_xyz
x,y,z
-x,y,-z
-x,-y,-z
x,-y,z
1/2+x,1/2+y,z
1/2-x,1/2+y,-z
1/2-x,1/2-y,-z
1/2+x,1/2-y,z
loop_
_atom_site_type_symbol
_atom_site_label
_atom_site_fract_x
_atom_site_fract_y
_atom_site_fract_z
Si Si1 0.791767 0.890882 0.228773
Si Si2 0.084164 0.393206 0.891301
Si Si3 0.703846 0.100054 0.512959
Si Si4 0.500000 0.719243 0.000000
Si Si5 0.546408 0.146964 0.368924
Si Si6 0.918813 0.892216 0.452249
Si Si7 0.608472 0.665425 0.242419
Si Si8 0.235579 0.310104 0.814178
O O1 0.745040 0.894936 0.367821
O O2 0.872053 0.853610 0.305874
O O3 0.762645 0.799971 0.135559
O O4 0.792372 0.000000 0.172376
O O5 0.084857 0.500000 0.959777
O O6 0.166967 0.371387 0.855655
O O7 0.063011 0.296303 0.971386
O O8 0.016126 0.394849 0.755805
O O9 0.617076 0.094559 0.453112
O O10 0.720726 0.182582 0.632053
O O11 0.725139 0.000000 0.589882
O O12 0.466263 0.650681 0.868500
O O13 0.500000 0.172390 0.500000
O O14 0.590205 0.229464 0.295560
O O15 0.881098 0.887817 0.601687
O O16 0.000000 0.854509 0.500000
O O17 0.926553 0.000000 0.412209
O O18 0.680000 0.653396 0.159400
#
# Coordination Sequence:
#
# PCOD9205648 Si02
#       8
#     8   8   8   4   8   8   8   8
#     4  10  21  36  54  90 136 171 197 235 306 387
#     4  11  25  43  67  94 125 163 205 258 317 378
#     4  11  20  32  54  93 138 168 194 238 312 390
#     4  10  27  48  65  84 114 166 217 268 314 364
#     4  11  21  34  59  96 135 165 194 240 309 384
#     4  10  21  35  60  93 128 166 204 252 310 372
#     4  11  23  41  62  88 123 166 216 259 307 365
#     4  12  22  36  63  93 124 160 207 256 313 368
#
# _framework density 25.720967999999999
#
# number of rings (size 3 to 8) (size 9 to 14) (size 15 to 20)
#    0.000    1.200    4.000    2.600    3.733    1.600 
#    0.000    1.000    0.000    0.800    0.000    0.000 
#    0.000    0.000    0.000    0.000    0.000    0.000 
#
# Total GULP energy -167318.071196 kJ/mol
# GULP energy per Si atom -5577.269040 kJ/mol
# Density = 2.566243 g / cm^3
# Si number density = 25.720968 Si / 1000 Ang^3
#
#
#
# Elastic Constant Matrix: (Units=GPa)
#
#
# Indices 1 2 3 4 5 6 
#
# 1 139.1413 6.0611 -1.9685 0.0000 -2.6140 0.0000
# 2 6.0611 93.3520 4.1997 0.0000 12.6285 0.0000
# 3 -1.9685 4.1997 48.5955 0.0000 13.1159 0.0000
# 4 0.0000 0.0000 0.0000 25.1790 0.0000 -5.2751
# 5 -2.6140 12.6285 13.1159 0.0000 36.3098 0.0000
# 6 0.0000 0.0000 0.0000 -5.2751 0.0000 -5.6792
#
#
#
# Elastic Compliance Matrix: (Units=1/GPa)
#
#
# Indices 1 2 3 4 5 6 
#
# 1 0.007226 -0.000566 0.000164 0.000000 0.000658 0.000000
# 2 -0.000566 0.011286 0.000080 0.000000 -0.003995 0.000000
# 3 0.000164 0.000080 0.022805 0.000000 -0.008254 0.000000
# 4 0.000000 0.000000 0.000000 0.033246 0.000000 -0.030881
# 5 0.000658 -0.003995 -0.008254 0.000000 0.031959 0.000000
# 6 0.000000 0.000000 0.000000 -0.030881 0.000000 -0.147398
#
#
# Mechanical properties :
#
#
# Convention : Reuss Voigt Hill
#
# Bulk Modulus (GPa) = 24.58551 33.07483 28.83017
# Shear Modulus (GPa) = -187.44323 29.34835 -79.04744
#
# Velocity S-wave (km/s) = -8.54598 3.38158 -5.54972
# Velocity P-wave (km/s) = 9.37012 5.30413 5.46193
#
# Compressibility (1/GPa) = 0.04067436
#
# Stress axis : x y z
#
# Youngs Moduli (GPa) = 138.38435 88.60797 43.84919
#
# Poissons Ratio (x) = 0.05011 -0.00720
# Poissons Ratio (y) = 0.07826 -0.00350
# Poissons Ratio (z) = -0.02271 -0.00708
#
# Static dielectric constant tensor:
#      x y z
#    x 2.139260 0.000000 -0.003420 
#    y 0.000000 2.009590 0.000000 
#    z -0.003420 0.000000 2.102610 
# 
# From -- ./inp_files/156682.got.cif
#   From: 2010.05.17/outbox.cif.g08.bks.cpg/sg12_79_cif.got.tgz:156682.got - 2010.06.03 13:09:07.
