data_PCOD9205341
_publ_section_title
;
Structure prediction by ZEFSAII (Michael W. Deem and Ramdas Pophale) SiO2 
 PCOD9205341
Probable space group: C 2/M
;
_chemical_formula_sum "Si O2"
_cell_formula_units_Z 50
_cell_length_a 27.762838
_cell_length_b 9.376850
_cell_length_c 14.772968
_cell_angle_alpha 90.000000
_cell_angle_beta 132.102249
_cell_angle_gamma 90.000000
_cell_volume 2853.401897
_symmetry_space_group_name_H-M "C 2/M"
_symmetry_group_IT_number 12
_symmetry_cell_setting 'monoclinic'
loop_
_space_group_symop_operation_xyz
x,y,z
-x,y,-z
-x,-y,-z
x,-y,z
1/2+x,1/2+y,z
1/2-x,1/2+y,-z
1/2-x,1/2-y,-z
1/2+x,1/2-y,z
loop_
_atom_site_type_symbol
_atom_site_label
_atom_site_fract_x
_atom_site_fract_y
_atom_site_fract_z
Si Si1 0.205774 0.168528 0.015974
Si Si2 0.929895 0.662019 0.719688
Si Si3 0.921572 0.340494 0.110322
Si Si4 0.903718 0.262296 0.886756
Si Si5 0.696460 0.328415 0.496672
Si Si6 0.759322 0.832090 0.730728
Si Si7 0.000000 0.000000 0.000000
O O1 0.133097 0.233292 0.923297
O O2 0.203996 0.000000 0.996034
O O3 0.250000 0.250000 0.000000
O O4 0.234927 0.188705 0.154051
O O5 0.915386 0.500000 0.670469
O O6 0.927486 0.662515 0.825858
O O7 0.874934 0.772951 0.620546
O O8 0.002994 0.701114 0.781729
O O9 0.912020 0.500000 0.135812
O O10 0.910214 0.346644 0.987881
O O11 0.829806 0.212548 0.781920
O O12 0.946400 0.122907 0.953554
O O13 0.702354 0.500000 0.497325
O O14 0.750000 0.250000 0.500000
O O15 0.710417 0.269241 0.615140
O O16 0.747025 0.000000 0.697220
#
# Coordination Sequence:
#
# PCOD9205341 Si02
#       7
#     8   8   8   8   8   8   2
#     4  10  22  39  64  89 113 142 179 232 290 343
#     4  11  22  35  52  76 112 153 193 231 274 329
#     4  10  21  35  54  81 112 144 185 231 283 337
#     4  11  20  29  52  75 114 150 187 228 274 332
#     4  12  25  36  53  77 112 157 198 236 273 326
#     4  10  21  37  55  80 111 150 188 229 277 329
#     4  12  20  28  46  84 112 152 188 230 282 332
#
# _framework density 17.522943000000001
#
# number of rings (size 3 to 8) (size 9 to 14) (size 15 to 20)
#    0.000    1.280    4.000    2.400    2.240    5.120 
#    0.000    0.000    0.000    0.960    0.000    6.720 
#    0.000    0.000    0.000    0.000    0.000    0.000 
#
# Total GULP energy -139235.839718 kJ/mol
# GULP energy per Si atom -5569.433589 kJ/mol
# Density = 1.748306 g / cm^3
# Si number density = 17.522943 Si / 1000 Ang^3
#
#
#
# Elastic Constant Matrix: (Units=GPa)
#
#
# Indices 1 2 3 4 5 6 
#
# 1 106.3312 63.7849 42.3403 0.0000 12.5608 0.0000
# 2 63.7849 152.4205 57.3571 0.0000 13.4337 0.0000
# 3 42.3403 57.3571 54.5799 0.0000 15.6160 0.0000
# 4 0.0000 0.0000 0.0000 104.1780 0.0000 -22.4979
# 5 12.5608 13.4337 15.6160 0.0000 18.5376 0.0000
# 6 0.0000 0.0000 0.0000 -22.4979 0.0000 37.4164
#
#
#
# Elastic Compliance Matrix: (Units=1/GPa)
#
#
# Indices 1 2 3 4 5 6 
#
# 1 0.014416 -0.003054 -0.007659 0.000000 -0.001104 0.000000
# 2 -0.003054 0.011574 -0.010522 0.000000 0.002546 0.000000
# 3 -0.007659 -0.010522 0.041707 0.000000 -0.022319 0.000000
# 4 0.000000 0.000000 0.000000 0.011031 0.000000 0.006633
# 5 -0.001104 0.002546 -0.022319 0.000000 0.071649 0.000000
# 6 0.000000 0.000000 0.000000 0.006633 0.000000 0.030715
#
#
# Mechanical properties :
#
#
# Convention : Reuss Voigt Hill
#
# Bulk Modulus (GPa) = 39.63946 71.14402 55.39174
# Shear Modulus (GPa) = 21.55449 42.01635 31.78542
#
# Velocity S-wave (km/s) = 3.51104 4.90204 4.26365
# Velocity P-wave (km/s) = 6.25357 8.52811 7.47783
#
# Compressibility (1/GPa) = 0.02522738
#
# Stress axis : x y z
#
# Youngs Moduli (GPa) = 69.36544 86.40055 23.97708
#
# Poissons Ratio (x) = 0.26384 0.18363
# Poissons Ratio (y) = 0.21182 0.25230
# Poissons Ratio (z) = 0.53124 0.90915
#
# Static dielectric constant tensor:
#      x y z
#    x 1.590780 0.000000 0.011950 
#    y 0.000000 1.608480 0.000000 
#    z 0.011950 0.000000 1.642550 
# 
# From -- ./inp_files/238000.got.cif
#   From: 2010.05.17/outbox.cif.g08.bks.cpg/sg12_119_cif.got.tgz:238000.got - 2010.06.03 13:09:07.
