data_PCOD9205336
_publ_section_title
;
Structure prediction by ZEFSAII (Michael W. Deem and Ramdas Pophale) SiO2 
 PCOD9205336
Probable space group: C 2/M
;
_chemical_formula_sum "Si O2"
_cell_formula_units_Z 64
_cell_length_a 29.326965
_cell_length_b 14.558999
_cell_length_c 18.967670
_cell_angle_alpha 90.000000
_cell_angle_beta 160.644596
_cell_angle_gamma 90.000000
_cell_volume 2684.110225
_symmetry_space_group_name_H-M "C 2/M"
_symmetry_group_IT_number 12
_symmetry_cell_setting 'monoclinic'
loop_
_space_group_symop_operation_xyz
x,y,z
-x,y,-z
-x,-y,-z
x,-y,z
1/2+x,1/2+y,z
1/2-x,1/2+y,-z
1/2-x,1/2-y,-z
1/2+x,1/2-y,z
loop_
_atom_site_type_symbol
_atom_site_label
_atom_site_fract_x
_atom_site_fract_y
_atom_site_fract_z
Si Si1 0.401347 0.393117 0.074604
Si Si2 0.360168 0.893577 0.933038
Si Si3 0.832749 0.611102 0.648490
Si Si4 0.152591 0.887733 0.519512
Si Si5 0.867963 0.661918 0.101779
Si Si6 0.159575 0.607525 0.496912
Si Si7 0.860984 0.679907 0.252116
Si Si8 0.435917 0.608570 0.975984
O O1 0.427972 0.500000 0.105413
O O2 0.493337 0.362707 0.274907
O O3 0.241021 0.380743 0.849924
O O4 0.455497 0.349373 0.081318
O O5 0.231605 0.851844 0.703374
O O6 0.367199 0.000000 0.922843
O O7 0.508324 0.857026 0.123025
O O8 0.340130 0.891573 0.987575
O O9 0.832945 0.500000 0.655801
O O10 0.741309 0.642508 0.580620
O O11 0.778519 0.629491 0.490224
O O12 0.152588 0.000000 0.522518
O O13 0.873760 0.634051 0.192934
O O14 0.032469 0.672799 0.328025
O O15 0.740500 0.733140 0.909921
O O16 0.111452 0.500000 0.422131
O O17 0.274391 0.609928 0.723568
O O18 0.000000 0.697127 0.500000
O O19 0.481518 0.500000 0.043816
O O20 0.500000 0.652331 0.000000
#
# Coordination Sequence:
#
# PCOD9205336 Si02
#       8
#     8   8   8   8   8   8   8   8
#     4  10  21  35  54  81 107 136 178 225 270 316
#     4   9  17  30  54  85 113 144 178 213 252 298
#     4   8  13  23  44  78 116 147 173 202 243 300
#     4   9  16  28  48  79 117 147 173 209 254 306
#     4  10  22  39  59  79 102 135 179 222 270 327
#     4   9  16  29  54  85 114 145 181 221 259 301
#     4  11  25  43  60  76  98 134 176 223 281 334
#     4   9  16  28  51  84 118 150 182 216 258 308
#
# _framework density 23.844028000000002
#
# number of rings (size 3 to 8) (size 9 to 14) (size 15 to 20)
#    0.000    2.625    0.000    3.000    0.000    7.750 
#    0.000    0.000    0.000   13.500    0.000    0.000 
#    0.000    0.000    0.000    0.000    0.000    0.000 
#
# Total GULP energy -178196.439519 kJ/mol
# GULP energy per Si atom -5568.638735 kJ/mol
# Density = 2.378976 g / cm^3
# Si number density = 23.844028 Si / 1000 Ang^3
#
#
#
# Elastic Constant Matrix: (Units=GPa)
#
#
# Indices 1 2 3 4 5 6 
#
# 1 99.7230 -7.3446 39.2194 0.0000 -11.3650 0.0000
# 2 -7.3446 44.3999 7.2865 0.0000 0.7880 0.0000
# 3 39.2194 7.2865 128.0475 0.0000 -13.0905 0.0000
# 4 0.0000 0.0000 0.0000 15.9946 0.0000 5.8693
# 5 -11.3650 0.7880 -13.0905 0.0000 30.1842 0.0000
# 6 0.0000 0.0000 0.0000 5.8693 0.0000 21.7287
#
#
#
# Elastic Compliance Matrix: (Units=1/GPa)
#
#
# Indices 1 2 3 4 5 6 
#
# 1 0.011917 0.002493 -0.003495 0.000000 0.002906 0.000000
# 2 0.002493 0.023299 -0.002151 0.000000 -0.000602 0.000000
# 3 -0.003495 -0.002151 0.009285 0.000000 0.002767 0.000000
# 4 0.000000 0.000000 0.000000 0.069400 0.000000 -0.018746
# 5 0.002906 -0.000602 0.002767 0.000000 0.035440 0.000000
# 6 0.000000 0.000000 0.000000 -0.018746 0.000000 0.051086
#
#
# Mechanical properties :
#
#
# Convention : Reuss Voigt Hill
#
# Bulk Modulus (GPa) = 26.18079 38.94366 32.56223
# Shear Modulus (GPa) = 22.78278 29.11544 25.94911
#
# Velocity S-wave (km/s) = 3.09446 3.49819 3.30250
# Velocity P-wave (km/s) = 4.87559 5.71704 5.31300
#
# Compressibility (1/GPa) = 0.03819594
#
# Stress axis : x y z
#
# Youngs Moduli (GPa) = 83.91316 42.92082 107.69682
#
# Poissons Ratio (x) = -0.10701 0.37638
# Poissons Ratio (y) = -0.20922 0.23166
# Poissons Ratio (z) = 0.29326 0.09232
#
# Static dielectric constant tensor:
#      x y z
#    x 1.921080 0.000000 -0.007230 
#    y 0.000000 1.985300 0.000000 
#    z -0.007230 0.000000 1.940740 
# 
# From -- ./inp_files/294191.got.cif
#   From: 2010.05.17/outbox.cif.g08.bks.cpg/sg12_148_cif.got.tgz:294191.got - 2010.06.03 13:09:07.
