data_PCOD9205177
_publ_section_title
;
Structure prediction by ZEFSAII (Michael W. Deem and Ramdas Pophale) SiO2 
 PCOD9205177
Probable space group: C 2/M
;
_chemical_formula_sum "Si O2"
_cell_formula_units_Z 56
_cell_length_a 5.241094
_cell_length_b 28.925142
_cell_length_c 19.393956
_cell_angle_alpha 90.000000
_cell_angle_beta 115.673966
_cell_angle_gamma 90.000000
_cell_volume 2649.846303
_symmetry_space_group_name_H-M "C 2/M"
_symmetry_group_IT_number 12
_symmetry_cell_setting 'monoclinic'
loop_
_space_group_symop_operation_xyz
x,y,z
-x,y,-z
-x,-y,-z
x,-y,z
1/2+x,1/2+y,z
1/2-x,1/2+y,-z
1/2-x,1/2-y,-z
1/2+x,1/2-y,z
loop_
_atom_site_type_symbol
_atom_site_label
_atom_site_fract_x
_atom_site_fract_y
_atom_site_fract_z
Si Si1 0.691467 0.679103 0.961472
Si Si2 0.814686 0.928670 0.038769
Si Si3 0.813985 0.055534 0.314164
Si Si4 0.969592 0.219093 0.801387
Si Si5 0.681458 0.376416 0.452172
Si Si6 0.169793 0.945517 0.216778
Si Si7 0.741767 0.718154 0.374054
O O1 0.722550 0.625330 0.982270
O O2 0.575720 0.683448 0.870576
O O3 0.500000 0.698723 0.000000
O O4 0.000000 0.700633 0.000000
O O5 0.991122 0.930323 0.129759
O O6 0.500000 0.948627 0.000000
O O7 0.000000 0.949601 0.000000
O O8 0.488853 0.072638 0.266779
O O9 0.987959 0.087163 0.387663
O O10 0.976741 0.061092 0.261049
O O11 0.815910 0.000000 0.332165
O O12 0.217024 0.254430 0.810113
O O13 0.872073 0.202268 0.714810
O O14 0.500000 0.366672 0.500000
O O15 0.740919 0.328103 0.419247
O O16 0.000000 0.396185 0.500000
O O17 0.213795 0.000000 0.211727
O O18 0.531332 0.754710 0.387860
#
# Coordination Sequence:
#
# PCOD9205177 Si02
#       7
#     8   8   8   8   8   8   8
#     4  10  21  35  51  80 116 154 199 251 305 352
#     4  10  21  36  54  86 123 160 206 256 309 356
#     4  10  23  43  65  96 130 163 209 261 311 375
#     4  10  21  37  56  81 111 154 202 244 302 358
#     4  12  26  43  68 101 125 165 212 246 322 393
#     4  10  21  39  63  90 122 167 211 252 311 367
#     4  10  23  43  63  92 129 163 206 260 309 368
#
# _framework density 21.133303000000002
#
# number of rings (size 3 to 8) (size 9 to 14) (size 15 to 20)
#    0.000    1.714    0.000    3.429    2.000    4.571 
#    5.143    0.000    0.000    0.000    0.000    0.000 
#    0.000    0.000    0.000    0.000    0.000    0.000 
#
# Total GULP energy -156245.591987 kJ/mol
# GULP energy per Si atom -5580.199714 kJ/mol
# Density = 2.108520 g / cm^3
# Si number density = 21.133303 Si / 1000 Ang^3
#
#
#
# Elastic Constant Matrix: (Units=GPa)
#
#
# Indices 1 2 3 4 5 6 
#
# 1 194.1212 39.5872 50.1973 0.0000 3.4452 0.0000
# 2 39.5872 64.2908 29.5943 0.0000 -10.4560 0.0000
# 3 50.1973 29.5943 92.5708 0.0000 7.4629 0.0000
# 4 0.0000 0.0000 0.0000 25.1294 0.0000 6.9319
# 5 3.4452 -10.4560 7.4629 0.0000 35.7618 0.0000
# 6 0.0000 0.0000 0.0000 6.9319 0.0000 -8.6614
#
#
#
# Elastic Compliance Matrix: (Units=1/GPa)
#
#
# Indices 1 2 3 4 5 6 
#
# 1 0.006408 -0.002981 -0.002443 0.000000 -0.000979 0.000000
# 2 -0.002981 0.021331 -0.005827 0.000000 0.007740 0.000000
# 3 -0.002443 -0.005827 0.014350 0.000000 -0.004463 0.000000
# 4 0.000000 0.000000 0.000000 0.032598 0.000000 0.026088
# 5 -0.000979 0.007740 -0.004463 0.000000 0.031251 0.000000
# 6 0.000000 0.000000 0.000000 0.026088 0.000000 -0.094575
#
#
# Mechanical properties :
#
#
# Convention : Reuss Voigt Hill
#
# Bulk Modulus (GPa) = 51.05287 65.52673 58.28980
# Shear Modulus (GPa) = 123.78157 25.88621 74.83389
#
# Velocity S-wave (km/s) = 7.66152 3.50366 5.95712
# Velocity P-wave (km/s) = 10.12301 6.88776 8.65784
#
# Compressibility (1/GPa) = 0.01958754
#
# Stress axis : x y z
#
# Youngs Moduli (GPa) = 156.04509 46.88088 69.68612
#
# Poissons Ratio (x) = 0.13973 0.17026
# Poissons Ratio (y) = 0.46510 0.40606
# Poissons Ratio (z) = 0.38125 0.27318
#
# Static dielectric constant tensor:
#      x y z
#    x 1.761240 0.000000 0.050340 
#    y 0.000000 1.748800 0.000000 
#    z 0.050340 0.000000 1.781010 
# 
# From -- ./inp_files/254043.got.cif
#   From: 2010.05.17/outbox.cif.g08.bks.cpg/sg12_128_cif.got.tgz:254043.got - 2010.06.03 13:09:07.
