data_PCOD9205278
_publ_section_title
;
Structure prediction by ZEFSAII (Michael W. Deem and Ramdas Pophale) SiO2 
 PCOD9205278
Probable space group: C 2/M
;
_chemical_formula_sum "Si O2"
_cell_formula_units_Z 64
_cell_length_a 20.852040
_cell_length_b 7.612550
_cell_length_c 22.418349
_cell_angle_alpha 90.000000
_cell_angle_beta 59.433712
_cell_angle_gamma 90.000000
_cell_volume 3064.124179
_symmetry_space_group_name_H-M "C 2/M"
_symmetry_group_IT_number 12
_symmetry_cell_setting 'monoclinic'
loop_
_space_group_symop_operation_xyz
x,y,z
-x,y,-z
-x,-y,-z
x,-y,z
1/2+x,1/2+y,z
1/2-x,1/2+y,-z
1/2-x,1/2-y,-z
1/2+x,1/2-y,z
loop_
_atom_site_type_symbol
_atom_site_label
_atom_site_fract_x
_atom_site_fract_y
_atom_site_fract_z
Si Si1 0.418437 0.701137 0.043068
Si Si2 0.638692 0.292356 0.213642
Si Si3 0.687939 0.293992 0.443497
Si Si4 0.146961 0.786459 0.590327
Si Si5 0.792021 0.784316 0.695824
Si Si6 0.874479 0.705586 0.193979
Si Si7 0.476027 0.712922 0.256727
Si Si8 0.268309 0.709256 0.059483
O O1 0.426513 0.500000 0.016896
O O2 0.395058 0.700649 0.123091
O O3 0.349325 0.781578 0.039874
O O4 0.500000 0.784922 0.000000
O O5 0.627357 0.500000 0.227852
O O6 0.664898 0.223114 0.265600
O O7 0.560025 0.222530 0.226941
O O8 0.704374 0.271987 0.134677
O O9 0.669127 0.500000 0.449660
O O10 0.775902 0.276534 0.416723
O O11 0.646922 0.222710 0.521748
O O12 0.676522 0.221477 0.382570
O O13 0.077380 0.732551 0.663351
O O14 0.149767 0.000000 0.588453
O O15 0.705327 0.732820 0.743331
O O16 0.793161 0.000000 0.694238
O O17 0.866513 0.500000 0.183075
O O18 0.937267 0.727391 0.214205
O O19 0.476327 0.500000 0.254800
O O20 0.271215 0.500000 0.065620
O O21 0.250000 0.750000 0.000000
#
# Coordination Sequence:
#
# PCOD9205278 Si02
#       8
#     8   8   8   8   8   8   8   8
#     4  10  23  42  61  83 112 144 177 218 273 327
#     4  10  21  39  58  76 109 150 185 222 270 326
#     4   9  16  29  50  75 106 140 177 224 274 320
#     4   9  17  29  47  76 108 139 179 223 270 324
#     4   9  17  32  54  79 104 139 181 222 269 317
#     4  11  21  35  58  84 110 140 182 232 273 315
#     4  10  21  35  53  79 112 148 184 226 275 325
#     4  11  24  41  61  84 112 145 181 220 266 325
#
# _framework density 20.886880999999999
#
# number of rings (size 3 to 8) (size 9 to 14) (size 15 to 20)
#    0.000    2.125    2.500    0.750    1.750    1.250 
#    0.000    1.250    0.000    3.750    0.000    0.000 
#    0.000    6.000    0.000    0.000    0.000    0.000 
#
# Total GULP energy -178653.210046 kJ/mol
# GULP energy per Si atom -5582.912814 kJ/mol
# Density = 2.083934 g / cm^3
# Si number density = 20.886881 Si / 1000 Ang^3
#
#
#
# Elastic Constant Matrix: (Units=GPa)
#
#
# Indices 1 2 3 4 5 6 
#
# 1 153.0288 -6.4327 53.0556 0.0000 15.0747 -0.0010
# 2 -6.4327 43.2235 -12.5649 0.0007 -0.9970 -0.0026
# 3 53.0556 -12.5649 92.0419 0.0000 25.4903 0.0003
# 4 0.0000 0.0007 0.0000 -20.6315 -0.0004 6.0583
# 5 15.0747 -0.9970 25.4903 -0.0004 37.0034 0.0004
# 6 -0.0010 -0.0026 0.0003 6.0583 0.0004 14.8091
#
#
#
# Elastic Compliance Matrix: (Units=1/GPa)
#
#
# Indices 1 2 3 4 5 6 
#
# 1 0.008168 -0.000154 -0.004704 0.000000 -0.000091 0.000001
# 2 -0.000154 0.024215 0.003950 0.000002 -0.002006 0.000003
# 3 -0.004704 0.003950 0.016751 0.000000 -0.009516 0.000000
# 4 0.000000 0.000002 0.000000 -0.043271 -0.000001 0.017702
# 5 -0.000091 -0.002006 -0.009516 -0.000001 0.033563 -0.000001
# 6 0.000001 0.000003 0.000000 0.017702 -0.000001 0.060284
#
#
# Mechanical properties :
#
#
# Convention : Reuss Voigt Hill
#
# Bulk Modulus (GPa) = 21.13401 39.60114 30.36757
# Shear Modulus (GPa) = 42.62628 23.18527 32.90577
#
# Velocity S-wave (km/s) = 4.52244 3.33534 3.97347
# Velocity P-wave (km/s) = 6.11639 5.81667 5.96841
#
# Compressibility (1/GPa) = 0.04731710
#
# Stress axis : x y z
#
# Youngs Moduli (GPa) = 122.42657 41.29741 59.69852
#
# Poissons Ratio (x) = 0.00636 0.28083
# Poissons Ratio (y) = 0.01885 -0.23580
# Poissons Ratio (z) = 0.57591 -0.16312
#
# Static dielectric constant tensor:
#      x y z
#    x 1.739120 0.000000 -0.000410 
#    y 0.000000 1.809510 0.000000 
#    z -0.000410 0.000000 1.723890 
# 
# From -- ./inp_files/319797.got.cif
#   From: 2010.05.17/outbox.cif.g08.bks.cpg/sg12_160_cif.got.tgz:319797.got - 2010.06.03 13:09:07.
