data_PCOD9205545
_publ_section_title
;
Structure prediction by ZEFSAII (Michael W. Deem and Ramdas Pophale) SiO2 
 PCOD9205545
Probable space group: C 2/M
;
_chemical_formula_sum "Si O2"
_cell_formula_units_Z 40
_cell_length_a 13.093713
_cell_length_b 27.964587
_cell_length_c 8.529041
_cell_angle_alpha 90.000000
_cell_angle_beta 31.961591
_cell_angle_gamma 90.000000
_cell_volume 1653.159951
_symmetry_space_group_name_H-M "C 2/M"
_symmetry_group_IT_number 12
_symmetry_cell_setting 'monoclinic'
loop_
_space_group_symop_operation_xyz
x,y,z
-x,y,-z
-x,-y,-z
x,-y,z
1/2+x,1/2+y,z
1/2-x,1/2+y,-z
1/2-x,1/2-y,-z
1/2+x,1/2-y,z
loop_
_atom_site_type_symbol
_atom_site_label
_atom_site_fract_x
_atom_site_fract_y
_atom_site_fract_z
Si Si1 0.670751 0.773326 0.443766
Si Si2 0.670058 0.411902 0.166431
Si Si3 0.062305 0.446688 0.741155
Si Si4 0.281844 0.123714 0.708468
Si Si5 0.843775 0.313026 0.061453
O O1 0.750000 0.750000 0.500000
O O2 0.775953 0.821808 0.252905
O O3 0.700463 0.729285 0.291305
O O4 0.462313 0.793680 0.758665
O O5 0.500000 0.430032 0.500000
O O6 0.740311 0.362079 0.154792
O O7 0.854631 0.446182 0.926906
O O8 0.640054 0.398807 0.023212
O O9 0.147514 0.500000 0.627028
O O10 0.191052 0.407653 0.484062
O O11 0.000000 0.434882 0.000000
O O12 0.500000 0.123552 0.500000
O O13 0.000000 0.319568 0.000000
#
# Coordination Sequence:
#
# PCOD9205545 Si02
#       5
#     8   8   8   8   8
#     4  10  21  35  57  88 121 173 209 261 307 370
#     4  11  24  39  62  95 133 169 199 273 317 371
#     4  10  22  44  75  95 118 166 214 261 321 389
#     4  10  21  40  62  92 130 163 215 261 315 379
#     4  10  21  38  58  85 127 174 220 254 307 374
#
# _framework density 24.196085
#
# number of rings (size 3 to 8) (size 9 to 14) (size 15 to 20)
#    0.000    1.800    4.000    0.600    5.600    5.600 
#    0.000    1.000    0.000    2.400    0.000    0.000 
#    0.000    0.000    0.000    0.000    0.000    0.000 
#
# Total GULP energy -111777.128315 kJ/mol
# GULP energy per Si atom -5588.856416 kJ/mol
# Density = 2.414101 g / cm^3
# Si number density = 24.196085 Si / 1000 Ang^3
#
#
#
# Elastic Constant Matrix: (Units=GPa)
#
#
# Indices 1 2 3 4 5 6 
#
# 1 65.4047 29.1663 23.6224 0.0000 13.5134 0.0000
# 2 29.1663 128.0591 7.1541 0.0000 23.7349 0.0000
# 3 23.6224 7.1541 87.3379 0.0000 17.6570 0.0000
# 4 0.0000 0.0000 0.0000 -13.0321 0.0000 -6.5383
# 5 13.5134 23.7349 17.6570 0.0000 43.3834 0.0000
# 6 0.0000 0.0000 0.0000 -6.5383 0.0000 19.0168
#
#
#
# Elastic Compliance Matrix: (Units=1/GPa)
#
#
# Indices 1 2 3 4 5 6 
#
# 1 0.018954 -0.003682 -0.004401 0.000000 -0.002098 0.000000
# 2 -0.003682 0.009411 0.001127 0.000000 -0.004461 0.000000
# 3 -0.004401 0.001127 0.013507 0.000000 -0.004743 0.000000
# 4 0.000000 0.000000 0.000000 -0.065445 0.000000 -0.022501
# 5 -0.002098 -0.004461 -0.004743 0.000000 0.028075 0.000000
# 6 0.000000 0.000000 0.000000 -0.022501 0.000000 0.044849
#
#
# Mechanical properties :
#
#
# Convention : Reuss Voigt Hill
#
# Bulk Modulus (GPa) = 35.76534 44.52081 40.14308
# Shear Modulus (GPa) = 68.88594 24.59753 46.74174
#
# Velocity S-wave (km/s) = 5.34151 3.19186 4.39998
# Velocity P-wave (km/s) = 7.27020 5.65897 6.51459
#
# Compressibility (1/GPa) = 0.02796003
#
# Stress axis : x y z
#
# Youngs Moduli (GPa) = 52.75801 106.25493 74.03766
#
# Poissons Ratio (x) = 0.39125 0.32582
# Poissons Ratio (y) = 0.19427 -0.08343
# Poissons Ratio (z) = 0.23218 -0.11973
#
# Static dielectric constant tensor:
#      x y z
#    x 2.082560 0.000000 0.029240 
#    y 0.000000 1.890530 0.000000 
#    z 0.029240 0.000000 1.986100 
# 
# From -- ./inp_files/66379.got.cif
#   From: 2010.05.17/outbox.cif.g08.bks.cpg/sg12_34_cif.got.tgz:66379.got - 2010.06.03 13:09:07.
