data_PCOD9205625
_publ_section_title
;
Structure prediction by ZEFSAII (Michael W. Deem and Ramdas Pophale) SiO2 
 PCOD9205625
Probable space group: C 2/M
;
_chemical_formula_sum "Si O2"
_cell_formula_units_Z 40
_cell_length_a 13.230427
_cell_length_b 18.032802
_cell_length_c 14.234981
_cell_angle_alpha 90.000000
_cell_angle_beta 30.162903
_cell_angle_gamma 90.000000
_cell_volume 1706.458300
_symmetry_space_group_name_H-M "C 2/M"
_symmetry_group_IT_number 12
_symmetry_cell_setting 'monoclinic'
loop_
_space_group_symop_operation_xyz
x,y,z
-x,y,-z
-x,-y,-z
x,-y,z
1/2+x,1/2+y,z
1/2-x,1/2+y,-z
1/2-x,1/2-y,-z
1/2+x,1/2-y,z
loop_
_atom_site_type_symbol
_atom_site_label
_atom_site_fract_x
_atom_site_fract_y
_atom_site_fract_z
Si Si1 0.678620 0.086178 0.743432
Si Si2 0.977688 0.676848 0.758802
Si Si3 0.236233 0.086251 0.798537
Si Si4 0.361516 0.331072 0.312371
Si Si5 0.423472 0.585487 0.709192
O O1 0.503538 0.121670 0.824918
O O2 0.748644 0.121572 0.785863
O O3 0.875660 0.091630 0.517399
O O4 0.635556 0.000000 0.791079
O O5 0.172867 0.679039 0.533729
O O6 0.001744 0.756483 0.792314
O O7 0.817142 0.639458 0.817151
O O8 0.239870 0.134222 0.698974
O O9 0.322088 0.000000 0.727610
O O10 0.000000 0.076670 0.000000
O O11 0.512130 0.387771 0.241514
O O12 0.373129 0.500000 0.756402
#
# Coordination Sequence:
#
# PCOD9205625 Si02
#       5
#     8   8   8   8   8
#     4   8  14  26  47  76 109 141 174 222 287 351
#     4  10  21  35  59  90 118 148 192 252 311 361
#     4  11  25  43  61  83 120 171 216 249 291 358
#     4  10  21  35  59  90 118 148 192 252 311 361
#     4   8  14  26  47  76 109 141 174 222 287 351
#
# _framework density 23.440363000000001
#
# number of rings (size 3 to 8) (size 9 to 14) (size 15 to 20)
#    0.000    2.600    0.000    3.000    2.800    4.000 
#    0.000    0.000    0.000    0.000    0.000    5.600 
#    0.000    0.000    0.000    0.000    0.000    0.000 
#
# Total GULP energy -111356.189843 kJ/mol
# GULP energy per Si atom -5567.809492 kJ/mol
# Density = 2.338701 g / cm^3
# Si number density = 23.440363 Si / 1000 Ang^3
#
#
#
# Elastic Constant Matrix: (Units=GPa)
#
#
# Indices 1 2 3 4 5 6 
#
# 1 226.1349 79.9099 10.0273 -0.0137 -7.8105 0.0020
# 2 79.9099 104.2344 6.2882 -0.0351 -0.5712 -0.0327
# 3 10.0273 6.2882 47.7001 -0.0373 0.4727 -0.0223
# 4 -0.0137 -0.0351 -0.0373 -0.6590 0.0252 -0.4305
# 5 -7.8105 -0.5712 0.4727 0.0252 36.2924 0.0043
# 6 0.0020 -0.0327 -0.0223 -0.4305 0.0043 21.0254
#
#
#
# Elastic Compliance Matrix: (Units=1/GPa)
#
#
# Indices 1 2 3 4 5 6 
#
# 1 0.006143 -0.004661 -0.000689 0.000210 0.001258 -0.000005
# 2 -0.004661 0.013208 -0.000754 -0.000599 -0.000785 0.000008
# 3 -0.000689 -0.000754 0.021212 -0.001162 -0.000436 -0.000002
# 4 0.000210 -0.000599 -0.001162 -1.497334 0.001093 -0.030660
# 5 0.001258 -0.000785 -0.000436 0.001093 0.027817 0.000015
# 6 -0.000005 0.000008 -0.000002 -0.030660 0.000015 0.046934
#
#
# Mechanical properties :
#
#
# Convention : Reuss Voigt Hill
#
# Bulk Modulus (GPa) = 35.26764 63.39113 49.32939
# Shear Modulus (GPa) = -3.67550 30.12136 13.22293
#
# Velocity S-wave (km/s) = -1.25357 3.58861 2.37768
# Velocity P-wave (km/s) = 3.60321 6.65380 5.35052
#
# Compressibility (1/GPa) = 0.02835460
#
# Stress axis : x y z
#
# Youngs Moduli (GPa) = 162.78008 75.71095 47.14309
#
# Poissons Ratio (x) = 0.35290 0.03249
# Poissons Ratio (y) = 0.75874 0.03555
# Poissons Ratio (z) = 0.11219 0.05709
#
# Static dielectric constant tensor:
#      x y z
#    x 1.923250 0.000110 0.035110 
#    y 0.000110 2.082220 0.000080 
#    z 0.035110 0.000080 2.005140 
# 
# From -- ./inp_files/205912.got.cif
#   From: 2010.05.17/outbox.cif.g08.bks.cpg/sg12_103_cif.got.tgz:205912.got - 2010.06.03 13:09:07.
