data_PCOD9205449
_publ_section_title
;
Structure prediction by ZEFSAII (Michael W. Deem and Ramdas Pophale) SiO2 
 PCOD9205449
Probable space group: C 2/M
;
_chemical_formula_sum "Si O2"
_cell_formula_units_Z 64
_cell_length_a 8.449364
_cell_length_b 21.983961
_cell_length_c 20.869385
_cell_angle_alpha 90.000000
_cell_angle_beta 129.040635
_cell_angle_gamma 90.000000
_cell_volume 3010.874195
_symmetry_space_group_name_H-M "C 2/M"
_symmetry_group_IT_number 12
_symmetry_cell_setting 'monoclinic'
loop_
_space_group_symop_operation_xyz
x,y,z
-x,y,-z
-x,-y,-z
x,-y,z
1/2+x,1/2+y,z
1/2-x,1/2+y,-z
1/2-x,1/2-y,-z
1/2+x,1/2-y,z
loop_
_atom_site_type_symbol
_atom_site_label
_atom_site_fract_x
_atom_site_fract_y
_atom_site_fract_z
Si Si1 0.365640 0.932278 0.882538
Si Si2 0.732647 0.316371 0.926536
Si Si3 0.036203 0.304486 0.585053
Si Si4 0.739486 0.367890 0.063611
Si Si5 0.049688 0.435127 0.588829
Si Si6 0.795137 0.223938 0.838651
Si Si7 0.525278 0.567039 0.685614
Si Si8 0.488792 0.297058 0.668728
O O1 0.295956 0.882263 0.916025
O O2 0.585133 0.916045 0.907989
O O3 0.195576 0.930585 0.783748
O O4 0.365293 0.000000 0.909246
O O5 0.848373 0.269610 0.910367
O O6 0.496634 0.299687 0.855334
O O7 0.753569 0.320336 0.008171
O O8 0.967024 0.370870 0.592891
O O9 0.280152 0.301533 0.654991
O O10 0.947540 0.247621 0.599216
O O11 0.000000 0.302830 0.500000
O O12 0.789590 0.334271 0.143439
O O13 0.500000 0.387984 0.000000
O O14 0.975752 0.500000 0.596728
O O15 0.295367 0.434123 0.655204
O O16 0.000000 0.435325 0.500000
O O17 0.654916 0.262774 0.755146
O O18 0.547038 0.500000 0.657900
O O19 0.541962 0.634454 0.658862
#
# Coordination Sequence:
#
# PCOD9205449 Si02
#       8
#     8   8   8   8   8   8   8   8
#     4  11  23  40  63  87 118 159 207 254 300 367
#     4  11  22  39  60  88 120 154 200 254 308 363
#     4  10  21  35  55  89 124 157 197 243 298 357
#     4  10  24  41  60  88 121 155 196 256 314 370
#     4   8  15  31  56  84 116 153 194 238 287 344
#     4  11  22  37  60  89 120 153 202 252 308 370
#     4   9  19  35  57  85 115 151 201 248 296 356
#     4  11  21  35  61  85 118 158 194 249 304 360
#
# _framework density 21.256284999999998
#
# number of rings (size 3 to 8) (size 9 to 14) (size 15 to 20)
#    0.000    1.875    1.250    2.625    3.500    3.250 
#    0.000    1.875    0.000    1.875    0.000    0.000 
#    0.000    0.000    0.000    0.000    0.000    0.000 
#
# Total GULP energy -178374.911066 kJ/mol
# GULP energy per Si atom -5574.215971 kJ/mol
# Density = 2.120791 g / cm^3
# Si number density = 21.256285 Si / 1000 Ang^3
#
#
#
# Elastic Constant Matrix: (Units=GPa)
#
#
# Indices 1 2 3 4 5 6 
#
# 1 73.2896 37.3473 14.8806 0.0000 10.2755 0.0000
# 2 37.3473 185.9780 14.8108 0.0000 -12.9595 0.0000
# 3 14.8806 14.8108 67.5629 0.0000 12.1050 0.0000
# 4 0.0000 0.0000 0.0000 18.9843 0.0000 7.4955
# 5 10.2755 -12.9595 12.1050 0.0000 24.7560 0.0000
# 6 0.0000 0.0000 0.0000 7.4955 0.0000 18.8244
#
#
#
# Elastic Compliance Matrix: (Units=1/GPa)
#
#
# Indices 1 2 3 4 5 6 
#
# 1 0.017110 -0.003915 -0.001392 0.000000 -0.008471 0.000000
# 2 -0.003915 0.006712 -0.001677 0.000000 0.005959 0.000000
# 3 -0.001392 -0.001677 0.017020 0.000000 -0.008622 0.000000
# 4 0.000000 0.000000 0.000000 0.062501 0.000000 -0.024887
# 5 -0.008471 0.005959 -0.008622 0.000000 0.051245 0.000000
# 6 0.000000 0.000000 0.000000 -0.024887 0.000000 0.063032
#
#
# Mechanical properties :
#
#
# Convention : Reuss Voigt Hill
#
# Bulk Modulus (GPa) = 37.21181 51.21198 44.21190
# Shear Modulus (GPa) = 20.78595 29.83240 25.30917
#
# Velocity S-wave (km/s) = 3.13049 3.75035 3.45435
# Velocity P-wave (km/s) = 5.53271 6.54969 6.06256
#
# Compressibility (1/GPa) = 0.02687319
#
# Stress axis : x y z
#
# Youngs Moduli (GPa) = 58.44523 148.98757 58.75431
#
# Poissons Ratio (x) = 0.58334 0.08182
# Poissons Ratio (y) = 0.22883 0.09851
# Poissons Ratio (z) = 0.08138 0.24979
#
# Static dielectric constant tensor:
#      x y z
#    x 1.770280 0.000000 0.043320 
#    y 0.000000 1.830320 0.000000 
#    z 0.043320 0.000000 1.814320 
# 
# From -- ./inp_files/333777.got.cif
#   From: 2010.05.17/outbox.cif.g08.bks.cpg/sg12_167_cif.got.tgz:333777.got - 2010.06.03 13:09:07.
