data_PCOD9205256
_publ_section_title
;
Structure prediction by ZEFSAII (Michael W. Deem and Ramdas Pophale) SiO2 
 PCOD9205256
Probable space group: C 2/M
;
_chemical_formula_sum "Si O2"
_cell_formula_units_Z 52
_cell_length_a 5.064728
_cell_length_b 17.439182
_cell_length_c 31.266441
_cell_angle_alpha 90.000000
_cell_angle_beta 68.720686
_cell_angle_gamma 90.000000
_cell_volume 2573.319982
_symmetry_space_group_name_H-M "C 2/M"
_symmetry_group_IT_number 12
_symmetry_cell_setting 'monoclinic'
loop_
_space_group_symop_operation_xyz
x,y,z
-x,y,-z
-x,-y,-z
x,-y,z
1/2+x,1/2+y,z
1/2-x,1/2+y,-z
1/2-x,1/2-y,-z
1/2+x,1/2-y,z
loop_
_atom_site_type_symbol
_atom_site_label
_atom_site_fract_x
_atom_site_fract_y
_atom_site_fract_z
Si Si1 0.366056 0.802840 0.097202
Si Si2 0.655262 0.806714 0.677121
Si Si3 0.353977 0.803557 0.552216
Si Si4 0.105223 0.911643 0.274112
Si Si5 0.918882 0.411843 0.627683
Si Si6 0.452513 0.304703 0.802581
Si Si7 0.500000 0.193589 0.000000
O O1 0.664886 0.770165 0.096793
O O2 0.198216 0.839970 0.146382
O O3 0.409265 0.846726 0.049646
O O4 0.405589 0.749881 0.677123
O O5 0.641865 0.865032 0.717741
O O6 0.668492 0.864907 0.636509
O O7 0.059242 0.763786 0.557646
O O8 0.500000 0.832714 0.500000
O O9 0.340840 0.867620 0.589203
O O10 0.024821 0.865959 0.236324
O O11 0.844635 0.909746 0.323386
O O12 0.177252 0.000000 0.262102
O O13 0.994291 0.500000 0.615978
O O14 0.741436 0.262819 0.798821
O O15 0.750000 0.250000 0.000000
#
# Coordination Sequence:
#
# PCOD9205256 Si02
#       7
#     8   8   8   8   8   8   4
#     4   8  14  25  41  66  97 129 172 222 273 326
#     4  12  23  40  62  85 112 149 193 233 277 328
#     4  10  23  43  66  92 119 152 193 233 277 335
#     4  11  25  41  57  86 120 153 190 235 285 336
#     4  11  25  42  63  92 124 153 190 235 286 339
#     4  10  21  35  53  77 106 145 190 230 274 333
#     4   8  12  20  38  62  93 128 161 216 282 322
#
# _framework density 20.207360999999999
#
# number of rings (size 3 to 8) (size 9 to 14) (size 15 to 20)
#    0.000    1.846    1.538    2.308    4.308    0.308 
#    0.000    0.000    0.000    2.769    0.000    0.538 
#    0.000    0.000    0.000   35.538    0.000    0.308 
#
# Total GULP energy -145093.638900 kJ/mol
# GULP energy per Si atom -5580.524573 kJ/mol
# Density = 2.016137 g / cm^3
# Si number density = 20.207361 Si / 1000 Ang^3
#
#
#
# Elastic Constant Matrix: (Units=GPa)
#
#
# Indices 1 2 3 4 5 6 
#
# 1 112.0027 15.3168 15.7794 0.0000 12.1035 0.0000
# 2 15.3168 91.4500 53.3181 0.0000 4.8775 0.0000
# 3 15.7794 53.3181 171.6960 0.0000 14.0186 0.0000
# 4 0.0000 0.0000 0.0000 7.7916 0.0000 -6.7805
# 5 12.1035 4.8775 14.0186 0.0000 29.0859 0.0000
# 6 0.0000 0.0000 0.0000 -6.7805 0.0000 10.0569
#
#
#
# Elastic Compliance Matrix: (Units=1/GPa)
#
#
# Indices 1 2 3 4 5 6 
#
# 1 0.009526 -0.001299 -0.000173 0.000000 -0.003663 0.000000
# 2 -0.001299 0.013531 -0.004103 0.000000 0.000249 0.000000
# 3 -0.000173 -0.004103 0.007341 0.000000 -0.002778 0.000000
# 4 0.000000 0.000000 0.000000 0.310545 0.000000 0.209373
# 5 -0.003663 0.000249 -0.002778 0.000000 0.037202 0.000000
# 6 0.000000 0.000000 0.000000 0.209373 0.000000 0.240596
#
#
# Mechanical properties :
#
#
# Convention : Reuss Voigt Hill
#
# Bulk Modulus (GPa) = 51.95259 60.44193 56.19726
# Shear Modulus (GPa) = 7.85783 28.76918 18.31351
#
# Velocity S-wave (km/s) = 1.97409 3.77729 3.01371
# Velocity P-wave (km/s) = 5.56431 6.99997 6.32302
#
# Compressibility (1/GPa) = 0.01924832
#
# Stress axis : x y z
#
# Youngs Moduli (GPa) = 104.97318 73.90211 136.21947
#
# Poissons Ratio (x) = 0.09602 0.02356
# Poissons Ratio (y) = 0.13640 0.55890
# Poissons Ratio (z) = 0.01815 0.30322
#
# Static dielectric constant tensor:
#      x y z
#    x 1.776730 0.000000 -0.051700 
#    y 0.000000 1.664890 0.000000 
#    z -0.051700 0.000000 1.836820 
# 
# From -- ./inp_files/354880.got.cif
#   From: 2010.05.17/outbox.cif.g08.bks.cpg/sg12_178_cif.got.tgz:354880.got - 2010.06.03 13:09:07.
