data_PCOD9205289
_publ_section_title
;
Structure prediction by ZEFSAII (Michael W. Deem and Ramdas Pophale) SiO2 
 PCOD9205289
Probable space group: C 2/M
;
_chemical_formula_sum "Si O2"
_cell_formula_units_Z 56
_cell_length_a 28.264940
_cell_length_b 8.721530
_cell_length_c 12.475718
_cell_angle_alpha 90.000000
_cell_angle_beta 76.923441
_cell_angle_gamma 90.000000
_cell_volume 2995.682940
_symmetry_space_group_name_H-M "C 2/M"
_symmetry_group_IT_number 12
_symmetry_cell_setting 'monoclinic'
loop_
_space_group_symop_operation_xyz
x,y,z
-x,y,-z
-x,-y,-z
x,-y,z
1/2+x,1/2+y,z
1/2-x,1/2+y,-z
1/2-x,1/2-y,-z
1/2+x,1/2-y,z
loop_
_atom_site_type_symbol
_atom_site_label
_atom_site_fract_x
_atom_site_fract_y
_atom_site_fract_z
Si Si1 0.348323 0.816694 0.047559
Si Si2 0.715615 0.678902 0.607470
Si Si3 0.752982 0.679521 0.830769
Si Si4 0.641946 0.682055 0.180354
Si Si5 0.115847 0.317429 0.733725
Si Si6 0.935203 0.317285 0.617112
Si Si7 0.961619 0.182193 0.379191
O O1 0.293330 0.755034 0.088141
O O2 0.374946 0.779633 0.145986
O O3 0.347583 0.000000 0.035405
O O4 0.371517 0.739187 0.931845
O O5 0.706256 0.500000 0.589394
O O6 0.750000 0.750000 0.500000
O O7 0.741782 0.689009 0.709592
O O8 0.664604 0.765964 0.646562
O O9 0.756695 0.500000 0.858573
O O10 0.802668 0.765302 0.830010
O O11 0.637593 0.500000 0.190650
O O12 0.608369 0.762031 0.285885
O O13 0.109849 0.500000 0.726958
O O14 0.070339 0.232622 0.705168
O O15 0.934742 0.500000 0.604457
O O16 0.934280 0.238502 0.500943
O O17 0.986102 0.263805 0.643261
O O18 0.968199 0.000000 0.379607
#
# Coordination Sequence:
#
# PCOD9205289 Si02
#       7
#     8   8   8   8   8   8   8
#     4  10  21  39  60  85 117 155 198 242 287 344
#     4  10  21  35  53  80 116 152 193 241 287 343
#     4  10  21  37  56  81 115 157 198 238 289 344
#     4  12  24  38  59  86 118 154 196 244 293 343
#     4  10  21  38  61  85 114 154 195 234 289 348
#     4  11  23  41  63  88 118 151 193 241 289 344
#     4  11  22  40  64  90 120 151 189 236 293 351
#
# _framework density 18.693566000000001
#
# number of rings (size 3 to 8) (size 9 to 14) (size 15 to 20)
#    0.000    1.429    0.000    6.857    2.000    3.429 
#    0.000    0.714    0.000    4.286    0.000    0.000 
#    0.000    0.000    0.000    0.000    0.000    0.000 
#
# Total GULP energy -156580.521503 kJ/mol
# GULP energy per Si atom -5592.161482 kJ/mol
# Density = 1.865102 g / cm^3
# Si number density = 18.693566 Si / 1000 Ang^3
#
#
#
# Elastic Constant Matrix: (Units=GPa)
#
#
# Indices 1 2 3 4 5 6 
#
# 1 55.7505 12.3031 19.2015 0.0000 13.5268 0.0000
# 2 12.3031 92.4052 12.3298 0.0000 4.7099 0.0000
# 3 19.2015 12.3298 42.6658 0.0000 -6.3489 0.0000
# 4 0.0000 0.0000 0.0000 32.6908 0.0000 -1.8241
# 5 13.5268 4.7099 -6.3489 0.0000 13.9053 0.0000
# 6 0.0000 0.0000 0.0000 -1.8241 0.0000 32.9044
#
#
#
# Elastic Compliance Matrix: (Units=1/GPa)
#
#
# Indices 1 2 3 4 5 6 
#
# 1 0.037922 0.000674 -0.024445 0.000000 -0.048279 0.000000
# 2 0.000674 0.011703 -0.004691 0.000000 -0.006761 0.000000
# 3 -0.024445 -0.004691 0.042455 0.000000 0.044753 0.000000
# 4 0.000000 0.000000 0.000000 0.030685 0.000000 0.001701
# 5 -0.048279 -0.006761 0.044753 0.000000 0.141604 0.000000
# 6 0.000000 0.000000 0.000000 0.001701 0.000000 0.030485
#
#
# Mechanical properties :
#
#
# Convention : Reuss Voigt Hill
#
# Bulk Modulus (GPa) = 28.44674 30.94335 29.69505
# Shear Modulus (GPa) = 13.75529 25.69925 19.72727
#
# Velocity S-wave (km/s) = 2.71556 3.71180 3.25206
# Velocity P-wave (km/s) = 5.00827 5.91260 5.47913
#
# Compressibility (1/GPa) = 0.03515341
#
# Stress axis : x y z
#
# Youngs Moduli (GPa) = 26.36994 85.44987 23.55457
#
# Poissons Ratio (x) = -0.05755 0.57580
# Poissons Ratio (y) = -0.01776 0.11050
# Poissons Ratio (z) = 0.64462 0.40085
#
# Static dielectric constant tensor:
#      x y z
#    x 1.628020 0.000000 0.024920 
#    y 0.000000 1.624000 0.000000 
#    z 0.024920 0.000000 1.639620 
# 
# From -- ./inp_files/180647.got.cif
#   From: 2010.05.17/outbox.cif.g08.bks.cpg/sg12_91_cif.got.tgz:180647.got - 2010.06.03 13:09:07.
