data_PCOD9205000
_publ_section_title
;
Structure prediction by ZEFSAII (Michael W. Deem and Ramdas Pophale) SiO2 
 PCOD9205000
Probable space group: C 2/M
;
_chemical_formula_sum "Si O2"
_cell_formula_units_Z 56
_cell_length_a 30.114364
_cell_length_b 19.257443
_cell_length_c 5.298469
_cell_angle_alpha 90.000000
_cell_angle_beta 119.728716
_cell_angle_gamma 90.000000
_cell_volume 2668.296403
_symmetry_space_group_name_H-M "C 2/M"
_symmetry_group_IT_number 12
_symmetry_cell_setting 'monoclinic'
loop_
_space_group_symop_operation_xyz
x,y,z
-x,y,-z
-x,-y,-z
x,-y,z
1/2+x,1/2+y,z
1/2-x,1/2+y,-z
1/2-x,1/2-y,-z
1/2+x,1/2-y,z
loop_
_atom_site_type_symbol
_atom_site_label
_atom_site_fract_x
_atom_site_fract_y
_atom_site_fract_z
Si Si1 0.561157 0.335831 0.639936
Si Si2 0.624368 0.776436 0.021805
Si Si3 0.532958 0.865249 0.844028
Si Si4 0.668630 0.000000 0.646220
Si Si5 0.207417 0.354381 0.951134
Si Si6 0.561593 0.578213 0.146372
Si Si7 0.899013 0.500000 0.048666
Si Si8 0.708235 0.276506 0.580741
O O1 0.500000 0.320499 0.500000
O O2 0.575125 0.379844 0.434323
O O3 0.595908 0.267394 0.727083
O O4 0.572899 0.381143 0.921746
O O5 0.656544 0.722556 0.278496
O O6 0.576399 0.808846 0.029810
O O7 0.662764 0.836899 0.030992
O O8 0.500000 0.848365 0.500000
O O9 0.500000 0.875025 0.000000
O O10 0.564686 0.934054 0.875104
O O11 0.698564 0.072461 0.787481
O O12 0.643102 0.000000 0.296585
O O13 0.625935 0.000000 0.745507
O O14 0.202116 0.286722 0.758772
O O15 0.264721 0.343964 0.223979
O O16 0.582293 0.500000 0.199526
O O17 0.500000 0.573286 0.000000
O O18 0.750000 0.250000 0.500000
#
# Coordination Sequence:
#
# PCOD9205000 Si02
#       8
#     8   8   8   4   8   8   4   8
#     4  10  21  34  55  90 122 164 209 257 307 375
#     4  11  23  38  64  91 134 173 221 273 326 398
#     4  12  26  41  62  93 141 190 236 278 325 377
#     4  12  24  41  76 102 134 174 234 282 337 410
#     4  10  22  42  69  99 126 168 219 279 337 407
#     4   9  18  35  57  80 112 154 206 256 306 363
#     4  12  24  45  62  96 138 190 236 275 327 386
#     4   9  21  42  68  95 122 162 215 271 347 400
#
# _framework density 20.987175000000001
#
# number of rings (size 3 to 8) (size 9 to 14) (size 15 to 20)
#    0.000    1.571    1.429    3.000    6.000    3.429 
#    0.000    0.000    3.143    0.000    1.857    0.000 
#    0.000    0.000    0.000    0.000    0.000    0.000 
#
# Total GULP energy -156240.115052 kJ/mol
# GULP energy per Si atom -5580.004109 kJ/mol
# Density = 2.093941 g / cm^3
# Si number density = 20.987175 Si / 1000 Ang^3
#
#
#
# Elastic Constant Matrix: (Units=GPa)
#
#
# Indices 1 2 3 4 5 6 
#
# 1 46.9659 9.3403 20.6811 0.0000 3.8867 0.0000
# 2 9.3403 74.2799 16.7138 0.0000 23.3973 0.0000
# 3 20.6811 16.7138 83.7199 0.0000 11.4346 0.0000
# 4 0.0000 0.0000 0.0000 20.4459 0.0000 -6.3932
# 5 3.8867 23.3973 11.4346 0.0000 39.2097 0.0000
# 6 0.0000 0.0000 0.0000 -6.3932 0.0000 -9.3562
#
#
#
# Elastic Compliance Matrix: (Units=1/GPa)
#
#
# Indices 1 2 3 4 5 6 
#
# 1 0.024116 -0.001883 -0.005633 0.000000 0.000376 0.000000
# 2 -0.001883 0.017067 -0.001642 0.000000 -0.009519 0.000000
# 3 -0.005633 -0.001642 0.014012 0.000000 -0.002548 0.000000
# 4 0.000000 0.000000 0.000000 0.040299 0.000000 -0.027537
# 5 0.000376 -0.009519 -0.002548 0.000000 0.031890 0.000000
# 6 0.000000 0.000000 0.000000 -0.027537 0.000000 -0.088065
#
#
# Mechanical properties :
#
#
# Convention : Reuss Voigt Hill
#
# Bulk Modulus (GPa) = 27.11583 33.15957 30.13770
# Shear Modulus (GPa) = 71.50227 20.60857 46.05542
#
# Velocity S-wave (km/s) = 5.84324 3.13702 4.68958
# Velocity P-wave (km/s) = 7.64676 5.38103 6.61167
#
# Compressibility (1/GPa) = 0.03687882
#
# Stress axis : x y z
#
# Youngs Moduli (GPa) = 41.46663 58.59185 71.36836
#
# Poissons Ratio (x) = 0.11036 0.40199
# Poissons Ratio (y) = 0.07810 0.11718
# Poissons Ratio (z) = 0.23356 0.09620
#
# Static dielectric constant tensor:
#      x y z
#    x 1.936630 0.000000 0.010010 
#    y 0.000000 1.816920 0.000000 
#    z 0.010010 0.000000 1.818420 
# 
# From -- ./inp_files/32128.got.cif
#   From: 2010.05.17/outbox.cif.g08.bks.cpg/sg12_17_cif.got.tgz:32128.got - 2010.06.03 13:09:07.
