data_PCOD9205690
_publ_section_title
;
Structure prediction by ZEFSAII (Michael W. Deem and Ramdas Pophale) SiO2 
 PCOD9205690
Probable space group: C 2/M
;
_chemical_formula_sum "Si O2"
_cell_formula_units_Z 60
_cell_length_a 12.255257
_cell_length_b 22.593283
_cell_length_c 17.736766
_cell_angle_alpha 90.000000
_cell_angle_beta 140.486375
_cell_angle_gamma 90.000000
_cell_volume 3124.726282
_symmetry_space_group_name_H-M "C 2/M"
_symmetry_group_IT_number 12
_symmetry_cell_setting 'monoclinic'
loop_
_space_group_symop_operation_xyz
x,y,z
-x,y,-z
-x,-y,-z
x,-y,z
1/2+x,1/2+y,z
1/2-x,1/2+y,-z
1/2-x,1/2-y,-z
1/2+x,1/2-y,z
loop_
_atom_site_type_symbol
_atom_site_label
_atom_site_fract_x
_atom_site_fract_y
_atom_site_fract_z
Si Si1 0.411436 0.776858 0.030901
Si Si2 0.769570 0.847527 0.661583
Si Si3 0.699859 0.433057 0.085601
Si Si4 0.368353 0.650522 0.070672
Si Si5 0.500000 0.367819 0.500000
Si Si6 0.693947 0.569456 0.466527
Si Si7 0.159456 0.711099 0.309930
Si Si8 0.030535 0.367535 0.672497
O O1 0.355994 0.708209 0.009992
O O2 0.533702 0.790521 0.168887
O O3 0.500000 0.778657 0.000000
O O4 0.257363 0.823065 0.935031
O O5 0.796567 0.890580 0.604498
O O6 0.783583 0.778732 0.646396
O O7 0.603840 0.855805 0.627600
O O8 0.938515 0.858504 0.802194
O O9 0.758525 0.500000 0.124314
O O10 0.808370 0.390293 0.195139
O O11 0.500000 0.429945 0.000000
O O12 0.709157 0.407579 0.006881
O O13 0.437689 0.405860 0.539945
O O14 0.668068 0.327949 0.608666
O O15 0.664152 0.500000 0.435934
O O16 0.886874 0.581337 0.598941
O O17 0.056249 0.686551 0.327934
#
# Coordination Sequence:
#
# PCOD9205690 Si02
#       8
#     8   8   8   8   4   8   8   8
#     4  10  21  35  63  88 126 162 198 251 300 377
#     4  11  25  37  66  97 128 161 200 268 317 376
#     4  11  21  36  59  85 119 160 202 248 303 365
#     4  10  21  37  56  92 123 158 200 243 311 364
#     4  10  25  44  70  90 125 164 214 266 306 370
#     4  11  26  46  66  91 123 170 217 253 309 377
#     4  10  24  39  63  97 128 163 208 257 325 375
#     4  11  23  42  62  90 127 165 207 258 320 373
#
# _framework density 19.201682000000002
#
# number of rings (size 3 to 8) (size 9 to 14) (size 15 to 20)
#    0.000    1.467    2.667    1.400    7.467    3.200 
#    0.000    0.000    0.000    0.400    0.000    0.000 
#    0.000    0.000    0.000    0.000    0.000    0.000 
#
# Total GULP energy -167150.506042 kJ/mol
# GULP energy per Si atom -5571.683535 kJ/mol
# Density = 1.915798 g / cm^3
# Si number density = 19.201682 Si / 1000 Ang^3
#
#
#
# Elastic Constant Matrix: (Units=GPa)
#
#
# Indices 1 2 3 4 5 6 
#
# 1 178.0025 62.8235 29.5434 0.0000 5.7698 0.0001
# 2 62.8235 113.1428 29.8794 0.0000 -0.5214 0.0000
# 3 29.5434 29.8794 63.3982 -0.0003 9.2806 0.0001
# 4 0.0000 0.0000 -0.0003 27.9134 0.0000 -3.4827
# 5 5.7698 -0.5214 9.2806 0.0000 23.0439 0.0001
# 6 0.0001 0.0000 0.0001 -3.4827 0.0001 19.4983
#
#
#
# Elastic Compliance Matrix: (Units=1/GPa)
#
#
# Indices 1 2 3 4 5 6 
#
# 1 0.007174 -0.003605 -0.001455 0.000000 -0.001292 0.000000
# 2 -0.003605 0.012020 -0.004418 0.000000 0.002954 0.000000
# 3 -0.001455 -0.004418 0.019653 0.000000 -0.007651 0.000000
# 4 0.000000 0.000000 0.000000 0.036642 0.000000 0.006545
# 5 -0.001292 0.002954 -0.007651 0.000000 0.046867 0.000000
# 6 0.000000 0.000000 0.000000 0.006545 0.000000 0.052455
#
#
# Mechanical properties :
#
#
# Convention : Reuss Voigt Hill
#
# Bulk Modulus (GPa) = 50.27040 66.55957 58.41499
# Shear Modulus (GPa) = 24.95053 29.57760 27.26406
#
# Velocity S-wave (km/s) = 3.60862 3.92901 3.77222
# Velocity P-wave (km/s) = 6.60302 7.43784 7.03283
#
# Compressibility (1/GPa) = 0.01989242
#
# Stress axis : x y z
#
# Youngs Moduli (GPa) = 139.40134 83.19255 50.88219
#
# Poissons Ratio (x) = 0.29990 0.07402
# Poissons Ratio (y) = 0.50253 0.22478
# Poissons Ratio (z) = 0.20279 0.36752
#
# Static dielectric constant tensor:
#      x y z
#    x 1.598130 0.000000 -0.061100 
#    y 0.000000 1.643270 0.000000 
#    z -0.061100 0.000000 1.678030 
# 
# From -- ./inp_files/265284.got.cif
#   From: 2010.05.17/outbox.cif.g08.bks.cpg/sg12_133_cif.got.tgz:265284.got - 2010.06.03 13:09:07.
