data_PCOD9205823
_publ_section_title
;
Structure prediction by ZEFSAII (Michael W. Deem and Ramdas Pophale) SiO2 
 PCOD9205823
Probable space group: C 2/M
;
_chemical_formula_sum "Si O2"
_cell_formula_units_Z 40
_cell_length_a 9.622736
_cell_length_b 18.843779
_cell_length_c 13.984442
_cell_angle_alpha 90.000000
_cell_angle_beta 130.691820
_cell_angle_gamma 90.000000
_cell_volume 1922.698579
_symmetry_space_group_name_H-M "C 2/M"
_symmetry_group_IT_number 12
_symmetry_cell_setting 'monoclinic'
loop_
_space_group_symop_operation_xyz
x,y,z
-x,y,-z
-x,-y,-z
x,-y,z
1/2+x,1/2+y,z
1/2-x,1/2+y,-z
1/2-x,1/2-y,-z
1/2+x,1/2-y,z
loop_
_atom_site_type_symbol
_atom_site_label
_atom_site_fract_x
_atom_site_fract_y
_atom_site_fract_z
Si Si1 0.955938 0.085511 0.214653
Si Si2 0.411407 0.202133 0.618448
Si Si3 0.641249 0.675202 0.651890
Si Si4 0.794843 0.919903 0.951363
Si Si5 0.642989 0.914696 0.681224
O O1 0.885203 0.113706 0.283291
O O2 0.169121 0.104802 0.289546
O O3 0.951573 0.000000 0.208487
O O4 0.828533 0.113729 0.070155
O O5 0.250000 0.250000 0.500000
O O6 0.585067 0.253034 0.681946
O O7 0.336531 0.184182 0.689539
O O8 0.460080 0.130675 0.582257
O O9 0.500000 0.663757 0.500000
O O10 0.680894 0.893897 0.809824
O O11 0.725773 0.000000 0.937379
O O12 0.000000 0.924911 0.000000
O O13 0.617802 0.000000 0.661788
#
# Coordination Sequence:
#
# PCOD9205823 Si02
#       5
#     8   8   8   8   8
#     4   9  17  32  56  86 116 143 176 220 271 327
#     4  10  21  37  55  75 104 144 187 231 275 318
#     4  10  21  36  54  72 103 148 188 228 276 325
#     4   7  12  26  51  82 113 142 172 214 268 323
#     4   9  17  33  59  86 110 141 182 223 268 328
#
# _framework density 20.804093000000002
#
# number of rings (size 3 to 8) (size 9 to 14) (size 15 to 20)
#    0.000    3.000    0.000    3.600    0.000    2.800 
#    0.000    5.000    0.000   18.600    0.000    0.000 
#    0.000    0.000    0.000    0.000    0.000    0.200 
#
# Total GULP energy -111338.970142 kJ/mol
# GULP energy per Si atom -5566.948507 kJ/mol
# Density = 2.075674 g / cm^3
# Si number density = 20.804093 Si / 1000 Ang^3
#
#
#
# Elastic Constant Matrix: (Units=GPa)
#
#
# Indices 1 2 3 4 5 6 
#
# 1 152.4722 39.7347 30.4483 0.0000 -23.0827 0.0000
# 2 39.7347 44.2288 8.0867 0.0000 1.2383 0.0000
# 3 30.4483 8.0867 81.2868 0.0000 -26.1975 0.0000
# 4 0.0000 0.0000 0.0000 8.6825 0.0000 -20.2678
# 5 -23.0827 1.2383 -26.1975 0.0000 31.2260 0.0000
# 6 0.0000 0.0000 0.0000 -20.2678 0.0000 30.9160
#
#
#
# Elastic Compliance Matrix: (Units=1/GPa)
#
#
# Indices 1 2 3 4 5 6 
#
# 1 0.010216 -0.009302 -0.000478 0.000000 0.007520 0.000000
# 2 -0.009302 0.031846 -0.003162 0.000000 -0.010791 0.000000
# 3 -0.000478 -0.003162 0.017437 0.000000 0.014401 0.000000
# 4 0.000000 0.000000 0.000000 -0.217177 0.000000 -0.142376
# 5 0.007520 -0.010791 0.014401 0.000000 0.050093 0.000000
# 6 0.000000 0.000000 0.000000 -0.142376 0.000000 -0.060992
#
#
# Mechanical properties :
#
#
# Convention : Reuss Voigt Hill
#
# Bulk Modulus (GPa) = 29.74690 48.28081 39.01385
# Shear Modulus (GPa) = -38.02651 27.47943 -5.27354
#
# Velocity S-wave (km/s) = -4.27996 3.63832 -1.59385
# Velocity P-wave (km/s) = 3.17718 6.39590 3.92512
#
# Compressibility (1/GPa) = 0.03361695
#
# Stress axis : x y z
#
# Youngs Moduli (GPa) = 97.88113 31.40076 57.34943
#
# Poissons Ratio (x) = 0.29208 0.02741
# Poissons Ratio (y) = 0.91044 0.18134
# Poissons Ratio (z) = 0.04678 0.09929
#
# Static dielectric constant tensor:
#      x y z
#    x 1.742430 0.000000 0.015400 
#    y 0.000000 1.798450 0.000000 
#    z 0.015400 0.000000 1.932840 
# 
# From -- ./inp_files/118920.got.cif
#   From: 2010.05.17/outbox.cif.g08.bks.cpg/sg12_60_cif.got.tgz:118920.got - 2010.06.03 13:09:07.
