data_PCOD9205588
_publ_section_title
;
Structure prediction by ZEFSAII (Michael W. Deem and Ramdas Pophale) SiO2 
 PCOD9205588
Probable space group: C 2/M
;
_chemical_formula_sum "Si O2"
_cell_formula_units_Z 48
_cell_length_a 10.005154
_cell_length_b 28.393178
_cell_length_c 18.514210
_cell_angle_alpha 90.000000
_cell_angle_beta 151.767450
_cell_angle_gamma 90.000000
_cell_volume 2488.005091
_symmetry_space_group_name_H-M "C 2/M"
_symmetry_group_IT_number 12
_symmetry_cell_setting 'monoclinic'
loop_
_space_group_symop_operation_xyz
x,y,z
-x,y,-z
-x,-y,-z
x,-y,z
1/2+x,1/2+y,z
1/2-x,1/2+y,-z
1/2-x,1/2-y,-z
1/2+x,1/2-y,z
loop_
_atom_site_type_symbol
_atom_site_label
_atom_site_fract_x
_atom_site_fract_y
_atom_site_fract_z
Si Si1 0.208996 0.697771 0.207311
Si Si2 0.156090 0.500000 0.416324
Si Si3 0.660274 0.912226 0.151994
Si Si4 0.655226 0.000000 0.250083
Si Si5 0.290092 0.672257 0.460376
Si Si6 0.320212 0.909979 0.483871
Si Si7 0.817217 0.273284 0.145821
O O1 0.133183 0.642411 0.164447
O O2 0.494136 0.703594 0.390263
O O3 0.277140 0.721780 0.163052
O O4 0.963894 0.722809 0.137343
O O5 0.057698 0.500000 0.286716
O O6 0.500778 0.500000 0.581150
O O7 0.066625 0.454634 0.418683
O O8 0.569675 0.952566 0.166081
O O9 0.997832 0.918940 0.305704
O O10 0.500000 0.918228 0.000000
O O11 0.500000 0.650096 0.500000
O O12 0.179798 0.632872 0.460912
O O13 0.037251 0.699122 0.301621
O O14 0.500000 0.899040 0.500000
O O15 0.500000 0.294013 0.000000
#
# Coordination Sequence:
#
# PCOD9205588 Si02
#       7
#     8   4   8   4   8   8   8
#     4  10  22  38  58  82 117 154 196 235 286 344
#     4   9  19  32  59  85 117 144 200 234 286 348
#     4  10  21  38  61  88 117 151 196 238 288 349
#     4   9  19  34  63  89 110 155 192 238 286 342
#     4   9  21  37  57  80 113 153 201 235 278 348
#     4  10  21  35  58  87 116 154 189 242 290 339
#     4  11  22  36  56  83 115 153 193 243 291 337
#
# _framework density 19.292566000000001
#
# number of rings (size 3 to 8) (size 9 to 14) (size 15 to 20)
#    0.000    2.167    0.000    2.000    9.333    4.000 
#    0.000    0.833    0.000    1.000    0.000    0.000 
#    0.000    0.000    0.000    0.000    0.000    0.000 
#
# Total GULP energy -133835.829039 kJ/mol
# GULP energy per Si atom -5576.492877 kJ/mol
# Density = 1.924866 g / cm^3
# Si number density = 19.292566 Si / 1000 Ang^3
#
#
#
# Elastic Constant Matrix: (Units=GPa)
#
#
# Indices 1 2 3 4 5 6 
#
# 1 107.6258 78.4494 -0.2264 0.0009 -3.7391 0.0005
# 2 78.4494 110.9006 49.7511 0.0001 -1.7479 0.0000
# 3 -0.2264 49.7511 83.6497 0.0013 -19.7200 0.0003
# 4 0.0009 0.0001 0.0013 56.3828 0.0009 19.6291
# 5 -3.7391 -1.7479 -19.7200 0.0009 28.9812 0.0006
# 6 0.0005 0.0000 0.0003 19.6291 0.0006 50.2080
#
#
#
# Elastic Compliance Matrix: (Units=1/GPa)
#
#
# Indices 1 2 3 4 5 6 
#
# 1 0.041909 -0.043495 0.031728 -0.000002 0.024373 0.000000
# 2 -0.043495 0.058092 -0.041884 0.000002 -0.030608 0.000000
# 3 0.031728 -0.041884 0.044451 -0.000002 0.031814 0.000000
# 4 -0.000002 0.000002 -0.000002 0.020530 -0.000002 -0.008026
# 5 0.024373 -0.030608 0.031814 -0.000002 0.057451 0.000000
# 6 0.000000 0.000000 0.000000 -0.008026 0.000000 0.023055
#
#
# Mechanical properties :
#
#
# Convention : Reuss Voigt Hill
#
# Bulk Modulus (GPa) = 26.91747 62.01378 44.46563
# Shear Modulus (GPa) = 13.69206 38.72787 26.20996
#
# Velocity S-wave (km/s) = 2.66692 4.48526 3.68985
# Velocity P-wave (km/s) = 4.84415 7.68356 6.42273
#
# Compressibility (1/GPa) = 0.03715060
#
# Stress axis : x y z
#
# Youngs Moduli (GPa) = 23.86110 17.21398 22.49655
#
# Poissons Ratio (x) = 0.74873 -0.71378
# Poissons Ratio (y) = 1.03785 0.94225
# Poissons Ratio (z) = -0.75708 0.72099
#
# Static dielectric constant tensor:
#      x y z
#    x 1.665850 0.000000 -0.020250 
#    y 0.000000 1.688780 0.000000 
#    z -0.020250 0.000000 1.690720 
# 
# From -- ./inp_files/80636.got.cif
#   From: 2010.05.17/outbox.cif.g08.bks.cpg/sg12_41_cif.got.tgz:80636.got - 2010.06.03 13:09:07.
