data_PCOD9205965
_publ_section_title
;
Structure prediction by ZEFSAII (Michael W. Deem and Ramdas Pophale) SiO2 
 PCOD9205965
Probable space group: C 2/M
;
_chemical_formula_sum "Si O2"
_cell_formula_units_Z 48
_cell_length_a 31.792115
_cell_length_b 8.859870
_cell_length_c 15.933405
_cell_angle_alpha 90.000000
_cell_angle_beta 37.733104
_cell_angle_gamma 90.000000
_cell_volume 2746.600500
_symmetry_space_group_name_H-M "C 2/M"
_symmetry_group_IT_number 12
_symmetry_cell_setting 'monoclinic'
loop_
_space_group_symop_operation_xyz
x,y,z
-x,y,-z
-x,-y,-z
x,-y,z
1/2+x,1/2+y,z
1/2-x,1/2+y,-z
1/2-x,1/2-y,-z
1/2+x,1/2-y,z
loop_
_atom_site_type_symbol
_atom_site_label
_atom_site_fract_x
_atom_site_fract_y
_atom_site_fract_z
Si Si1 0.156264 0.179413 0.585088
Si Si2 0.818679 0.180147 0.930407
Si Si3 0.982508 0.320327 0.262559
Si Si4 0.294879 0.320100 0.305039
Si Si5 0.458060 0.181092 0.649507
Si Si6 0.864956 0.319507 0.032149
O O1 0.082331 0.232275 0.670353
O O2 0.216965 0.262778 0.439162
O O3 0.167785 0.215280 0.665387
O O4 0.164451 0.000000 0.562138
O O5 0.885532 0.235641 0.773340
O O6 0.814944 0.000000 0.936597
O O7 0.750000 0.250000 0.000000
O O8 0.830181 0.241853 0.006476
O O9 0.969899 0.500000 0.275416
O O10 0.998258 0.285993 0.335369
O O11 0.053577 0.285249 0.102208
O O12 0.295784 0.500000 0.291551
O O13 0.331788 0.239572 0.169646
O O14 0.500000 0.220837 0.500000
O O15 0.445328 0.000000 0.669172
O O16 0.857465 0.500000 0.036268
#
# Coordination Sequence:
#
# PCOD9205965 Si02
#       6
#     8   8   8   8   8   8
#     4  10  21  36  55  79 109 144 182 225 269 321
#     4  11  22  37  57  81 112 146 182 224 268 318
#     4   9  19  35  55  79 108 142 179 223 273 323
#     4  10  21  37  56  79 108 143 182 224 273 323
#     4   9  19  37  58  80 109 144 182 224 271 322
#     4  10  21  38  58  81 109 141 180 224 272 324
#
# _framework density 17.476148999999999
#
# number of rings (size 3 to 8) (size 9 to 14) (size 15 to 20)
#    0.000    2.167    0.000    4.000    0.000    7.667 
#    0.000    8.333    0.000    0.000    0.000    0.000 
#    0.000    0.000    0.000    0.000    0.000    0.000 
#
# Total GULP energy -134013.947531 kJ/mol
# GULP energy per Si atom -5583.914480 kJ/mol
# Density = 1.743637 g / cm^3
# Si number density = 17.476149 Si / 1000 Ang^3
#
#
#
# Elastic Constant Matrix: (Units=GPa)
#
#
# Indices 1 2 3 4 5 6 
#
# 1 100.8823 63.2613 92.8940 0.0000 -19.2896 0.0000
# 2 63.2613 85.0996 75.2743 -0.0004 -4.7520 0.0001
# 3 92.8940 75.2743 152.6426 0.0000 12.6428 0.0000
# 4 0.0000 -0.0004 0.0000 36.2580 0.0000 -3.2034
# 5 -19.2896 -4.7520 12.6428 0.0000 30.2134 0.0000
# 6 0.0000 0.0001 0.0000 -3.2034 0.0000 31.9221
#
#
#
# Elastic Compliance Matrix: (Units=1/GPa)
#
#
# Indices 1 2 3 4 5 6 
#
# 1 0.055024 -0.009146 -0.032907 0.000000 0.047461 0.000000
# 2 -0.009146 0.024330 -0.006491 0.000000 0.000704 0.000000
# 3 -0.032907 -0.006491 0.032737 0.000000 -0.035729 0.000000
# 4 0.000000 0.000000 0.000000 0.027827 0.000000 0.002792
# 5 0.047461 0.000704 -0.035729 0.000000 0.078461 0.000000
# 6 0.000000 0.000000 0.000000 0.002792 0.000000 0.031606
#
#
# Mechanical properties :
#
#
# Convention : Reuss Voigt Hill
#
# Bulk Modulus (GPa) = 66.64414 89.05374 77.84894
# Shear Modulus (GPa) = 14.20159 26.82505 20.51332
#
# Velocity S-wave (km/s) = 2.85375 3.92210 3.42978
# Velocity P-wave (km/s) = 7.00540 8.46040 7.76705
#
# Compressibility (1/GPa) = 0.01500507
#
# Stress axis : x y z
#
# Youngs Moduli (GPa) = 18.17398 41.10105 30.54610
#
# Poissons Ratio (x) = 0.37591 1.00517
# Poissons Ratio (y) = 0.16622 0.19826
# Poissons Ratio (z) = 0.59805 0.26677
#
# Static dielectric constant tensor:
#      x y z
#    x 1.569850 0.000000 0.007060 
#    y 0.000000 1.583930 0.000000 
#    z 0.007060 0.000000 1.567490 
# 
# From -- ./inp_files/244650.got.cif
#   From: 2010.05.17/outbox.cif.g08.bks.cpg/sg12_123_cif.got.tgz:244650.got - 2010.06.03 13:09:07.
