data_PCOD9205569
_publ_section_title
;
Structure prediction by ZEFSAII (Michael W. Deem and Ramdas Pophale) SiO2 
 PCOD9205569
Probable space group: C 2/M
;
_chemical_formula_sum "Si O2"
_cell_formula_units_Z 50
_cell_length_a 27.458953
_cell_length_b 14.496212
_cell_length_c 5.071457
_cell_angle_alpha 90.000000
_cell_angle_beta 106.721277
_cell_angle_gamma 90.000000
_cell_volume 1933.338357
_symmetry_space_group_name_H-M "C 2/M"
_symmetry_group_IT_number 12
_symmetry_cell_setting 'monoclinic'
loop_
_space_group_symop_operation_xyz
x,y,z
-x,y,-z
-x,-y,-z
x,-y,z
1/2+x,1/2+y,z
1/2-x,1/2+y,-z
1/2-x,1/2-y,-z
1/2+x,1/2-y,z
loop_
_atom_site_type_symbol
_atom_site_label
_atom_site_fract_x
_atom_site_fract_y
_atom_site_fract_z
Si Si1 0.446090 0.854426 0.043022
Si Si2 0.282415 0.893135 0.010825
Si Si3 0.734143 0.610266 0.437841
Si Si4 0.931539 0.867809 0.050229
Si Si5 0.500000 0.500000 0.500000
Si Si6 0.373362 0.644470 0.459402
Si Si7 0.888723 0.637018 0.454625
O O1 0.442563 0.741969 0.053105
O O2 0.433090 0.886791 0.316048
O O3 0.500000 0.878007 0.000000
O O4 0.403643 0.891189 0.771868
O O5 0.243393 0.850041 0.161517
O O6 0.336381 0.892567 0.238818
O O7 0.268542 0.000000 0.947979
O O8 0.277508 0.854324 0.708739
O O9 0.738277 0.500000 0.404651
O O10 0.681622 0.628002 0.504441
O O11 0.884758 0.887615 0.181171
O O12 0.976996 0.920293 0.261401
O O13 0.913520 0.896709 0.731424
O O14 0.383704 0.752849 0.464696
#
# Coordination Sequence:
#
# PCOD9205569 Si02
#       7
#     8   8   8   8   2   8   8
#     4  10  21  39  61  82 116 152 194 241 290 347
#     4  10  21  38  59  89 115 150 190 241 299 371
#     4  10  21  35  58  81 119 155 192 237 302 349
#     4  10  25  37  56  82 117 154 202 243 281 331
#     4  12  28  38  60  86 120 174 202 246 292 330
#     4  10  22  40  55  85 115 155 199 247 284 339
#     4  10  21  37  61  86 114 152 196 241 298 345
#
# _framework density 25.862003999999999
#
# number of rings (size 3 to 8) (size 9 to 14) (size 15 to 20)
#    0.000    1.920    0.000    2.400    8.960    1.920 
#    0.000    0.000    0.000    2.880    0.000    0.000 
#    0.000    0.000    0.000    0.000    0.000    0.000 
#
# Total GULP energy -139621.319848 kJ/mol
# GULP energy per Si atom -5584.852794 kJ/mol
# Density = 2.580314 g / cm^3
# Si number density = 25.862004 Si / 1000 Ang^3
#
#
#
# Elastic Constant Matrix: (Units=GPa)
#
#
# Indices 1 2 3 4 5 6 
#
# 1 102.6854 -22.5044 9.1416 0.0000 -9.0096 0.0000
# 2 -22.5044 90.8751 2.3071 0.0000 -5.0233 0.0000
# 3 9.1416 2.3071 131.9311 0.0000 -8.9888 0.0000
# 4 0.0000 0.0000 0.0000 18.0779 0.0000 5.4181
# 5 -9.0096 -5.0233 -8.9888 0.0000 46.9752 0.0000
# 6 0.0000 0.0000 0.0000 5.4181 0.0000 35.4818
#
#
#
# Elastic Compliance Matrix: (Units=1/GPa)
#
#
# Indices 1 2 3 4 5 6 
#
# 1 0.010593 0.002761 -0.000632 0.000000 0.002206 0.000000
# 2 0.002761 0.011791 -0.000279 0.000000 0.001737 0.000000
# 3 -0.000632 -0.000279 0.007719 0.000000 0.001326 0.000000
# 4 0.000000 0.000000 0.000000 0.057969 0.000000 -0.008852
# 5 0.002206 0.001737 0.001326 0.000000 0.022150 0.000000
# 6 0.000000 0.000000 0.000000 -0.008852 0.000000 0.029535
#
#
# Mechanical properties :
#
#
# Convention : Reuss Voigt Hill
#
# Bulk Modulus (GPa) = 29.58263 33.70892 31.64577
# Shear Modulus (GPa) = 33.93845 42.54345 38.24095
#
# Velocity S-wave (km/s) = 3.62648 4.06028 3.84950
# Velocity P-wave (km/s) = 5.38504 5.91977 5.65872
#
# Compressibility (1/GPa) = 0.03380362
#
# Stress axis : x y z
#
# Youngs Moduli (GPa) = 94.39760 84.81013 129.55501
#
# Poissons Ratio (x) = -0.23419 0.08188
# Poissons Ratio (y) = -0.26067 0.03617
# Poissons Ratio (z) = 0.05966 0.02368
#
# Static dielectric constant tensor:
#      x y z
#    x 2.087270 0.000000 0.006220 
#    y 0.000000 2.032160 0.000000 
#    z 0.006220 0.000000 2.017240 
# 
# From -- ./inp_files/28871.got.cif
#   From: 2010.05.17/outbox.cif.g08.bks.cpg/sg12_15_cif.got.tgz:28871.got - 2010.06.03 13:09:07.
