data_PCOD9205112
_publ_section_title
;
Structure prediction by ZEFSAII (Michael W. Deem and Ramdas Pophale) SiO2 
 PCOD9205112
Probable space group: C 2/M
;
_chemical_formula_sum "Si O2"
_cell_formula_units_Z 44
_cell_length_a 19.631923
_cell_length_b 29.201489
_cell_length_c 19.183009
_cell_angle_alpha 90.000000
_cell_angle_beta 165.414906
_cell_angle_gamma 90.000000
_cell_volume 2769.304017
_symmetry_space_group_name_H-M "C 2/M"
_symmetry_group_IT_number 12
_symmetry_cell_setting 'monoclinic'
loop_
_space_group_symop_operation_xyz
x,y,z
-x,y,-z
-x,-y,-z
x,-y,z
1/2+x,1/2+y,z
1/2-x,1/2+y,-z
1/2-x,1/2-y,-z
1/2+x,1/2-y,z
loop_
_atom_site_type_symbol
_atom_site_label
_atom_site_fract_x
_atom_site_fract_y
_atom_site_fract_z
Si Si1 0.767717 0.447483 0.218102
Si Si2 0.164248 0.138043 0.028274
Si Si3 0.211470 0.321139 0.508558
Si Si4 0.335144 0.777541 0.683309
Si Si5 0.000000 0.193055 0.000000
Si Si6 0.820955 0.223066 0.264156
O O1 0.829974 0.500000 0.259402
O O2 0.738017 0.412901 0.125115
O O3 0.000000 0.430070 0.500000
O O4 0.500000 0.447948 0.000000
O O5 0.439147 0.165037 0.280262
O O6 0.941532 0.140751 0.746992
O O7 0.011542 0.160928 0.943908
O O8 0.367066 0.275160 0.690108
O O9 0.133127 0.309788 0.351783
O O10 0.028049 0.775857 0.405520
O O11 0.538511 0.790411 0.947487
O O12 0.759934 0.228997 0.778383
O O13 0.000000 0.197014 0.500000
#
# Coordination Sequence:
#
# PCOD9205112 Si02
#       6
#     8   8   8   8   4   8
#     4  10  21  35  50  70  95 122 154 203 257 289
#     4  12  22  33  50  69  92 122 167 205 244 277
#     4  11  22  34  47  66  89 127 157 195 248 280
#     4  11  21  34  46  63  95 120 157 201 236 283
#     4  12  22  28  47  70  90 118 164 216 233 274
#     4  12  20  32  46  66  89 120 160 198 242 269
#
# _framework density 15.888469000000001
#
# number of rings (size 3 to 8) (size 9 to 14) (size 15 to 20)
#    0.000    0.727    6.364    2.182    0.000    2.909 
#    0.000    0.000    0.000    0.000    0.000    0.000 
#    0.000    0.000    0.000    0.000    0.000   63.636 
#
# Total GULP energy -122509.397216 kJ/mol
# GULP energy per Si atom -5568.608964 kJ/mol
# Density = 1.585231 g / cm^3
# Si number density = 15.888469 Si / 1000 Ang^3
#
#
#
# Elastic Constant Matrix: (Units=GPa)
#
#
# Indices 1 2 3 4 5 6 
#
# 1 58.1489 34.0157 17.5283 -0.0030 -4.4235 0.0049
# 2 34.0157 51.1647 15.8602 0.0060 -6.8269 0.0047
# 3 17.5283 15.8602 92.7859 0.0065 -6.4291 0.0266
# 4 -0.0030 0.0060 0.0065 16.6414 -0.0076 -1.7735
# 5 -4.4235 -6.8269 -6.4291 -0.0076 31.0403 0.0069
# 6 0.0049 0.0047 0.0266 -1.7735 0.0069 20.6597
#
#
#
# Elastic Compliance Matrix: (Units=1/GPa)
#
#
# Indices 1 2 3 4 5 6 
#
# 1 0.028594 -0.018357 -0.002294 0.000013 -0.000438 0.000002
# 2 -0.018357 0.032891 -0.001861 -0.000013 0.004232 -0.000003
# 3 -0.002294 -0.001861 0.011645 -0.000005 0.001676 -0.000015
# 4 0.000013 -0.000013 -0.000005 0.060646 0.000012 0.005206
# 5 -0.000438 0.004232 0.001676 0.000012 0.033432 -0.000013
# 6 0.000002 -0.000003 -0.000015 0.005206 -0.000013 0.048850
#
#
# Mechanical properties :
#
#
# Convention : Reuss Voigt Hill
#
# Bulk Modulus (GPa) = 35.58093 37.43421 36.50757
# Shear Modulus (GPa) = 18.48760 22.64798 20.56779
#
# Velocity S-wave (km/s) = 3.41484 3.77959 3.60183
# Velocity P-wave (km/s) = 6.16368 6.53137 6.35019
#
# Compressibility (1/GPa) = 0.02810495
#
# Stress axis : x y z
#
# Youngs Moduli (GPa) = 34.97216 30.40360 85.87300
#
# Poissons Ratio (x) = 0.55813 0.19701
# Poissons Ratio (y) = 0.64200 0.15981
# Poissons Ratio (z) = 0.08023 0.05658
#
# Static dielectric constant tensor:
#      x y z
#    x 1.577240 0.000000 -0.033340 
#    y 0.000000 1.538980 0.000000 
#    z -0.033340 0.000000 1.585640 
# 
# From -- ./inp_files/350499.got.cif
#   From: 2010.05.17/outbox.cif.g08.bks.cpg/sg12_176_cif.got.tgz:350499.got - 2010.06.03 13:09:07.
