data_PCOD9205185
_publ_section_title
;
Structure prediction by ZEFSAII (Michael W. Deem and Ramdas Pophale) SiO2 
 PCOD9205185
Probable space group: C 2/M
;
_chemical_formula_sum "Si O2"
_cell_formula_units_Z 56
_cell_length_a 28.748103
_cell_length_b 7.490286
_cell_length_c 19.576653
_cell_angle_alpha 90.000000
_cell_angle_beta 143.432713
_cell_angle_gamma 90.000000
_cell_volume 2511.435616
_symmetry_space_group_name_H-M "C 2/M"
_symmetry_group_IT_number 12
_symmetry_cell_setting 'monoclinic'
loop_
_space_group_symop_operation_xyz
x,y,z
-x,y,-z
-x,-y,-z
x,-y,z
1/2+x,1/2+y,z
1/2-x,1/2+y,-z
1/2-x,1/2-y,-z
1/2+x,1/2-y,z
loop_
_atom_site_type_symbol
_atom_site_label
_atom_site_fract_x
_atom_site_fract_y
_atom_site_fract_z
Si Si1 0.749564 0.709766 0.197631
Si Si2 0.514577 0.718291 0.798235
Si Si3 0.315608 0.714095 0.021331
Si Si4 0.964847 0.782054 0.886215
Si Si5 0.121596 0.213005 0.459714
Si Si6 0.709958 0.714222 0.302395
Si Si7 0.581341 0.283877 0.564515
O O1 0.729473 0.500000 0.176294
O O2 0.710488 0.784755 0.083687
O O3 0.725100 0.783806 0.242944
O O4 0.842849 0.728521 0.303468
O O5 0.512691 0.500000 0.795521
O O6 0.511452 0.772981 0.873784
O O7 0.437580 0.780501 0.667433
O O8 0.596005 0.775213 0.860073
O O9 0.319516 0.500000 0.020815
O O10 0.250000 0.750000 0.000000
O O11 0.874659 0.725123 0.772933
O O12 0.966488 0.000000 0.889423
O O13 0.000000 0.722648 0.000000
O O14 0.214003 0.245566 0.562758
O O15 0.095616 0.280383 0.503932
O O16 0.112368 0.000000 0.450193
O O17 0.706396 0.500000 0.294401
O O18 0.500000 0.222196 0.500000
O O19 0.580082 0.500000 0.561861
#
# Coordination Sequence:
#
# PCOD9205185 Si02
#       7
#     8   8   8   8   8   8   8
#     4   9  18  32  48  71  99 126 158 202 253 295
#     4   9  18  32  50  72 100 132 166 206 247 293
#     4  10  21  35  52  73  99 132 168 207 253 300
#     4   9  16  28  51  79 101 127 166 206 244 292
#     4   9  18  32  48  70 101 134 166 202 246 294
#     4   9  17  31  52  76 102 129 162 205 249 292
#     4   9  18  30  48  70  92 126 171 208 237 284
#
# _framework density 22.298002
#
# number of rings (size 3 to 8) (size 9 to 14) (size 15 to 20)
#    0.000    2.857    0.000    0.857    2.000    4.857 
#    0.000    0.714    0.000    1.286    0.000    0.000 
#    0.000    0.000    0.000    0.000    0.000    0.000 
#
# Total GULP energy -156294.116430 kJ/mol
# GULP energy per Si atom -5581.932730 kJ/mol
# Density = 2.224725 g / cm^3
# Si number density = 22.298002 Si / 1000 Ang^3
#
#
#
# Elastic Constant Matrix: (Units=GPa)
#
#
# Indices 1 2 3 4 5 6 
#
# 1 104.0334 -1.2659 61.6145 0.0000 26.4969 0.0000
# 2 -1.2659 59.5915 0.8457 0.0000 -4.0261 0.0000
# 3 61.6145 0.8457 150.0405 0.0000 7.3395 0.0000
# 4 0.0000 0.0000 0.0000 15.1940 0.0000 3.8487
# 5 26.4969 -4.0261 7.3395 0.0000 29.0201 0.0000
# 6 0.0000 0.0000 0.0000 3.8487 0.0000 7.5795
#
#
#
# Elastic Compliance Matrix: (Units=1/GPa)
#
#
# Indices 1 2 3 4 5 6 
#
# 1 0.016823 -0.000490 -0.006228 0.000000 -0.013854 0.000000
# 2 -0.000490 0.016961 -0.000032 0.000000 0.002809 0.000000
# 3 -0.006228 -0.000032 0.009057 0.000000 0.003392 0.000000
# 4 0.000000 0.000000 0.000000 0.075530 0.000000 -0.038352
# 5 -0.013854 0.002809 0.003392 0.000000 0.046640 0.000000
# 6 0.000000 0.000000 0.000000 -0.038352 0.000000 0.151408
#
#
# Mechanical properties :
#
#
# Convention : Reuss Voigt Hill
#
# Bulk Modulus (GPa) = 34.08221 48.45046 41.26633
# Shear Modulus (GPa) = 14.71890 27.19014 20.95452
#
# Velocity S-wave (km/s) = 2.57203 3.49578 3.06886
# Velocity P-wave (km/s) = 4.91309 6.17007 5.57710
#
# Compressibility (1/GPa) = 0.02934082
#
# Stress axis : x y z
#
# Youngs Moduli (GPa) = 59.44090 58.95983 110.41501
#
# Poissons Ratio (x) = 0.02890 0.68768
# Poissons Ratio (y) = 0.02914 0.00350
# Poissons Ratio (z) = 0.37021 0.00187
#
# Static dielectric constant tensor:
#      x y z
#    x 1.801230 0.000000 0.005210 
#    y 0.000000 1.874940 0.000000 
#    z 0.005210 0.000000 1.812330 
# 
# From -- ./inp_files/245701.got.cif
#   From: 2010.05.17/outbox.cif.g08.bks.cpg/sg12_123_cif.got.tgz:245701.got - 2010.06.03 13:09:07.
