data_PCOD9205033
_publ_section_title
;
Structure prediction by ZEFSAII (Michael W. Deem and Ramdas Pophale) SiO2 
 PCOD9205033
Probable space group: C 2/M
;
_chemical_formula_sum "Si O2"
_cell_formula_units_Z 44
_cell_length_a 25.836811
_cell_length_b 16.791095
_cell_length_c 16.046647
_cell_angle_alpha 90.000000
_cell_angle_beta 15.703429
_cell_angle_gamma 90.000000
_cell_volume 1884.183475
_symmetry_space_group_name_H-M "C 2/M"
_symmetry_group_IT_number 12
_symmetry_cell_setting 'monoclinic'
loop_
_space_group_symop_operation_xyz
x,y,z
-x,y,-z
-x,-y,-z
x,-y,z
1/2+x,1/2+y,z
1/2-x,1/2+y,-z
1/2-x,1/2-y,-z
1/2+x,1/2-y,z
loop_
_atom_site_type_symbol
_atom_site_label
_atom_site_fract_x
_atom_site_fract_y
_atom_site_fract_z
Si Si1 0.479133 0.500000 0.432944
Si Si2 0.459325 0.181346 0.972115
Si Si3 0.455461 0.646717 0.940375
Si Si4 0.468110 0.845022 0.335427
Si Si5 0.085419 0.500000 0.105548
Si Si6 0.832850 0.000000 0.327931
Si Si7 0.999987 0.829526 0.680660
O O1 0.500000 0.500000 0.500000
O O2 0.545460 0.413596 0.294659
O O3 0.246436 0.500000 0.785306
O O4 0.529111 0.272798 0.868365
O O5 0.528615 0.161988 0.770843
O O6 0.500000 0.143009 0.000000
O O7 0.230225 0.177289 0.321262
O O8 0.612400 0.578398 0.705962
O O9 0.425880 0.659580 0.888946
O O10 0.246691 0.633031 0.303418
O O11 0.597271 0.922721 0.145345
O O12 0.545044 0.765795 0.263166
O O13 0.877315 0.500000 0.383931
O O14 0.000000 0.000000 0.000000
#
# Coordination Sequence:
#
# PCOD9205033 Si02
#       7
#     4   8   8   8   4   4   8
#     4  12  27  52  76  97 123 172 236 300 360 409
#     4  10  21  34  57  94 143 192 230 256 314 400
#     4  10  21  34  57  93 143 183 218 260 321 407
#     4  10  21  40  63  97 145 183 221 272 334 393
#     4  12  24  41  67  98 137 180 227 279 335 400
#     4  12  21  31  54  96 136 179 221 251 319 390
#     4  10  23  40  66  97 129 176 225 284 338 401
#
# _framework density 23.352291000000001
#
# number of rings (size 3 to 8) (size 9 to 14) (size 15 to 20)
#    0.000    1.455    3.636    1.091    5.091    3.636 
#    0.000    2.727    0.000    1.091    0.000    0.000 
#    0.000    0.000    0.000    0.000    0.000    0.000 
#
# Total GULP energy -122543.277853 kJ/mol
# GULP energy per Si atom -5570.148993 kJ/mol
# Density = 2.329914 g / cm^3
# Si number density = 23.352291 Si / 1000 Ang^3
#
#
#
# Elastic Constant Matrix: (Units=GPa)
#
#
# Indices 1 2 3 4 5 6 
#
# 1 74.5081 39.0355 32.7684 -0.0285 18.3476 0.0318
# 2 39.0355 201.5580 9.9242 0.0243 1.9229 -0.0229
# 3 32.7684 9.9242 100.1287 0.0355 26.9346 -0.0324
# 4 -0.0285 0.0243 0.0355 7.7717 0.0159 41.5786
# 5 18.3476 1.9229 26.9346 0.0159 39.8878 -0.0217
# 6 0.0318 -0.0229 -0.0324 41.5786 -0.0217 -9.5569
#
#
#
# Elastic Compliance Matrix: (Units=1/GPa)
#
#
# Indices 1 2 3 4 5 6 
#
# 1 0.018336 -0.003292 -0.004214 -0.000017 -0.005430 0.000023
# 2 -0.003292 0.005577 0.000232 0.000005 0.001089 -0.000007
# 3 -0.004214 0.000232 0.013228 0.000007 -0.007005 -0.000013
# 4 -0.000017 0.000005 0.000007 0.005300 0.000013 0.023060
# 5 -0.005430 0.001089 -0.007005 0.000013 0.032246 -0.000013
# 6 0.000023 -0.000007 -0.000013 0.023060 -0.000013 -0.004310
#
#
# Mechanical properties :
#
#
# Convention : Reuss Voigt Hill
#
# Bulk Modulus (GPa) = 44.26176 59.96124 52.11150
# Shear Modulus (GPa) = 54.07968 27.25162 40.66565
#
# Velocity S-wave (km/s) = 4.81752 3.41981 4.17753
# Velocity P-wave (km/s) = 7.06680 6.42853 6.75521
#
# Compressibility (1/GPa) = 0.02259287
#
# Stress axis : x y z
#
# Youngs Moduli (GPa) = 54.53628 179.30480 75.59989
#
# Poissons Ratio (x) = 0.59025 0.31856
# Poissons Ratio (y) = 0.17953 -0.01751
# Poissons Ratio (z) = 0.22980 -0.04153
#
# Static dielectric constant tensor:
#      x y z
#    x 1.871350 0.000000 -0.018640 
#    y 0.000000 2.173200 0.000000 
#    z -0.018640 0.000000 1.899280 
# 
# From -- ./inp_files/241418.got.cif
#   From: 2010.05.17/outbox.cif.g08.bks.cpg/sg12_121_cif.got.tgz:241418.got - 2010.06.03 13:09:07.
