data_PCOD9205408
_publ_section_title
;
Structure prediction by ZEFSAII (Michael W. Deem and Ramdas Pophale) SiO2 
 PCOD9205408
Probable space group: C 2/M
;
_chemical_formula_sum "Si O2"
_cell_formula_units_Z 58
_cell_length_a 9.464472
_cell_length_b 22.125298
_cell_length_c 15.197773
_cell_angle_alpha 90.000000
_cell_angle_beta 96.213494
_cell_angle_gamma 90.000000
_cell_volume 3163.782994
_symmetry_space_group_name_H-M "C 2/M"
_symmetry_group_IT_number 12
_symmetry_cell_setting 'monoclinic'
loop_
_space_group_symop_operation_xyz
x,y,z
-x,y,-z
-x,-y,-z
x,-y,z
1/2+x,1/2+y,z
1/2-x,1/2+y,-z
1/2-x,1/2-y,-z
1/2+x,1/2-y,z
loop_
_atom_site_type_symbol
_atom_site_label
_atom_site_fract_x
_atom_site_fract_y
_atom_site_fract_z
Si Si1 0.798831 0.757571 0.206384
Si Si2 0.536751 0.688635 0.103545
Si Si3 0.415610 0.133939 0.282973
Si Si4 0.504129 0.569480 0.365545
Si Si5 0.289370 0.885292 0.464247
Si Si6 0.658996 0.567911 0.186452
Si Si7 0.000000 0.500000 0.500000
Si Si8 0.275779 0.849982 0.650353
O O1 0.659367 0.733847 0.146520
O O2 0.897296 0.800367 0.153532
O O3 0.889191 0.698010 0.235475
O O4 0.756094 0.791532 0.293108
O O5 0.597223 0.621056 0.122079
O O6 0.500000 0.699728 0.000000
O O7 0.353701 0.138701 0.377443
O O8 0.319870 0.085023 0.225701
O O9 0.581485 0.119970 0.300963
O O10 0.480109 0.500000 0.388862
O O11 0.625200 0.598810 0.434674
O O12 0.571317 0.570246 0.271946
O O13 0.359146 0.606291 0.354330
O O14 0.303338 0.841167 0.548373
O O15 0.376309 0.946606 0.490085
O O16 0.650759 0.500000 0.150164
#
# Coordination Sequence:
#
# PCOD9205408 Si02
#       8
#     8   8   8   8   8   8   2   8
#     4  11  23  42  60  89 120 150 195 249 295 364
#     4  11  22  41  68  92 115 151 194 246 307 366
#     4  10  22  38  59  80 117 160 204 237 292 349
#     4  10  21  35  55  83 122 154 202 248 288 336
#     4  11  23  36  54  87 112 168 202 242 287 340
#     4   9  20  38  60  89 120 156 192 239 297 363
#     4  12  20  36  58  76 124 148 220 240 280 344
#     4  12  22  36  58  84 120 156 202 249 290 337
#
# _framework density 18.332483
#
# number of rings (size 3 to 8) (size 9 to 14) (size 15 to 20)
#    0.000    1.379    4.828    0.828    1.931    1.931 
#    0.000    1.379    0.000    0.000    0.000    0.966 
#    0.000    0.000    0.000    0.000    0.000    0.000 
#
# Total GULP energy -161644.282319 kJ/mol
# GULP energy per Si atom -5573.940770 kJ/mol
# Density = 1.829076 g / cm^3
# Si number density = 18.332483 Si / 1000 Ang^3
#
#
#
# Elastic Constant Matrix: (Units=GPa)
#
#
# Indices 1 2 3 4 5 6 
#
# 1 123.8084 39.5165 25.4253 0.0000 25.7046 0.0000
# 2 39.5165 75.4463 37.5433 0.0000 12.3555 0.0000
# 3 25.4253 37.5433 84.0140 0.0000 16.8244 0.0000
# 4 0.0000 0.0000 0.0000 14.4058 0.0000 1.6945
# 5 25.7046 12.3555 16.8244 0.0000 22.5660 0.0000
# 6 0.0000 0.0000 0.0000 1.6945 0.0000 20.3321
#
#
#
# Elastic Compliance Matrix: (Units=1/GPa)
#
#
# Indices 1 2 3 4 5 6 
#
# 1 0.011792 -0.004713 0.000835 0.000000 -0.011474 0.000000
# 2 -0.004713 0.019290 -0.007234 0.000000 0.000200 0.000000
# 3 0.000835 -0.007234 0.016786 0.000000 -0.009506 0.000000
# 4 0.000000 0.000000 0.000000 0.070104 0.000000 -0.005842
# 5 -0.011474 0.000200 -0.009506 0.000000 0.064363 0.000000
# 6 0.000000 0.000000 0.000000 -0.005842 0.000000 0.049670
#
#
# Mechanical properties :
#
#
# Convention : Reuss Voigt Hill
#
# Bulk Modulus (GPa) = 38.99363 54.24876 46.62119
# Shear Modulus (GPa) = 19.02766 23.51303 21.27035
#
# Velocity S-wave (km/s) = 3.22517 3.58521 3.40995
# Velocity P-wave (km/s) = 5.93173 6.84062 6.40233
#
# Compressibility (1/GPa) = 0.02564521
#
# Stress axis : x y z
#
# Youngs Moduli (GPa) = 84.80369 51.84090 59.57281
#
# Poissons Ratio (x) = 0.24431 -0.04975
# Poissons Ratio (y) = 0.39966 0.43094
# Poissons Ratio (z) = -0.07083 0.37501
#
# Static dielectric constant tensor:
#      x y z
#    x 1.640940 0.000000 -0.006530 
#    y 0.000000 1.613870 0.000000 
#    z -0.006530 0.000000 1.624390 
# 
# From -- ./inp_files/198471.got.cif
#   From: 2010.05.17/outbox.cif.g08.bks.cpg/sg12_100_cif.got.tgz:198471.got - 2010.06.03 13:09:07.
