data_PCOD9205461
_publ_section_title
;
Structure prediction by ZEFSAII (Michael W. Deem and Ramdas Pophale) SiO2 
 PCOD9205461
Probable space group: C 2/M
;
_chemical_formula_sum "Si O2"
_cell_formula_units_Z 52
_cell_length_a 32.828962
_cell_length_b 7.650574
_cell_length_c 16.696464
_cell_angle_alpha 90.000000
_cell_angle_beta 143.043885
_cell_angle_gamma 90.000000
_cell_volume 2521.139740
_symmetry_space_group_name_H-M "C 2/M"
_symmetry_group_IT_number 12
_symmetry_cell_setting 'monoclinic'
loop_
_space_group_symop_operation_xyz
x,y,z
-x,y,-z
-x,-y,-z
x,-y,z
1/2+x,1/2+y,z
1/2-x,1/2+y,-z
1/2-x,1/2-y,-z
1/2+x,1/2-y,z
loop_
_atom_site_type_symbol
_atom_site_label
_atom_site_fract_x
_atom_site_fract_y
_atom_site_fract_z
Si Si1 0.260177 0.792525 0.323315
Si Si2 0.508103 0.698432 0.424306
Si Si3 0.087581 0.298037 0.396623
Si Si4 0.762908 0.208198 0.141118
Si Si5 0.086971 0.000000 0.277718
Si Si6 0.180052 0.701166 0.344184
Si Si7 0.638314 0.797234 0.837421
O O1 0.333662 0.738018 0.473046
O O2 0.258578 0.749287 0.227437
O O3 0.200945 0.712313 0.283738
O O4 0.256585 0.000000 0.327536
O O5 0.500000 0.778958 0.500000
O O6 0.533574 0.500000 0.474999
O O7 0.556498 0.787805 0.436560
O O8 0.432303 0.699719 0.270513
O O9 0.083237 0.500000 0.364377
O O10 0.055798 0.155524 0.287971
O O11 0.827795 0.284384 0.197227
O O12 0.766780 0.000000 0.136603
O O13 0.695975 0.270314 0.988553
O O14 0.125228 0.155863 0.284290
O O15 0.162503 0.500000 0.335412
O O16 0.250000 0.750000 0.500000
O O17 0.624952 0.000000 0.835008
#
# Coordination Sequence:
#
# PCOD9205461 Si02
#       7
#     8   8   8   8   4   8   8
#     4  11  21  34  53  83 116 149 188 234 287 343
#     4  11  23  38  58  83 114 153 194 236 284 337
#     4  11  23  37  55  83 117 155 194 235 283 346
#     4  10  21  35  56  82 112 148 190 237 285 335
#     4  12  22  36  53  80 117 152 192 234 292 346
#     4  12  20  33  53  78 114 153 186 235 292 348
#     4  10  21  38  56  80 112 151 191 234 285 337
#
# _framework density 20.625591
#
# number of rings (size 3 to 8) (size 9 to 14) (size 15 to 20)
#    0.000    1.077    3.846    3.231    1.077    5.538 
#    0.000    0.000    0.000    0.000    0.000    2.154 
#    0.000    4.923    0.000    0.000    0.000    0.000 
#
# Total GULP energy -144768.856142 kJ/mol
# GULP energy per Si atom -5568.032929 kJ/mol
# Density = 2.057865 g / cm^3
# Si number density = 20.625591 Si / 1000 Ang^3
#
#
#
# Elastic Constant Matrix: (Units=GPa)
#
#
# Indices 1 2 3 4 5 6 
#
# 1 117.1961 17.3466 7.6330 0.0000 -11.7739 0.0000
# 2 17.3466 117.0284 -3.0386 0.0000 2.0214 0.0000
# 3 7.6330 -3.0386 18.6408 0.0000 -2.8998 0.0000
# 4 0.0000 0.0000 0.0000 15.1568 0.0000 -0.9517
# 5 -11.7739 2.0214 -2.8998 0.0000 20.5811 0.0000
# 6 0.0000 0.0000 0.0000 -0.9517 0.0000 43.5142
#
#
#
# Elastic Compliance Matrix: (Units=1/GPa)
#
#
# Indices 1 2 3 4 5 6 
#
# 1 0.009500 -0.001584 -0.003352 0.000000 0.005118 0.000000
# 2 -0.001584 0.008854 0.001856 0.000000 -0.001514 0.000000
# 3 -0.003352 0.001856 0.056227 0.000000 0.005822 0.000000
# 4 0.000000 0.000000 0.000000 0.066068 0.000000 0.001445
# 5 0.005118 -0.001514 0.005822 0.000000 0.052485 0.000000
# 6 0.000000 0.000000 0.000000 0.001445 0.000000 0.023013
#
#
# Mechanical properties :
#
#
# Convention : Reuss Voigt Hill
#
# Bulk Modulus (GPa) = 14.61523 32.97192 23.79358
# Shear Modulus (GPa) = 20.39892 31.24537 25.82214
#
# Velocity S-wave (km/s) = 3.14826 3.89637 3.54212
# Velocity P-wave (km/s) = 4.50741 6.02187 5.31882
#
# Compressibility (1/GPa) = 0.06842177
#
# Stress axis : x y z
#
# Youngs Moduli (GPa) = 105.26823 112.94336 17.78517
#
# Poissons Ratio (x) = 0.17885 0.05961
# Poissons Ratio (y) = 0.16669 -0.03301
# Poissons Ratio (z) = 0.35285 -0.20964
#
# Static dielectric constant tensor:
#      x y z
#    x 1.758000 0.000000 -0.019060 
#    y 0.000000 1.814060 0.000000 
#    z -0.019060 0.000000 1.761990 
# 
# From -- ./inp_files/250181.got.cif
#   From: 2010.05.17/outbox.cif.g08.bks.cpg/sg12_126_cif.got.tgz:250181.got - 2010.06.03 13:09:07.
