data_PCOD9205818
_publ_section_title
;
Structure prediction by ZEFSAII (Michael W. Deem and Ramdas Pophale) SiO2 
 PCOD9205818
Probable space group: C 2/M
;
_chemical_formula_sum "Si O2"
_cell_formula_units_Z 56
_cell_length_a 22.585595
_cell_length_b 24.731462
_cell_length_c 13.850086
_cell_angle_alpha 90.000000
_cell_angle_beta 22.032442
_cell_angle_gamma 90.000000
_cell_volume 2902.133304
_symmetry_space_group_name_H-M "C 2/M"
_symmetry_group_IT_number 12
_symmetry_cell_setting 'monoclinic'
loop_
_space_group_symop_operation_xyz
x,y,z
-x,y,-z
-x,-y,-z
x,-y,z
1/2+x,1/2+y,z
1/2-x,1/2+y,-z
1/2-x,1/2-y,-z
1/2+x,1/2-y,z
loop_
_atom_site_type_symbol
_atom_site_label
_atom_site_fract_x
_atom_site_fract_y
_atom_site_fract_z
Si Si1 0.245035 0.435847 0.362465
Si Si2 0.055035 0.063587 0.759796
Si Si3 0.712476 0.694681 0.115273
Si Si4 0.681142 0.228988 0.706426
Si Si5 0.236417 0.219969 0.810010
Si Si6 0.493101 0.869116 0.404546
Si Si7 0.029249 0.159098 0.664888
O O1 0.210010 0.500000 0.420773
O O2 0.305308 0.418207 0.377729
O O3 0.103331 0.403297 0.528067
O O4 0.394652 0.429789 0.064426
O O5 0.038781 0.097866 0.687291
O O6 0.075874 0.000000 0.709910
O O7 0.740025 0.720619 0.179076
O O8 0.547650 0.671228 0.323421
O O9 0.750000 0.750000 0.000000
O O10 0.841807 0.650384 0.889124
O O11 0.750000 0.250000 0.500000
O O12 0.696018 0.278104 0.758999
O O13 0.804116 0.185025 0.559767
O O14 0.500000 0.210890 0.000000
O O15 0.394246 0.185253 0.577552
O O16 0.097203 0.189391 0.074978
O O17 0.500000 0.897148 0.500000
#
# Coordination Sequence:
#
# PCOD9205818 Si02
#       7
#     8   8   8   8   8   8   8
#     4   9  19  32  51  81 118 159 204 256 317 373
#     4   9  18  35  56  81 116 159 207 259 315 370
#     4  10  21  36  53  83 115 163 207 240 299 362
#     4  12  27  40  57  90 126 164 204 254 306 367
#     4  11  22  37  56  81 125 162 200 248 296 371
#     4  12  20  31  57  81 117 166 205 250 304 363
#     4  11  21  37  60  85 118 161 208 253 306 366
#
# _framework density 19.296150000000001
#
# number of rings (size 3 to 8) (size 9 to 14) (size 15 to 20)
#    0.000    1.429    5.714    2.571    2.000    0.286 
#    0.000    0.714    0.000    0.429    0.000    3.000 
#    0.000    0.000    0.000    0.000    0.000    0.000 
#
# Total GULP energy -156033.142927 kJ/mol
# GULP energy per Si atom -5572.612247 kJ/mol
# Density = 1.925223 g / cm^3
# Si number density = 19.296150 Si / 1000 Ang^3
#
#
#
# Elastic Constant Matrix: (Units=GPa)
#
#
# Indices 1 2 3 4 5 6 
#
# 1 119.4980 42.8620 33.9802 0.0016 -4.8248 -0.0048
# 2 42.8620 58.9443 22.3860 -0.0046 -13.0588 0.0007
# 3 33.9802 22.3860 102.0583 0.0043 -21.8974 0.0081
# 4 0.0016 -0.0046 0.0043 15.9441 -0.0010 -12.0920
# 5 -4.8248 -13.0588 -21.8974 -0.0010 39.7152 -0.0018
# 6 -0.0048 0.0007 0.0081 -12.0920 -0.0018 34.4103
#
#
#
# Elastic Compliance Matrix: (Units=1/GPa)
#
#
# Indices 1 2 3 4 5 6 
#
# 1 0.012027 -0.008310 -0.002784 -0.000002 -0.002806 0.000002
# 2 -0.008310 0.024940 -0.001316 0.000011 0.006465 0.000003
# 3 -0.002784 -0.001316 0.012304 -0.000007 0.006013 -0.000005
# 4 -0.000002 0.000011 -0.000007 0.085507 0.000003 0.030048
# 5 -0.002806 0.006465 0.006013 0.000003 0.030279 0.000001
# 6 0.000002 0.000003 -0.000005 0.030048 0.000001 0.039620
#
#
# Mechanical properties :
#
#
# Convention : Reuss Voigt Hill
#
# Bulk Modulus (GPa) = 40.89858 53.21745 47.05801
# Shear Modulus (GPa) = 21.03931 30.09876 25.56904
#
# Velocity S-wave (km/s) = 3.30561 3.95376 3.64412
# Velocity P-wave (km/s) = 5.98420 6.96291 6.49202
#
# Compressibility (1/GPa) = 0.02445072
#
# Stress axis : x y z
#
# Youngs Moduli (GPa) = 83.14330 40.09551 81.27392
#
# Poissons Ratio (x) = 0.33321 0.22625
# Poissons Ratio (y) = 0.69095 0.10699
# Poissons Ratio (z) = 0.23145 0.05278
#
# Static dielectric constant tensor:
#      x y z
#    x 1.579930 -0.000090 -0.188620 
#    y -0.000090 1.684390 -0.000080 
#    z -0.188620 -0.000080 1.533090 
# 
# From -- ./inp_files/242141.got.cif
#   From: 2010.05.17/outbox.cif.g08.bks.cpg/sg12_122_cif.got.tgz:242141.got - 2010.06.03 13:09:07.
