data_PCOD9205537
_publ_section_title
;
Structure prediction by ZEFSAII (Michael W. Deem and Ramdas Pophale) SiO2 
 PCOD9205537
Probable space group: C 2/M
;
_chemical_formula_sum "Si O2"
_cell_formula_units_Z 56
_cell_length_a 20.719040
_cell_length_b 20.563640
_cell_length_c 15.238098
_cell_angle_alpha 90.000000
_cell_angle_beta 153.205510
_cell_angle_gamma 90.000000
_cell_volume 2926.687113
_symmetry_space_group_name_H-M "C 2/M"
_symmetry_group_IT_number 12
_symmetry_cell_setting 'monoclinic'
loop_
_space_group_symop_operation_xyz
x,y,z
-x,y,-z
-x,-y,-z
x,-y,z
1/2+x,1/2+y,z
1/2-x,1/2+y,-z
1/2-x,1/2-y,-z
1/2+x,1/2-y,z
loop_
_atom_site_type_symbol
_atom_site_label
_atom_site_fract_x
_atom_site_fract_y
_atom_site_fract_z
Si Si1 0.460618 0.177386 0.354169
Si Si2 0.251106 0.785986 0.840322
Si Si3 0.636672 0.575123 0.730496
Si Si4 0.004128 0.070099 0.900047
Si Si5 0.736608 0.428568 0.038942
Si Si6 0.800670 0.754485 0.423572
Si Si7 0.454608 0.709281 0.770882
O O1 0.500000 0.153889 0.500000
O O2 0.378358 0.246355 0.269859
O O3 0.351691 0.128387 0.176668
O O4 0.606492 0.188758 0.478104
O O5 0.241367 0.863147 0.844010
O O6 0.231118 0.777774 0.712015
O O7 0.394006 0.746331 0.039833
O O8 0.500000 0.586221 0.500000
O O9 0.684008 0.500000 0.768569
O O10 0.622922 0.576681 0.820559
O O11 0.941328 0.137725 0.793714
O O12 0.941131 0.000000 0.795594
O O13 0.000000 0.070570 0.000000
O O14 0.157591 0.073292 0.036973
O O15 0.804443 0.500000 0.111900
O O16 0.657276 0.749057 0.305739
O O17 0.905642 0.795977 0.611387
#
# Coordination Sequence:
#
# PCOD9205537 Si02
#       7
#     8   8   8   8   8   8   8
#     4  10  21  35  57  87 116 149 193 240 288 350
#     4  11  21  36  62  84 115 152 195 237 295 346
#     4  10  22  37  57  88 122 153 193 247 296 346
#     4  10  21  36  58  84 114 156 199 235 288 352
#     4  10  21  37  57  86 121 157 194 239 296 349
#     4  10  23  37  55  90 116 149 196 243 294 350
#     4  11  22  38  61  83 120 154 194 245 293 344
#
# _framework density 19.134262
#
# number of rings (size 3 to 8) (size 9 to 14) (size 15 to 20)
#    0.000    1.714    1.429    3.429    6.000    1.429 
#    0.000    0.714    0.000    5.143    0.000    0.000 
#    0.000    0.000    0.000    0.000    0.000    0.000 
#
# Total GULP energy -155874.700172 kJ/mol
# GULP energy per Si atom -5566.953578 kJ/mol
# Density = 1.909071 g / cm^3
# Si number density = 19.134262 Si / 1000 Ang^3
#
#
#
# Elastic Constant Matrix: (Units=GPa)
#
#
# Indices 1 2 3 4 5 6 
#
# 1 2182.6201 453.0391 625.9025 0.0000 -620.0066 0.0000
# 2 453.0391 196.2910 157.2031 0.0000 -147.5456 0.0000
# 3 625.9025 157.2031 249.1670 0.0000 -184.1860 0.0000
# 4 0.0000 0.0000 0.0000 21.1138 0.0000 -6.2451
# 5 -620.0066 -147.5456 -184.1860 0.0000 205.5677 0.0000
# 6 0.0000 0.0000 0.0000 -6.2451 0.0000 0.2834
#
#
#
# Elastic Compliance Matrix: (Units=1/GPa)
#
#
# Indices 1 2 3 4 5 6 
#
# 1 0.003972 0.000617 -0.003506 0.000000 0.009281 0.000000
# 2 0.000617 0.012150 -0.004127 0.000000 0.006884 0.000000
# 3 -0.003506 -0.004127 0.016045 0.000000 0.000839 0.000000
# 4 0.000000 0.000000 0.000000 -0.008583 0.000000 -0.189142
# 5 0.009281 0.006884 0.000839 0.000000 0.038551 0.000000
# 6 0.000000 0.000000 0.000000 -0.189142 0.000000 -0.639465
#
#
# Mechanical properties :
#
#
# Convention : Reuss Voigt Hill
#
# Bulk Modulus (GPa) = 55.14336 566.70749 310.92542
# Shear Modulus (GPa) = -8.97258 138.18854 64.60798
#
# Velocity S-wave (km/s) = -2.16782 8.50748 5.81712
# Velocity P-wave (km/s) = 4.75561 19.83230 14.42110
#
# Compressibility (1/GPa) = 0.01813455
#
# Stress axis : x y z
#
# Youngs Moduli (GPa) = 251.75647 82.30558 62.32664
#
# Poissons Ratio (x) = -0.05078 0.21853
# Poissons Ratio (y) = -0.15532 0.25721
# Poissons Ratio (z) = 0.88269 0.33966
#
# Static dielectric constant tensor:
#      x y z
#    x 1.693030 0.000000 -0.014870 
#    y 0.000000 1.729110 0.000000 
#    z -0.014870 0.000000 1.688910 
# 
# From -- ./inp_files/217749.got.cif
#   From: 2010.05.17/outbox.cif.g08.bks.cpg/sg12_109_cif.got.tgz:217749.got - 2010.06.03 13:09:07.
