data_PCOD9205780
_publ_section_title
;
Structure prediction by ZEFSAII (Michael W. Deem and Ramdas Pophale) SiO2 
 PCOD9205780
Probable space group: C 2/M
;
_chemical_formula_sum "Si O2"
_cell_formula_units_Z 48
_cell_length_a 13.537221
_cell_length_b 10.874416
_cell_length_c 20.082127
_cell_angle_alpha 90.000000
_cell_angle_beta 53.516757
_cell_angle_gamma 90.000000
_cell_volume 2376.937989
_symmetry_space_group_name_H-M "C 2/M"
_symmetry_group_IT_number 12
_symmetry_cell_setting 'monoclinic'
loop_
_space_group_symop_operation_xyz
x,y,z
-x,y,-z
-x,-y,-z
x,-y,z
1/2+x,1/2+y,z
1/2-x,1/2+y,-z
1/2-x,1/2-y,-z
1/2+x,1/2-y,z
loop_
_atom_site_type_symbol
_atom_site_label
_atom_site_fract_x
_atom_site_fract_y
_atom_site_fract_z
Si Si1 0.377595 0.858616 0.890192
Si Si2 0.334862 0.862199 0.700438
Si Si3 0.778740 0.364144 0.575714
Si Si4 0.888533 0.638684 0.385211
Si Si5 0.365297 0.220587 0.047283
Si Si6 0.849928 0.640160 0.199000
O O1 0.261694 0.796254 0.901432
O O2 0.518713 0.818624 0.822709
O O3 0.374205 0.000000 0.873566
O O4 0.360829 0.843424 0.976945
O O5 0.356046 0.862283 0.612211
O O6 0.466314 0.848608 0.682150
O O7 0.247470 0.747404 0.749200
O O8 0.285006 0.000000 0.736711
O O9 0.717378 0.500000 0.597628
O O10 0.855765 0.352845 0.477144
O O11 0.685596 0.250378 0.616806
O O12 0.852111 0.500000 0.378681
O O13 0.364740 0.136947 0.112837
O O14 0.500000 0.286717 0.000000
O O15 0.820508 0.500000 0.232417
#
# Coordination Sequence:
#
# PCOD9205780 Si02
#       6
#     8   8   8   8   8   8
#     4   9  18  34  55  77 102 134 172 214 258 303
#     4  10  21  36  53  75 106 141 174 210 256 309
#     4   9  18  34  55  78 103 133 173 217 259 305
#     4   9  18  34  56  78 101 134 174 216 260 304
#     4   9  18  34  55  78 101 130 172 215 256 303
#     4  10  21  36  53  75 106 141 173 208 255 309
#
# _framework density 20.194047999999999
#
# number of rings (size 3 to 8) (size 9 to 14) (size 15 to 20)
#    0.000    2.667    0.000    1.000    0.000    7.667 
#    0.000   12.500    0.000    5.000    0.000    0.000 
#    0.000    0.000    0.000    0.000    0.000    0.000 
#
# Total GULP energy -133704.691687 kJ/mol
# GULP energy per Si atom -5571.028820 kJ/mol
# Density = 2.014809 g / cm^3
# Si number density = 20.194048 Si / 1000 Ang^3
#
#
#
# Elastic Constant Matrix: (Units=GPa)
#
#
# Indices 1 2 3 4 5 6 
#
# 1 117.3863 57.2628 27.4643 0.0000 -13.8570 0.0000
# 2 57.2628 127.7279 40.7190 0.0000 -40.5044 0.0000
# 3 27.4643 40.7190 49.4073 0.0000 -9.2706 0.0000
# 4 0.0000 0.0000 0.0000 19.3308 0.0000 -8.0452
# 5 -13.8570 -40.5044 -9.2706 0.0000 42.6704 0.0000
# 6 0.0000 0.0000 0.0000 -8.0452 0.0000 20.9453
#
#
#
# Elastic Compliance Matrix: (Units=1/GPa)
#
#
# Indices 1 2 3 4 5 6 
#
# 1 0.011236 -0.004582 -0.002712 0.000000 -0.001290 0.000000
# 2 -0.004582 0.016621 -0.008830 0.000000 0.012371 0.000000
# 3 -0.002712 -0.008830 0.028446 0.000000 -0.003082 0.000000
# 4 0.000000 0.000000 0.000000 0.061574 0.000000 0.023651
# 5 -0.001290 0.012371 -0.003082 0.000000 0.034090 0.000000
# 6 0.000000 0.000000 0.000000 0.023651 0.000000 0.056828
#
#
# Mechanical properties :
#
#
# Convention : Reuss Voigt Hill
#
# Bulk Modulus (GPa) = 41.56919 60.60151 51.08535
# Shear Modulus (GPa) = 20.07525 27.86098 23.96811
#
# Velocity S-wave (km/s) = 3.15638 3.71841 3.44886
# Velocity P-wave (km/s) = 5.82351 6.96492 6.41963
#
# Compressibility (1/GPa) = 0.02405628
#
# Stress axis : x y z
#
# Youngs Moduli (GPa) = 88.99807 60.16319 35.15372
#
# Poissons Ratio (x) = 0.27566 0.09533
# Poissons Ratio (y) = 0.40777 0.31042
# Poissons Ratio (z) = 0.24134 0.53126
#
# Static dielectric constant tensor:
#      x y z
#    x 1.722080 0.000000 0.025340 
#    y 0.000000 1.692200 0.000000 
#    z 0.025340 0.000000 1.764550 
# 
# From -- ./inp_files/304387.got.cif
#   From: 2010.05.17/outbox.cif.g08.bks.cpg/sg12_153_cif.got.tgz:304387.got - 2010.06.03 13:09:07.
