data_PCOD9205857
_publ_section_title
;
Structure prediction by ZEFSAII (Michael W. Deem and Ramdas Pophale) SiO2 
 PCOD9205857
Probable space group: C 2/M
;
_chemical_formula_sum "Si O2"
_cell_formula_units_Z 64
_cell_length_a 10.380014
_cell_length_b 7.602966
_cell_length_c 36.333282
_cell_angle_alpha 90.000000
_cell_angle_beta 89.042047
_cell_angle_gamma 90.000000
_cell_volume 2866.981650
_symmetry_space_group_name_H-M "C 2/M"
_symmetry_group_IT_number 12
_symmetry_cell_setting 'monoclinic'
loop_
_space_group_symop_operation_xyz
x,y,z
-x,y,-z
-x,-y,-z
x,-y,z
1/2+x,1/2+y,z
1/2-x,1/2+y,-z
1/2-x,1/2-y,-z
1/2+x,1/2-y,z
loop_
_atom_site_type_symbol
_atom_site_label
_atom_site_fract_x
_atom_site_fract_y
_atom_site_fract_z
Si Si1 0.846229 0.712993 0.729367
Si Si2 0.079399 0.287257 0.352838
Si Si3 0.879426 0.788781 0.477267
Si Si4 0.825194 0.287327 0.148114
Si Si5 0.590220 0.791783 0.772416
Si Si6 0.426193 0.790633 0.895270
Si Si7 0.176940 0.791290 0.603756
Si Si8 0.878995 0.288700 0.977267
O O1 0.849067 0.500000 0.729284
O O2 0.884555 0.772788 0.688333
O O3 0.704317 0.767175 0.742528
O O4 0.955181 0.778089 0.757451
O O5 0.083246 0.500000 0.352477
O O6 0.188818 0.221758 0.380651
O O7 0.938302 0.234709 0.366897
O O8 0.750000 0.750000 0.500000
O O9 0.865046 0.719000 0.435773
O O10 0.000000 0.719032 0.500000
O O11 0.895635 0.000000 0.474555
O O12 0.828795 0.500000 0.148853
O O13 0.860679 0.220893 0.188684
O O14 0.685025 0.238388 0.134121
O O15 0.936608 0.222956 0.119810
O O16 0.570815 0.000000 0.777696
O O17 0.383684 0.720597 0.935364
O O18 0.441436 0.000000 0.898989
O O19 0.195733 0.000000 0.598906
O O20 0.889521 0.500000 0.975312
O O21 0.750000 0.250000 0.000000
O O22 0.000000 0.221429 0.000000
#
# Coordination Sequence:
#
# PCOD9205857 Si02
#       8
#     8   8   8   8   8   8   8   8
#     4  10  21  37  56  79 108 140 176 219 264 314
#     4  10  21  36  55  80 107 138 177 218 264 317
#     4  10  21  36  54  78 107 140 179 220 264 316
#     4  10  21  37  56  79 108 140 176 219 263 311
#     4  10  21  36  55  80 107 138 177 217 261 314
#     4  10  21  37  57  81 109 142 179 219 265 315
#     4  10  21  36  54  79 109 139 176 221 266 316
#     4  10  21  37  57  81 109 142 179 219 265 315
#
# _framework density 22.323129999999999
#
# number of rings (size 3 to 8) (size 9 to 14) (size 15 to 20)
#    0.000    2.000    0.000    3.000    0.000    6.000 
#    0.000    0.000    0.000    0.000    0.000    0.000 
#    0.000    0.000    0.000    0.000    0.000    0.000 
#
# Total GULP energy -178913.463460 kJ/mol
# GULP energy per Si atom -5591.045733 kJ/mol
# Density = 2.227232 g / cm^3
# Si number density = 22.323130 Si / 1000 Ang^3
#
#
#
# Elastic Constant Matrix: (Units=GPa)
#
#
# Indices 1 2 3 4 5 6 
#
# 1 69.9782 -14.6325 -36.8711 0.0000 6.7881 0.0000
# 2 -14.6325 44.7721 -0.5828 0.0000 7.7664 0.0000
# 3 -36.8711 -0.5828 52.2401 0.0000 3.9378 0.0000
# 4 0.0000 0.0000 0.0000 2.2914 0.0000 -5.8026
# 5 6.7881 7.7664 3.9378 0.0000 43.5446 0.0000
# 6 0.0000 0.0000 0.0000 -5.8026 0.0000 15.3043
#
#
#
# Elastic Compliance Matrix: (Units=1/GPa)
#
#
# Indices 1 2 3 4 5 6 
#
# 1 0.028289 0.010943 0.020709 0.000000 -0.008234 0.000000
# 2 0.010943 0.027299 0.008583 0.000000 -0.007351 0.000000
# 3 0.020709 0.008583 0.034448 0.000000 -0.007874 0.000000
# 4 0.000000 0.000000 0.000000 10.944526 0.000000 4.149606
# 5 -0.008234 -0.007351 -0.007874 0.000000 0.026272 0.000000
# 6 0.000000 0.000000 0.000000 4.149606 0.000000 1.638660
#
#
# Mechanical properties :
#
#
# Convention : Reuss Voigt Hill
#
# Bulk Modulus (GPa) = 5.86493 6.97972 6.42232
# Shear Modulus (GPa) = 0.39445 26.83321 13.61383
#
# Velocity S-wave (km/s) = 0.42081 3.47080 2.47220
# Velocity P-wave (km/s) = 1.69384 4.38126 3.32148
#
# Compressibility (1/GPa) = 0.17050500
#
# Stress axis : x y z
#
# Youngs Moduli (GPa) = 35.34989 36.63174 29.02919
#
# Poissons Ratio (x) = -0.40087 -0.60116
# Poissons Ratio (y) = -0.38685 -0.24914
# Poissons Ratio (z) = -0.73206 -0.31439
#
# Static dielectric constant tensor:
#      x y z
#    x 1.746050 0.000000 0.021020 
#    y 0.000000 1.826760 0.000000 
#    z 0.021020 0.000000 1.823700 
# 
# From -- ./inp_files/373609.got.cif
#   From: 2010.05.17/outbox.cif.g08.bks.cpg/sg12_187_cif.got.tgz:373609.got - 2010.06.03 13:09:07.
