data_PCOD9205808
_publ_section_title
;
Structure prediction by ZEFSAII (Michael W. Deem and Ramdas Pophale) SiO2 
 PCOD9205808
Probable space group: C 2/M
;
_chemical_formula_sum "Si O2"
_cell_formula_units_Z 64
_cell_length_a 29.991501
_cell_length_b 13.502833
_cell_length_c 21.327134
_cell_angle_alpha 90.000000
_cell_angle_beta 20.893710
_cell_angle_gamma 90.000000
_cell_volume 3080.208343
_symmetry_space_group_name_H-M "C 2/M"
_symmetry_group_IT_number 12
_symmetry_cell_setting 'monoclinic'
loop_
_space_group_symop_operation_xyz
x,y,z
-x,y,-z
-x,-y,-z
x,-y,z
1/2+x,1/2+y,z
1/2-x,1/2+y,-z
1/2-x,1/2-y,-z
1/2+x,1/2-y,z
loop_
_atom_site_type_symbol
_atom_site_label
_atom_site_fract_x
_atom_site_fract_y
_atom_site_fract_z
Si Si1 0.511730 0.114664 0.559356
Si Si2 0.560986 0.883448 0.854903
Si Si3 0.673641 0.808423 0.891891
Si Si4 0.606527 0.310152 0.478500
Si Si5 0.660484 0.380408 0.541320
Si Si6 0.933587 0.117857 0.918684
Si Si7 0.260139 0.618594 0.027506
Si Si8 0.344378 0.381434 0.780191
O O1 0.500000 0.128429 0.500000
O O2 0.604424 0.193595 0.466966
O O3 0.378373 0.138417 0.765572
O O4 0.543683 0.000000 0.528436
O O5 0.695845 0.845970 0.653824
O O6 0.579223 0.000000 0.841790
O O7 0.500000 0.841491 0.000000
O O8 0.455446 0.867669 0.940884
O O9 0.759008 0.845009 0.722134
O O10 0.763815 0.830210 0.832051
O O11 0.628751 0.693915 0.950973
O O12 0.592929 0.337707 0.568381
O O13 0.491507 0.355527 0.590179
O O14 0.655946 0.500000 0.542342
O O15 0.577544 0.357993 0.711728
O O16 0.920519 0.000000 0.950064
O O17 0.857771 0.140151 0.954117
O O18 0.267588 0.500000 0.011014
O O19 0.290554 0.654694 0.917985
O O20 0.331876 0.500000 0.789885
#
# Coordination Sequence:
#
# PCOD9205808 Si02
#       8
#     8   8   8   8   8   8   8   8
#     4  10  21  36  53  78 118 164 206 240 279 346
#     4  10  21  41  64  85 117 155 195 245 298 359
#     4  12  25  36  59  93 118 153 198 245 299 354
#     4  12  22  35  58  89 117 152 198 242 293 349
#     4  10  21  39  65  88 112 156 202 240 290 357
#     4  10  21  39  61  87 118 158 202 242 286 347
#     4   9  18  34  55  79 115 162 197 225 283 354
#     4  11  23  36  54  89 130 156 186 244 305 357
#
# _framework density 20.777815
#
# number of rings (size 3 to 8) (size 9 to 14) (size 15 to 20)
#    0.000    1.500    2.500    3.375    1.750    5.000 
#    0.000    0.000    0.000    1.125    0.000    0.000 
#    0.000    0.000    0.000    0.000    0.000    0.000 
#
# Total GULP energy -178613.464055 kJ/mol
# GULP energy per Si atom -5581.670752 kJ/mol
# Density = 2.073052 g / cm^3
# Si number density = 20.777815 Si / 1000 Ang^3
#
#
#
# Elastic Constant Matrix: (Units=GPa)
#
#
# Indices 1 2 3 4 5 6 
#
# 1 20.7586 -5.0526 9.0388 0.0000 -9.7949 0.0000
# 2 -5.0526 62.5320 13.8421 0.0000 3.8161 0.0000
# 3 9.0388 13.8421 85.6629 0.0000 -10.6886 0.0000
# 4 0.0000 0.0000 0.0000 21.7742 0.0000 1.9128
# 5 -9.7949 3.8161 -10.6886 0.0000 35.2278 0.0000
# 6 0.0000 0.0000 0.0000 1.9128 0.0000 13.7734
#
#
#
# Elastic Compliance Matrix: (Units=1/GPa)
#
#
# Indices 1 2 3 4 5 6 
#
# 1 0.058304 0.005003 -0.005202 0.000000 0.014091 0.000000
# 2 0.005003 0.017267 -0.003511 0.000000 -0.001545 0.000000
# 3 -0.005202 -0.003511 0.013155 0.000000 0.002925 0.000000
# 4 0.000000 0.000000 0.000000 0.046493 0.000000 -0.006457
# 5 0.014091 -0.001545 0.002925 0.000000 0.033359 0.000000
# 6 0.000000 0.000000 0.000000 -0.006457 0.000000 0.073500
#
#
# Mechanical properties :
#
#
# Convention : Reuss Voigt Hill
#
# Bulk Modulus (GPa) = 12.29925 22.73446 17.51685
# Shear Modulus (GPa) = 18.07651 24.23010 21.15330
#
# Velocity S-wave (km/s) = 2.95276 3.41860 3.19418
# Velocity P-wave (km/s) = 4.19015 5.15247 4.69602
#
# Compressibility (1/GPa) = 0.08130580
#
# Stress axis : x y z
#
# Youngs Moduli (GPa) = 17.15141 57.91236 76.01736
#
# Poissons Ratio (x) = -0.28972 0.39546
# Poissons Ratio (y) = -0.08580 0.26688
# Poissons Ratio (z) = 0.08923 0.20332
#
# Static dielectric constant tensor:
#      x y z
#    x 1.732370 0.000000 0.010910 
#    y 0.000000 1.771920 0.000000 
#    z 0.010910 0.000000 1.826080 
# 
# From -- ./inp_files/330356.got.cif
#   From: 2010.05.17/outbox.cif.g08.bks.cpg/sg12_166_cif.got.tgz:330356.got - 2010.06.03 13:09:07.
