data_PCOD9205963
_publ_section_title
;
Structure prediction by ZEFSAII (Michael W. Deem and Ramdas Pophale) SiO2 
 PCOD9205963
Probable space group: C 2/M
;
_chemical_formula_sum "Si O2"
_cell_formula_units_Z 56
_cell_length_a 20.030117
_cell_length_b 7.733178
_cell_length_c 25.838255
_cell_angle_alpha 90.000000
_cell_angle_beta 42.085018
_cell_angle_gamma 90.000000
_cell_volume 2682.441183
_symmetry_space_group_name_H-M "C 2/M"
_symmetry_group_IT_number 12
_symmetry_cell_setting 'monoclinic'
loop_
_space_group_symop_operation_xyz
x,y,z
-x,y,-z
-x,-y,-z
x,-y,z
1/2+x,1/2+y,z
1/2-x,1/2+y,-z
1/2-x,1/2-y,-z
1/2+x,1/2-y,z
loop_
_atom_site_type_symbol
_atom_site_label
_atom_site_fract_x
_atom_site_fract_y
_atom_site_fract_z
Si Si1 0.358101 0.706978 0.916087
Si Si2 0.325539 0.295250 0.820524
Si Si3 0.496805 0.296262 0.342921
Si Si4 0.568169 0.799494 0.829957
Si Si5 0.104983 0.803273 0.921508
Si Si6 0.641678 0.210529 0.675353
Si Si7 0.320565 0.707762 0.508267
O O1 0.370955 0.500000 0.909214
O O2 0.360738 0.774793 0.855659
O O3 0.448692 0.785671 0.895860
O O4 0.250000 0.750000 0.000000
O O5 0.344923 0.500000 0.811167
O O6 0.394878 0.223976 0.734486
O O7 0.208118 0.273996 0.881650
O O8 0.508009 0.500000 0.347959
O O9 0.431873 0.277193 0.327412
O O10 0.428623 0.222803 0.428666
O O11 0.605320 0.703269 0.859263
O O12 0.608405 0.733780 0.751527
O O13 0.597680 0.000000 0.818310
O O14 0.104500 0.000000 0.941336
O O15 0.000000 0.721577 0.000000
O O16 0.754123 0.265644 0.595125
O O17 0.636450 0.000000 0.676730
O O18 0.328614 0.500000 0.507809
O O19 0.250000 0.750000 0.500000
#
# Coordination Sequence:
#
# PCOD9205963 Si02
#       7
#     8   8   8   8   8   8   8
#     4  11  22  36  55  80 109 138 174 220 270 320
#     4  10  21  36  55  79 107 139 175 218 266 318
#     4   9  16  29  50  77 108 141 174 212 260 311
#     4  11  22  36  56  80 109 142 177 219 266 319
#     4  11  25  42  58  76 100 136 182 228 273 323
#     4   9  17  29  48  78 110 140 174 213 257 307
#     4   8  14  25  44  72 107 140 171 208 252 305
#
# _framework density 20.876505000000002
#
# number of rings (size 3 to 8) (size 9 to 14) (size 15 to 20)
#    0.000    2.143    1.429    2.143    0.000    5.714 
#    0.000    0.000    0.000    0.857    0.000    6.000 
#    0.000    0.000    0.000    0.000    0.000    0.000 
#
# Total GULP energy -156167.737279 kJ/mol
# GULP energy per Si atom -5577.419189 kJ/mol
# Density = 2.082899 g / cm^3
# Si number density = 20.876505 Si / 1000 Ang^3
#
#
#
# Elastic Constant Matrix: (Units=GPa)
#
#
# Indices 1 2 3 4 5 6 
#
# 1 32.2603 -8.6662 -16.7105 0.0001 -5.1466 -0.0014
# 2 -8.6662 36.9434 -1.5811 0.0007 -1.6708 -0.0073
# 3 -16.7105 -1.5811 111.1259 -0.0001 -7.9137 -0.0001
# 4 0.0001 0.0007 -0.0001 12.8963 0.0003 -0.0790
# 5 -5.1466 -1.6708 -7.9137 0.0003 24.1288 0.0001
# 6 -0.0014 -0.0073 -0.0001 -0.0790 0.0001 16.5943
#
#
#
# Elastic Compliance Matrix: (Units=1/GPa)
#
#
# Indices 1 2 3 4 5 6 
#
# 1 0.038986 0.009945 0.006804 -0.000001 0.011236 0.000008
# 2 0.009945 0.029721 0.002269 -0.000002 0.004923 0.000014
# 3 0.006804 0.002269 0.010412 0.000000 0.005023 0.000002
# 4 -0.000001 -0.000002 0.000000 0.077544 -0.000001 0.000369
# 5 0.011236 0.004923 0.005023 -0.000001 0.045829 0.000003
# 6 0.000008 0.000014 0.000002 0.000369 0.000003 0.060263
#
#
# Mechanical properties :
#
#
# Convention : Reuss Voigt Hill
#
# Bulk Modulus (GPa) = 8.53569 14.04601 11.29085
# Shear Modulus (GPa) = 18.95578 24.54305 21.74941
#
# Velocity S-wave (km/s) = 3.01657 3.43247 3.23121
# Velocity P-wave (km/s) = 4.02870 4.73834 4.39786
#
# Compressibility (1/GPa) = 0.11715515
#
# Stress axis : x y z
#
# Youngs Moduli (GPa) = 25.65002 33.64619 96.04319
#
# Poissons Ratio (x) = -0.33460 -0.65349
# Poissons Ratio (y) = -0.25508 -0.21791
# Poissons Ratio (z) = -0.17453 -0.07634
#
# Static dielectric constant tensor:
#      x y z
#    x 1.688690 0.000000 0.016260 
#    y 0.000000 1.772060 0.000000 
#    z 0.016260 0.000000 1.852160 
# 
# From -- ./inp_files/363026.got.cif
#   From: 2010.05.17/outbox.cif.g08.bks.cpg/sg12_182_cif.got.tgz:363026.got - 2010.06.03 13:09:07.
