data_PCOD9205186
_publ_section_title
;
Structure prediction by ZEFSAII (Michael W. Deem and Ramdas Pophale) SiO2 
 PCOD9205186
Probable space group: C 2/M
;
_chemical_formula_sum "Si O2"
_cell_formula_units_Z 48
_cell_length_a 13.985303
_cell_length_b 11.697443
_cell_length_c 14.288102
_cell_angle_alpha 90.000000
_cell_angle_beta 59.582227
_cell_angle_gamma 90.000000
_cell_volume 2015.692501
_symmetry_space_group_name_H-M "C 2/M"
_symmetry_group_IT_number 12
_symmetry_cell_setting 'monoclinic'
loop_
_space_group_symop_operation_xyz
x,y,z
-x,y,-z
-x,-y,-z
x,-y,z
1/2+x,1/2+y,z
1/2-x,1/2+y,-z
1/2-x,1/2-y,-z
1/2+x,1/2-y,z
loop_
_atom_site_type_symbol
_atom_site_label
_atom_site_fract_x
_atom_site_fract_y
_atom_site_fract_z
Si Si1 0.291718 0.629753 0.433032
Si Si2 0.245684 0.759747 0.178086
Si Si3 0.899217 0.871974 0.974113
Si Si4 0.007239 0.500000 0.832803
Si Si5 0.446224 0.755987 0.232131
Si Si6 0.180632 0.500000 0.922367
Si Si7 0.904268 0.629538 0.617614
O O1 0.297113 0.500000 0.475083
O O2 0.250000 0.750000 0.500000
O O3 0.408553 0.668329 0.330567
O O4 0.203655 0.616823 0.393687
O O5 0.343302 0.757544 0.208988
O O6 0.134441 0.716418 0.282998
O O7 0.251376 0.884332 0.129360
O O8 0.290003 0.670412 0.079839
O O9 0.944821 0.786753 0.874449
O O10 0.887561 0.000000 0.945466
O O11 0.000000 0.872685 0.000000
O O12 0.033976 0.388712 0.758432
O O13 0.090576 0.500000 0.881333
O O14 0.888956 0.500000 0.945928
O O15 0.932315 0.500000 0.635234
O O16 0.000000 0.671224 0.500000
#
# Coordination Sequence:
#
# PCOD9205186 Si02
#       7
#     8   8   8   4   8   4   8
#     4  10  21  35  52  74 100 133 170 209 250 292
#     4   9  15  24  39  63  92 123 154 194 242 291
#     4   9  14  20  34  58  88 117 146 188 243 295
#     4   9  14  22  38  60  92 132 155 184 238 295
#     4   9  16  25  40  62  93 124 157 195 241 294
#     4   9  14  22  35  60  96 126 153 184 236 301
#     4   9  18  34  53  72  97 131 171 208 242 288
#
# _framework density 23.813154999999998
#
# number of rings (size 3 to 8) (size 9 to 14) (size 15 to 20)
#    0.000    2.833    1.667    1.000    1.167    4.000 
#    1.500    0.417    0.000    0.000    0.000    1.167 
#    0.000    0.000    0.000    0.000    0.000    0.000 
#
# Total GULP energy -134028.846623 kJ/mol
# GULP energy per Si atom -5584.535276 kJ/mol
# Density = 2.375896 g / cm^3
# Si number density = 23.813155 Si / 1000 Ang^3
#
#
#
# Elastic Constant Matrix: (Units=GPa)
#
#
# Indices 1 2 3 4 5 6 
#
# 1 74.3166 22.4618 11.9933 0.0000 -4.1558 0.0000
# 2 22.4618 188.2310 64.2868 0.0000 -3.6964 0.0000
# 3 11.9933 64.2868 135.9953 0.0000 -35.8302 0.0000
# 4 0.0000 0.0000 0.0000 17.2827 0.0000 -2.6208
# 5 -4.1558 -3.6964 -35.8302 0.0000 26.6577 0.0000
# 6 0.0000 0.0000 0.0000 -2.6208 0.0000 30.2678
#
#
#
# Elastic Compliance Matrix: (Units=1/GPa)
#
#
# Indices 1 2 3 4 5 6 
#
# 1 0.014062 -0.001672 0.000103 0.000000 0.002099 0.000000
# 2 -0.001672 0.006971 -0.004586 0.000000 -0.005458 0.000000
# 3 0.000103 -0.004586 0.014474 0.000000 0.018835 0.000000
# 4 0.000000 0.000000 0.000000 0.058631 0.000000 0.005077
# 5 0.002099 -0.005458 0.018835 0.000000 0.062399 0.000000
# 6 0.000000 0.000000 0.000000 0.005077 0.000000 0.033478
#
#
# Mechanical properties :
#
#
# Convention : Reuss Voigt Hill
#
# Bulk Modulus (GPa) = 43.10660 66.22518 54.66589
# Shear Modulus (GPa) = 23.80303 34.82837 29.31570
#
# Velocity S-wave (km/s) = 3.16504 3.82850 3.51247
# Velocity P-wave (km/s) = 5.61230 6.88578 6.28140
#
# Compressibility (1/GPa) = 0.02319831
#
# Stress axis : x y z
#
# Youngs Moduli (GPa) = 71.11339 143.44728 69.08830
#
# Poissons Ratio (x) = 0.23986 -0.00715
# Poissons Ratio (y) = 0.11891 0.31683
# Poissons Ratio (z) = -0.00735 0.65783
#
# Static dielectric constant tensor:
#      x y z
#    x 2.034380 0.000000 0.021200 
#    y 0.000000 1.902340 0.000000 
#    z 0.021200 0.000000 1.886200 
# 
# From -- ./inp_files/174102.got.cif
#   From: 2010.05.17/outbox.cif.g08.bks.cpg/sg12_88_cif.got.tgz:174102.got - 2010.06.03 13:09:07.
