data_PCOD9205556
_publ_section_title
;
Structure prediction by ZEFSAII (Michael W. Deem and Ramdas Pophale) SiO2 
 PCOD9205556
Probable space group: C 2/M
;
_chemical_formula_sum "Si O2"
_cell_formula_units_Z 40
_cell_length_a 7.395770
_cell_length_b 24.248181
_cell_length_c 11.281434
_cell_angle_alpha 90.000000
_cell_angle_beta 105.768423
_cell_angle_gamma 90.000000
_cell_volume 1947.009186
_symmetry_space_group_name_H-M "C 2/M"
_symmetry_group_IT_number 12
_symmetry_cell_setting 'monoclinic'
loop_
_space_group_symop_operation_xyz
x,y,z
-x,y,-z
-x,-y,-z
x,-y,z
1/2+x,1/2+y,z
1/2-x,1/2+y,-z
1/2-x,1/2-y,-z
1/2+x,1/2-y,z
loop_
_atom_site_type_symbol
_atom_site_label
_atom_site_fract_x
_atom_site_fract_y
_atom_site_fract_z
Si Si1 0.486913 0.166124 0.133943
Si Si2 0.225749 0.200668 0.405631
Si Si3 0.072971 0.439690 0.710877
Si Si4 0.208277 0.919703 0.488681
Si Si5 0.359385 0.736830 0.229450
O O1 0.427746 0.113481 0.203045
O O2 0.354595 0.220682 0.119804
O O3 0.685746 0.195152 0.205094
O O4 0.500000 0.148221 0.000000
O O5 0.250000 0.250000 0.500000
O O6 0.226098 0.146021 0.480726
O O7 0.380265 0.216426 0.336736
O O8 0.042625 0.200934 0.288586
O O9 0.091232 0.500000 0.773170
O O10 0.230761 0.436835 0.634317
O O11 0.873033 0.438458 0.606017
O O12 0.000000 0.933993 0.500000
#
# Coordination Sequence:
#
# PCOD9205556 Si02
#       5
#     8   8   8   8   8
#     4  11  22  41  63  86 120 163 208 259 307 353
#     4  11  19  30  55  89 127 157 185 240 310 377
#     4  11  25  41  60  91 123 161 212 252 301 373
#     4  11  21  38  61  89 123 161 198 248 316 377
#     4  10  21  35  57  92 121 154 200 247 307 372
#
# _framework density 20.544332000000001
#
# number of rings (size 3 to 8) (size 9 to 14) (size 15 to 20)
#    0.000    1.200    2.000    7.200    2.800    2.000 
#    0.000    0.000    0.000    0.000    0.000    4.200 
#    0.000    0.000    0.000    0.000    0.000    0.000 
#
# Total GULP energy -111355.786651 kJ/mol
# GULP energy per Si atom -5567.789333 kJ/mol
# Density = 2.049757 g / cm^3
# Si number density = 20.544332 Si / 1000 Ang^3
#
#
#
# Elastic Constant Matrix: (Units=GPa)
#
#
# Indices 1 2 3 4 5 6 
#
# 1 116.0262 28.6191 25.1753 0.0000 -3.7655 0.0000
# 2 28.6191 162.1614 37.8149 0.0000 0.3431 0.0000
# 3 25.1753 37.8149 76.1471 0.0000 -16.3382 0.0000
# 4 0.0000 0.0000 0.0000 0.4706 0.0000 1.6184
# 5 -3.7655 0.3431 -16.3382 0.0000 18.4236 0.0000
# 6 0.0000 0.0000 0.0000 1.6184 0.0000 5.5208
#
#
#
# Elastic Compliance Matrix: (Units=1/GPa)
#
#
# Indices 1 2 3 4 5 6 
#
# 1 0.009447 -0.001035 -0.002705 0.000000 -0.000449 0.000000
# 2 -0.001035 0.007329 -0.004164 0.000000 -0.004041 0.000000
# 3 -0.002705 -0.004164 0.019751 0.000000 0.017040 0.000000
# 4 0.000000 0.000000 0.000000********** 0.000000 75.955846
# 5 -0.000449 -0.004041 0.017040 0.000000 0.069373 0.000000
# 6 0.000000 0.000000 0.000000 75.955846 0.000000-22.085284
#
#
# Mechanical properties :
#
#
# Convention : Reuss Voigt Hill
#
# Bulk Modulus (GPa) = 48.27078 59.72814 53.99946
# Shear Modulus (GPa) = -0.01779 22.39803 11.19012
#
# Velocity S-wave (km/s) = -0.09316 3.30544 2.33637
# Velocity P-wave (km/s) = 4.85132 6.61089 5.79824
#
# Compressibility (1/GPa) = 0.02071647
#
# Stress axis : x y z
#
# Youngs Moduli (GPa) = 105.85871 136.44260 50.63001
#
# Poissons Ratio (x) = 0.14127 0.13697
# Poissons Ratio (y) = 0.10960 0.21085
# Poissons Ratio (z) = 0.28639 0.56821
#
# Static dielectric constant tensor:
#      x y z
#    x 1.870140 0.000000 -0.071390 
#    y 0.000000 1.905340 0.000000 
#    z -0.071390 0.000000 1.908430 
# 
# From -- ./inp_files/121437.got.cif
#   From: 2010.05.17/outbox.cif.g08.bks.cpg/sg12_61_cif.got.tgz:121437.got - 2010.06.03 13:09:07.
