data_PCOD9205541
_publ_section_title
;
Structure prediction by ZEFSAII (Michael W. Deem and Ramdas Pophale) SiO2 
 PCOD9205541
Probable space group: C 2/M
;
_chemical_formula_sum "Si O2"
_cell_formula_units_Z 56
_cell_length_a 10.995022
_cell_length_b 19.547688
_cell_length_c 12.076504
_cell_angle_alpha 90.000000
_cell_angle_beta 99.915129
_cell_angle_gamma 90.000000
_cell_volume 2556.802203
_symmetry_space_group_name_H-M "C 2/M"
_symmetry_group_IT_number 12
_symmetry_cell_setting 'monoclinic'
loop_
_space_group_symop_operation_xyz
x,y,z
-x,y,-z
-x,-y,-z
x,-y,z
1/2+x,1/2+y,z
1/2-x,1/2+y,-z
1/2-x,1/2-y,-z
1/2+x,1/2-y,z
loop_
_atom_site_type_symbol
_atom_site_label
_atom_site_fract_x
_atom_site_fract_y
_atom_site_fract_z
Si Si1 0.865475 0.082528 0.445238
Si Si2 0.445333 0.848335 0.221451
Si Si3 0.065123 0.925762 0.164663
Si Si4 0.580668 0.288189 0.907183
Si Si5 0.693410 0.076705 0.228569
Si Si6 0.712862 0.920687 0.625930
Si Si7 0.740648 0.107396 0.988120
O O1 0.817591 0.095763 0.314416
O O2 0.758067 0.103964 0.513438
O O3 0.000000 0.109853 0.500000
O O4 0.872737 0.000000 0.458855
O O5 0.419856 0.769874 0.185436
O O6 0.587235 0.869297 0.239178
O O7 0.383862 0.873474 0.325458
O O8 0.375242 0.889476 0.111751
O O9 0.162587 0.921037 0.279970
O O10 0.985438 0.857581 0.145905
O O11 0.001538 0.000000 0.164167
O O12 0.148669 0.924554 0.066426
O O13 0.710539 0.317081 0.971732
O O14 0.500000 0.262984 0.000000
O O15 0.711994 0.074734 0.100472
O O16 0.656676 0.000000 0.260576
O O17 0.669287 0.000000 0.614103
#
# Coordination Sequence:
#
# PCOD9205541 Si02
#       7
#     8   8   8   8   8   8   8
#     4   9  20  39  63  90 120 156 209 264 312 361
#     4  11  22  38  57  85 128 167 206 239 296 375
#     4   9  19  35  59  92 121 151 196 254 311 354
#     4  10  21  36  58  87 124 167 205 244 298 366
#     4  11  23  36  59  92 125 165 203 252 310 363
#     4   9  19  37  63  88 117 159 203 255 302 353
#     4  10  21  35  57  87 124 164 203 249 295 366
#
# _framework density 21.902360000000002
#
# number of rings (size 3 to 8) (size 9 to 14) (size 15 to 20)
#    0.000    2.143    0.000    2.571    2.000    8.286 
#    0.000    2.143    0.000    5.143    0.000    0.000 
#    0.000    0.000    0.000    0.000    0.000    0.286 
#
# Total GULP energy -156472.772247 kJ/mol
# GULP energy per Si atom -5588.313295 kJ/mol
# Density = 2.185251 g / cm^3
# Si number density = 21.902360 Si / 1000 Ang^3
#
#
#
# Elastic Constant Matrix: (Units=GPa)
#
#
# Indices 1 2 3 4 5 6 
#
# 1 61.8213 12.6175 27.9987 0.0000 -3.3495 0.0000
# 2 12.6175 80.3375 13.5459 0.0000 -10.7553 0.0000
# 3 27.9987 13.5459 81.4909 0.0000 -19.7496 0.0000
# 4 0.0000 0.0000 0.0000 -0.0218 0.0000 9.2182
# 5 -3.3495 -10.7553 -19.7496 0.0000 33.4351 0.0000
# 6 0.0000 0.0000 0.0000 9.2182 0.0000 -11.6489
#
#
#
# Elastic Compliance Matrix: (Units=1/GPa)
#
#
# Indices 1 2 3 4 5 6 
#
# 1 0.019701 -0.002293 -0.007105 0.000000 -0.002961 0.000000
# 2 -0.002293 0.013401 -0.000526 0.000000 0.003770 0.000000
# 3 -0.007105 -0.000526 0.017024 0.000000 0.009174 0.000000
# 4 0.000000 0.000000 0.000000 0.137498 0.000000 0.108807
# 5 -0.002961 0.003770 0.009174 0.000000 0.036244 0.000000
# 6 0.000000 0.000000 0.000000 0.108807 0.000000 0.000258
#
#
# Mechanical properties :
#
#
# Convention : Reuss Voigt Hill
#
# Bulk Modulus (GPa) = 33.02791 36.88601 34.95696
# Shear Modulus (GPa) = 19.67993 15.65204 17.66598
#
# Velocity S-wave (km/s) = 3.00080 2.67615 2.84311
# Velocity P-wave (km/s) = 5.20757 5.14069 5.17424
#
# Compressibility (1/GPa) = 0.03027742
#
# Stress axis : x y z
#
# Youngs Moduli (GPa) = 50.75838 74.62116 58.74224
#
# Poissons Ratio (x) = 0.17107 0.41739
# Poissons Ratio (y) = 0.11637 0.03091
# Poissons Ratio (z) = 0.36066 0.03926
#
# Static dielectric constant tensor:
#      x y z
#    x 1.829520 0.000000 0.007650 
#    y 0.000000 1.808800 0.000000 
#    z 0.007650 0.000000 1.823660 
# 
# From -- ./inp_files/133301.got.cif
#   From: 2010.05.17/outbox.cif.g08.bks.cpg/sg12_67_cif.got.tgz:133301.got - 2010.06.03 13:09:07.
