data_PCOD9205796
_publ_section_title
;
Structure prediction by ZEFSAII (Michael W. Deem and Ramdas Pophale) SiO2 
 PCOD9205796
Probable space group: C 2/M
;
_chemical_formula_sum "Si O2"
_cell_formula_units_Z 64
_cell_length_a 29.741739
_cell_length_b 7.908886
_cell_length_c 17.810112
_cell_angle_alpha 90.000000
_cell_angle_beta 129.017340
_cell_angle_gamma 90.000000
_cell_volume 3254.950976
_symmetry_space_group_name_H-M "C 2/M"
_symmetry_group_IT_number 12
_symmetry_cell_setting 'monoclinic'
loop_
_space_group_symop_operation_xyz
x,y,z
-x,y,-z
-x,-y,-z
x,-y,z
1/2+x,1/2+y,z
1/2-x,1/2+y,-z
1/2-x,1/2-y,-z
1/2+x,1/2-y,z
loop_
_atom_site_type_symbol
_atom_site_label
_atom_site_fract_x
_atom_site_fract_y
_atom_site_fract_z
Si Si1 0.063440 0.201131 0.227766
Si Si2 0.789944 0.202237 0.111667
Si Si3 0.604569 0.206391 0.585319
Si Si4 0.356927 0.291423 0.823836
Si Si5 0.766164 0.299330 0.254523
Si Si6 0.919369 0.800917 0.270900
Si Si7 0.954431 0.696657 0.628472
Si Si8 0.458519 0.307006 0.030105
O O1 0.112814 0.262021 0.222259
O O2 0.072775 0.228521 0.324916
O O3 0.000628 0.273187 0.136172
O O4 0.059403 0.000000 0.210303
O O5 0.764928 0.269701 0.163868
O O6 0.856811 0.263186 0.176425
O O7 0.792474 0.000000 0.120155
O O8 0.750000 0.250000 0.000000
O O9 0.671547 0.263513 0.651842
O O10 0.580535 0.271167 0.639247
O O11 0.569778 0.265667 0.475805
O O12 0.602314 0.000000 0.586734
O O13 0.357316 0.500000 0.825926
O O14 0.291755 0.231825 0.767795
O O15 0.398892 0.233201 0.936051
O O16 0.766556 0.500000 0.268080
O O17 0.976556 0.718971 0.297587
O O18 0.922916 0.000000 0.258759
O O19 0.940104 0.500000 0.613866
O O20 0.444931 0.500000 0.039700
O O21 0.500000 0.314938 0.000000
#
# Coordination Sequence:
#
# PCOD9205796 Si02
#       8
#     8   8   8   8   8   8   8   8
#     4   9  17  30  48  72 101 129 163 207 248 291
#     4  10  21  36  53  77 108 136 163 199 244 294
#     4   9  19  35  52  71  98 131 165 205 255 308
#     4   8  14  27  50  75  96 126 167 205 243 292
#     4   9  17  32  54  75  97 131 174 212 247 294
#     4  10  21  36  55  77  98 125 166 210 247 291
#     4  11  22  34  49  71 101 134 165 203 258 311
#     4   7  11  22  42  67  92 117 149 193 239 278
#
# _framework density 19.662355999999999
#
# number of rings (size 3 to 8) (size 9 to 14) (size 15 to 20)
#    0.000    2.875    0.000    3.000    0.000    5.000 
#    0.000    3.750    0.000    3.375    0.000    0.000 
#    0.000    0.000    0.000    0.000    0.000    0.000 
#
# Total GULP energy -178355.627721 kJ/mol
# GULP energy per Si atom -5573.613366 kJ/mol
# Density = 1.961760 g / cm^3
# Si number density = 19.662356 Si / 1000 Ang^3
#
#
#
# Elastic Constant Matrix: (Units=GPa)
#
#
# Indices 1 2 3 4 5 6 
#
# 1 101.8841 -5.7072 31.2613 0.0000 9.6094 0.0000
# 2 -5.7072 11.1907 -9.7609 0.0000 2.7919 0.0000
# 3 31.2613 -9.7609 90.2575 0.0000 -0.7262 0.0000
# 4 0.0000 0.0000 0.0000 16.4865 0.0000 -2.0083
# 5 9.6094 2.7919 -0.7262 0.0000 11.0045 0.0000
# 6 0.0000 0.0000 0.0000 -2.0083 0.0000 11.2942
#
#
#
# Elastic Compliance Matrix: (Units=1/GPa)
#
#
# Indices 1 2 3 4 5 6 
#
# 1 0.012528 0.006299 -0.003761 0.000000 -0.012786 0.000000
# 2 0.006299 0.108812 0.009324 0.000000 -0.032491 0.000000
# 3 -0.003761 0.009324 0.013405 0.000000 0.001803 0.000000
# 4 0.000000 0.000000 0.000000 0.061999 0.000000 0.011024
# 5 -0.012786 -0.032491 0.001803 0.000000 0.110399 0.000000
# 6 0.000000 0.000000 0.000000 0.011024 0.000000 0.090501
#
#
# Mechanical properties :
#
#
# Convention : Reuss Voigt Hill
#
# Bulk Modulus (GPa) = 6.31039 26.10208 16.20624
# Shear Modulus (GPa) = 11.71670 20.25964 15.98817
#
# Velocity S-wave (km/s) = 2.44374 3.21343 2.85465
# Velocity P-wave (km/s) = 3.34348 5.20309 4.37327
#
# Compressibility (1/GPa) = 0.15846875
#
# Stress axis : x y z
#
# Youngs Moduli (GPa) = 79.82285 9.19020 74.59972
#
# Poissons Ratio (x) = -0.05789 0.28055
# Poissons Ratio (y) = -0.50278 -0.69560
# Poissons Ratio (z) = 0.30020 -0.08569
#
# Static dielectric constant tensor:
#      x y z
#    x 1.679870 0.000000 0.024220 
#    y 0.000000 1.722310 0.000000 
#    z 0.024220 0.000000 1.706910 
# 
# From -- ./inp_files/249228.got.cif
#   From: 2010.05.17/outbox.cif.g08.bks.cpg/sg12_125_cif.got.tgz:249228.got - 2010.06.03 13:09:07.
