data_PCOD9205001
_publ_section_title
;
Structure prediction by ZEFSAII (Michael W. Deem and Ramdas Pophale) SiO2 
 PCOD9205001
Probable space group: C 2/M
;
_chemical_formula_sum "Si O2"
_cell_formula_units_Z 64
_cell_length_a 9.386866
_cell_length_b 29.631160
_cell_length_c 16.744458
_cell_angle_alpha 90.000000
_cell_angle_beta 142.550502
_cell_angle_gamma 90.000000
_cell_volume 2831.966853
_symmetry_space_group_name_H-M "C 2/M"
_symmetry_group_IT_number 12
_symmetry_cell_setting 'monoclinic'
loop_
_space_group_symop_operation_xyz
x,y,z
-x,y,-z
-x,-y,-z
x,-y,z
1/2+x,1/2+y,z
1/2-x,1/2+y,-z
1/2-x,1/2-y,-z
1/2+x,1/2-y,z
loop_
_atom_site_type_symbol
_atom_site_label
_atom_site_fract_x
_atom_site_fract_y
_atom_site_fract_z
Si Si1 0.759709 0.241425 0.098073
Si Si2 0.068354 0.334958 0.821822
Si Si3 0.126149 0.832971 0.305896
Si Si4 0.777283 0.388991 0.955593
Si Si5 0.941246 0.051887 0.567871
Si Si6 0.925844 0.146429 0.374161
Si Si7 0.963022 0.051843 0.894551
Si Si8 0.462322 0.109194 0.352613
O O1 0.792759 0.291642 0.148110
O O2 0.993670 0.213368 0.223158
O O3 0.500000 0.221609 0.000000
O O4 0.750000 0.250000 0.000000
O O5 0.016194 0.367764 0.724675
O O6 0.808376 0.324381 0.739578
O O7 0.195766 0.358626 0.952717
O O8 0.358423 0.852134 0.365974
O O9 0.929466 0.867815 0.187998
O O10 0.121485 0.835431 0.400159
O O11 0.697410 0.437661 0.950545
O O12 0.000000 0.389597 0.000000
O O13 0.691067 0.077686 0.471121
O O14 0.000000 0.047026 0.500000
O O15 0.116130 0.093432 0.667966
O O16 0.949687 0.000000 0.604231
O O17 0.000000 0.148460 0.500000
O O18 0.750159 0.074585 0.754247
O O19 0.910557 0.000000 0.879395
O O20 0.000000 0.071112 0.000000
#
# Coordination Sequence:
#
# PCOD9205001 Si02
#       8
#     8   8   8   8   8   8   8   8
#     4  12  24  40  68 105 137 172 228 273 323 412
#     4  12  22  39  66  96 131 173 219 278 337 397
#     4  11  24  41  66 100 135 173 214 281 341 395
#     4  11  21  38  63  91 132 176 217 270 336 404
#     4  10  21  42  71  97 123 174 241 284 323 395
#     4  11  23  45  66  91 134 177 224 277 340 398
#     4  10  21  34  55  90 132 173 213 263 336 419
#     4  11  22  40  65  94 132 168 218 280 343 396
#
# _framework density 22.599132999999998
#
# number of rings (size 3 to 8) (size 9 to 14) (size 15 to 20)
#    0.000    1.000    6.250    2.250    1.750    0.750 
#    0.000    5.000    2.750    0.000    0.000    0.000 
#    0.000    0.000    0.000    0.000    0.000    0.000 
#
# Total GULP energy -178395.383466 kJ/mol
# GULP energy per Si atom -5574.855733 kJ/mol
# Density = 2.254770 g / cm^3
# Si number density = 22.599133 Si / 1000 Ang^3
#
#
#
# Elastic Constant Matrix: (Units=GPa)
#
#
# Indices 1 2 3 4 5 6 
#
# 1 122.7492 20.9000 29.9035 0.0000 10.0933 0.0000
# 2 20.9000 69.7761 20.5965 0.0000 4.1866 0.0000
# 3 29.9035 20.5965 70.1684 0.0000 2.6817 0.0000
# 4 0.0000 0.0000 0.0000 19.3237 0.0000 2.6805
# 5 10.0933 4.1866 2.6817 0.0000 43.9124 0.0000
# 6 0.0000 0.0000 0.0000 2.6805 0.0000 23.0582
#
#
#
# Elastic Compliance Matrix: (Units=1/GPa)
#
#
# Indices 1 2 3 4 5 6 
#
# 1 0.009423 -0.001697 -0.003449 0.000000 -0.001794 0.000000
# 2 -0.001697 0.016062 -0.003957 0.000000 -0.000900 0.000000
# 3 -0.003449 -0.003957 0.016878 0.000000 0.000139 0.000000
# 4 0.000000 0.000000 0.000000 0.052598 0.000000 -0.006114
# 5 -0.001794 -0.000900 0.000139 0.000000 0.023262 0.000000
# 6 0.000000 0.000000 0.000000 -0.006114 0.000000 0.044079
#
#
# Mechanical properties :
#
#
# Convention : Reuss Voigt Hill
#
# Bulk Modulus (GPa) = 41.39699 45.05485 43.22592
# Shear Modulus (GPa) = 26.51661 30.01177 28.26419
#
# Velocity S-wave (km/s) = 3.42913 3.64813 3.54033
# Velocity P-wave (km/s) = 5.83406 6.14207 5.99005
#
# Compressibility (1/GPa) = 0.02415635
#
# Stress axis : x y z
#
# Youngs Moduli (GPa) = 106.11898 62.25934 59.25004
#
# Poissons Ratio (x) = 0.10564 0.20437
# Poissons Ratio (y) = 0.18006 0.23446
# Poissons Ratio (z) = 0.36604 0.24637
#
# Static dielectric constant tensor:
#      x y z
#    x 1.979410 0.000000 0.129390 
#    y 0.000000 1.877390 0.000000 
#    z 0.129390 0.000000 2.033130 
# 
# From -- ./inp_files/260396.got.cif
#   From: 2010.05.17/outbox.cif.g08.bks.cpg/sg12_131_cif.got.tgz:260396.got - 2010.06.03 13:09:07.
