data_PCOD9205027
_publ_section_title
;
Structure prediction by ZEFSAII (Michael W. Deem and Ramdas Pophale) SiO2 
 PCOD9205027
Probable space group: C 2/M
;
_chemical_formula_sum "Si O2"
_cell_formula_units_Z 56
_cell_length_a 26.071711
_cell_length_b 15.495892
_cell_length_c 25.629440
_cell_angle_alpha 90.000000
_cell_angle_beta 163.744036
_cell_angle_gamma 90.000000
_cell_volume 2898.498229
_symmetry_space_group_name_H-M "C 2/M"
_symmetry_group_IT_number 12
_symmetry_cell_setting 'monoclinic'
loop_
_space_group_symop_operation_xyz
x,y,z
-x,y,-z
-x,-y,-z
x,-y,z
1/2+x,1/2+y,z
1/2-x,1/2+y,-z
1/2-x,1/2-y,-z
1/2+x,1/2-y,z
loop_
_atom_site_type_symbol
_atom_site_label
_atom_site_fract_x
_atom_site_fract_y
_atom_site_fract_z
Si Si1 0.487209 0.096299 0.155536
Si Si2 0.375931 0.258660 0.427265
Si Si3 0.914512 0.592647 0.860001
Si Si4 0.144112 0.163702 0.881565
Si Si5 0.171375 0.770711 0.502743
Si Si6 0.399495 0.599516 0.732980
Si Si7 0.629269 0.399011 0.175216
O O1 0.450632 0.098718 0.057511
O O2 0.647769 0.167147 0.321423
O O3 0.557746 0.000000 0.237374
O O4 0.298291 0.111357 0.000873
O O5 0.500000 0.283921 0.500000
O O6 0.206629 0.323397 0.260296
O O7 0.433902 0.268871 0.544083
O O8 0.305009 0.162176 0.347749
O O9 0.813746 0.500000 0.754114
O O10 0.000000 0.590276 0.000000
O O11 0.969766 0.193007 0.677061
O O12 0.066611 0.115849 0.856850
O O13 0.250000 0.250000 0.000000
O O14 0.249107 0.673157 0.572418
O O15 0.335487 0.500000 0.665335
O O16 0.452604 0.612514 0.846100
O O17 0.673373 0.500000 0.212281
O O18 0.500000 0.374843 0.000000
#
# Coordination Sequence:
#
# PCOD9205027 Si02
#       7
#     8   8   8   8   8   8   8
#     4  10  22  40  62  90 121 160 203 244 298 359
#     4  10  21  34  57  88 115 155 194 236 294 358
#     4   9  19  36  57  82 116 153 191 241 289 338
#     4  12  24  39  63  89 121 158 203 253 302 355
#     4  10  23  43  60  87 127 160 196 257 303 349
#     4  10  21  40  63  89 121 163 204 243 304 366
#     4   9  19  37  61  86 117 152 191 243 294 351
#
# _framework density 19.320349
#
# number of rings (size 3 to 8) (size 9 to 14) (size 15 to 20)
#    0.000    2.000    1.429    1.286    2.000    2.857 
#    0.000    0.714    0.000    0.000    0.000    0.000 
#    0.000    0.000    0.000    0.000    0.000    0.000 
#
# Total GULP energy -155964.111444 kJ/mol
# GULP energy per Si atom -5570.146837 kJ/mol
# Density = 1.927638 g / cm^3
# Si number density = 19.320349 Si / 1000 Ang^3
#
#
#
# Elastic Constant Matrix: (Units=GPa)
#
#
# Indices 1 2 3 4 5 6 
#
# 1 124.1853 27.5790 34.7635 -0.0266 14.9955 -0.0036
# 2 27.5790 91.7830 19.4756 0.0824 -0.6865 0.0247
# 3 34.7635 19.4756 50.6659 0.0518 -7.2341 0.0227
# 4 -0.0266 0.0824 0.0518 9.3557 0.0287 3.5792
# 5 14.9955 -0.6865 -7.2341 0.0287 31.9016 -0.0034
# 6 -0.0036 0.0247 0.0227 3.5792 -0.0034 28.4039
#
#
#
# Elastic Compliance Matrix: (Units=1/GPa)
#
#
# Indices 1 2 3 4 5 6 
#
# 1 0.011701 -0.001788 -0.008404 0.000121 -0.007445 -0.000006
# 2 -0.001788 0.012156 -0.003398 -0.000096 0.000332 0.000004
# 3 -0.008404 -0.003398 0.028279 -0.000184 0.010290 0.000004
# 4 0.000121 -0.000096 -0.000184 0.112303 -0.000203 -0.014151
# 5 -0.007445 0.000332 0.010290 -0.000203 0.037187 0.000021
# 6 -0.000006 0.000004 0.000004 -0.014151 0.000021 0.036990
#
#
# Mechanical properties :
#
#
# Convention : Reuss Voigt Hill
#
# Bulk Modulus (GPa) = 40.07209 47.80781 43.93995
# Shear Modulus (GPa) = 18.24046 26.25331 22.24688
#
# Velocity S-wave (km/s) = 3.07596 3.69025 3.39702
# Velocity P-wave (km/s) = 5.77939 6.55406 6.17888
#
# Compressibility (1/GPa) = 0.02495503
#
# Stress axis : x y z
#
# Youngs Moduli (GPa) = 85.46106 82.26180 35.36170
#
# Poissons Ratio (x) = 0.14712 0.29719
# Poissons Ratio (y) = 0.15285 0.12017
# Poissons Ratio (z) = 0.71823 0.27954
#
# Static dielectric constant tensor:
#      x y z
#    x 1.759440 0.000050 -0.017320 
#    y 0.000050 1.720100 0.000000 
#    z -0.017320 0.000000 1.644060 
# 
# From -- ./inp_files/349821.got.cif
#   From: 2010.05.17/outbox.cif.g08.bks.cpg/sg12_175_cif.got.tgz:349821.got - 2010.06.03 13:09:07.
