data_PCOD9205991
_publ_section_title
;
Structure prediction by ZEFSAII (Michael W. Deem and Ramdas Pophale) SiO2 
 PCOD9205991
Probable space group: C 2/M
;
_chemical_formula_sum "Si O2"
_cell_formula_units_Z 32
_cell_length_a 19.371005
_cell_length_b 10.830304
_cell_length_c 11.210953
_cell_angle_alpha 90.000000
_cell_angle_beta 143.652537
_cell_angle_gamma 90.000000
_cell_volume 1393.978388
_symmetry_space_group_name_H-M "C 2/M"
_symmetry_group_IT_number 12
_symmetry_cell_setting 'monoclinic'
loop_
_space_group_symop_operation_xyz
x,y,z
-x,y,-z
-x,-y,-z
x,-y,z
1/2+x,1/2+y,z
1/2-x,1/2+y,-z
1/2-x,1/2-y,-z
1/2+x,1/2-y,z
loop_
_atom_site_type_symbol
_atom_site_label
_atom_site_fract_x
_atom_site_fract_y
_atom_site_fract_z
Si Si1 0.243147 0.366193 0.358358
Si Si2 0.049645 0.218022 0.191997
Si Si3 0.069838 0.638204 0.782996
Si Si4 0.683982 0.138174 0.696588
O O1 0.246667 0.500000 0.306021
O O2 0.121576 0.342044 0.256105
O O3 0.350136 0.358104 0.601100
O O4 0.257901 0.251580 0.290286
O O5 0.949506 0.258075 0.144488
O O6 0.000000 0.164704 0.000000
O O7 0.091418 0.500000 0.860945
O O8 0.161899 0.661620 0.805757
O O9 0.944246 0.633753 0.542226
O O10 0.735679 0.000000 0.753006
#
# Coordination Sequence:
#
# PCOD9205991 Si02
#       4
#     8   8   8   8
#     4  10  21  36  57  85 113 141 180 233 282 322
#     4  10  21  36  55  80 112 149 186 224 271 330
#     4   8  14  28  52  78 102 139 188 225 259 317
#     4   8  15  31  54  77 106 144 183 222 268 327
#
# _framework density 22.955877999999998
#
# number of rings (size 3 to 8) (size 9 to 14) (size 15 to 20)
#    0.000    3.000    0.000    2.250    0.000    8.500 
#    0.000   11.250    0.000    0.000    0.000    0.000 
#    0.000    0.000    0.000    0.000    0.000    0.000 
#
# Total GULP energy -89320.111684 kJ/mol
# GULP energy per Si atom -5582.506980 kJ/mol
# Density = 2.290363 g / cm^3
# Si number density = 22.955878 Si / 1000 Ang^3
#
#
#
# Elastic Constant Matrix: (Units=GPa)
#
#
# Indices 1 2 3 4 5 6 
#
# 1 102.4970 56.1046 18.0771 0.0000 -21.4845 0.0000
# 2 56.1046 138.9260 16.2633 0.0000 -11.5642 0.0000
# 3 18.0771 16.2633 120.2638 0.0000 -9.7732 0.0000
# 4 0.0000 0.0000 0.0000 -7.0296 0.0000 2.6680
# 5 -21.4845 -11.5642 -9.7732 0.0000 18.7491 0.0000
# 6 0.0000 0.0000 0.0000 2.6680 0.0000 15.1358
#
#
#
# Elastic Compliance Matrix: (Units=1/GPa)
#
#
# Indices 1 2 3 4 5 6 
#
# 1 0.015666 -0.005056 -0.000486 0.000000 0.014579 0.000000
# 2 -0.005056 0.009272 -0.000522 0.000000 -0.000347 0.000000
# 3 -0.000486 -0.000522 0.008758 0.000000 0.003686 0.000000
# 4 0.000000 0.000000 0.000000 -0.133336 0.000000 0.023503
# 5 0.014579 -0.000347 0.003686 0.000000 0.071750 0.000000
# 6 0.000000 0.000000 0.000000 0.023503 0.000000 0.061926
#
#
# Mechanical properties :
#
#
# Convention : Reuss Voigt Hill
#
# Bulk Modulus (GPa) = 46.36616 60.28633 53.32625
# Shear Modulus (GPa) = 93.71463 23.45384 58.58423
#
# Velocity S-wave (km/s) = 6.39628 3.19986 5.05725
# Velocity P-wave (km/s) = 8.64822 6.32226 7.57505
#
# Compressibility (1/GPa) = 0.02156745
#
# Stress axis : x y z
#
# Youngs Moduli (GPa) = 63.83391 107.84966 114.17740
#
# Poissons Ratio (x) = 0.54529 0.05552
# Poissons Ratio (y) = 0.32274 0.05961
# Poissons Ratio (z) = 0.03104 0.05631
#
# Static dielectric constant tensor:
#      x y z
#    x 1.871980 0.000000 -0.035870 
#    y 0.000000 1.827430 0.000000 
#    z -0.035870 0.000000 1.894060 
# 
# From -- ./inp_files/139745.got.cif
#   From: 2010.05.17/outbox.cif.g08.bks.cpg/sg12_70_cif.got.tgz:139745.got - 2010.06.03 13:09:07.
