data_PCOD9205406
_publ_section_title
;
Structure prediction by ZEFSAII (Michael W. Deem and Ramdas Pophale) SiO2 
 PCOD9205406
Probable space group: C 2/M
;
_chemical_formula_sum "Si O2"
_cell_formula_units_Z 52
_cell_length_a 9.646269
_cell_length_b 22.106410
_cell_length_c 23.368832
_cell_angle_alpha 90.000000
_cell_angle_beta 144.600480
_cell_angle_gamma 90.000000
_cell_volume 2886.681635
_symmetry_space_group_name_H-M "C 2/M"
_symmetry_group_IT_number 12
_symmetry_cell_setting 'monoclinic'
loop_
_space_group_symop_operation_xyz
x,y,z
-x,y,-z
-x,-y,-z
x,-y,z
1/2+x,1/2+y,z
1/2-x,1/2+y,-z
1/2-x,1/2-y,-z
1/2+x,1/2-y,z
loop_
_atom_site_type_symbol
_atom_site_label
_atom_site_fract_x
_atom_site_fract_y
_atom_site_fract_z
Si Si1 0.596748 0.184764 0.288821
Si Si2 0.438312 0.733289 0.614042
Si Si3 0.894280 0.064499 0.401368
Si Si4 0.715504 0.400271 0.405012
Si Si5 0.742214 0.398015 0.116879
Si Si6 0.041629 0.000000 0.129646
Si Si7 0.947932 0.500000 0.106549
Si Si8 0.491435 0.500000 0.248443
O O1 0.554608 0.215716 0.335363
O O2 0.717596 0.119692 0.337924
O O3 0.362290 0.165135 0.175157
O O4 0.798626 0.223122 0.323723
O O5 0.250000 0.750000 0.500000
O O6 0.357108 0.670419 0.616763
O O7 0.000000 0.064519 0.500000
O O8 0.103443 0.073318 0.425689
O O9 0.775312 0.000000 0.350065
O O10 0.604430 0.440642 0.316954
O O11 0.000000 0.405504 0.500000
O O12 0.670587 0.440764 0.146436
O O13 0.908893 0.440246 0.132509
O O14 0.500000 0.387969 0.000000
O O15 0.039715 0.000000 0.197193
O O16 0.771687 0.000000 0.012664
O O17 0.208156 0.500000 0.166252
#
# Coordination Sequence:
#
# PCOD9205406 Si02
#       8
#     8   8   8   8   8   4   4   4
#     4  11  22  38  62  85 112 155 201 239 293 347
#     4  11  23  40  60  83 115 163 204 238 281 354
#     4  10  21  35  55  83 113 152 198 243 290 339
#     4  11  23  38  53  80 124 159 191 239 294 346
#     4   9  20  39  61  85 114 149 197 247 295 350
#     4   9  21  34  58  89 115 151 190 241 297 358
#     4   9  17  38  60  82 117 153 190 239 297 357
#     4  12  22  34  55  89 120 152 189 242 304 349
#
# _framework density 18.013763000000001
#
# number of rings (size 3 to 8) (size 9 to 14) (size 15 to 20)
#    0.000    1.692    0.769    6.462    2.154    3.692 
#    0.000    0.769    0.000    1.846    0.000    0.000 
#    0.000    0.000    0.000    0.000    0.000    0.000 
#
# Total GULP energy -145168.546006 kJ/mol
# GULP energy per Si atom -5583.405616 kJ/mol
# Density = 1.797276 g / cm^3
# Si number density = 18.013763 Si / 1000 Ang^3
#
#
#
# Elastic Constant Matrix: (Units=GPa)
#
#
# Indices 1 2 3 4 5 6 
#
# 1 122.1701 54.2810 73.3750 -0.0008 -12.9659 -0.0002
# 2 54.2810 85.6643 33.2847 0.0011 -7.6349 -0.0011
# 3 73.3750 33.2847 89.9808 0.0008 -7.8100 -0.0009
# 4 -0.0008 0.0011 0.0008 34.6808 -0.0015 -7.5321
# 5 -12.9659 -7.6349 -7.8100 -0.0015 33.5797 -0.0012
# 6 -0.0002 -0.0011 -0.0009 -7.5321 -0.0012 13.9454
#
#
#
# Elastic Compliance Matrix: (Units=1/GPa)
#
#
# Indices 1 2 3 4 5 6 
#
# 1 0.019389 -0.006987 -0.012976 0.000001 0.002880 0.000000
# 2 -0.006987 0.016279 -0.000242 0.000000 0.000947 0.000001
# 3 -0.012976 -0.000242 0.021784 -0.000001 0.000001 0.000001
# 4 0.000001 0.000000 -0.000001 0.032666 0.000002 0.017643
# 5 0.002880 0.000947 0.000001 0.000002 0.031108 0.000004
# 6 0.000000 0.000001 0.000001 0.017643 0.000004 0.081238
#
#
# Mechanical properties :
#
#
# Convention : Reuss Voigt Hill
#
# Bulk Modulus (GPa) = 58.67787 68.85516 63.76651
# Shear Modulus (GPa) = 20.11629 25.56615 22.84122
#
# Velocity S-wave (km/s) = 3.34536 3.77139 3.56474
# Velocity P-wave (km/s) = 6.89685 7.56777 7.24008
#
# Compressibility (1/GPa) = 0.01704220
#
# Stress axis : x y z
#
# Youngs Moduli (GPa) = 51.57626 61.42769 45.90435
#
# Poissons Ratio (x) = 0.42921 0.59566
# Poissons Ratio (y) = 0.36037 0.01111
# Poissons Ratio (z) = 0.66926 0.01486
#
# Static dielectric constant tensor:
#      x y z
#    x 1.574490 0.000000 0.067270 
#    y 0.000000 1.626980 0.000000 
#    z 0.067270 0.000000 1.580540 
# 
# From -- ./inp_files/302399.got.cif
#   From: 2010.05.17/outbox.cif.g08.bks.cpg/sg12_152_cif.got.tgz:302399.got - 2010.06.03 13:09:07.
