data_PCOD9205222
_publ_section_title
;
Structure prediction by ZEFSAII (Michael W. Deem and Ramdas Pophale) SiO2 
 PCOD9205222
Probable space group: C 2/M
;
_chemical_formula_sum "Si O2"
_cell_formula_units_Z 56
_cell_length_a 19.134168
_cell_length_b 8.737616
_cell_length_c 30.087704
_cell_angle_alpha 90.000000
_cell_angle_beta 37.283945
_cell_angle_gamma 90.000000
_cell_volume 3047.165920
_symmetry_space_group_name_H-M "C 2/M"
_symmetry_group_IT_number 12
_symmetry_cell_setting 'monoclinic'
loop_
_space_group_symop_operation_xyz
x,y,z
-x,y,-z
-x,-y,-z
x,-y,z
1/2+x,1/2+y,z
1/2-x,1/2+y,-z
1/2-x,1/2-y,-z
1/2+x,1/2-y,z
loop_
_atom_site_type_symbol
_atom_site_label
_atom_site_fract_x
_atom_site_fract_y
_atom_site_fract_z
Si Si1 0.204210 0.683303 0.202023
Si Si2 0.878384 0.315106 0.932576
Si Si3 0.916074 0.816886 0.501585
Si Si4 0.465880 0.815446 0.791191
Si Si5 0.042698 0.315351 0.929894
Si Si6 0.488648 0.816190 0.370959
Si Si7 0.662006 0.317566 0.631957
O O1 0.218547 0.500000 0.195124
O O2 0.139949 0.724712 0.188322
O O3 0.327586 0.760244 0.143918
O O4 0.113090 0.723925 0.286817
O O5 0.872062 0.500000 0.936695
O O6 0.936449 0.271642 0.856298
O O7 0.956081 0.263781 0.934864
O O8 0.750000 0.250000 0.000000
O O9 0.968049 0.753171 0.429520
O O10 0.790719 0.744102 0.572128
O O11 0.000000 0.779711 0.500000
O O12 0.904595 0.000000 0.504406
O O13 0.579292 0.737952 0.713681
O O14 0.480313 0.000000 0.781375
O O15 0.041923 0.500000 0.930342
O O16 0.000000 0.262375 0.000000
O O17 0.393980 0.752475 0.384422
O O18 0.479566 0.000000 0.376863
O O19 0.661594 0.500000 0.629184
#
# Coordination Sequence:
#
# PCOD9205222 Si02
#       7
#     8   8   8   8   8   8   8
#     4   9  19  35  56  80 105 138 178 222 269 319
#     4  10  21  36  55  79 108 144 183 226 275 326
#     4  11  24  40  58  82 114 151 189 231 281 332
#     4   9  19  37  57  79 109 143 183 229 276 327
#     4  10  21  35  52  78 111 143 177 221 272 325
#     4  10  21  39  61  85 115 147 185 231 277 332
#     4  11  22  37  60  86 112 146 188 231 279 336
#
# _framework density 18.377732999999999
#
# number of rings (size 3 to 8) (size 9 to 14) (size 15 to 20)
#    0.000    2.000    0.000    4.286    0.000    6.571 
#    0.000    4.286    0.000    0.000    0.000    0.000 
#    0.000    0.000    0.000    0.000    0.000    0.000 
#
# Total GULP energy -156431.606004 kJ/mol
# GULP energy per Si atom -5586.843072 kJ/mol
# Density = 1.833590 g / cm^3
# Si number density = 18.377733 Si / 1000 Ang^3
#
#
#
# Elastic Constant Matrix: (Units=GPa)
#
#
# Indices 1 2 3 4 5 6 
#
# 1 151.5882 44.8815 123.5971 0.0000 -0.3633 -0.0001
# 2 44.8815 36.2658 46.3203 0.0001 0.6630 -0.0001
# 3 123.5971 46.3203 147.6917 0.0000 4.8156 -0.0002
# 4 0.0000 0.0001 0.0000 30.6983 0.0000 -12.9230
# 5 -0.3633 0.6630 4.8156 0.0000 36.8753 0.0000
# 6 -0.0001 -0.0001 -0.0002 -12.9230 0.0000 15.5719
#
#
#
# Elastic Compliance Matrix: (Units=1/GPa)
#
#
# Indices 1 2 3 4 5 6 
#
# 1 0.021757 -0.006027 -0.016397 0.000000 0.002464 0.000000
# 2 -0.006027 0.047713 -0.009933 0.000000 0.000380 0.000000
# 3 -0.016397 -0.009933 0.023709 0.000000 -0.003079 0.000000
# 4 0.000000 0.000000 0.000000 0.050066 0.000000 0.041549
# 5 0.002464 0.000380 -0.003079 0.000000 0.027538 0.000000
# 6 0.000000 0.000000 0.000000 0.041549 0.000000 0.098699
#
#
# Mechanical properties :
#
#
# Convention : Reuss Voigt Hill
#
# Bulk Modulus (GPa) = 35.13223 85.01592 60.07408
# Shear Modulus (GPa) = 14.54825 24.67888 19.61356
#
# Velocity S-wave (km/s) = 2.81663 3.66849 3.27042
# Velocity P-wave (km/s) = 5.45309 8.01901 6.85714
#
# Compressibility (1/GPa) = 0.02846389
#
# Stress axis : x y z
#
# Youngs Moduli (GPa) = 45.96255 20.95883 42.17844
#
# Poissons Ratio (x) = 0.12632 0.69162
# Poissons Ratio (y) = 0.27702 0.41894
# Poissons Ratio (z) = 0.75367 0.20818
#
# Static dielectric constant tensor:
#      x y z
#    x 1.609610 0.000000 0.014520 
#    y 0.000000 1.618060 0.000000 
#    z 0.014520 0.000000 1.609340 
# 
# From -- ./inp_files/362907.got.cif
#   From: 2010.05.17/outbox.cif.g08.bks.cpg/sg12_182_cif.got.tgz:362907.got - 2010.06.03 13:09:07.
