data_PCOD9205603
_publ_section_title
;
Structure prediction by ZEFSAII (Michael W. Deem and Ramdas Pophale) SiO2 
 PCOD9205603
Probable space group: C 2/M
;
_chemical_formula_sum "Si O2"
_cell_formula_units_Z 64
_cell_length_a 17.835823
_cell_length_b 15.165962
_cell_length_c 18.745339
_cell_angle_alpha 90.000000
_cell_angle_beta 142.399066
_cell_angle_gamma 90.000000
_cell_volume 3093.846641
_symmetry_space_group_name_H-M "C 2/M"
_symmetry_group_IT_number 12
_symmetry_cell_setting 'monoclinic'
loop_
_space_group_symop_operation_xyz
x,y,z
-x,y,-z
-x,-y,-z
x,-y,z
1/2+x,1/2+y,z
1/2-x,1/2+y,-z
1/2-x,1/2-y,-z
1/2+x,1/2-y,z
loop_
_atom_site_type_symbol
_atom_site_label
_atom_site_fract_x
_atom_site_fract_y
_atom_site_fract_z
Si Si1 0.773907 0.897939 0.667618
Si Si2 0.021751 0.601488 0.395272
Si Si3 0.970925 0.654229 0.207821
Si Si4 0.023495 0.861712 0.783585
Si Si5 0.463076 0.101936 0.048321
Si Si6 0.797850 0.901055 0.950847
Si Si7 0.272572 0.789939 0.232684
Si Si8 0.698477 0.596428 0.793318
O O1 0.642236 0.880834 0.532120
O O2 0.883521 0.885291 0.694192
O O3 0.789540 0.830259 0.744252
O O4 0.775787 0.000000 0.693859
O O5 0.984550 0.500000 0.379452
O O6 0.048774 0.614578 0.331472
O O7 0.906916 0.663632 0.327562
O O8 0.837124 0.609716 0.116099
O O9 0.958884 0.757524 0.211430
O O10 0.012796 0.641950 0.158390
O O11 0.079786 0.901020 0.754128
O O12 0.101930 0.889963 0.912041
O O13 0.315498 0.102864 0.934671
O O14 0.503630 0.000000 0.078095
O O15 0.500000 0.142729 0.000000
O O16 0.800778 0.826306 0.892022
O O17 0.807714 0.000000 0.927584
O O18 0.290850 0.684840 0.245236
O O19 0.706939 0.500000 0.763801
#
# Coordination Sequence:
#
# PCOD9205603 Si02
#       8
#     8   8   8   8   8   8   8   8
#     4  11  25  42  64  94 126 162 206 265 326 373
#     4  10  21  41  68  92 118 160 215 268 315 365
#     4  11  20  36  59  93 123 163 210 256 304 367
#     4  12  23  39  60  92 129 169 205 250 315 388
#     4  10  21  35  58  90 127 167 208 256 309 363
#     4  11  20  35  62  93 127 164 206 253 312 381
#     4  11  22  40  63  95 124 163 209 261 315 370
#     4  11  22  40  62  90 129 170 208 247 307 388
#
# _framework density 20.686222000000001
#
# number of rings (size 3 to 8) (size 9 to 14) (size 15 to 20)
#    0.000    1.125    3.750    5.625    1.750    2.000 
#    0.000    1.250    0.000    1.500    0.000    0.000 
#    0.000    0.000    0.000    0.000    0.000    0.000 
#
# Total GULP energy -178787.803331 kJ/mol
# GULP energy per Si atom -5587.118854 kJ/mol
# Density = 2.063914 g / cm^3
# Si number density = 20.686222 Si / 1000 Ang^3
#
#
#
# Elastic Constant Matrix: (Units=GPa)
#
#
# Indices 1 2 3 4 5 6 
#
# 1 68.9994 7.5689 -9.1590 -0.0001 -6.7831 0.0000
# 2 7.5689 135.0996 5.7518 -0.0001 0.8584 0.0000
# 3 -9.1590 5.7518 26.6530 -0.0002 1.9734 0.0000
# 4 -0.0001 -0.0001 -0.0002 164.8649 -0.0002 53.7904
# 5 -6.7831 0.8584 1.9734 -0.0002 25.4264 0.0000
# 6 0.0000 0.0000 0.0000 53.7904 0.0000 19.1303
#
#
#
# Elastic Compliance Matrix: (Units=1/GPa)
#
#
# Indices 1 2 3 4 5 6 
#
# 1 0.015703 -0.001132 0.005358 0.000000 0.003812 0.000000
# 2 -0.001132 0.007553 -0.001989 0.000000 -0.000403 0.000000
# 3 0.005358 -0.001989 0.039908 0.000000 -0.001601 -0.000001
# 4 0.000000 0.000000 0.000000 0.073435 0.000000 -0.206485
# 5 0.003812 -0.000403 -0.001601 0.000000 0.040484 -0.000001
# 6 0.000000 0.000000 -0.000001 -0.206485 -0.000001 0.632865
#
#
# Mechanical properties :
#
#
# Convention : Reuss Voigt Hill
#
# Bulk Modulus (GPa) = 14.78457 26.56396 20.67427
# Shear Modulus (GPa) = 6.03850 56.99034 31.51442
#
# Velocity S-wave (km/s) = 1.71039 5.25449 3.90737
# Velocity P-wave (km/s) = 3.32613 7.04856 5.51114
#
# Compressibility (1/GPa) = 0.06763807
#
# Stress axis : x y z
#
# Youngs Moduli (GPa) = 63.68207 132.40448 25.05740
#
# Poissons Ratio (x) = 0.14990 -0.13426
# Poissons Ratio (y) = 0.07209 0.04984
# Poissons Ratio (z) = -0.34123 0.26337
#
# Static dielectric constant tensor:
#      x y z
#    x 1.780820 0.000000 -0.008780 
#    y 0.000000 1.759870 0.000000 
#    z -0.008780 0.000000 1.713570 
# 
# From -- ./inp_files/278171.got.cif
#   From: 2010.05.17/outbox.cif.g08.bks.cpg/sg12_140_cif.got.tgz:278171.got - 2010.06.03 13:09:07.
