data_PCOD9205656
_publ_section_title
;
Structure prediction by ZEFSAII (Michael W. Deem and Ramdas Pophale) SiO2 
 PCOD9205656
Probable space group: C 2/M
;
_chemical_formula_sum "Si O2"
_cell_formula_units_Z 32
_cell_length_a 22.986779
_cell_length_b 8.839888
_cell_length_c 19.399913
_cell_angle_alpha 90.000000
_cell_angle_beta 19.464568
_cell_angle_gamma 90.000000
_cell_volume 1313.592795
_symmetry_space_group_name_H-M "C 2/M"
_symmetry_group_IT_number 12
_symmetry_cell_setting 'monoclinic'
loop_
_space_group_symop_operation_xyz
x,y,z
-x,y,-z
-x,-y,-z
x,-y,z
1/2+x,1/2+y,z
1/2-x,1/2+y,-z
1/2-x,1/2-y,-z
1/2+x,1/2-y,z
loop_
_atom_site_type_symbol
_atom_site_label
_atom_site_fract_x
_atom_site_fract_y
_atom_site_fract_z
Si Si1 0.401187 0.803323 0.678788
Si Si2 0.834808 0.500000 0.272922
Si Si3 0.746384 0.000000 0.798343
Si Si4 0.172955 0.322615 0.500711
Si Si5 0.389009 0.669396 0.894411
O O1 0.500000 0.858315 0.500000
O O2 0.350631 0.636565 0.714088
O O3 0.534746 0.831056 0.591688
O O4 0.209771 0.848640 0.922632
O O5 0.767141 0.500000 0.269202
O O6 0.775085 0.666974 0.366727
O O7 0.043909 0.500000 0.045940
O O8 0.242388 0.500000 0.430633
O O9 0.059207 0.272236 0.694488
O O10 0.428709 0.500000 0.824164
O O11 0.250000 0.750000 0.000000
#
# Coordination Sequence:
#
# PCOD9205656 Si02
#       5
#     8   4   4   8   8
#     4  11  21  37  64 101 128 167 217 279 331 374
#     4  11  23  48  67  94 134 179 226 253 347 393
#     4  11  24  41  68  97 134 178 214 284 316 406
#     4  11  23  42  70  99 132 175 218 278 331 393
#     4  10  21  35  60  97 134 167 211 272 330 390
#
# _framework density 24.360669000000001
#
# number of rings (size 3 to 8) (size 9 to 14) (size 15 to 20)
#    0.000    1.250    3.750    4.125    7.000    2.000 
#    0.000    6.250    0.000    0.000    0.000    0.000 
#    0.000    0.000    0.000    0.000    0.000    0.000 
#
# Total GULP energy -89088.059984 kJ/mol
# GULP energy per Si atom -5568.003749 kJ/mol
# Density = 2.430522 g / cm^3
# Si number density = 24.360669 Si / 1000 Ang^3
#
#
#
# Elastic Constant Matrix: (Units=GPa)
#
#
# Indices 1 2 3 4 5 6 
#
# 1 64.1846 58.0672 23.3777 -0.0006 12.4311 0.0005
# 2 58.0672 284.1346 73.5168 -0.0005 0.1752 0.0005
# 3 23.3777 73.5168 148.8258 -0.0004 25.7103 0.0007
# 4 -0.0006 -0.0005 -0.0004 46.9955 0.0004 -10.9237
# 5 12.4311 0.1752 25.7103 0.0004 47.6009 -0.0004
# 6 0.0005 0.0005 0.0007 -10.9237 -0.0004 74.7321
#
#
#
# Elastic Compliance Matrix: (Units=1/GPa)
#
#
# Indices 1 2 3 4 5 6 
#
# 1 0.020381 -0.004086 -0.000294 0.000000 -0.005149 0.000000
# 2 -0.004086 0.004914 -0.002169 0.000000 0.002221 0.000000
# 3 -0.000294 -0.002169 0.008627 0.000000 -0.004575 0.000000
# 4 0.000000 0.000000 0.000000 0.022027 0.000000 0.003220
# 5 -0.005149 0.002221 -0.004575 0.000000 0.024816 0.000000
# 6 0.000000 0.000000 0.000000 0.003220 0.000000 0.013852
#
#
# Mechanical properties :
#
#
# Convention : Reuss Voigt Hill
#
# Bulk Modulus (GPa) = 48.01995 89.67427 68.84711
# Shear Modulus (GPa) = 43.60847 56.67791 50.14319
#
# Velocity S-wave (km/s) = 4.23557 4.82873 4.54184
# Velocity P-wave (km/s) = 6.60870 8.24499 7.47177
#
# Compressibility (1/GPa) = 0.02082468
#
# Stress axis : x y z
#
# Youngs Moduli (GPa) = 49.06588 203.48179 115.90944
#
# Poissons Ratio (x) = 0.83142 0.03402
# Poissons Ratio (y) = 0.20048 0.25146
# Poissons Ratio (z) = 0.01440 0.44144
#
# Static dielectric constant tensor:
#      x y z
#    x 1.916950 0.000000 0.021120 
#    y 0.000000 1.913280 0.000000 
#    z 0.021120 0.000000 2.027030 
# 
# From -- ./inp_files/327119.got.cif
#   From: 2010.05.17/outbox.cif.g08.bks.cpg/sg12_164_cif.got.tgz:327119.got - 2010.06.03 13:09:07.
