data_PCOD9205130
_publ_section_title
;
Structure prediction by ZEFSAII (Michael W. Deem and Ramdas Pophale) SiO2 
 PCOD9205130
Probable space group: C 2/M
;
_chemical_formula_sum "Si O2"
_cell_formula_units_Z 48
_cell_length_a 14.502285
_cell_length_b 7.525196
_cell_length_c 28.696546
_cell_angle_alpha 90.000000
_cell_angle_beta 43.535469
_cell_angle_gamma 90.000000
_cell_volume 2157.144390
_symmetry_space_group_name_H-M "C 2/M"
_symmetry_group_IT_number 12
_symmetry_cell_setting 'monoclinic'
loop_
_space_group_symop_operation_xyz
x,y,z
-x,y,-z
-x,-y,-z
x,-y,z
1/2+x,1/2+y,z
1/2-x,1/2+y,-z
1/2-x,1/2-y,-z
1/2+x,1/2-y,z
loop_
_atom_site_type_symbol
_atom_site_label
_atom_site_fract_x
_atom_site_fract_y
_atom_site_fract_z
Si Si1 0.906376 0.208660 0.401827
Si Si2 0.877908 0.787522 0.986316
Si Si3 0.824415 0.284937 0.750857
Si Si4 0.716917 0.207643 0.129686
Si Si5 0.465501 0.284627 0.157203
Si Si6 0.122838 0.702932 0.482324
O O1 0.914273 0.296512 0.449517
O O2 0.772898 0.279211 0.424994
O O3 0.040835 0.226757 0.323415
O O4 0.882242 0.000000 0.419693
O O5 0.998689 0.726589 0.909062
O O6 0.892981 0.000000 0.986021
O O7 0.750000 0.750000 0.000000
O O8 0.833878 0.717084 0.053071
O O9 0.827945 0.500000 0.750287
O O10 0.811285 0.218998 0.808895
O O11 0.686039 0.231927 0.776341
O O12 0.579853 0.218137 0.150017
O O13 0.751097 0.000000 0.123990
O O14 0.473781 0.500000 0.154958
O O15 0.133742 0.500000 0.460532
O O16 0.000000 0.789319 0.500000
#
# Coordination Sequence:
#
# PCOD9205130 Si02
#       6
#     8   8   8   8   8   8
#     4  10  21  36  55  81 109 134 165 206 246 291
#     4   8  14  27  47  69  93 124 168 218 260 299
#     4  10  21  35  50  72 105 141 171 204 251 303
#     4   9  18  32  50  72  99 132 171 217 263 302
#     4   9  18  32  50  71  97 133 174 214 258 306
#     4   9  19  38  62  83 104 133 166 200 244 297
#
# _framework density 22.251640999999999
#
# number of rings (size 3 to 8) (size 9 to 14) (size 15 to 20)
#    0.000    2.833    0.000    0.500    0.000    4.333 
#    0.000    8.333    0.000    0.000    0.000   12.833 
#    0.000    0.000    0.000    0.000    0.000    0.000 
#
# Total GULP energy -133876.831638 kJ/mol
# GULP energy per Si atom -5578.201318 kJ/mol
# Density = 2.220100 g / cm^3
# Si number density = 22.251641 Si / 1000 Ang^3
#
#
#
# Elastic Constant Matrix: (Units=GPa)
#
#
# Indices 1 2 3 4 5 6 
#
# 1 84.7645 -4.4900 30.4801 0.0009 -27.3457 -0.0001
# 2 -4.4900 63.4650 -5.8869 0.0007 -2.4381 0.0018
# 3 30.4801 -5.8869 130.9854 0.0000 -35.3374 -0.0004
# 4 0.0009 0.0007 0.0000 16.6121 -0.0005 0.2644
# 5 -27.3457 -2.4381 -35.3374 -0.0005 27.5582 0.0000
# 6 -0.0001 0.0018 -0.0004 0.2644 0.0000 5.1141
#
#
#
# Elastic Compliance Matrix: (Units=1/GPa)
#
#
# Indices 1 2 3 4 5 6 
#
# 1 0.017697 0.002100 0.001168 -0.000001 0.019244 0.000000
# 2 0.002100 0.016300 0.001827 -0.000001 0.005869 -0.000006
# 3 0.001168 0.001827 0.011927 0.000000 0.016614 0.000000
# 4 -0.000001 -0.000001 0.000000 0.060246 0.000001 -0.003114
# 5 0.019244 0.005869 0.016614 0.000001 0.077205 -0.000001
# 6 0.000000 -0.000006 0.000000 -0.003114 -0.000001 0.195699
#
#
# Mechanical properties :
#
#
# Convention : Reuss Voigt Hill
#
# Bulk Modulus (GPa) = 17.82102 35.49125 26.65613
# Shear Modulus (GPa) = 12.90022 27.13100 20.01561
#
# Velocity S-wave (km/s) = 2.41040 3.49561 3.00244
# Velocity P-wave (km/s) = 3.97151 5.68128 4.90152
#
# Compressibility (1/GPa) = 0.05611350
#
# Stress axis : x y z
#
# Youngs Moduli (GPa) = 56.50747 61.34895 83.84315
#
# Poissons Ratio (x) = -0.12881 -0.09792
# Poissons Ratio (y) = -0.11864 -0.15320
# Poissons Ratio (z) = -0.06600 -0.11210
#
# Static dielectric constant tensor:
#      x y z
#    x 1.836900 0.000000 -0.022580 
#    y 0.000000 1.949270 0.000000 
#    z -0.022580 0.000000 1.798410 
# 
# From -- ./inp_files/308319.got.cif
#   From: 2010.05.17/outbox.cif.g08.bks.cpg/sg12_155_cif.got.tgz:308319.got - 2010.06.03 13:09:07.
