data_PCOD9205774
_publ_section_title
;
Structure prediction by ZEFSAII (Michael W. Deem and Ramdas Pophale) SiO2 
 PCOD9205774
Probable space group: C 2/M
;
_chemical_formula_sum "Si O2"
_cell_formula_units_Z 56
_cell_length_a 16.567471
_cell_length_b 12.686025
_cell_length_c 17.829945
_cell_angle_alpha 90.000000
_cell_angle_beta 135.612970
_cell_angle_gamma 90.000000
_cell_volume 2621.322711
_symmetry_space_group_name_H-M "C 2/M"
_symmetry_group_IT_number 12
_symmetry_cell_setting 'monoclinic'
loop_
_space_group_symop_operation_xyz
x,y,z
-x,y,-z
-x,-y,-z
x,-y,z
1/2+x,1/2+y,z
1/2-x,1/2+y,-z
1/2-x,1/2-y,-z
1/2+x,1/2-y,z
loop_
_atom_site_type_symbol
_atom_site_label
_atom_site_fract_x
_atom_site_fract_y
_atom_site_fract_z
Si Si1 0.524351 0.884080 0.388071
Si Si2 0.616970 0.376806 0.940454
Si Si3 0.429969 0.220797 0.886489
Si Si4 0.259421 0.875312 0.169271
Si Si5 0.419627 0.666354 0.514072
Si Si6 0.846215 0.668836 0.677105
Si Si7 0.959353 0.118249 0.709453
O O1 0.390533 0.861830 0.281288
O O2 0.574177 0.793080 0.473091
O O3 0.587559 0.880336 0.349305
O O4 0.537536 0.000000 0.429469
O O5 0.594042 0.500000 0.937697
O O6 0.522512 0.307108 0.919721
O O7 0.583571 0.359314 0.831318
O O8 0.736119 0.357625 0.064038
O O9 0.320932 0.290046 0.842224
O O10 0.395959 0.150104 0.792929
O O11 0.500000 0.164920 0.000000
O O12 0.229772 0.000000 0.165096
O O13 0.500000 0.631635 0.500000
O O14 0.286711 0.638426 0.414952
O O15 0.464359 0.626198 0.623726
O O16 0.869155 0.794320 0.678115
O O17 0.922878 0.000000 0.705734
#
# Coordination Sequence:
#
# PCOD9205774 Si02
#       7
#     8   8   8   8   8   8   8
#     4  10  21  37  55  74 100 136 172 206 252 304
#     4   8  14  26  47  76 106 133 165 205 246 293
#     4   9  16  29  49  75 104 134 165 202 252 299
#     4   9  16  28  50  79 106 131 163 207 255 299
#     4  11  23  37  52  75 104 130 167 215 256 298
#     4  10  21  36  53  75 103 133 169 211 249 297
#     4   9  18  34  55  77 102 135 171 204 247 299
#
# _framework density 21.36326
#
# number of rings (size 3 to 8) (size 9 to 14) (size 15 to 20)
#    0.000    2.571    0.000    3.000    0.000    5.143 
#    0.000   12.857    0.000    0.429    0.000    0.000 
#    0.000    0.000    0.000    0.000    0.000    0.000 
#
# Total GULP energy -156130.637081 kJ/mol
# GULP energy per Si atom -5576.094181 kJ/mol
# Density = 2.131464 g / cm^3
# Si number density = 21.363260 Si / 1000 Ang^3
#
#
#
# Elastic Constant Matrix: (Units=GPa)
#
#
# Indices 1 2 3 4 5 6 
#
# 1 60.3830 -15.6631 21.1966 0.0000 -4.1561 0.0000
# 2 -15.6631 50.7295 -12.5210 0.0000 6.6069 0.0000
# 3 21.1966 -12.5210 45.7545 0.0000 -15.7099 0.0000
# 4 0.0000 0.0000 0.0000 117.4212 0.0000 -84.4102
# 5 -4.1561 6.6069 -15.7099 0.0000 34.2641 0.0000
# 6 0.0000 0.0000 0.0000 -84.4102 0.0000 74.9812
#
#
#
# Elastic Compliance Matrix: (Units=1/GPa)
#
#
# Indices 1 2 3 4 5 6 
#
# 1 0.020809 0.004466 -0.009313 0.000000 -0.002607 0.000000
# 2 0.004466 0.022181 0.003227 0.000000 -0.002256 0.000000
# 3 -0.009313 0.003227 0.031394 0.000000 0.012642 0.000000
# 4 0.000000 0.000000 0.000000 0.044650 0.000000 0.050265
# 5 -0.002607 -0.002256 0.012642 0.000000 0.035100 0.000000
# 6 0.000000 0.000000 0.000000 0.050265 0.000000 0.069922
#
#
# Mechanical properties :
#
#
# Convention : Reuss Voigt Hill
#
# Bulk Modulus (GPa) = 14.05619 15.87688 14.96654
# Shear Modulus (GPa) = 19.91925 56.25695 38.08810
#
# Velocity S-wave (km/s) = 3.05685 5.13719 4.22700
# Velocity P-wave (km/s) = 4.36497 6.52959 5.55376
#
# Compressibility (1/GPa) = 0.07114302
#
# Stress axis : x y z
#
# Youngs Moduli (GPa) = 48.05564 45.08269 31.85317
#
# Poissons Ratio (x) = -0.20133 0.29666
# Poissons Ratio (y) = -0.21461 -0.10278
# Poissons Ratio (z) = 0.44756 -0.14546
#
# Static dielectric constant tensor:
#      x y z
#    x 1.747930 0.000000 -0.044280 
#    y 0.000000 1.800980 0.000000 
#    z -0.044280 0.000000 1.814510 
# 
# From -- ./inp_files/270392.got.cif
#   From: 2010.05.17/outbox.cif.g08.bks.cpg/sg12_136_cif.got.tgz:270392.got - 2010.06.03 13:09:07.
