data_PCOD9205374
_publ_section_title
;
Structure prediction by ZEFSAII (Michael W. Deem and Ramdas Pophale) SiO2 
 PCOD9205374
Probable space group: C 2/M
;
_chemical_formula_sum "Si O2"
_cell_formula_units_Z 50
_cell_length_a 27.272514
_cell_length_b 7.414372
_cell_length_c 11.908842
_cell_angle_alpha 90.000000
_cell_angle_beta 63.368815
_cell_angle_gamma 90.000000
_cell_volume 2152.598670
_symmetry_space_group_name_H-M "C 2/M"
_symmetry_group_IT_number 12
_symmetry_cell_setting 'monoclinic'
loop_
_space_group_symop_operation_xyz
x,y,z
-x,y,-z
-x,-y,-z
x,-y,z
1/2+x,1/2+y,z
1/2-x,1/2+y,-z
1/2-x,1/2-y,-z
1/2+x,1/2-y,z
loop_
_atom_site_type_symbol
_atom_site_label
_atom_site_fract_x
_atom_site_fract_y
_atom_site_fract_z
Si Si1 0.437508 0.714374 0.572046
Si Si2 0.000000 0.000000 0.000000
Si Si3 0.346110 0.215232 0.832625
Si Si4 0.654415 0.786137 0.916035
Si Si5 0.857871 0.703402 0.452105
Si Si6 0.228646 0.283049 0.295719
Si Si7 0.067279 0.280946 0.828953
O O1 0.500000 0.778303 0.500000
O O2 0.437265 0.500000 0.552762
O O3 0.406578 0.750500 0.720872
O O4 0.399139 0.799214 0.515902
O O5 0.986158 0.839407 0.107978
O O6 0.303324 0.284673 0.782950
O O7 0.337809 0.000000 0.845617
O O8 0.338046 0.287689 0.966212
O O9 0.707962 0.756577 0.785440
O O10 0.601230 0.721126 0.904944
O O11 0.647028 0.000000 0.933928
O O12 0.844079 0.500000 0.429980
O O13 0.802761 0.786974 0.561415
O O14 0.893266 0.776828 0.313782
O O15 0.222288 0.500000 0.305080
O O16 0.058795 0.500000 0.834286
#
# Coordination Sequence:
#
# PCOD9205374 Si02
#       7
#     8   2   8   8   8   8   8
#     4  10  21  35  54  85 116 146 199 259 303 358
#     4  12  26  44  68  90 118 172 210 256 322 358
#     4   9  19  36  55  81 120 163 201 243 308 371
#     4  10  21  37  58  88 123 161 205 251 305 373
#     4   9  20  40  61  84 120 159 198 250 309 369
#     4   9  18  33  58  88 120 160 202 247 308 372
#     4  10  24  45  65  92 126 162 211 259 308 374
#
# _framework density 23.227739
#
# number of rings (size 3 to 8) (size 9 to 14) (size 15 to 20)
#    0.000    2.400    0.000    2.160    2.240    6.400 
#    2.880    3.200    0.000    0.000    0.000    0.000 
#    0.000    0.000    0.000    0.000    0.000    0.000 
#
# Total GULP energy -139323.243410 kJ/mol
# GULP energy per Si atom -5572.929736 kJ/mol
# Density = 2.317487 g / cm^3
# Si number density = 23.227739 Si / 1000 Ang^3
#
#
#
# Elastic Constant Matrix: (Units=GPa)
#
#
# Indices 1 2 3 4 5 6 
#
# 1 46.3519 -6.0815 21.0165 0.0000 -23.9000 0.0000
# 2 -6.0815 94.0622 11.0892 0.0000 11.9130 0.0000
# 3 21.0165 11.0892 146.0507 0.0000 -12.7753 0.0000
# 4 0.0000 0.0000 0.0000 21.4818 0.0000 -12.0725
# 5 -23.9000 11.9130 -12.7753 0.0000 26.3351 0.0000
# 6 0.0000 0.0000 0.0000 -12.0725 0.0000 0.3518
#
#
#
# Elastic Compliance Matrix: (Units=1/GPa)
#
#
# Indices 1 2 3 4 5 6 
#
# 1 0.041879 -0.001737 -0.002612 0.000000 0.037526 0.000000
# 2 -0.001737 0.011614 -0.001284 0.000000 -0.007453 0.000000
# 3 -0.002612 -0.001284 0.007481 0.000000 0.001839 0.000000
# 4 0.000000 0.000000 0.000000 -0.002546 0.000000 -0.087362
# 5 0.037526 -0.007453 0.001839 0.000000 0.076292 0.000000
# 6 0.000000 0.000000 0.000000 -0.087362 0.000000 -0.155452
#
#
# Mechanical properties :
#
#
# Convention : Reuss Voigt Hill
#
# Bulk Modulus (GPa) = 20.11705 37.61257 28.86481
# Shear Modulus (GPa) = 703.84485 26.99645 365.42065
#
# Velocity S-wave (km/s) = 17.42633 3.41288 12.55637
# Velocity P-wave (km/s) = 20.33672 5.63546 14.92214
#
# Compressibility (1/GPa) = 0.04970909
#
# Stress axis : x y z
#
# Youngs Moduli (GPa) = 23.87804 86.10129 133.66874
#
# Poissons Ratio (x) = 0.14956 0.34915
# Poissons Ratio (y) = 0.04148 0.17160
# Poissons Ratio (z) = 0.06237 0.11054
#
# Static dielectric constant tensor:
#      x y z
#    x 1.897370 0.000000 -0.033940 
#    y 0.000000 1.881890 0.000000 
#    z -0.033940 0.000000 1.912620 
# 
# From -- ./inp_files/180581.got.cif
#   From: 2010.05.17/outbox.cif.g08.bks.cpg/sg12_91_cif.got.tgz:180581.got - 2010.06.03 13:09:07.
