data_PCOD9205945
_publ_section_title
;
Structure prediction by ZEFSAII (Michael W. Deem and Ramdas Pophale) SiO2 
 PCOD9205945
Probable space group: C 2/M
;
_chemical_formula_sum "Si O2"
_cell_formula_units_Z 64
_cell_length_a 24.419903
_cell_length_b 13.190677
_cell_length_c 14.906312
_cell_angle_alpha 90.000000
_cell_angle_beta 141.649260
_cell_angle_gamma 90.000000
_cell_volume 2979.234270
_symmetry_space_group_name_H-M "C 2/M"
_symmetry_group_IT_number 12
_symmetry_cell_setting 'monoclinic'
loop_
_space_group_symop_operation_xyz
x,y,z
-x,y,-z
-x,-y,-z
x,-y,z
1/2+x,1/2+y,z
1/2-x,1/2+y,-z
1/2-x,1/2-y,-z
1/2+x,1/2-y,z
loop_
_atom_site_type_symbol
_atom_site_label
_atom_site_fract_x
_atom_site_fract_y
_atom_site_fract_z
Si Si1 0.819478 0.113247 0.456901
Si Si2 0.344003 0.378370 0.161169
Si Si3 0.950463 0.321453 0.305920
Si Si4 0.299590 0.116488 0.871473
Si Si5 0.139424 0.314816 0.557171
Si Si6 0.229986 0.615187 0.841243
Si Si7 0.177993 0.380342 0.410026
Si Si8 0.513504 0.121686 0.854226
O O1 0.748476 0.111130 0.285303
O O2 0.882623 0.200838 0.503767
O O3 0.767734 0.153449 0.477475
O O4 0.855905 0.000000 0.515527
O O5 0.364042 0.500000 0.196218
O O6 0.421484 0.297189 0.277111
O O7 0.267481 0.351147 0.135552
O O8 0.304068 0.359872 0.010460
O O9 0.863424 0.378282 0.227440
O O10 0.967610 0.353318 0.225288
O O11 0.044531 0.351010 0.470170
O O12 0.317164 0.000000 0.922014
O O13 0.397166 0.162727 0.985606
O O14 0.213041 0.322346 0.728418
O O15 0.172512 0.369441 0.510025
O O16 0.246096 0.500000 0.833080
O O17 0.179169 0.500000 0.389805
O O18 0.085032 0.337698 0.252377
O O19 0.506381 0.000000 0.859432
#
# Coordination Sequence:
#
# PCOD9205945 Si02
#       8
#     8   8   8   8   8   8   8   8
#     4  10  21  36  55  75 102 142 183 223 268 317
#     4  10  21  36  55  80 112 148 185 220 262 317
#     4  11  21  33  53  79 111 146 180 215 264 318
#     4   9  17  31  51  75 101 133 171 214 263 313
#     4  11  23  35  53  81 111 142 181 223 271 322
#     4  11  22  36  56  83 112 146 181 220 271 328
#     4   9  19  36  54  76 105 136 175 225 276 324
#     4   9  17  30  51  78 106 131 165 218 273 317
#
# _framework density 21.482029000000001
#
# number of rings (size 3 to 8) (size 9 to 14) (size 15 to 20)
#    0.000    2.000    1.250    2.625    1.750    3.000 
#    0.000    2.500    0.000    3.750    0.000    0.000 
#    0.000    8.500    0.000    0.000    0.000    0.000 
#
# Total GULP energy -178295.582675 kJ/mol
# GULP energy per Si atom -5571.736959 kJ/mol
# Density = 2.143313 g / cm^3
# Si number density = 21.482029 Si / 1000 Ang^3
#
#
#
# Elastic Constant Matrix: (Units=GPa)
#
#
# Indices 1 2 3 4 5 6 
#
# 1 59.8112 -1.2558 6.7086 0.0000 -5.4779 0.0000
# 2 -1.2558 61.0915 -6.3162 0.0000 -6.1859 0.0000
# 3 6.7086 -6.3162 45.6509 0.0000 -5.1643 0.0000
# 4 0.0000 0.0000 0.0000 16.3431 0.0000 -6.0826
# 5 -5.4779 -6.1859 -5.1643 0.0000 10.6239 0.0000
# 6 0.0000 0.0000 0.0000 -6.0826 0.0000 27.5810
#
#
#
# Elastic Compliance Matrix: (Units=1/GPa)
#
#
# Indices 1 2 3 4 5 6 
#
# 1 0.017738 0.001142 -0.001417 0.000000 0.009122 0.000000
# 2 0.001142 0.018100 0.003805 0.000000 0.012977 0.000000
# 3 -0.001417 0.003805 0.024135 0.000000 0.013217 0.000000
# 4 0.000000 0.000000 0.000000 0.066659 0.000000 0.014701
# 5 0.009122 0.012977 0.013217 0.000000 0.112812 0.000000
# 6 0.000000 0.000000 0.000000 0.014701 0.000000 0.039499
#
#
# Mechanical properties :
#
#
# Convention : Reuss Voigt Hill
#
# Bulk Modulus (GPa) = 14.91829 18.31407 16.61618
# Shear Modulus (GPa) = 16.99365 22.07072 19.53218
#
# Velocity S-wave (km/s) = 2.81564 3.20879 3.01862
# Velocity P-wave (km/s) = 4.18689 4.71935 4.46107
#
# Compressibility (1/GPa) = 0.06703180
#
# Stress axis : x y z
#
# Youngs Moduli (GPa) = 56.37734 55.24945 41.43338
#
# Poissons Ratio (x) = -0.06308 0.05870
# Poissons Ratio (y) = -0.06437 -0.15763
# Poissons Ratio (z) = 0.07987 -0.21020
#
# Static dielectric constant tensor:
#      x y z
#    x 1.788700 0.000000 0.007690 
#    y 0.000000 1.878940 0.000000 
#    z 0.007690 0.000000 1.807160 
# 
# From -- ./inp_files/225666.got.cif
#   From: 2010.05.17/outbox.cif.g08.bks.cpg/sg12_113_cif.got.tgz:225666.got - 2010.06.03 13:09:07.
