data_PCOD9205906
_publ_section_title
;
Structure prediction by ZEFSAII (Michael W. Deem and Ramdas Pophale) SiO2 
 PCOD9205906
Probable space group: C 2/M
;
_chemical_formula_sum "Si O2"
_cell_formula_units_Z 48
_cell_length_a 15.246178
_cell_length_b 8.282442
_cell_length_c 26.720228
_cell_angle_alpha 90.000000
_cell_angle_beta 46.526291
_cell_angle_gamma 90.000000
_cell_volume 2448.560170
_symmetry_space_group_name_H-M "C 2/M"
_symmetry_group_IT_number 12
_symmetry_cell_setting 'monoclinic'
loop_
_space_group_symop_operation_xyz
x,y,z
-x,y,-z
-x,-y,-z
x,-y,z
1/2+x,1/2+y,z
1/2-x,1/2+y,-z
1/2-x,1/2-y,-z
1/2+x,1/2-y,z
loop_
_atom_site_type_symbol
_atom_site_label
_atom_site_fract_x
_atom_site_fract_y
_atom_site_fract_z
Si Si1 0.176185 0.191203 0.171858
Si Si2 0.036447 0.196896 0.564879
Si Si3 0.048559 0.194410 0.673917
Si Si4 0.808033 0.805378 0.589452
Si Si5 0.053574 0.191043 0.925233
Si Si6 0.136834 0.310584 0.077129
O O1 0.304271 0.275178 0.131072
O O2 0.137715 0.221519 0.129768
O O3 0.069318 0.250997 0.249982
O O4 0.192794 0.000000 0.173253
O O5 0.050947 0.254731 0.615667
O O6 0.139619 0.249270 0.485183
O O7 0.907853 0.244023 0.591155
O O8 0.039210 0.000000 0.564276
O O9 0.173998 0.242934 0.650222
O O10 0.042924 0.000000 0.674761
O O11 0.805589 0.000000 0.590125
O O12 0.982208 0.277281 0.908723
O O13 0.030088 0.000000 0.930263
O O14 0.000000 0.245756 0.000000
O O15 0.151393 0.500000 0.080935
O O16 0.250000 0.250000 0.000000
#
# Coordination Sequence:
#
# PCOD9205906 Si02
#       6
#     8   8   8   8   8   8
#     4  11  24  40  58  85 120 159 199 241 292 349
#     4   8  16  33  55  80 112 150 192 234 281 337
#     4  10  21  36  54  80 117 152 186 234 288 339
#     4   9  17  32  57  83 109 149 196 237 278 334
#     4  11  23  40  64  90 116 148 189 240 293 347
#     4  12  24  40  64  89 115 148 189 240 293 349
#
# _framework density 19.603356999999999
#
# number of rings (size 3 to 8) (size 9 to 14) (size 15 to 20)
#    0.000    1.833    1.667    4.000    0.000    3.333 
#    0.000    4.167    0.000    0.000    0.000    0.000 
#    0.000    0.000    0.000    0.000    0.000    0.000 
#
# Total GULP energy -134089.307666 kJ/mol
# GULP energy per Si atom -5587.054486 kJ/mol
# Density = 1.955874 g / cm^3
# Si number density = 19.603357 Si / 1000 Ang^3
#
#
#
# Elastic Constant Matrix: (Units=GPa)
#
#
# Indices 1 2 3 4 5 6 
#
# 1 72.8063 -12.3721 27.7492 0.0000 -17.5831 0.0002
# 2 -12.3721 16.1056 -2.1111 0.0000 -1.2703 0.0003
# 3 27.7492 -2.1111 81.9758 0.0000 -30.7230 0.0000
# 4 0.0000 0.0000 0.0000 19.7010 0.0000 -7.0897
# 5 -17.5831 -1.2703 -30.7230 0.0000 30.3636 0.0000
# 6 0.0002 0.0003 0.0000 -7.0897 0.0000 29.0249
#
#
#
# Elastic Compliance Matrix: (Units=1/GPa)
#
#
# Indices 1 2 3 4 5 6 
#
# 1 0.019649 0.015449 -0.002814 0.000000 0.009178 0.000000
# 2 0.015449 0.075335 0.002005 0.000000 0.014127 -0.000001
# 3 -0.002814 0.002005 0.020335 0.000000 0.019030 0.000000
# 4 0.000000 0.000000 0.000000 0.055651 0.000000 0.013593
# 5 0.009178 0.014127 0.019030 0.000000 0.058095 0.000000
# 6 0.000000 -0.000001 0.000000 0.013593 0.000000 0.037774
#
#
# Mechanical properties :
#
#
# Convention : Reuss Voigt Hill
#
# Bulk Modulus (GPa) = 6.91563 21.93553 14.42558
# Shear Modulus (GPa) = 17.49731 26.32602 21.91166
#
# Velocity S-wave (km/s) = 2.99083 3.66858 3.34690
# Velocity P-wave (km/s) = 3.93220 5.39987 4.72339
#
# Compressibility (1/GPa) = 0.14460008
#
# Stress axis : x y z
#
# Youngs Moduli (GPa) = 50.89217 13.27403 49.17632
#
# Poissons Ratio (x) = -0.20508 0.13838
# Poissons Ratio (y) = -0.78626 -0.09859
# Poissons Ratio (z) = 0.14321 -0.02661
#
# Static dielectric constant tensor:
#      x y z
#    x 1.688590 0.000000 0.004460 
#    y 0.000000 1.682600 0.000000 
#    z 0.004460 0.000000 1.672690 
# 
# From -- ./inp_files/308614.got.cif
#   From: 2010.05.17/outbox.cif.g08.bks.cpg/sg12_155_cif.got.tgz:308614.got - 2010.06.03 13:09:07.
