data_PCOD9205139
_publ_section_title
;
Structure prediction by ZEFSAII (Michael W. Deem and Ramdas Pophale) SiO2 
 PCOD9205139
Probable space group: C 2/M
;
_chemical_formula_sum "Si O2"
_cell_formula_units_Z 56
_cell_length_a 31.017863
_cell_length_b 7.321022
_cell_length_c 12.009876
_cell_angle_alpha 90.000000
_cell_angle_beta 65.222311
_cell_angle_gamma 90.000000
_cell_volume 2476.165194
_symmetry_space_group_name_H-M "C 2/M"
_symmetry_group_IT_number 12
_symmetry_cell_setting 'monoclinic'
loop_
_space_group_symop_operation_xyz
x,y,z
-x,y,-z
-x,-y,-z
x,-y,z
1/2+x,1/2+y,z
1/2-x,1/2+y,-z
1/2-x,1/2-y,-z
1/2+x,1/2-y,z
loop_
_atom_site_type_symbol
_atom_site_label
_atom_site_fract_x
_atom_site_fract_y
_atom_site_fract_z
Si Si1 0.512016 0.222917 0.362670
Si Si2 0.944978 0.277890 0.054969
Si Si3 0.579666 0.222252 0.675578
Si Si4 0.204762 0.281688 0.971708
Si Si5 0.223692 0.710688 0.704075
Si Si6 0.682138 0.221291 0.514134
Si Si7 0.898974 0.277210 0.871707
O O1 0.500000 0.281215 0.500000
O O2 0.469284 0.280443 0.327887
O O3 0.562973 0.282231 0.261316
O O4 0.512247 0.000000 0.361612
O O5 0.945071 0.500000 0.053284
O O6 0.919667 0.221227 0.196218
O O7 0.919185 0.220856 0.970466
O O8 0.000000 0.221348 0.000000
O O9 0.627612 0.278081 0.561209
O O10 0.579270 0.000000 0.675347
O O11 0.200553 0.500000 0.966288
O O12 0.211645 0.210859 0.837879
O O13 0.250000 0.250000 0.000000
O O14 0.155316 0.216220 0.078094
O O15 0.207784 0.500000 0.723756
O O16 0.279955 0.716868 0.618182
O O17 0.200092 0.786631 0.616723
O O18 0.684031 0.000000 0.511026
O O19 0.899274 0.500000 0.868792
#
# Coordination Sequence:
#
# PCOD9205139 Si02
#       7
#     8   8   8   8   8   8   8
#     4   9  16  24  34  54  88 121 144 175 226 281
#     4   9  13  20  38  62  90 121 150 182 229 287
#     4   9  15  23  37  62  91 118 149 185 227 278
#     4  10  21  35  51  70  96 130 169 207 242 284
#     4   9  18  33  48  67  96 127 160 202 246 284
#     4   9  17  29  49  73  97 124 157 198 243 290
#     4   9  16  27  42  62  89 121 153 190 236 282
#
# _framework density 22.615615999999999
#
# number of rings (size 3 to 8) (size 9 to 14) (size 15 to 20)
#    0.000    2.857    1.429    0.857    0.000    5.143 
#    0.000    2.857    0.000    0.000    0.000    1.000 
#    0.000    4.571    0.000    0.000    0.000    0.000 
#
# Total GULP energy -156382.131815 kJ/mol
# GULP energy per Si atom -5585.076136 kJ/mol
# Density = 2.256414 g / cm^3
# Si number density = 22.615616 Si / 1000 Ang^3
#
#
#
# Elastic Constant Matrix: (Units=GPa)
#
#
# Indices 1 2 3 4 5 6 
#
# 1 139.7491 -4.0537 74.6488 0.0000 -33.4242 0.0000
# 2 -4.0537 88.5162 -0.6927 0.0000 1.8288 0.0000
# 3 74.6488 -0.6927 158.3809 0.0000 -19.7856 0.0000
# 4 0.0000 0.0000 0.0000 -2.0104 0.0000 -3.8853
# 5 -33.4242 1.8288 -19.7856 0.0000 34.9918 0.0000
# 6 0.0000 0.0000 0.0000 -3.8853 0.0000 1.9859
#
#
#
# Elastic Compliance Matrix: (Units=1/GPa)
#
#
# Indices 1 2 3 4 5 6 
#
# 1 0.011542 0.000318 -0.004372 0.000000 0.008536 0.000000
# 2 0.000318 0.011318 -0.000147 0.000000 -0.000371 0.000000
# 3 -0.004372 -0.000147 0.008450 0.000000 0.000609 0.000000
# 4 0.000000 0.000000 0.000000 -0.104040 0.000000 -0.203544
# 5 0.008536 -0.000371 0.000609 0.000000 0.037096 0.000000
# 6 0.000000 0.000000 0.000000 -0.203544 0.000000 0.105323
#
#
# Mechanical properties :
#
#
# Convention : Reuss Voigt Hill
#
# Bulk Modulus (GPa) = 43.65166 58.49457 51.07311
# Shear Modulus (GPa) = 58.32422 28.10971 43.21696
#
# Velocity S-wave (km/s) = 5.08383 3.52935 4.37617
# Velocity P-wave (km/s) = 7.33512 6.52145 6.94022
#
# Compressibility (1/GPa) = 0.02290864
#
# Stress axis : x y z
#
# Youngs Moduli (GPa) = 86.63988 88.35140 118.34141
#
# Poissons Ratio (x) = -0.02810 0.51742
# Poissons Ratio (y) = -0.02755 0.01736
# Poissons Ratio (z) = 0.37881 0.01296
#
# Static dielectric constant tensor:
#      x y z
#    x 1.806250 0.000000 -0.019420 
#    y 0.000000 1.939220 0.000000 
#    z -0.019420 0.000000 1.804830 
# 
# From -- ./inp_files/188016.got.cif
#   From: 2010.05.17/outbox.cif.g08.bks.cpg/sg12_95_cif.got.tgz:188016.got - 2010.06.03 13:09:07.
