data_PCOD9205391
_publ_section_title
;
Structure prediction by ZEFSAII (Michael W. Deem and Ramdas Pophale) SiO2 
 PCOD9205391
Probable space group: C 2/M
;
_chemical_formula_sum "Si O2"
_cell_formula_units_Z 56
_cell_length_a 21.841023
_cell_length_b 17.601120
_cell_length_c 23.748553
_cell_angle_alpha 90.000000
_cell_angle_beta 19.396306
_cell_angle_gamma 90.000000
_cell_volume 3031.933883
_symmetry_space_group_name_H-M "C 2/M"
_symmetry_group_IT_number 12
_symmetry_cell_setting 'monoclinic'
loop_
_space_group_symop_operation_xyz
x,y,z
-x,y,-z
-x,-y,-z
x,-y,z
1/2+x,1/2+y,z
1/2-x,1/2+y,-z
1/2-x,1/2-y,-z
1/2+x,1/2-y,z
loop_
_atom_site_type_symbol
_atom_site_label
_atom_site_fract_x
_atom_site_fract_y
_atom_site_fract_z
Si Si1 0.538627 0.191125 0.201831
Si Si2 0.281147 0.586080 0.506106
Si Si3 0.428138 0.695997 0.720785
Si Si4 0.055797 0.757136 0.064528
Si Si5 0.242513 0.417667 0.408381
Si Si6 0.630241 0.231131 0.440623
Si Si7 0.159756 0.086995 0.006981
O O1 0.349114 0.148162 0.352404
O O2 0.522285 0.244944 0.271083
O O3 0.581857 0.241222 0.109309
O O4 0.681520 0.123332 0.091961
O O5 0.260433 0.500000 0.543945
O O6 0.489183 0.615843 0.331404
O O7 0.215281 0.589734 0.498423
O O8 0.529898 0.718855 0.575180
O O9 0.208233 0.703163 0.904563
O O10 0.839626 0.745998 0.241490
O O11 0.120070 0.844507 0.996884
O O12 0.172998 0.500000 0.449963
O O13 0.156174 0.350261 0.448290
O O14 0.463053 0.416484 0.208585
O O15 0.500000 0.226910 0.500000
O O16 0.203968 0.000000 0.950519
#
# Coordination Sequence:
#
# PCOD9205391 Si02
#       7
#     8   8   8   8   8   8   8
#     4  11  18  32  54  81 114 145 175 219 283 339
#     4  11  20  31  55  86 115 142 172 217 288 347
#     4  11  20  36  57  79 114 143 178 231 272 328
#     4  10  21  35  55  81 108 146 181 224 284 325
#     4   9  18  33  51  79 115 148 179 222 272 325
#     4  11  22  37  56  78 106 151 199 231 261 309
#     4   9  17  29  47  76 112 143 175 210 260 332
#
# _framework density 18.47006
#
# number of rings (size 3 to 8) (size 9 to 14) (size 15 to 20)
#    0.000    1.714    2.857    5.143    0.000    0.857 
#    0.000    0.714    0.000    0.429    0.000    9.000 
#    0.000    0.000    0.000    0.000    0.000    0.000 
#
# Total GULP energy -156019.913750 kJ/mol
# GULP energy per Si atom -5572.139777 kJ/mol
# Density = 1.842802 g / cm^3
# Si number density = 18.470060 Si / 1000 Ang^3
#
#
#
# Elastic Constant Matrix: (Units=GPa)
#
#
# Indices 1 2 3 4 5 6 
#
# 1 59.5455 15.0547 28.3006 0.0015 -14.1963 0.0027
# 2 15.0547 47.9650 13.0344 -0.0061 2.6166 -0.0020
# 3 28.3006 13.0344 85.2887 -0.0267 -18.2798 -0.0013
# 4 0.0015 -0.0061 -0.0267 21.1203 0.0004 -0.6613
# 5 -14.1963 2.6166 -18.2798 0.0004 20.0975 -0.0038
# 6 0.0027 -0.0020 -0.0013 -0.6613 -0.0038 8.5288
#
#
#
# Elastic Compliance Matrix: (Units=1/GPa)
#
#
# Indices 1 2 3 4 5 6 
#
# 1 0.023824 -0.007255 -0.003711 -0.000009 0.014398 -0.000004
# 2 -0.007255 0.024852 -0.003953 0.000003 -0.011956 0.000002
# 3 -0.003711 -0.003953 0.016283 0.000020 0.012704 0.000010
# 4 -0.000009 0.000003 0.000020 0.047463 0.000011 0.003680
# 5 0.014398 -0.011956 0.012704 0.000011 0.073039 0.000028
# 6 -0.000004 0.000002 0.000010 0.003680 0.000028 0.117535
#
#
# Mechanical properties :
#
#
# Convention : Reuss Voigt Hill
#
# Bulk Modulus (GPa) = 28.47212 33.95319 31.21265
# Shear Modulus (GPa) = 14.51201 19.04329 16.77765
#
# Velocity S-wave (km/s) = 2.80608 3.21446 3.01719
# Velocity P-wave (km/s) = 5.09387 5.67448 5.39200
#
# Compressibility (1/GPa) = 0.03512208
#
# Stress axis : x y z
#
# Youngs Moduli (GPa) = 41.97371 40.23804 61.41292
#
# Poissons Ratio (x) = 0.29192 0.22789
# Poissons Ratio (y) = 0.30451 0.24278
# Poissons Ratio (z) = 0.15576 0.15907
#
# Static dielectric constant tensor:
#      x y z
#    x 1.596610 0.000000 -0.001730 
#    y 0.000000 1.667830 0.000020 
#    z -0.001730 0.000020 1.718850 
# 
# From -- ./inp_files/347759.got.cif
#   From: 2010.05.17/outbox.cif.g08.bks.cpg/sg12_174_cif.got.tgz:347759.got - 2010.06.03 13:09:07.
