data_PCOD9205271
_publ_section_title
;
Structure prediction by ZEFSAII (Michael W. Deem and Ramdas Pophale) SiO2 
 PCOD9205271
Probable space group: C 2/M
;
_chemical_formula_sum "Si O2"
_cell_formula_units_Z 64
_cell_length_a 33.036624
_cell_length_b 7.477621
_cell_length_c 10.981950
_cell_angle_alpha 90.000000
_cell_angle_beta 95.600524
_cell_angle_gamma 90.000000
_cell_volume 2699.979749
_symmetry_space_group_name_H-M "C 2/M"
_symmetry_group_IT_number 12
_symmetry_cell_setting 'monoclinic'
loop_
_space_group_symop_operation_xyz
x,y,z
-x,y,-z
-x,-y,-z
x,-y,z
1/2+x,1/2+y,z
1/2-x,1/2+y,-z
1/2-x,1/2-y,-z
1/2+x,1/2-y,z
loop_
_atom_site_type_symbol
_atom_site_label
_atom_site_fract_x
_atom_site_fract_y
_atom_site_fract_z
Si Si1 0.759421 0.705822 0.172678
Si Si2 0.889527 0.709752 0.856764
Si Si3 0.614678 0.284757 0.676810
Si Si4 0.806442 0.783801 0.432354
Si Si5 0.982827 0.206665 0.868841
Si Si6 0.663091 0.790024 0.936321
Si Si7 0.977908 0.219371 0.370054
Si Si8 0.187764 0.216142 0.298655
O O1 0.753566 0.500000 0.135889
O O2 0.781439 0.708664 0.311642
O O3 0.792500 0.785823 0.089206
O O4 0.715761 0.785765 0.195587
O O5 0.895993 0.500000 0.881392
O O6 0.934029 0.789016 0.854903
O O7 0.858898 0.733477 0.735401
O O8 0.863207 0.787951 0.961333
O O9 0.613569 0.500000 0.681098
O O10 0.646602 0.236422 0.581219
O O11 0.634951 0.224164 0.808617
O O12 0.568956 0.222320 0.645839
O O13 0.796283 0.722080 0.565208
O O14 0.802496 0.000000 0.425907
O O15 0.000161 0.281437 0.747476
O O16 0.996658 0.000000 0.873242
O O17 0.000000 0.286795 0.000000
O O18 0.669273 0.000000 0.962491
O O19 0.000000 0.277285 0.500000
O O20 0.978700 0.000000 0.371361
O O21 0.190289 0.000000 0.298644
#
# Coordination Sequence:
#
# PCOD9205271 Si02
#       8
#     8   8   8   8   8   8   8   8
#     4   9  18  34  55  78 106 142 181 221 269 322
#     4  11  24  38  54  78 108 145 183 223 273 324
#     4   9  17  31  54  81 104 132 175 218 261 319
#     4   9  18  31  52  81 110 140 176 219 266 320
#     4  10  21  38  61  85 108 141 187 231 273 330
#     4   9  19  36  54  74 104 141 179 219 268 321
#     4   9  18  31  53  82 110 140 173 219 276 325
#     4  10  21  35  53  79 110 143 179 223 271 319
#
# _framework density 23.703883000000001
#
# number of rings (size 3 to 8) (size 9 to 14) (size 15 to 20)
#    0.000    2.500    0.000    1.500    1.750    3.750 
#    0.000    0.625    0.000    0.750    0.000    0.000 
#    0.000    0.000    0.000    0.000    0.000    0.000 
#
# Total GULP energy -178812.115912 kJ/mol
# GULP energy per Si atom -5587.878622 kJ/mol
# Density = 2.364993 g / cm^3
# Si number density = 23.703883 Si / 1000 Ang^3
#
#
#
# Elastic Constant Matrix: (Units=GPa)
#
#
# Indices 1 2 3 4 5 6 
#
# 1 150.8708 4.0306 46.5867 0.0000 -2.4806 0.0000
# 2 4.0306 73.1394 12.5068 0.0000 -3.9221 0.0000
# 3 46.5867 12.5068 125.7227 0.0000 -7.6277 0.0000
# 4 0.0000 0.0000 0.0000 57.8829 0.0000 -4.4646
# 5 -2.4806 -3.9221 -7.6277 0.0000 37.8660 0.0000
# 6 0.0000 0.0000 0.0000 -4.4646 0.0000 11.3150
#
#
#
# Elastic Compliance Matrix: (Units=1/GPa)
#
#
# Indices 1 2 3 4 5 6 
#
# 1 0.007485 0.000060 -0.002783 0.000000 -0.000064 0.000000
# 2 0.000060 0.013962 -0.001340 0.000000 0.001180 0.000000
# 3 -0.002783 -0.001340 0.009212 0.000000 0.001535 0.000000
# 4 0.000000 0.000000 0.000000 0.017819 0.000000 0.007031
# 5 -0.000064 0.001180 0.001535 0.000000 0.026836 0.000000
# 6 0.000000 0.000000 0.000000 0.007031 0.000000 0.091152
#
#
# Mechanical properties :
#
#
# Convention : Reuss Voigt Hill
#
# Bulk Modulus (GPa) = 44.38037 52.88679 48.63358
# Shear Modulus (GPa) = 27.45719 40.52006 33.98862
#
# Velocity S-wave (km/s) = 3.40713 4.13901 3.79077
# Velocity P-wave (km/s) = 5.85163 6.72322 6.30251
#
# Compressibility (1/GPa) = 0.02253249
#
# Stress axis : x y z
#
# Youngs Moduli (GPa) = 133.60029 71.62525 108.55676
#
# Poissons Ratio (x) = -0.00430 0.30216
# Poissons Ratio (y) = -0.00802 0.14541
# Poissons Ratio (z) = 0.37187 0.09594
#
# Static dielectric constant tensor:
#      x y z
#    x 1.882120 0.000000 -0.022460 
#    y 0.000000 1.895130 0.000000 
#    z -0.022460 0.000000 1.895550 
# 
# From -- ./inp_files/187399.got.cif
#   From: 2010.05.17/outbox.cif.g08.bks.cpg/sg12_94_cif.got.tgz:187399.got - 2010.06.03 13:09:07.
