data_PCOD9205034
_publ_section_title
;
Structure prediction by ZEFSAII (Michael W. Deem and Ramdas Pophale) SiO2 
 PCOD9205034
Probable space group: C 2/M
;
_chemical_formula_sum "Si O2"
_cell_formula_units_Z 44
_cell_length_a 10.200339
_cell_length_b 15.029413
_cell_length_c 20.800223
_cell_angle_alpha 90.000000
_cell_angle_beta 34.467683
_cell_angle_gamma 90.000000
_cell_volume 1804.662565
_symmetry_space_group_name_H-M "C 2/M"
_symmetry_group_IT_number 12
_symmetry_cell_setting 'monoclinic'
loop_
_space_group_symop_operation_xyz
x,y,z
-x,y,-z
-x,-y,-z
x,-y,z
1/2+x,1/2+y,z
1/2-x,1/2+y,-z
1/2-x,1/2-y,-z
1/2+x,1/2-y,z
loop_
_atom_site_type_symbol
_atom_site_label
_atom_site_fract_x
_atom_site_fract_y
_atom_site_fract_z
Si Si1 0.374449 0.500000 0.805452
Si Si2 0.260321 0.644236 0.948754
Si Si3 0.248343 0.844865 0.914088
Si Si4 0.935430 0.000000 0.405579
Si Si5 0.695296 0.830511 0.251703
Si Si6 0.920332 0.500000 0.625043
Si Si7 0.021923 0.199262 0.566882
O O1 0.253855 0.583124 0.888844
O O2 0.383888 0.500000 0.725828
O O3 0.652706 0.500000 0.709450
O O4 0.195522 0.743767 0.956950
O O5 0.533997 0.647248 0.854450
O O6 0.146942 0.614949 0.062504
O O7 0.377120 0.833497 0.793975
O O8 0.000000 0.890194 0.000000
O O9 0.969380 0.907055 0.428791
O O10 0.666144 0.000000 0.488571
O O11 0.660779 0.742415 0.308760
O O12 0.565498 0.910894 0.338715
O O13 0.250000 0.250000 0.500000
O O14 0.000000 0.221907 0.500000
#
# Coordination Sequence:
#
# PCOD9205034 Si02
#       7
#     4   8   8   4   8   4   8
#     4  10  21  34  62  91 126 169 218 269 329 389
#     4   9  19  34  57  86 119 157 214 269 317 397
#     4   9  18  35  56  83 117 158 207 268 330 386
#     4  12  24  42  62  93 138 170 217 280 332 387
#     4  10  21  36  61  88 122 170 214 270 325 388
#     4  10  21  34  57  94 123 167 222 272 313 391
#     4  12  28  44  68  97 134 179 224 274 329 396
#
# _framework density 24.381288000000001
#
# number of rings (size 3 to 8) (size 9 to 14) (size 15 to 20)
#    0.000    1.818    1.818    1.636    7.636    0.727 
#    0.000    4.091    0.000    8.727    0.000    0.000 
#    0.000    0.000    0.000    0.000    0.000    0.000 
#
# Total GULP energy -122712.736886 kJ/mol
# GULP energy per Si atom -5577.851677 kJ/mol
# Density = 2.432580 g / cm^3
# Si number density = 24.381288 Si / 1000 Ang^3
#
#
#
# Elastic Constant Matrix: (Units=GPa)
#
#
# Indices 1 2 3 4 5 6 
#
# 1 91.8398 14.8494 48.3338 0.0099 27.8018 0.0033
# 2 14.8494 122.0454 33.1535 0.0066 17.2262 0.0047
# 3 48.3338 33.1535 132.6312 0.0217 27.5366 0.0133
# 4 0.0099 0.0066 0.0217 -30.2131 -0.0208 -38.9214
# 5 27.8018 17.2262 27.5366 -0.0208 32.4858 -0.0093
# 6 0.0033 0.0047 0.0133 -38.9214 -0.0093 -7.9954
#
#
#
# Elastic Compliance Matrix: (Units=1/GPa)
#
#
# Indices 1 2 3 4 5 6 
#
# 1 0.016056 0.000599 -0.003740 0.000001 -0.010888 0.000007
# 2 0.000599 0.009133 -0.001686 0.000001 -0.003927 0.000002
# 3 -0.003740 -0.001686 0.010284 0.000003 -0.004622 0.000004
# 4 0.000001 0.000001 0.000003 0.006279 -0.000009 -0.030567
# 5 -0.010888 -0.003927 -0.004622 -0.000009 0.046101 -0.000023
# 6 0.000007 0.000002 0.000004 -0.030567 -0.000023 0.023728
#
#
# Mechanical properties :
#
#
# Convention : Reuss Voigt Hill
#
# Bulk Modulus (GPa) = 38.73165 59.90999 49.32082
# Shear Modulus (GPa) = 38.50830 15.53411 27.02120
#
# Velocity S-wave (km/s) = 3.97850 2.52689 3.33269
# Velocity P-wave (km/s) = 6.08481 5.75665 5.92300
#
# Compressibility (1/GPa) = 0.02581868
#
# Stress axis : x y z
#
# Youngs Moduli (GPa) = 62.28080 109.49285 97.23960
#
# Poissons Ratio (x) = -0.06563 0.36372
# Poissons Ratio (y) = -0.03733 0.16396
# Poissons Ratio (z) = 0.23296 0.18462
#
# Static dielectric constant tensor:
#      x y z
#    x 2.060460 0.000000 -0.080150 
#    y 0.000000 1.920000 0.000000 
#    z -0.080150 0.000000 2.173630 
# 
# From -- ./inp_files/305325.got.cif
#   From: 2010.05.17/outbox.cif.g08.bks.cpg/sg12_153_cif.got.tgz:305325.got - 2010.06.03 13:09:07.
