data_PCOD9205901
_publ_section_title
;
Structure prediction by ZEFSAII (Michael W. Deem and Ramdas Pophale) SiO2 
 PCOD9205901
Probable space group: C 2/M
;
_chemical_formula_sum "Si O2"
_cell_formula_units_Z 56
_cell_length_a 15.541669
_cell_length_b 14.920059
_cell_length_c 22.870268
_cell_angle_alpha 90.000000
_cell_angle_beta 33.796100
_cell_angle_gamma 90.000000
_cell_volume 2949.856740
_symmetry_space_group_name_H-M "C 2/M"
_symmetry_group_IT_number 12
_symmetry_cell_setting 'monoclinic'
loop_
_space_group_symop_operation_xyz
x,y,z
-x,y,-z
-x,-y,-z
x,-y,z
1/2+x,1/2+y,z
1/2-x,1/2+y,-z
1/2-x,1/2-y,-z
1/2+x,1/2-y,z
loop_
_atom_site_type_symbol
_atom_site_label
_atom_site_fract_x
_atom_site_fract_y
_atom_site_fract_z
Si Si1 0.828409 0.765458 0.599868
Si Si2 0.436050 0.605335 0.810712
Si Si3 0.623695 0.303759 0.812349
Si Si4 0.238921 0.895058 0.571430
Si Si5 0.322014 0.760576 0.023689
Si Si6 0.268677 0.896995 0.839163
Si Si7 0.862443 0.604466 0.372642
O O1 0.764519 0.744640 0.700173
O O2 0.827905 0.672176 0.563990
O O3 0.708460 0.830619 0.635485
O O4 0.000000 0.803770 0.500000
O O5 0.409379 0.500000 0.833966
O O6 0.527425 0.645133 0.815664
O O7 0.557571 0.618009 0.688977
O O8 0.276763 0.659046 0.892744
O O9 0.686577 0.371754 0.824974
O O10 0.505669 0.234839 0.910230
O O11 0.284976 0.875318 0.479009
O O12 0.274827 0.000000 0.562785
O O13 0.290621 0.671256 0.078477
O O14 0.250000 0.750000 0.000000
O O15 0.452993 0.884540 0.728128
O O16 0.238079 0.000000 0.872237
O O17 0.831535 0.500000 0.376578
#
# Coordination Sequence:
#
# PCOD9205901 Si02
#       7
#     8   8   8   8   8   8   8
#     4  11  22  36  57  81 112 150 182 222 280 337
#     4   9  18  34  57  82 112 150 185 222 274 330
#     4  10  21  36  54  84 116 141 179 233 280 325
#     4   9  18  33  55  83 112 142 183 233 278 325
#     4  10  21  36  54  80 115 145 179 224 268 325
#     4  11  22  37  60  85 111 144 181 228 283 329
#     4  10  21  37  56  81 111 145 189 232 270 324
#
# _framework density 18.983972999999999
#
# number of rings (size 3 to 8) (size 9 to 14) (size 15 to 20)
#    0.000    2.000    0.000    4.714    0.000    5.714 
#    0.000    0.714    0.000    2.571    0.000    0.000 
#    0.000    0.000    0.000    0.000    0.000    0.000 
#
# Total GULP energy -156310.016803 kJ/mol
# GULP energy per Si atom -5582.500600 kJ/mol
# Density = 1.894076 g / cm^3
# Si number density = 18.983973 Si / 1000 Ang^3
#
#
#
# Elastic Constant Matrix: (Units=GPa)
#
#
# Indices 1 2 3 4 5 6 
#
# 1 34.4839 22.4010 15.2086 -0.0001 -0.7308 0.0000
# 2 22.4010 40.0896 29.7863 -0.0002 0.4786 0.0001
# 3 15.2086 29.7863 93.5583 -0.0009 7.0615 0.0005
# 4 -0.0001 -0.0002 -0.0009 16.4714 0.0004 1.2283
# 5 -0.7308 0.4786 7.0615 0.0004 30.8703 -0.0001
# 6 0.0000 0.0001 0.0005 1.2283 -0.0001 19.2877
#
#
#
# Elastic Compliance Matrix: (Units=1/GPa)
#
#
# Indices 1 2 3 4 5 6 
#
# 1 0.045634 -0.026105 0.000795 0.000000 0.001303 0.000000
# 2 -0.026105 0.047717 -0.011036 0.000000 0.001167 0.000000
# 3 0.000795 -0.011036 0.014306 0.000001 -0.003082 0.000000
# 4 0.000000 0.000000 0.000001 0.061001 -0.000001 -0.003885
# 5 0.001303 0.001167 -0.003082 -0.000001 0.033111 0.000000
# 6 0.000000 0.000000 0.000000 -0.003885 0.000000 0.052094
#
#
# Mechanical properties :
#
#
# Convention : Reuss Voigt Hill
#
# Bulk Modulus (GPa) = 28.60140 33.65816 31.12978
# Shear Modulus (GPa) = 14.78369 20.04162 17.41266
#
# Velocity S-wave (km/s) = 2.79363 3.25270 3.03187
# Velocity P-wave (km/s) = 5.05021 5.64579 5.35629
#
# Compressibility (1/GPa) = 0.03496332
#
# Stress axis : x y z
#
# Youngs Moduli (GPa) = 21.91337 20.95699 69.90259
#
# Poissons Ratio (x) = 0.54708 -0.05554
# Poissons Ratio (y) = 0.57205 0.77146
# Poissons Ratio (z) = -0.01741 0.23128
#
# Static dielectric constant tensor:
#      x y z
#    x 1.635640 0.000000 -0.010870 
#    y 0.000000 1.645100 0.000000 
#    z -0.010870 0.000000 1.687480 
# 
# From -- ./inp_files/310764.got.cif
#   From: 2010.05.17/outbox.cif.g08.bks.cpg/sg12_156_cif.got.tgz:310764.got - 2010.06.03 13:09:07.
