data_PCOD9205746
_publ_section_title
;
Structure prediction by ZEFSAII (Michael W. Deem and Ramdas Pophale) SiO2 
 PCOD9205746
Probable space group: C 2/M
;
_chemical_formula_sum "Si O2"
_cell_formula_units_Z 58
_cell_length_a 5.302013
_cell_length_b 26.633924
_cell_length_c 19.779519
_cell_angle_alpha 90.000000
_cell_angle_beta 98.738851
_cell_angle_gamma 90.000000
_cell_volume 2760.708126
_symmetry_space_group_name_H-M "C 2/M"
_symmetry_group_IT_number 12
_symmetry_cell_setting 'monoclinic'
loop_
_space_group_symop_operation_xyz
x,y,z
-x,y,-z
-x,-y,-z
x,-y,z
1/2+x,1/2+y,z
1/2-x,1/2+y,-z
1/2-x,1/2-y,-z
1/2+x,1/2-y,z
loop_
_atom_site_type_symbol
_atom_site_label
_atom_site_fract_x
_atom_site_fract_y
_atom_site_fract_z
Si Si1 0.108749 0.443009 0.220187
Si Si2 0.984883 0.691621 0.073903
Si Si3 0.563033 0.365269 0.827758
Si Si4 0.649965 0.060088 0.651806
Si Si5 0.894015 0.938715 0.422290
Si Si6 0.727581 0.916156 0.918465
Si Si7 0.790174 0.276109 0.201196
Si Si8 0.000000 0.000000 0.000000
O O1 0.212869 0.500000 0.234217
O O2 0.902975 0.434056 0.270766
O O3 0.978662 0.438192 0.141925
O O4 0.306690 0.397400 0.225677
O O5 0.842390 0.638295 0.057035
O O6 0.811975 0.723318 0.119393
O O7 0.235353 0.671925 0.126140
O O8 0.000000 0.714269 0.000000
O O9 0.467751 0.405113 0.879141
O O10 0.325119 0.331574 0.793010
O O11 0.392336 0.078923 0.604698
O O12 0.905934 0.078644 0.626649
O O13 0.657026 0.000000 0.641576
O O14 0.000000 0.924557 0.500000
O O15 0.883719 0.000000 0.420357
O O16 0.790972 0.956074 0.976397
O O17 0.580195 0.240265 0.227891
#
# Coordination Sequence:
#
# PCOD9205746 Si02
#       8
#     8   8   8   8   8   8   8   2
#     4  10  21  36  52  77 111 151 194 235 276 322
#     4  10  21  39  55  77 108 131 167 221 285 343
#     4  10  22  39  56  78 107 140 175 232 275 338
#     4   9  18  29  47  72 100 141 186 228 267 316
#     4   9  16  28  45  70 101 136 180 233 275 305
#     4  10  22  35  52  75 103 141 187 239 277 345
#     4  11  22  41  63  86 104 131 169 218 286 355
#     4  12  20  36  54  76  96 150 190 236 300 326
#
# _framework density 21.009103
#
# number of rings (size 3 to 8) (size 9 to 14) (size 15 to 20)
#    0.000    2.069    2.069    1.241    2.897    3.862 
#    0.000    1.724    0.000    0.000    0.000    0.000 
#    0.000    0.000    0.000    0.000    0.000   13.793 
#
# Total GULP energy -161508.245401 kJ/mol
# GULP energy per Si atom -5569.249841 kJ/mol
# Density = 2.096129 g / cm^3
# Si number density = 21.009103 Si / 1000 Ang^3
#
#
#
# Elastic Constant Matrix: (Units=GPa)
#
#
# Indices 1 2 3 4 5 6 
#
# 1 100.8169 23.3875 14.8685 0.0000 -11.4042 0.0000
# 2 23.3875 72.8938 -1.8201 0.0000 -7.5530 0.0000
# 3 14.8685 -1.8201 49.2224 0.0000 -0.4771 0.0000
# 4 0.0000 0.0000 0.0000 1.8211 0.0000 -12.1046
# 5 -11.4042 -7.5530 -0.4771 0.0000 31.2541 0.0000
# 6 0.0000 0.0000 0.0000 -12.1046 0.0000 19.4320
#
#
#
# Elastic Compliance Matrix: (Units=1/GPa)
#
#
# Indices 1 2 3 4 5 6 
#
# 1 0.011637 -0.003477 -0.003611 0.000000 0.003351 0.000000
# 2 -0.003477 0.015125 0.001633 0.000000 0.002411 0.000000
# 3 -0.003611 0.001633 0.021461 0.000000 -0.000595 0.000000
# 4 0.000000 0.000000 0.000000 -0.174852 0.000000 -0.108919
# 5 0.003351 0.002411 -0.000595 0.000000 0.033792 0.000000
# 6 0.000000 0.000000 0.000000 -0.108919 0.000000 -0.016386
#
#
# Mechanical properties :
#
#
# Convention : Reuss Voigt Hill
#
# Bulk Modulus (GPa) = 26.80030 32.86721 29.83376
# Shear Modulus (GPa) = -58.22408 22.93459 -17.64475
#
# Velocity S-wave (km/s) = -5.27010 3.30760 -2.90118
# Velocity P-wave (km/s) = 4.92419 5.50138 1.73458
#
# Compressibility (1/GPa) = 0.03731301
#
# Stress axis : x y z
#
# Youngs Moduli (GPa) = 85.93189 66.11713 46.59522
#
# Poissons Ratio (x) = 0.22987 0.16827
# Poissons Ratio (y) = 0.29875 -0.07608
# Poissons Ratio (z) = 0.31032 -0.10796
#
# Static dielectric constant tensor:
#      x y z
#    x 1.890680 0.000000 0.012400 
#    y 0.000000 1.782570 0.000000 
#    z 0.012400 0.000000 1.759830 
# 
# From -- ./inp_files/253893.got.cif
#   From: 2010.05.17/outbox.cif.g08.bks.cpg/sg12_127_cif.got.tgz:253893.got - 2010.06.03 13:09:07.
