data_PCOD9205171
_publ_section_title
;
Structure prediction by ZEFSAII (Michael W. Deem and Ramdas Pophale) SiO2 
 PCOD9205171
Probable space group: C 2/M
;
_chemical_formula_sum "Si O2"
_cell_formula_units_Z 56
_cell_length_a 19.145414
_cell_length_b 8.795112
_cell_length_c 30.082916
_cell_angle_alpha 90.000000
_cell_angle_beta 142.701578
_cell_angle_gamma 90.000000
_cell_volume 3069.549751
_symmetry_space_group_name_H-M "C 2/M"
_symmetry_group_IT_number 12
_symmetry_cell_setting 'monoclinic'
loop_
_space_group_symop_operation_xyz
x,y,z
-x,y,-z
-x,-y,-z
x,-y,z
1/2+x,1/2+y,z
1/2-x,1/2+y,-z
1/2-x,1/2-y,-z
1/2+x,1/2-y,z
loop_
_atom_site_type_symbol
_atom_site_label
_atom_site_fract_x
_atom_site_fract_y
_atom_site_fract_z
Si Si1 0.754658 0.180994 0.367544
Si Si2 0.132811 0.316542 0.070355
Si Si3 0.209398 0.818061 0.201749
Si Si4 0.590174 0.817079 0.630366
Si Si5 0.944169 0.183049 0.791696
Si Si6 0.821819 0.682230 0.495869
Si Si7 0.289675 0.683636 0.066981
O O1 0.854178 0.238224 0.384341
O O2 0.635718 0.238553 0.285400
O O3 0.775540 0.253152 0.426051
O O4 0.755669 0.000000 0.370867
O O5 0.132958 0.500000 0.070583
O O6 0.187700 0.259946 0.143982
O O7 0.206571 0.266047 0.064998
O O8 0.000000 0.264712 0.000000
O O9 0.329519 0.777226 0.286826
O O10 0.110298 0.778473 0.187655
O O11 0.207397 0.000000 0.194702
O O12 0.457087 0.777577 0.568822
O O13 0.599762 0.000000 0.629019
O O14 0.077562 0.226296 0.856736
O O15 0.933846 0.000000 0.781458
O O16 0.813072 0.500000 0.491382
O O17 0.750000 0.750000 0.500000
O O18 0.285191 0.500000 0.062278
O O19 0.250000 0.750000 0.000000
#
# Coordination Sequence:
#
# PCOD9205171 Si02
#       7
#     8   8   8   8   8   8   8
#     4  11  22  36  58  86 112 143 187 232 276 332
#     4  10  21  35  51  76 110 141 171 214 269 322
#     4   9  18  34  56  79 102 133 177 221 261 314
#     4   9  20  39  60  82 111 147 183 224 277 333
#     4   9  19  37  57  78 107 143 183 225 272 327
#     4  11  23  39  58  81 114 151 186 229 280 331
#     4  10  21  36  55  79 107 142 182 224 272 327
#
# _framework density 18.243718000000001
#
# number of rings (size 3 to 8) (size 9 to 14) (size 15 to 20)
#    0.000    2.143    0.000    3.857    0.000    7.714 
#    0.000    2.857    0.000    0.000    0.000    0.000 
#    0.000    0.000    0.000    0.000    0.000    0.000 
#
# Total GULP energy -156388.913967 kJ/mol
# GULP energy per Si atom -5585.318356 kJ/mol
# Density = 1.820219 g / cm^3
# Si number density = 18.243718 Si / 1000 Ang^3
#
#
#
# Elastic Constant Matrix: (Units=GPa)
#
#
# Indices 1 2 3 4 5 6 
#
# 1 176.8132 55.3233 140.2377 0.0000 -1.7950 0.0000
# 2 55.3233 35.0792 54.5514 0.0000 2.1765 0.0001
# 3 140.2377 54.5514 158.2711 0.0000 -0.3293 0.0000
# 4 0.0000 0.0000 0.0000 26.3902 0.0000 -11.6610
# 5 -1.7950 2.1765 -0.3293 0.0000 37.0531 0.0000
# 6 0.0000 0.0001 0.0000 -11.6610 0.0000 25.4051
#
#
#
# Elastic Compliance Matrix: (Units=1/GPa)
#
#
# Indices 1 2 3 4 5 6 
#
# 1 0.020249 -0.008885 -0.014876 0.000000 0.001371 0.000000
# 2 -0.008885 0.065874 -0.014841 0.000000 -0.004432 0.000000
# 3 -0.014876 -0.014841 0.024616 0.000000 0.000370 0.000000
# 4 0.000000 0.000000 0.000000 0.047533 0.000000 0.021818
# 5 0.001371 -0.004432 0.000370 0.000000 0.027318 0.000000
# 6 0.000000 0.000000 0.000000 0.021818 0.000000 0.049377
#
#
# Mechanical properties :
#
#
# Convention : Reuss Voigt Hill
#
# Bulk Modulus (GPa) = 29.82125 96.70982 63.26554
# Shear Modulus (GPa) = 15.46314 25.77311 20.61812
#
# Velocity S-wave (km/s) = 2.91449 3.76268 3.36542
# Velocity P-wave (km/s) = 5.26376 8.48540 7.06078
#
# Compressibility (1/GPa) = 0.03353313
#
# Stress axis : x y z
#
# Youngs Moduli (GPa) = 49.38622 15.18041 40.62480
#
# Poissons Ratio (x) = 0.13488 0.60434
# Poissons Ratio (y) = 0.43881 0.60292
# Poissons Ratio (z) = 0.73467 0.22530
#
# Static dielectric constant tensor:
#      x y z
#    x 1.602740 0.000000 0.020110 
#    y 0.000000 1.612290 0.000000 
#    z 0.020110 0.000000 1.608110 
# 
# From -- ./inp_files/377735.got.cif
#   From: 2010.05.17/outbox.cif.g08.bks.cpg/sg12_189_cif.got.tgz:377735.got - 2010.06.03 13:09:07.
