data_PCOD9205397
_publ_section_title
;
Structure prediction by ZEFSAII (Michael W. Deem and Ramdas Pophale) SiO2 
 PCOD9205397
Probable space group: C 2/M
;
_chemical_formula_sum "Si O2"
_cell_formula_units_Z 56
_cell_length_a 15.888839
_cell_length_b 19.539181
_cell_length_c 7.515948
_cell_angle_alpha 90.000000
_cell_angle_beta 62.803655
_cell_angle_gamma 90.000000
_cell_volume 2075.399196
_symmetry_space_group_name_H-M "C 2/M"
_symmetry_group_IT_number 12
_symmetry_cell_setting 'monoclinic'
loop_
_space_group_symop_operation_xyz
x,y,z
-x,y,-z
-x,-y,-z
x,-y,z
1/2+x,1/2+y,z
1/2-x,1/2+y,-z
1/2-x,1/2-y,-z
1/2+x,1/2-y,z
loop_
_atom_site_type_symbol
_atom_site_label
_atom_site_fract_x
_atom_site_fract_y
_atom_site_fract_z
Si Si1 0.549445 0.225760 0.686540
Si Si2 0.661888 0.076137 0.033254
Si Si3 0.651303 0.225992 0.958545
Si Si4 0.545374 0.927996 0.649440
Si Si5 0.776749 0.860513 0.218160
Si Si6 0.424305 0.580551 0.813033
Si Si7 0.874246 0.862229 0.487709
O O1 0.593804 0.241748 0.833921
O O2 0.583355 0.148854 0.614713
O O3 0.595539 0.283147 0.519296
O O4 0.435067 0.228839 0.814448
O O5 0.548187 0.074159 0.136420
O O6 0.699392 0.090919 0.198393
O O7 0.695405 0.000000 0.948322
O O8 0.685319 0.147434 0.913300
O O9 0.732536 0.283846 0.857944
O O10 0.500000 0.934139 0.500000
O O11 0.597882 0.000000 0.638255
O O12 0.793642 0.866190 0.413101
O O13 0.873056 0.884644 0.027389
O O14 0.421051 0.500000 0.837243
O O15 0.531462 0.604280 0.688434
O O16 0.370169 0.601859 0.683321
#
# Coordination Sequence:
#
# PCOD9205397 Si02
#       7
#     8   8   8   8   8   8   8
#     4   9  17  32  57  82 108 147 189 238 288 327
#     4  10  21  35  55  82 112 152 191 232 292 344
#     4   9  18  34  55  82 111 145 193 236 280 339
#     4   9  19  34  54  82 110 142 190 241 290 340
#     4  11  21  38  59  82 118 157 190 230 286 342
#     4  11  23  36  56  87 116 151 195 237 282 333
#     4  10  21  36  57  87 115 151 196 235 276 336
#
# _framework density 26.982759999999999
#
# number of rings (size 3 to 8) (size 9 to 14) (size 15 to 20)
#    0.000    2.143    1.429    2.143    2.000    3.429 
#    0.000    4.286    0.000    7.714    0.000    0.000 
#    0.000    0.000    0.000    0.000    0.000    0.000 
#
# Total GULP energy -156549.740780 kJ/mol
# GULP energy per Si atom -5591.062171 kJ/mol
# Density = 2.692135 g / cm^3
# Si number density = 26.982760 Si / 1000 Ang^3
#
#
#
# Elastic Constant Matrix: (Units=GPa)
#
#
# Indices 1 2 3 4 5 6 
#
# 1 86.3896 1.3298 31.4206 0.0000 9.2855 0.0000
# 2 1.3298 221.4996 18.8649 0.0000 8.7028 0.0000
# 3 31.4206 18.8649 66.5821 0.0000 23.6789 0.0000
# 4 0.0000 0.0000 0.0000 87.4100 0.0000 79.1215
# 5 9.2855 8.7028 23.6789 0.0000 50.3158 0.0000
# 6 0.0000 0.0000 0.0000 79.1215 0.0000 82.3848
#
#
#
# Elastic Compliance Matrix: (Units=1/GPa)
#
#
# Indices 1 2 3 4 5 6 
#
# 1 0.014041 0.000486 -0.006981 0.000000 0.000610 0.000000
# 2 0.000486 0.004645 -0.001475 0.000000 -0.000199 0.000000
# 3 -0.006981 -0.001475 0.021837 0.000000 -0.008733 0.000000
# 4 0.000000 0.000000 0.000000 0.087547 0.000000 -0.084079
# 5 0.000610 -0.000199 -0.008733 0.000000 0.023906 0.000000
# 6 0.000000 0.000000 0.000000 -0.084079 0.000000 0.092887
#
#
# Mechanical properties :
#
#
# Convention : Reuss Voigt Hill
#
# Bulk Modulus (GPa) = 40.67542 53.07799 46.87670
# Shear Modulus (GPa) = 18.58750 65.54585 42.06668
#
# Velocity S-wave (km/s) = 2.62747 4.93401 3.95273
# Velocity P-wave (km/s) = 4.93073 7.22309 6.18406
#
# Compressibility (1/GPa) = 0.02458487
#
# Stress axis : x y z
#
# Youngs Moduli (GPa) = 71.21763 215.27627 45.79349
#
# Poissons Ratio (x) = -0.10469 0.31968
# Poissons Ratio (y) = -0.03463 0.06754
# Poissons Ratio (z) = 0.49717 0.31749
#
# Static dielectric constant tensor:
#      x y z
#    x 2.208780 0.000000 -0.043270 
#    y 0.000000 2.125520 0.000000 
#    z -0.043270 0.000000 2.129140 
# 
# From -- ./inp_files/75865.got.cif
#   From: 2010.05.17/outbox.cif.g08.bks.cpg/sg12_38_cif.got.tgz:75865.got - 2010.06.03 13:09:07.
