data_PCOD9205966
_publ_section_title
;
Structure prediction by ZEFSAII (Michael W. Deem and Ramdas Pophale) SiO2 
 PCOD9205966
Probable space group: C 2/M
;
_chemical_formula_sum "Si O2"
_cell_formula_units_Z 56
_cell_length_a 27.091306
_cell_length_b 8.682419
_cell_length_c 13.571231
_cell_angle_alpha 90.000000
_cell_angle_beta 66.789374
_cell_angle_gamma 90.000000
_cell_volume 2933.829420
_symmetry_space_group_name_H-M "C 2/M"
_symmetry_group_IT_number 12
_symmetry_cell_setting 'monoclinic'
loop_
_space_group_symop_operation_xyz
x,y,z
-x,y,-z
-x,-y,-z
x,-y,z
1/2+x,1/2+y,z
1/2-x,1/2+y,-z
1/2-x,1/2-y,-z
1/2+x,1/2-y,z
loop_
_atom_site_type_symbol
_atom_site_label
_atom_site_fract_x
_atom_site_fract_y
_atom_site_fract_z
Si Si1 0.910130 0.816310 0.400637
Si Si2 0.909989 0.683166 0.615388
Si Si3 0.812444 0.186129 0.809003
Si Si4 0.025220 0.185932 0.251477
Si Si5 0.699362 0.184352 0.598715
Si Si6 0.696199 0.185098 0.828098
Si Si7 0.622877 0.315569 0.045428
O O1 0.921970 0.763979 0.502746
O O2 0.856063 0.736727 0.406943
O O3 0.962594 0.775286 0.294814
O O4 0.902968 0.000000 0.403695
O O5 0.912731 0.500000 0.602582
O O6 0.851063 0.735939 0.698422
O O7 0.949750 0.739393 0.670175
O O8 0.751130 0.232773 0.840162
O O9 0.836516 0.226658 0.896925
O O10 0.816692 0.000000 0.794986
O O11 0.063893 0.231212 0.130586
O O12 0.029712 0.000000 0.258693
O O13 0.750000 0.250000 0.500000
O O14 0.699237 0.237369 0.712682
O O15 0.702924 0.000000 0.594947
O O16 0.694898 0.000000 0.829306
O O17 0.645241 0.244900 0.928164
O O18 0.623476 0.500000 0.035841
#
# Coordination Sequence:
#
# PCOD9205966 Si02
#       7
#     8   8   8   8   8   8   8
#     4  11  22  38  59  79 107 149 189 228 276 325
#     4  11  21  32  53  86 117 144 180 227 278 332
#     4   9  18  34  54  79 113 149 184 221 268 329
#     4   9  20  38  57  80 111 147 185 224 272 329
#     4  11  24  41  60  84 112 143 184 229 273 325
#     4  10  21  36  55  79 109 145 181 223 276 327
#     4   9  18  33  55  82 110 140 180 228 271 322
#
# _framework density 19.087682000000001
#
# number of rings (size 3 to 8) (size 9 to 14) (size 15 to 20)
#    0.000    2.000    0.000    4.714    0.000    8.000 
#    0.000    0.714    0.000    4.286    0.000    0.000 
#    0.000    0.000    0.000    0.000    0.000    0.000 
#
# Total GULP energy -156387.666514 kJ/mol
# GULP energy per Si atom -5585.273804 kJ/mol
# Density = 1.904424 g / cm^3
# Si number density = 19.087682 Si / 1000 Ang^3
#
#
#
# Elastic Constant Matrix: (Units=GPa)
#
#
# Indices 1 2 3 4 5 6 
#
# 1 98.7784 26.1521 58.3969 0.0000 -32.9608 0.0000
# 2 26.1521 27.5063 31.6283 0.0000 -8.0264 0.0000
# 3 58.3969 31.6283 148.4192 0.0000 -28.7833 0.0000
# 4 0.0000 0.0000 0.0000 28.9883 0.0000 -0.6676
# 5 -32.9608 -8.0264 -28.7833 0.0000 22.7204 0.0000
# 6 0.0000 0.0000 0.0000 -0.6676 0.0000 21.9557
#
#
#
# Elastic Compliance Matrix: (Units=1/GPa)
#
#
# Indices 1 2 3 4 5 6 
#
# 1 0.023665 -0.013029 -0.001020 0.000000 0.028436 0.000000
# 2 -0.013029 0.055818 -0.008763 0.000000 -0.010284 0.000000
# 3 -0.001020 -0.008763 0.010763 0.000000 0.009060 0.000000
# 4 0.000000 0.000000 0.000000 0.034521 0.000000 0.001050
# 5 0.028436 -0.010284 0.009060 0.000000 0.093111 0.000000
# 6 0.000000 0.000000 0.000000 0.001050 0.000000 0.045578
#
#
# Mechanical properties :
#
#
# Convention : Reuss Voigt Hill
#
# Bulk Modulus (GPa) = 22.41032 56.33985 39.37508
# Shear Modulus (GPa) = 15.43429 25.30133 20.36781
#
# Velocity S-wave (km/s) = 2.84667 3.64474 3.27014
# Velocity P-wave (km/s) = 4.75089 6.87696 5.91031
#
# Compressibility (1/GPa) = 0.04462231
#
# Stress axis : x y z
#
# Youngs Moduli (GPa) = 42.25693 17.91533 92.90690
#
# Poissons Ratio (x) = 0.23342 0.09476
# Poissons Ratio (y) = 0.55057 0.81413
# Poissons Ratio (z) = 0.04310 0.15699
#
# Static dielectric constant tensor:
#      x y z
#    x 1.658990 0.000000 -0.013400 
#    y 0.000000 1.643470 0.000000 
#    z -0.013400 0.000000 1.663360 
# 
# From -- ./inp_files/180642.got.cif
#   From: 2010.05.17/outbox.cif.g08.bks.cpg/sg12_91_cif.got.tgz:180642.got - 2010.06.03 13:09:07.
