data_PCOD9205467
_publ_section_title
;
Structure prediction by ZEFSAII (Michael W. Deem and Ramdas Pophale) SiO2 
 PCOD9205467
Probable space group: C 2/M
;
_chemical_formula_sum "Si O2"
_cell_formula_units_Z 48
_cell_length_a 22.719120
_cell_length_b 13.775495
_cell_length_c 9.229550
_cell_angle_alpha 90.000000
_cell_angle_beta 74.769555
_cell_angle_gamma 90.000000
_cell_volume 2787.091443
_symmetry_space_group_name_H-M "C 2/M"
_symmetry_group_IT_number 12
_symmetry_cell_setting 'monoclinic'
loop_
_space_group_symop_operation_xyz
x,y,z
-x,y,-z
-x,-y,-z
x,-y,z
1/2+x,1/2+y,z
1/2-x,1/2+y,-z
1/2-x,1/2-y,-z
1/2+x,1/2-y,z
loop_
_atom_site_type_symbol
_atom_site_label
_atom_site_fract_x
_atom_site_fract_y
_atom_site_fract_z
Si Si1 0.263915 0.611951 0.651027
Si Si2 0.708532 0.781868 0.163142
Si Si3 0.627392 0.803895 0.762686
Si Si4 0.594331 0.114988 0.091534
Si Si5 0.474580 0.885000 0.358540
Si Si6 0.194367 0.110842 0.708970
O O1 0.269487 0.500000 0.693850
O O2 0.299053 0.687040 0.731489
O O3 0.193147 0.644391 0.702750
O O4 0.286660 0.620323 0.471595
O O5 0.646652 0.828597 0.145787
O O6 0.747704 0.858214 0.231688
O O7 0.750000 0.750000 0.000000
O O8 0.584318 0.826663 0.655277
O O9 0.642574 0.690593 0.771639
O O10 0.596520 0.847241 0.926107
O O11 0.529262 0.129286 0.209198
O O12 0.607659 0.000000 0.084188
O O13 0.500000 0.858778 0.500000
O O14 0.459047 0.000000 0.371003
O O15 0.176928 0.000000 0.749146
#
# Coordination Sequence:
#
# PCOD9205467 Si02
#       6
#     8   8   8   8   8   8
#     4  10  21  35  56  83 114 149 184 224 275 329
#     4  11  20  34  55  86 114 145 179 225 276 329
#     4  11  20  37  57  79 110 148 184 224 274 328
#     4  11  22  36  55  82 115 146 178 222 276 332
#     4  10  23  37  56  83 108 142 184 229 277 328
#     4  10  22  37  56  82 114 150 186 228 272 326
#
# _framework density 17.222254
#
# number of rings (size 3 to 8) (size 9 to 14) (size 15 to 20)
#    0.000    1.500    3.333    4.500    4.667    2.000 
#    0.000    0.000    0.000    3.500    0.000    0.000 
#    0.000    0.000    0.000    0.000    0.000    0.000 
#
# Total GULP energy -134058.089169 kJ/mol
# GULP energy per Si atom -5585.753715 kJ/mol
# Density = 1.718306 g / cm^3
# Si number density = 17.222254 Si / 1000 Ang^3
#
#
#
# Elastic Constant Matrix: (Units=GPa)
#
#
# Indices 1 2 3 4 5 6 
#
# 1 61.8822 30.9934 4.0823 0.0000 19.2592 0.0000
# 2 30.9934 106.3329 21.9683 0.0000 3.8418 0.0000
# 3 4.0823 21.9683 51.0908 0.0000 5.7300 0.0000
# 4 0.0000 0.0000 0.0000 28.6913 0.0000 7.3231
# 5 19.2592 3.8418 5.7300 0.0000 25.0399 0.0000
# 6 0.0000 0.0000 0.0000 7.3231 0.0000 3.5648
#
#
#
# Elastic Compliance Matrix: (Units=1/GPa)
#
#
# Indices 1 2 3 4 5 6 
#
# 1 0.025729 -0.007488 0.003340 0.000000 -0.019405 0.000000
# 2 -0.007488 0.012509 -0.005348 0.000000 0.005064 0.000000
# 3 0.003340 -0.005348 0.022376 0.000000 -0.006869 0.000000
# 4 0.000000 0.000000 0.000000 0.073273 0.000000 -0.150523
# 5 -0.019405 0.005064 -0.006869 0.000000 0.055656 0.000000
# 6 0.000000 0.000000 0.000000 -0.150523 0.000000 0.589739
#
#
# Mechanical properties :
#
#
# Convention : Reuss Voigt Hill
#
# Bulk Modulus (GPa) = 24.02598 37.04377 30.53487
# Shear Modulus (GPa) = 6.15650 22.27666 14.21658
#
# Velocity S-wave (km/s) = 1.89275 3.60040 2.87623
# Velocity P-wave (km/s) = 4.33099 6.23216 5.36644
#
# Compressibility (1/GPa) = 0.04162161
#
# Stress axis : x y z
#
# Youngs Moduli (GPa) = 38.86640 79.94176 44.69038
#
# Poissons Ratio (x) = 0.59864 -0.14928
# Poissons Ratio (y) = 0.29105 0.23902
# Poissons Ratio (z) = -0.12983 0.42756
#
# Static dielectric constant tensor:
#      x y z
#    x 1.554860 0.000000 0.013330 
#    y 0.000000 1.580220 0.000000 
#    z 0.013330 0.000000 1.599170 
# 
# From -- ./inp_files/85683.got.cif
#   From: 2010.05.17/outbox.cif.g08.bks.cpg/sg12_43_cif.got.tgz:85683.got - 2010.06.03 13:09:07.
