data_PCOD9205638
_publ_section_title
;
Structure prediction by ZEFSAII (Michael W. Deem and Ramdas Pophale) SiO2 
 PCOD9205638
Probable space group: C 2/M
;
_chemical_formula_sum "Si O2"
_cell_formula_units_Z 48
_cell_length_a 20.158588
_cell_length_b 18.077040
_cell_length_c 6.583545
_cell_angle_alpha 90.000000
_cell_angle_beta 71.319659
_cell_angle_gamma 90.000000
_cell_volume 2272.710129
_symmetry_space_group_name_H-M "C 2/M"
_symmetry_group_IT_number 12
_symmetry_cell_setting 'monoclinic'
loop_
_space_group_symop_operation_xyz
x,y,z
-x,y,-z
-x,-y,-z
x,-y,z
1/2+x,1/2+y,z
1/2-x,1/2+y,-z
1/2-x,1/2-y,-z
1/2+x,1/2-y,z
loop_
_atom_site_type_symbol
_atom_site_label
_atom_site_fract_x
_atom_site_fract_y
_atom_site_fract_z
Si Si1 0.814616 0.082778 0.215657
Si Si2 0.292061 0.683051 0.859656
Si Si3 0.592877 0.781132 0.410324
Si Si4 0.433575 0.699797 0.183305
Si Si5 0.424677 0.855887 0.984896
Si Si6 0.193243 0.627321 0.612383
O O1 0.871131 0.140854 0.252918
O O2 0.743878 0.080240 0.418590
O O3 0.843723 0.000000 0.173934
O O4 0.795518 0.115637 0.013154
O O5 0.368363 0.713131 0.734524
O O6 0.249832 0.667408 0.697650
O O7 0.250000 0.750000 0.000000
O O8 0.544652 0.739680 0.625932
O O9 0.649994 0.821678 0.498883
O O10 0.573828 0.843663 0.260292
O O11 0.411644 0.771799 0.074881
O O12 0.500000 0.667062 0.000000
O O13 0.363700 0.900677 0.163147
O O14 0.500000 0.878851 0.000000
#
# Coordination Sequence:
#
# PCOD9205638 Si02
#       6
#     8   8   8   8   8   8
#     4  12  25  39  57  88 126 166 212 256 300 359
#     4  12  19  36  63  90 117 158 207 259 308 356
#     4  11  19  36  64  89 121 153 204 258 304 356
#     4  10  22  37  57  85 122 168 206 249 300 353
#     4  10  21  35  59  97 124 152 193 255 315 364
#     4  11  21  35  61  89 118 156 200 256 310 359
#
# _framework density 21.120158
#
# number of rings (size 3 to 8) (size 9 to 14) (size 15 to 20)
#    0.000    1.000    6.667    1.500    0.000    7.000 
#    0.000    0.000    0.000    1.500    0.000    4.667 
#    0.000    0.000    0.000    0.000    0.000    0.000 
#
# Total GULP energy -133693.493892 kJ/mol
# GULP energy per Si atom -5570.562246 kJ/mol
# Density = 2.107209 g / cm^3
# Si number density = 21.120158 Si / 1000 Ang^3
#
#
#
# Elastic Constant Matrix: (Units=GPa)
#
#
# Indices 1 2 3 4 5 6 
#
# 1 80.8471 -2.9382 45.7391 0.0000 -9.3536 0.0000
# 2 -2.9382 42.7578 10.4207 0.0000 -4.5838 0.0000
# 3 45.7391 10.4207 144.1299 0.0000 6.8340 0.0000
# 4 0.0000 0.0000 0.0000 4.6012 0.0000 -2.4246
# 5 -9.3536 -4.5838 6.8340 0.0000 60.5659 0.0000
# 6 0.0000 0.0000 0.0000 -2.4246 0.0000 6.7596
#
#
#
# Elastic Compliance Matrix: (Units=1/GPa)
#
#
# Indices 1 2 3 4 5 6 
#
# 1 0.015904 0.002761 -0.005402 0.000000 0.003275 0.000000
# 2 0.002761 0.024531 -0.002773 0.000000 0.002596 0.000000
# 3 -0.005402 -0.002773 0.008950 0.000000 -0.002054 0.000000
# 4 0.000000 0.000000 0.000000 0.267987 0.000000 0.096125
# 5 0.003275 0.002596 -0.002054 0.000000 0.017445 0.000000
# 6 0.000000 0.000000 0.000000 0.096125 0.000000 0.182418
#
#
# Mechanical properties :
#
#
# Convention : Reuss Voigt Hill
#
# Bulk Modulus (GPa) = 25.93529 41.57533 33.75531
# Shear Modulus (GPa) = 9.24356 28.68623 18.96489
#
# Velocity S-wave (km/s) = 2.09431 3.68943 2.99984
# Velocity P-wave (km/s) = 4.26084 6.15443 5.29300
#
# Compressibility (1/GPa) = 0.03855750
#
# Stress axis : x y z
#
# Youngs Moduli (GPa) = 62.87558 40.76427 111.72708
#
# Poissons Ratio (x) = -0.11253 0.60356
# Poissons Ratio (y) = -0.17357 0.30979
# Poissons Ratio (z) = 0.33966 0.11303
#
# Static dielectric constant tensor:
#      x y z
#    x 1.874460 0.000000 -0.065020 
#    y 0.000000 1.708490 0.000000 
#    z -0.065020 0.000000 1.984300 
# 
# From -- ./inp_files/20942.got.cif
#   From: 2010.05.17/outbox.cif.g08.bks.cpg/sg12_11_cif.got.tgz:20942.got - 2010.06.03 13:09:07.
