data_PCOD9205633
_publ_section_title
;
Structure prediction by ZEFSAII (Michael W. Deem and Ramdas Pophale) SiO2 
 PCOD9205633
Probable space group: C 2/M
;
_chemical_formula_sum "Si O2"
_cell_formula_units_Z 60
_cell_length_a 22.196334
_cell_length_b 24.499735
_cell_length_c 13.800787
_cell_angle_alpha 90.000000
_cell_angle_beta 21.282052
_cell_angle_gamma 90.000000
_cell_volume 2723.983611
_symmetry_space_group_name_H-M "C 2/M"
_symmetry_group_IT_number 12
_symmetry_cell_setting 'monoclinic'
loop_
_space_group_symop_operation_xyz
x,y,z
-x,y,-z
-x,-y,-z
x,-y,z
1/2+x,1/2+y,z
1/2-x,1/2+y,-z
1/2-x,1/2-y,-z
1/2+x,1/2-y,z
loop_
_atom_site_type_symbol
_atom_site_label
_atom_site_fract_x
_atom_site_fract_y
_atom_site_fract_z
Si Si1 0.500000 0.386352 0.000000
Si Si2 0.228579 0.064335 0.495724
Si Si3 0.002279 0.615632 0.201424
Si Si4 0.627022 0.096846 0.391403
Si Si5 0.883660 0.740417 0.386194
Si Si6 0.307834 0.563032 0.815359
Si Si7 0.803930 0.800579 0.160663
Si Si8 0.926541 0.063289 0.835243
O O1 0.381311 0.422015 0.244780
O O2 0.388018 0.344275 0.107171
O O3 0.404296 0.090436 0.257589
O O4 0.106303 0.086354 0.594384
O O5 0.247722 0.000000 0.453640
O O6 0.940630 0.591376 0.398228
O O7 0.955622 0.679017 0.272420
O O8 0.194289 0.599481 0.916915
O O9 0.500000 0.076916 0.500000
O O10 0.670002 0.161017 0.308985
O O11 0.801198 0.066430 0.113108
O O12 0.750000 0.750000 0.500000
O O13 0.786272 0.743271 0.634562
O O14 0.044810 0.778126 0.129596
O O15 0.500000 0.561776 0.500000
O O16 0.245203 0.500000 0.907772
O O17 0.322164 0.587033 0.902569
O O18 0.953963 0.000000 0.768539
#
# Coordination Sequence:
#
# PCOD9205633 Si02
#       8
#     4   8   8   8   8   8   8   8
#     4  12  17  34  56  88 128 164 189 250 316 378
#     4  11  20  33  58  97 133 161 200 256 321 381
#     4  11  22  39  63  93 124 163 211 260 313 382
#     4  11  21  37  60  88 122 158 198 259 311 367
#     4  11  21  40  62  90 121 161 211 260 322 382
#     4  10  22  43  63  84 125 174 214 257 311 377
#     4  11  22  39  61  85 123 161 206 261 318 374
#     4  10  21  35  59  92 125 164 203 246 313 380
#
# _framework density 22.026564
#
# number of rings (size 3 to 8) (size 9 to 14) (size 15 to 20)
#    0.000    1.200    6.667    0.600    0.000    2.400 
#    2.400    5.333    0.000    3.200    0.000    0.000 
#    0.000    0.000    0.000    0.000    0.000    0.000 
#
# Total GULP energy -167384.412065 kJ/mol
# GULP energy per Si atom -5579.480402 kJ/mol
# Density = 2.197643 g / cm^3
# Si number density = 22.026564 Si / 1000 Ang^3
#
#
#
# Elastic Constant Matrix: (Units=GPa)
#
#
# Indices 1 2 3 4 5 6 
#
# 1 71.9250 14.2172 30.3308 -0.0021 -33.9398 0.0037
# 2 14.2172 33.2953 12.3628 0.0112 -10.4900 0.0019
# 3 30.3308 12.3628 86.7819 0.0011 -15.5617 -0.0042
# 4 -0.0021 0.0112 0.0011 31.7160 -0.0100 -6.4514
# 5 -33.9398 -10.4900 -15.5617 -0.0100 49.5825 -0.0025
# 6 0.0037 0.0019 -0.0042 -6.4514 -0.0025 23.7157
#
#
#
# Elastic Compliance Matrix: (Units=1/GPa)
#
#
# Indices 1 2 3 4 5 6 
#
# 1 0.023159 -0.003741 -0.005150 0.000007 0.013445 -0.000001
# 2 -0.003741 0.033858 -0.002851 -0.000012 0.003708 -0.000006
# 3 -0.005150 -0.002851 0.013764 0.000001 0.000191 0.000004
# 4 0.000007 -0.000012 0.000001 0.033377 0.000010 0.009079
# 5 0.013445 0.003708 0.000191 0.000010 0.030216 0.000003
# 6 -0.000001 -0.000006 0.000004 0.009079 0.000003 0.044636
#
#
# Mechanical properties :
#
#
# Convention : Reuss Voigt Hill
#
# Bulk Modulus (GPa) = 21.14311 33.98041 27.56176
# Shear Modulus (GPa) = 22.90850 30.00894 26.45872
#
# Velocity S-wave (km/s) = 3.22846 3.69507 3.46962
# Velocity P-wave (km/s) = 4.84944 5.80218 5.34707
#
# Compressibility (1/GPa) = 0.04729673
#
# Stress axis : x y z
#
# Youngs Moduli (GPa) = 43.17980 29.53475 72.65506
#
# Poissons Ratio (x) = 0.11048 0.37420
# Poissons Ratio (y) = 0.16152 0.20715
# Poissons Ratio (z) = 0.22239 0.08421
#
# Static dielectric constant tensor:
#      x y z
#    x 1.909370 -0.000010 0.024500 
#    y -0.000010 1.792410 0.000010 
#    z 0.024500 0.000010 1.899760 
# 
# From -- ./inp_files/242351.got.cif
#   From: 2010.05.17/outbox.cif.g08.bks.cpg/sg12_122_cif.got.tgz:242351.got - 2010.06.03 13:09:07.
