data_PCOD9205491
_publ_section_title
;
Structure prediction by ZEFSAII (Michael W. Deem and Ramdas Pophale) SiO2 
 PCOD9205491
Probable space group: C 2/M
;
_chemical_formula_sum "Si O2"
_cell_formula_units_Z 64
_cell_length_a 18.652498
_cell_length_b 17.918975
_cell_length_c 15.305149
_cell_angle_alpha 90.000000
_cell_angle_beta 39.442235
_cell_angle_gamma 90.000000
_cell_volume 3249.874207
_symmetry_space_group_name_H-M "C 2/M"
_symmetry_group_IT_number 12
_symmetry_cell_setting 'monoclinic'
loop_
_space_group_symop_operation_xyz
x,y,z
-x,y,-z
-x,-y,-z
x,-y,z
1/2+x,1/2+y,z
1/2-x,1/2+y,-z
1/2-x,1/2-y,-z
1/2+x,1/2-y,z
loop_
_atom_site_type_symbol
_atom_site_label
_atom_site_fract_x
_atom_site_fract_y
_atom_site_fract_z
Si Si1 0.885226 0.088638 0.379272
Si Si2 0.263262 0.853548 0.811927
Si Si3 0.307617 0.120672 0.579904
Si Si4 0.461941 0.915497 0.725805
Si Si5 0.774343 0.781383 0.573840
Si Si6 0.362814 0.410937 0.904368
Si Si7 0.354158 0.911714 0.005974
Si Si8 0.373945 0.784687 0.125528
O O1 0.802351 0.103405 0.374927
O O2 0.839311 0.141409 0.499688
O O3 0.011881 0.114504 0.237657
O O4 0.883551 0.000000 0.400328
O O5 0.280824 0.898667 0.705073
O O6 0.382809 0.858295 0.748559
O O7 0.213891 0.772739 0.835241
O O8 0.175410 0.887433 0.963502
O O9 0.413908 0.085436 0.431014
O O10 0.335769 0.209422 0.556566
O O11 0.414436 0.000000 0.759006
O O12 0.448889 0.900102 0.841279
O O13 0.750000 0.750000 0.500000
O O14 0.666148 0.793733 0.736943
O O15 0.365966 0.500000 0.898548
O O16 0.263777 0.388781 0.930065
O O17 0.373126 0.861170 0.072063
O O18 0.350663 0.000000 0.029464
O O19 0.500000 0.752885 0.000000
#
# Coordination Sequence:
#
# PCOD9205491 Si02
#       8
#     8   8   8   8   8   8   8   8
#     4  10  21  36  59  87 114 157 206 246 301 362
#     4  10  22  36  57  85 124 158 197 248 299 359
#     4  10  21  35  56  87 121 160 200 251 303 356
#     4  10  21  38  61  90 124 161 202 245 300 365
#     4   9  22  40  56  83 121 155 190 246 303 355
#     4   9  20  38  59  85 120 160 201 242 297 363
#     4   9  21  41  61  87 121 158 202 254 303 354
#     4  11  25  39  62  93 117 154 207 249 299 362
#
# _framework density 19.693069000000001
#
# number of rings (size 3 to 8) (size 9 to 14) (size 15 to 20)
#    0.000    2.250    0.000    1.875    8.750    6.250 
#    0.000    3.125    0.000    2.250    0.000    0.000 
#    0.000    0.000    0.000    0.000    0.000    0.000 
#
# Total GULP energy -178372.949224 kJ/mol
# GULP energy per Si atom -5574.154663 kJ/mol
# Density = 1.964825 g / cm^3
# Si number density = 19.693069 Si / 1000 Ang^3
#
#
#
# Elastic Constant Matrix: (Units=GPa)
#
#
# Indices 1 2 3 4 5 6 
#
# 1 45.7613 23.4838 32.7106 0.0000 6.1120 0.0000
# 2 23.4838 59.3320 35.0048 0.0000 5.6175 0.0000
# 3 32.7106 35.0048 145.2959 0.0000 5.5338 0.0000
# 4 0.0000 0.0000 0.0000 22.7308 0.0000 -6.5430
# 5 6.1120 5.6175 5.5338 0.0000 27.7197 0.0000
# 6 0.0000 0.0000 0.0000 -6.5430 0.0000 15.8318
#
#
#
# Elastic Compliance Matrix: (Units=1/GPa)
#
#
# Indices 1 2 3 4 5 6 
#
# 1 0.030167 -0.008915 -0.004493 0.000000 -0.003948 0.000000
# 2 -0.008915 0.022543 -0.003350 0.000000 -0.001934 0.000000
# 3 -0.004493 -0.003350 0.008704 0.000000 -0.000068 0.000000
# 4 0.000000 0.000000 0.000000 0.049933 0.000000 0.020636
# 5 -0.003948 -0.001934 -0.000068 0.000000 0.037351 0.000000
# 6 0.000000 0.000000 0.000000 0.020636 0.000000 0.071692
#
#
# Mechanical properties :
#
#
# Convention : Reuss Voigt Hill
#
# Bulk Modulus (GPa) = 35.84797 48.08752 41.96774
# Shear Modulus (GPa) = 18.99649 23.86914 21.43281
#
# Velocity S-wave (km/s) = 3.10922 3.48524 3.30258
# Velocity P-wave (km/s) = 5.57965 6.37710 5.99165
#
# Compressibility (1/GPa) = 0.02789559
#
# Stress axis : x y z
#
# Youngs Moduli (GPa) = 33.14901 44.36024 114.89240
#
# Poissons Ratio (x) = 0.39549 0.51624
# Poissons Ratio (y) = 0.29554 0.38492
# Poissons Ratio (z) = 0.14895 0.14862
#
# Static dielectric constant tensor:
#      x y z
#    x 1.724770 0.000000 0.014390 
#    y 0.000000 1.720850 0.000000 
#    z 0.014390 0.000000 1.716520 
# 
# From -- ./inp_files/159550.got.cif
#   From: 2010.05.17/outbox.cif.g08.bks.cpg/sg12_80_cif.got.tgz:159550.got - 2010.06.03 13:09:07.
