data_PCOD9205554
_publ_section_title
;
Structure prediction by ZEFSAII (Michael W. Deem and Ramdas Pophale) SiO2 
 PCOD9205554
Probable space group: C 2/M
;
_chemical_formula_sum "Si O2"
_cell_formula_units_Z 36
_cell_length_a 8.972430
_cell_length_b 27.865397
_cell_length_c 12.195774
_cell_angle_alpha 90.000000
_cell_angle_beta 142.428264
_cell_angle_gamma 90.000000
_cell_volume 1859.257405
_symmetry_space_group_name_H-M "C 2/M"
_symmetry_group_IT_number 12
_symmetry_cell_setting 'monoclinic'
loop_
_space_group_symop_operation_xyz
x,y,z
-x,y,-z
-x,-y,-z
x,-y,z
1/2+x,1/2+y,z
1/2-x,1/2+y,-z
1/2-x,1/2-y,-z
1/2+x,1/2-y,z
loop_
_atom_site_type_symbol
_atom_site_label
_atom_site_fract_x
_atom_site_fract_y
_atom_site_fract_z
Si Si1 0.911815 0.315447 0.200881
Si Si2 0.102171 0.134165 0.437249
Si Si3 0.000000 0.112448 0.000000
Si Si4 0.706504 0.555195 0.323871
Si Si5 0.815591 0.776153 0.287662
O O1 0.817045 0.271716 0.219192
O O2 0.126245 0.344250 0.390128
O O3 0.053490 0.292212 0.180707
O O4 0.697075 0.352924 0.056819
O O5 0.105013 0.088367 0.362148
O O6 0.000000 0.123397 0.500000
O O7 0.936865 0.178313 0.297597
O O8 0.125580 0.079422 0.163690
O O9 0.624690 0.500000 0.283941
O O10 0.000000 0.555957 0.500000
O O11 0.000000 0.768669 0.500000
#
# Coordination Sequence:
#
# PCOD9205554 Si02
#       5
#     8   8   4   8   8
#     4  10  21  35  57  91 127 166 201 251 299 364
#     4   9  19  40  65  91 123 163 207 255 309 362
#     4  12  25  38  64  94 132 156 209 256 306 372
#     4  11  24  43  69  90 119 163 209 263 312 364
#     4   9  19  34  60  89 127 164 207 246 295 370
#
# _framework density 19.362570000000002
#
# number of rings (size 3 to 8) (size 9 to 14) (size 15 to 20)
#    0.000    2.444    2.222    3.000    6.222    1.333 
#    0.000    3.333    0.000    5.333    0.000    0.000 
#    0.000    0.000    0.000    0.000    0.000    0.000 
#
# Total GULP energy -100569.385755 kJ/mol
# GULP energy per Si atom -5587.188098 kJ/mol
# Density = 1.931850 g / cm^3
# Si number density = 19.362570 Si / 1000 Ang^3
#
#
#
# Elastic Constant Matrix: (Units=GPa)
#
#
# Indices 1 2 3 4 5 6 
#
# 1 55.7978 64.8565 42.8160 0.0000 2.3317 0.0000
# 2 64.8565 169.2157 59.2069 0.0000 -6.3780 0.0000
# 3 42.8160 59.2069 77.7879 0.0000 6.2274 0.0000
# 4 0.0000 0.0000 0.0000 9.3270 0.0000 4.2083
# 5 2.3317 -6.3780 6.2274 0.0000 21.6766 0.0000
# 6 0.0000 0.0000 0.0000 4.2083 0.0000 34.4153
#
#
#
# Elastic Compliance Matrix: (Units=1/GPa)
#
#
# Indices 1 2 3 4 5 6 
#
# 1 0.042221 -0.011310 -0.014331 0.000000 -0.003752 0.000000
# 2 -0.011310 0.011481 -0.002950 0.000000 0.005442 0.000000
# 3 -0.014331 -0.002950 0.023474 0.000000 -0.006070 0.000000
# 4 0.000000 0.000000 0.000000 0.113476 0.000000 -0.013876
# 5 -0.003752 0.005442 -0.006070 0.000000 0.049881 0.000000
# 6 0.000000 0.000000 0.000000 -0.013876 0.000000 0.030754
#
#
# Mechanical properties :
#
#
# Convention : Reuss Voigt Hill
#
# Bulk Modulus (GPa) = 50.00769 70.72893 60.36831
# Shear Modulus (GPa) = 14.91945 22.14526 18.53235
#
# Velocity S-wave (km/s) = 2.77885 3.38555 3.09710
# Velocity P-wave (km/s) = 6.01491 7.20351 6.63588
#
# Compressibility (1/GPa) = 0.01999693
#
# Stress axis : x y z
#
# Youngs Moduli (GPa) = 23.68498 87.09696 42.59958
#
# Poissons Ratio (x) = 0.98502 0.61049
# Poissons Ratio (y) = 0.26787 0.12565
# Poissons Ratio (z) = 0.33942 0.25690
#
# Static dielectric constant tensor:
#      x y z
#    x 1.679330 0.000000 -0.002860 
#    y 0.000000 1.643350 0.000000 
#    z -0.002860 0.000000 1.705650 
# 
# From -- ./inp_files/39890.got.cif
#   From: 2010.05.17/outbox.cif.g08.bks.cpg/sg12_20_cif.got.tgz:39890.got - 2010.06.03 13:09:07.
