data_PCOD9205457
_publ_section_title
;
Structure prediction by ZEFSAII (Michael W. Deem and Ramdas Pophale) SiO2 
 PCOD9205457
Probable space group: C 2/M
;
_chemical_formula_sum "Si O2"
_cell_formula_units_Z 56
_cell_length_a 20.291417
_cell_length_b 17.537992
_cell_length_c 23.482661
_cell_angle_alpha 90.000000
_cell_angle_beta 158.178287
_cell_angle_gamma 90.000000
_cell_volume 3106.383682
_symmetry_space_group_name_H-M "C 2/M"
_symmetry_group_IT_number 12
_symmetry_cell_setting 'monoclinic'
loop_
_space_group_symop_operation_xyz
x,y,z
-x,y,-z
-x,-y,-z
x,-y,z
1/2+x,1/2+y,z
1/2-x,1/2+y,-z
1/2-x,1/2-y,-z
1/2+x,1/2-y,z
loop_
_atom_site_type_symbol
_atom_site_label
_atom_site_fract_x
_atom_site_fract_y
_atom_site_fract_z
Si Si1 0.309388 0.311618 0.094213
Si Si2 0.657322 0.209257 0.580073
Si Si3 0.443720 0.308262 0.321736
Si Si4 0.344903 0.590756 0.660015
Si Si5 0.583903 0.848987 0.212710
Si Si6 0.310017 0.916126 0.816427
Si Si7 0.236584 0.589464 0.448617
O O1 0.378293 0.277003 0.208904
O O2 0.466719 0.365927 0.197628
O O3 0.250000 0.250000 0.000000
O O4 0.126393 0.352602 0.964236
O O5 0.500000 0.204458 0.500000
O O6 0.560922 0.247356 0.448565
O O7 0.743861 0.129579 0.631448
O O8 0.819526 0.268055 0.722898
O O9 0.294661 0.344219 0.242352
O O10 0.566858 0.381180 0.407593
O O11 0.370451 0.500000 0.685564
O O12 0.226180 0.605084 0.507737
O O13 0.669825 0.905133 0.235276
O O14 0.618921 0.868364 0.306986
O O15 0.229487 0.000000 0.763038
O O16 0.500000 0.915372 0.000000
O O17 0.215054 0.500000 0.422708
#
# Coordination Sequence:
#
# PCOD9205457 Si02
#       7
#     8   8   8   8   8   8   8
#     4  11  22  37  61  87 115 148 193 236 289 343
#     4  11  22  38  61  85 112 149 198 239 283 339
#     4  10  21  35  56  81 116 153 188 233 281 338
#     4  10  23  41  60  84 114 147 189 245 296 336
#     4  11  21  35  57  88 114 152 194 230 278 343
#     4  11  21  33  51  83 122 156 187 224 278 346
#     4   9  20  35  53  80 115 149 186 232 287 339
#
# _framework density 18.027393
#
# number of rings (size 3 to 8) (size 9 to 14) (size 15 to 20)
#    0.000    1.571    4.286    0.857    2.000    3.714 
#    0.000    2.143    0.000    0.000    0.000    1.000 
#    0.000    0.000    0.000    0.000    0.000    0.000 
#
# Total GULP energy -156005.426477 kJ/mol
# GULP energy per Si atom -5571.622374 kJ/mol
# Density = 1.798636 g / cm^3
# Si number density = 18.027393 Si / 1000 Ang^3
#
#
#
# Elastic Constant Matrix: (Units=GPa)
#
#
# Indices 1 2 3 4 5 6 
#
# 1 68.1362 37.6840 16.3076 -0.0008 5.9370 -0.0073
# 2 37.6840 74.2128 10.2347 -0.0246 3.7225 -0.0048
# 3 16.3076 10.2347 54.0670 -0.0137 -0.9380 -0.0084
# 4 -0.0008 -0.0246 -0.0137 17.1475 0.0052 -0.1943
# 5 5.9370 3.7225 -0.9380 0.0052 25.7848 0.0087
# 6 -0.0073 -0.0048 -0.0084 -0.1943 0.0087 26.1286
#
#
#
# Elastic Compliance Matrix: (Units=1/GPa)
#
#
# Indices 1 2 3 4 5 6 
#
# 1 0.021779 -0.010225 -0.004698 -0.000016 -0.003709 0.000004
# 2 -0.010225 0.018751 -0.000472 0.000026 -0.000370 0.000001
# 3 -0.004698 -0.000472 0.020034 0.000015 0.001879 0.000005
# 4 -0.000016 0.000026 0.000015 0.058322 -0.000012 0.000434
# 5 -0.003709 -0.000370 0.001879 -0.000012 0.039758 -0.000014
# 6 0.000004 0.000001 0.000005 0.000434 -0.000014 0.038276
#
#
# Mechanical properties :
#
#
# Convention : Reuss Voigt Hill
#
# Bulk Modulus (GPa) = 33.58541 36.09650 34.84095
# Shear Modulus (GPa) = 21.04066 22.62482 21.83274
#
# Velocity S-wave (km/s) = 3.42006 3.54648 3.48384
# Velocity P-wave (km/s) = 5.85375 6.06932 5.96251
#
# Compressibility (1/GPa) = 0.02977483
#
# Stress axis : x y z
#
# Youngs Moduli (GPa) = 45.91509 53.33165 49.91413
#
# Poissons Ratio (x) = 0.54533 0.23449
# Poissons Ratio (y) = 0.46949 0.02354
# Poissons Ratio (z) = 0.21570 0.02516
#
# Static dielectric constant tensor:
#      x y z
#    x 1.644550 0.000000 -0.010200 
#    y 0.000000 1.611290 -0.000010 
#    z -0.010200 -0.000010 1.627570 
# 
# From -- ./inp_files/98088.got.cif
#   From: 2010.05.17/outbox.cif.g08.bks.cpg/sg12_50_cif.got.tgz:98088.got - 2010.06.03 13:09:07.
