data_PCOD9205358
_publ_section_title
;
Structure prediction by ZEFSAII (Michael W. Deem and Ramdas Pophale) SiO2 
 PCOD9205358
Probable space group: C 2/M
;
_chemical_formula_sum "Si O2"
_cell_formula_units_Z 56
_cell_length_a 16.402509
_cell_length_b 7.783846
_cell_length_c 24.222576
_cell_angle_alpha 90.000000
_cell_angle_beta 59.516448
_cell_angle_gamma 90.000000
_cell_volume 2665.131546
_symmetry_space_group_name_H-M "C 2/M"
_symmetry_group_IT_number 12
_symmetry_cell_setting 'monoclinic'
loop_
_space_group_symop_operation_xyz
x,y,z
-x,y,-z
-x,-y,-z
x,-y,z
1/2+x,1/2+y,z
1/2-x,1/2+y,-z
1/2-x,1/2-y,-z
1/2+x,1/2-y,z
loop_
_atom_site_type_symbol
_atom_site_label
_atom_site_fract_x
_atom_site_fract_y
_atom_site_fract_z
Si Si1 0.561020 0.207011 0.927186
Si Si2 0.470932 0.292582 0.840081
Si Si3 0.760357 0.698993 0.433261
Si Si4 0.925274 0.192649 0.298928
Si Si5 0.221668 0.211096 0.155436
Si Si6 0.917252 0.211535 0.569832
Si Si7 0.377877 0.694423 0.704534
O O1 0.506772 0.249856 0.888834
O O2 0.670744 0.265945 0.893385
O O3 0.564867 0.000000 0.928833
O O4 0.500000 0.270942 0.000000
O O5 0.470657 0.500000 0.834704
O O6 0.549319 0.225719 0.768859
O O7 0.364769 0.236897 0.856436
O O8 0.739356 0.500000 0.440188
O O9 0.750000 0.750000 0.500000
O O10 0.857002 0.725589 0.367382
O O11 0.677728 0.778287 0.425589
O O12 0.027154 0.181313 0.292481
O O13 0.887811 0.000000 0.302465
O O14 0.195338 0.272345 0.226671
O O15 0.219728 0.000000 0.156722
O O16 0.909805 0.272102 0.635500
O O17 0.000000 0.265918 0.500000
O O18 0.924994 0.000000 0.570025
O O19 0.342634 0.500000 0.704223
#
# Coordination Sequence:
#
# PCOD9205358 Si02
#       7
#     8   8   8   8   8   8   8
#     4  10  21  35  54  83 115 145 182 233 281 320
#     4   9  19  36  57  81 108 146 187 223 271 334
#     4  11  22  33  50  75 102 135 173 214 262 312
#     4   9  18  34  55  76 100 129 167 218 267 312
#     4   8  16  32  53  76 107 145 184 221 268 334
#     4   9  17  28  45  71  95 121 168 215 244 289
#     4   8  14  28  51  73  93 127 172 214 253 305
#
# _framework density 21.012094999999999
#
# number of rings (size 3 to 8) (size 9 to 14) (size 15 to 20)
#    0.000    2.857    0.000    3.000    2.000    3.714 
#    0.000    0.714    0.000    8.571    0.000    0.000 
#    0.000    0.000    0.000    0.000    0.000    0.000 
#
# Total GULP energy -155880.978944 kJ/mol
# GULP energy per Si atom -5567.177819 kJ/mol
# Density = 2.096427 g / cm^3
# Si number density = 21.012095 Si / 1000 Ang^3
#
#
#
# Elastic Constant Matrix: (Units=GPa)
#
#
# Indices 1 2 3 4 5 6 
#
# 1 86.9458 0.1623 85.6804 0.0000 1.4491 0.0001
# 2 0.1623 20.8209 2.2845 0.0000 -0.0233 0.0001
# 3 85.6804 2.2845 202.3663 0.0000 6.9759 0.0000
# 4 0.0000 0.0000 0.0000 6.6599 0.0000 3.7483
# 5 1.4491 -0.0233 6.9759 0.0000 41.9898 0.0000
# 6 0.0001 0.0001 0.0000 3.7483 0.0000 16.0344
#
#
#
# Elastic Compliance Matrix: (Units=1/GPa)
#
#
# Indices 1 2 3 4 5 6 
#
# 1 0.019769 0.000769 -0.008403 0.000000 0.000714 0.000000
# 2 0.000769 0.048119 -0.000874 0.000000 0.000145 0.000000
# 3 -0.008403 -0.000874 0.008548 0.000000 -0.001131 0.000000
# 4 0.000000 0.000000 0.000000 0.172900 0.000000 -0.040419
# 5 0.000714 0.000145 -0.001131 0.000000 0.023979 0.000000
# 6 0.000000 0.000000 0.000000 -0.040419 0.000000 0.071815
#
#
# Mechanical properties :
#
#
# Convention : Reuss Voigt Hill
#
# Bulk Modulus (GPa) = 16.82955 54.04307 35.43631
# Shear Modulus (GPa) = 13.09062 27.73719 20.41391
#
# Velocity S-wave (km/s) = 2.49871 3.63720 3.12032
# Velocity P-wave (km/s) = 4.04371 6.58899 5.46655
#
# Compressibility (1/GPa) = 0.05941930
#
# Stress axis : x y z
#
# Youngs Moduli (GPa) = 50.58369 20.78199 116.98191
#
# Poissons Ratio (x) = -0.01598 0.98305
# Poissons Ratio (y) = -0.03888 0.10221
# Poissons Ratio (z) = 0.42508 0.01816
#
# Static dielectric constant tensor:
#      x y z
#    x 1.870710 0.000000 -0.245240 
#    y 0.000000 1.807570 0.000000 
#    z -0.245240 0.000000 2.037520 
# 
# From -- ./inp_files/338449.got.cif
#   From: 2010.05.17/outbox.cif.g08.bks.cpg/sg12_170_cif.got.tgz:338449.got - 2010.06.03 13:09:07.
