data_PCOD9205499
_publ_section_title
;
Structure prediction by ZEFSAII (Michael W. Deem and Ramdas Pophale) SiO2 
 PCOD9205499
Probable space group: C 2/M
;
_chemical_formula_sum "Si O2"
_cell_formula_units_Z 48
_cell_length_a 24.312686
_cell_length_b 8.714856
_cell_length_c 12.234473
_cell_angle_alpha 90.000000
_cell_angle_beta 91.444982
_cell_angle_gamma 90.000000
_cell_volume 2591.434857
_symmetry_space_group_name_H-M "C 2/M"
_symmetry_group_IT_number 12
_symmetry_cell_setting 'monoclinic'
loop_
_space_group_symop_operation_xyz
x,y,z
-x,y,-z
-x,-y,-z
x,-y,z
1/2+x,1/2+y,z
1/2-x,1/2+y,-z
1/2-x,1/2-y,-z
1/2+x,1/2-y,z
loop_
_atom_site_type_symbol
_atom_site_label
_atom_site_fract_x
_atom_site_fract_y
_atom_site_fract_z
Si Si1 0.911497 0.314162 0.459130
Si Si2 0.267929 0.183126 0.173721
Si Si3 0.709114 0.682541 0.588506
Si Si4 0.483144 0.186226 0.671020
Si Si5 0.048129 0.314413 0.087339
Si Si6 0.335868 0.683291 0.983190
O O1 0.906712 0.500000 0.456344
O O2 0.852532 0.241781 0.436727
O O3 0.938285 0.270128 0.577205
O O4 0.956811 0.267571 0.370538
O O5 0.272762 0.260969 0.291001
O O6 0.210675 0.221461 0.109736
O O7 0.271381 0.000000 0.186206
O O8 0.315720 0.240242 0.094701
O O9 0.710540 0.500000 0.583760
O O10 0.750000 0.750000 0.500000
O O11 0.468155 0.238030 0.791457
O O12 0.483799 0.000000 0.672212
O O13 0.053336 0.500000 0.088948
O O14 0.105454 0.243771 0.052030
O O15 0.000000 0.274808 0.000000
O O16 0.336488 0.500000 0.996458
#
# Coordination Sequence:
#
# PCOD9205499 Si02
#       6
#     8   8   8   8   8   8
#     4   9  18  37  62  85 114 156 200 245 291 350
#     4  10  22  42  65  88 118 158 199 244 299 359
#     4  12  26  41  60  90 123 157 199 247 298 354
#     4   8  17  35  59  86 116 155 200 239 291 353
#     4  10  21  35  56  88 121 159 200 240 291 356
#     4  10  22  40  62  90 121 156 198 248 301 352
#
# _framework density 18.522556000000002
#
# number of rings (size 3 to 8) (size 9 to 14) (size 15 to 20)
#    0.000    2.167    0.000    3.500    4.667    2.333 
#    0.000    2.500    0.000    0.000    0.000    0.000 
#    0.000    0.000    0.000    0.000    0.000    0.000 
#
# Total GULP energy -134056.602671 kJ/mol
# GULP energy per Si atom -5585.691778 kJ/mol
# Density = 1.848040 g / cm^3
# Si number density = 18.522556 Si / 1000 Ang^3
#
#
#
# Elastic Constant Matrix: (Units=GPa)
#
#
# Indices 1 2 3 4 5 6 
#
# 1 147.8608 56.1747 95.7015 0.0000 -17.5649 0.0000
# 2 56.1747 61.4867 62.5872 0.0000 -2.0204 0.0000
# 3 95.7015 62.5872 168.1773 0.0000 -19.1130 0.0000
# 4 0.0000 0.0000 0.0000 21.5737 0.0000 -6.2399
# 5 -17.5649 -2.0204 -19.1130 0.0000 17.5114 0.0000
# 6 0.0000 0.0000 0.0000 -6.2399 0.0000 26.2460
#
#
#
# Elastic Compliance Matrix: (Units=1/GPa)
#
#
# Indices 1 2 3 4 5 6 
#
# 1 0.013111 -0.008182 -0.003458 0.000000 0.008433 0.000000
# 2 -0.008182 0.032500 -0.009071 0.000000 -0.014357 0.000000
# 3 -0.003458 -0.009071 0.012302 0.000000 0.008913 0.000000
# 4 0.000000 0.000000 0.000000 0.049775 0.000000 0.011834
# 5 0.008433 -0.014357 0.008913 0.000000 0.073636 0.000000
# 6 0.000000 0.000000 0.000000 0.011834 0.000000 0.040914
#
#
# Mechanical properties :
#
#
# Convention : Reuss Voigt Hill
#
# Bulk Modulus (GPa) = 60.63152 89.60572 75.11862
# Shear Modulus (GPa) = 18.57649 23.93701 21.25675
#
# Velocity S-wave (km/s) = 3.17031 3.59878 3.39132
# Velocity P-wave (km/s) = 6.79751 8.10863 7.48184
#
# Compressibility (1/GPa) = 0.01649307
#
# Stress axis : x y z
#
# Youngs Moduli (GPa) = 76.26979 30.76936 81.28620
#
# Poissons Ratio (x) = 0.25175 0.28106
# Poissons Ratio (y) = 0.62403 0.73731
# Poissons Ratio (z) = 0.26372 0.27910
#
# Static dielectric constant tensor:
#      x y z
#    x 1.606180 0.000000 0.005470 
#    y 0.000000 1.624400 0.000000 
#    z 0.005470 0.000000 1.624270 
# 
# From -- ./inp_files/172292.got.cif
#   From: 2010.05.17/outbox.cif.g08.bks.cpg/sg12_87_cif.got.tgz:172292.got - 2010.06.03 13:09:07.
