data_PCOD9205135
_publ_section_title
;
Structure prediction by ZEFSAII (Michael W. Deem and Ramdas Pophale) SiO2 
 PCOD9205135
Probable space group: C 2/M
;
_chemical_formula_sum "Si O2"
_cell_formula_units_Z 40
_cell_length_a 20.637047
_cell_length_b 7.655735
_cell_length_c 16.438379
_cell_angle_alpha 90.000000
_cell_angle_beta 62.606698
_cell_angle_gamma 90.000000
_cell_volume 2305.910327
_symmetry_space_group_name_H-M "C 2/M"
_symmetry_group_IT_number 12
_symmetry_cell_setting 'monoclinic'
loop_
_space_group_symop_operation_xyz
x,y,z
-x,y,-z
-x,-y,-z
x,-y,z
1/2+x,1/2+y,z
1/2-x,1/2+y,-z
1/2-x,1/2-y,-z
1/2+x,1/2-y,z
loop_
_atom_site_type_symbol
_atom_site_label
_atom_site_fract_x
_atom_site_fract_y
_atom_site_fract_z
Si Si1 0.040886 0.703783 0.554038
Si Si2 0.480826 0.206722 0.250541
Si Si3 0.617922 0.500000 0.899000
Si Si4 0.207813 0.791929 0.441235
Si Si5 0.172316 0.294363 0.756538
Si Si6 0.963008 0.000000 0.892462
O O1 0.019868 0.500000 0.570100
O O2 0.021773 0.771837 0.654847
O O3 0.127364 0.714476 0.490644
O O4 0.000000 0.783468 0.500000
O O5 0.398955 0.222747 0.260645
O O6 0.532490 0.328465 0.166425
O O7 0.499208 0.000000 0.236218
O O8 0.658693 0.670870 0.841294
O O9 0.539032 0.500000 0.899437
O O10 0.600930 0.500000 0.004284
O O11 0.250000 0.750000 0.500000
O O12 0.258065 0.736384 0.336567
O O13 0.200351 0.000000 0.440235
O O14 0.178858 0.500000 0.773198
#
# Coordination Sequence:
#
# PCOD9205135 Si02
#       6
#     8   8   4   8   8   4
#     4  10  21  35  50  74 110 143 175 214 259 312
#     4   9  17  31  48  69 102 136 168 209 254 309
#     4   9  18  30  48  70 103 130 162 219 264 300
#     4  11  21  31  51  77 104 142 177 209 257 312
#     4   9  18  30  46  73 102 131 169 209 255 310
#     4   9  18  30  47  74  96 132 173 205 264 316
#
# _framework density 17.346729
#
# number of rings (size 3 to 8) (size 9 to 14) (size 15 to 20)
#    0.000    2.400    2.000    0.600    4.200    1.200 
#    0.000    4.000    0.000    0.000    0.000    1.400 
#    0.000    0.000    0.000    0.000    0.000    0.000 
#
# Total GULP energy -111492.278393 kJ/mol
# GULP energy per Si atom -5574.613920 kJ/mol
# Density = 1.730725 g / cm^3
# Si number density = 17.346729 Si / 1000 Ang^3
#
#
#
# Elastic Constant Matrix: (Units=GPa)
#
#
# Indices 1 2 3 4 5 6 
#
# 1 53.6163 9.7757 36.6198 0.0000 10.5368 0.0002
# 2 9.7757 67.6322 61.7567 0.0000 13.1287 0.0004
# 3 36.6198 61.7567 186.9300 0.0000 14.1435 0.0000
# 4 0.0000 0.0000 0.0000 29.7690 0.0000 -0.5947
# 5 10.5368 13.1287 14.1435 0.0000 11.3571 0.0000
# 6 0.0002 0.0004 0.0000 -0.5947 0.0000 6.8812
#
#
#
# Elastic Compliance Matrix: (Units=1/GPa)
#
#
# Indices 1 2 3 4 5 6 
#
# 1 0.025841 0.005586 -0.005084 0.000000 -0.024100 -0.000001
# 2 0.005586 0.026035 -0.007757 0.000000 -0.025618 -0.000002
# 3 -0.005084 -0.007757 0.008692 0.000000 0.002860 0.000001
# 4 0.000000 0.000000 0.000000 0.033650 0.000000 0.002908
# 5 -0.024100 -0.025618 0.002860 0.000000 0.136464 0.000003
# 6 -0.000001 -0.000002 0.000001 0.002908 0.000003 0.145575
#
#
# Mechanical properties :
#
#
# Convention : Reuss Voigt Hill
#
# Bulk Modulus (GPa) = 21.71231 58.27588 39.99410
# Shear Modulus (GPa) = 12.31161 22.93653 17.62407
#
# Velocity S-wave (km/s) = 2.66698 3.64021 3.19091
# Velocity P-wave (km/s) = 4.69335 7.16490 6.05654
#
# Compressibility (1/GPa) = 0.04605682
#
# Stress axis : x y z
#
# Youngs Moduli (GPa) = 38.69754 38.41039 115.04859
#
# Poissons Ratio (x) = -0.21455 0.58494
# Poissons Ratio (y) = -0.21615 0.89244
# Poissons Ratio (z) = 0.19675 0.29795
#
# Static dielectric constant tensor:
#      x y z
#    x 1.567810 0.000000 0.014470 
#    y 0.000000 1.615830 0.000000 
#    z 0.014470 0.000000 1.587080 
# 
# From -- ./inp_files/162555.got.cif
#   From: 2010.05.17/outbox.cif.g08.bks.cpg/sg12_82_cif.got.tgz:162555.got - 2010.06.03 13:09:07.
