data_PCOD9205607
_publ_section_title
;
Structure prediction by ZEFSAII (Michael W. Deem and Ramdas Pophale) SiO2 
 PCOD9205607
Probable space group: C 2/M
;
_chemical_formula_sum "Si O2"
_cell_formula_units_Z 52
_cell_length_a 17.509475
_cell_length_b 14.354590
_cell_length_c 22.299935
_cell_angle_alpha 90.000000
_cell_angle_beta 28.028342
_cell_angle_gamma 90.000000
_cell_volume 2633.786687
_symmetry_space_group_name_H-M "C 2/M"
_symmetry_group_IT_number 12
_symmetry_cell_setting 'monoclinic'
loop_
_space_group_symop_operation_xyz
x,y,z
-x,y,-z
-x,-y,-z
x,-y,z
1/2+x,1/2+y,z
1/2-x,1/2+y,-z
1/2-x,1/2-y,-z
1/2+x,1/2-y,z
loop_
_atom_site_type_symbol
_atom_site_label
_atom_site_fract_x
_atom_site_fract_y
_atom_site_fract_z
Si Si1 0.103378 0.500000 0.254062
Si Si2 0.239063 0.193950 0.687054
Si Si3 0.476785 0.655735 0.343092
Si Si4 0.638864 0.850320 0.524666
Si Si5 0.860546 0.896215 0.647224
Si Si6 0.336595 0.500000 0.194512
Si Si7 0.809165 0.000000 0.999306
Si Si8 0.617729 0.315855 0.120627
O O1 0.272388 0.500000 0.172101
O O2 0.997371 0.414427 0.351588
O O3 0.150908 0.500000 0.151368
O O4 0.356201 0.165795 0.550238
O O5 0.278632 0.293347 0.691961
O O6 0.227898 0.098299 0.733038
O O7 0.061571 0.207955 0.779932
O O8 0.402671 0.749380 0.421543
O O9 0.316238 0.612136 0.422810
O O10 0.561156 0.606211 0.340596
O O11 0.601695 0.679799 0.203375
O O12 0.000000 0.897637 0.500000
O O13 0.775922 0.000000 0.700029
O O14 0.527642 0.500000 0.073726
O O15 0.827298 0.913713 0.943304
O O16 0.750000 0.250000 0.000000
#
# Coordination Sequence:
#
# PCOD9205607 Si02
#       8
#     4   8   8   8   8   4   4   8
#     4  12  22  34  61  95 119 153 205 264 332 386
#     4  10  21  41  61  94 132 160 213 257 326 387
#     4  10  21  38  61  85 126 163 209 258 312 376
#     4  10  21  35  58  94 123 153 206 264 313 379
#     4  11  23  39  61  92 133 174 205 256 325 386
#     4  10  22  36  65  87 124 167 195 272 322 391
#     4  10  23  42  56  88 122 158 215 260 330 377
#     4  10  22  42  65  88 120 173 212 267 312 370
#
# _framework density 19.743437
#
# number of rings (size 3 to 8) (size 9 to 14) (size 15 to 20)
#    0.000    1.692    1.538    2.538    2.154    1.846 
#    1.385    2.308    0.000    0.923    0.000    0.000 
#    0.000    0.000    0.000    0.000    0.000    0.000 
#
# Total GULP energy -144811.863162 kJ/mol
# GULP energy per Si atom -5569.687045 kJ/mol
# Density = 1.969850 g / cm^3
# Si number density = 19.743437 Si / 1000 Ang^3
#
#
#
# Elastic Constant Matrix: (Units=GPa)
#
#
# Indices 1 2 3 4 5 6 
#
# 1 72.6729 18.3464 19.2676 -0.0009 27.2102 0.0002
# 2 18.3464 120.9723 11.7648 -0.0048 -0.8044 0.0038
# 3 19.2676 11.7648 96.4376 -0.0054 27.8525 0.0043
# 4 -0.0009 -0.0048 -0.0054 -10.4463 0.0018 -7.0480
# 5 27.2102 -0.8044 27.8525 0.0018 25.0348 -0.0003
# 6 0.0002 0.0038 0.0043 -7.0480 -0.0003 39.8122
#
#
#
# Elastic Compliance Matrix: (Units=1/GPa)
#
#
# Indices 1 2 3 4 5 6 
#
# 1 0.026737 -0.004817 0.005427 -0.000008 -0.035253 -0.000002
# 2 -0.004817 0.009307 -0.002610 -0.000001 0.008439 -0.000001
# 3 0.005427 -0.002610 0.016696 -0.000010 -0.024558 -0.000004
# 4 -0.000008 -0.000001 -0.000010 -0.085514 0.000025 -0.015139
# 5 -0.035253 0.008439 -0.024558 0.000025 0.105855 0.000007
# 6 -0.000002 -0.000001 -0.000004 -0.015139 0.000007 0.022438
#
#
# Mechanical properties :
#
#
# Convention : Reuss Voigt Hill
#
# Bulk Modulus (GPa) = 20.51680 43.20447 31.86064
# Shear Modulus (GPa) = 43.19079 26.92707 35.05893
#
# Velocity S-wave (km/s) = 4.68226 3.69704 4.21851
# Velocity P-wave (km/s) = 6.29648 6.33677 6.31665
#
# Compressibility (1/GPa) = 0.04874054
#
# Stress axis : x y z
#
# Youngs Moduli (GPa) = 37.40133 107.44762 59.89364
#
# Poissons Ratio (x) = 0.51759 -0.32507
# Poissons Ratio (y) = 0.18017 0.15633
# Poissons Ratio (z) = -0.20299 0.28045
#
# Static dielectric constant tensor:
#      x y z
#    x 1.741940 0.000000 -0.031550 
#    y 0.000000 1.783390 0.000000 
#    z -0.031550 0.000000 1.671550 
# 
# From -- ./inp_files/316508.got.cif
#   From: 2010.05.17/outbox.cif.g08.bks.cpg/sg12_159_cif.got.tgz:316508.got - 2010.06.03 13:09:07.
