data_PCOD9205531
_publ_section_title
;
Structure prediction by ZEFSAII (Michael W. Deem and Ramdas Pophale) SiO2 
 PCOD9205531
Probable space group: C 2/M
;
_chemical_formula_sum "Si O2"
_cell_formula_units_Z 48
_cell_length_a 22.585288
_cell_length_b 13.357214
_cell_length_c 9.588190
_cell_angle_alpha 90.000000
_cell_angle_beta 68.648252
_cell_angle_gamma 90.000000
_cell_volume 2693.996465
_symmetry_space_group_name_H-M "C 2/M"
_symmetry_group_IT_number 12
_symmetry_cell_setting 'monoclinic'
loop_
_space_group_symop_operation_xyz
x,y,z
-x,y,-z
-x,-y,-z
x,-y,z
1/2+x,1/2+y,z
1/2-x,1/2+y,-z
1/2-x,1/2-y,-z
1/2+x,1/2-y,z
loop_
_atom_site_type_symbol
_atom_site_label
_atom_site_fract_x
_atom_site_fract_y
_atom_site_fract_z
Si Si1 0.345863 0.883954 0.424431
Si Si2 0.043038 0.883731 0.824367
Si Si3 0.486416 0.202639 0.347891
Si Si4 0.339423 0.740041 0.183666
Si Si5 0.221012 0.615552 0.218478
Si Si6 0.891496 0.616073 0.907622
O O1 0.419528 0.853587 0.382399
O O2 0.318952 0.809607 0.330588
O O3 0.310290 0.872684 0.602034
O O4 0.341212 0.000000 0.385644
O O5 0.018507 0.809527 0.725294
O O6 0.113856 0.846538 0.801121
O O7 0.041950 0.000000 0.784885
O O8 0.000000 0.871878 0.000000
O O9 0.500000 0.212545 0.500000
O O10 0.543288 0.142277 0.226238
O O11 0.279630 0.690831 0.158868
O O12 0.379789 0.810912 0.046849
O O13 0.242724 0.500000 0.186628
O O14 0.166397 0.631499 0.151025
O O15 0.891749 0.500000 0.950868
#
# Coordination Sequence:
#
# PCOD9205531 Si02
#       6
#     8   8   8   8   8   8
#     4  10  21  35  57  85 113 147 185 229 279 330
#     4  10  21  38  58  81 109 145 187 230 275 325
#     4  11  21  37  60  85 113 147 184 229 283 333
#     4  11  21  37  57  82 113 149 186 232 277 328
#     4  10  21  37  57  81 110 150 190 225 274 334
#     4  11  22  36  57  86 116 146 185 231 279 332
#
# _framework density 17.817395999999999
#
# number of rings (size 3 to 8) (size 9 to 14) (size 15 to 20)
#    0.000    1.500    3.333    2.500    0.000    1.000 
#    0.000    2.500    0.000    2.000    0.000    0.000 
#    0.000    0.000    0.000    0.000    0.000    0.000 
#
# Total GULP energy -134053.900851 kJ/mol
# GULP energy per Si atom -5585.579202 kJ/mol
# Density = 1.777684 g / cm^3
# Si number density = 17.817396 Si / 1000 Ang^3
#
#
#
# Elastic Constant Matrix: (Units=GPa)
#
#
# Indices 1 2 3 4 5 6 
#
# 1 48.7625 19.4505 -16.5973 0.0000 -7.3750 0.0000
# 2 19.4505 74.3676 2.3065 0.0000 -8.0400 0.0000
# 3 -16.5973 2.3065 33.9882 0.0000 -2.3572 0.0000
# 4 0.0000 0.0000 0.0000 22.2936 0.0000 -0.1832
# 5 -7.3750 -8.0400 -2.3572 0.0000 21.0280 0.0000
# 6 0.0000 0.0000 0.0000 -0.1832 0.0000 22.5170
#
#
#
# Elastic Compliance Matrix: (Units=1/GPa)
#
#
# Indices 1 2 3 4 5 6 
#
# 1 0.030354 -0.007396 0.015991 0.000000 0.009611 0.000000
# 2 -0.007396 0.015840 -0.004481 0.000000 0.002960 0.000000
# 3 0.015991 -0.004481 0.038101 0.000000 0.008166 0.000000
# 4 0.000000 0.000000 0.000000 0.044859 0.000000 0.000365
# 5 0.009611 0.002960 0.008166 0.000000 0.052973 0.000000
# 6 0.000000 0.000000 0.000000 0.000365 0.000000 0.044414
#
#
# Mechanical properties :
#
#
# Convention : Reuss Voigt Hill
#
# Bulk Modulus (GPa) = 10.80809 18.60421 14.70615
# Shear Modulus (GPa) = 20.06782 23.29829 21.68305
#
# Velocity S-wave (km/s) = 3.35969 3.62002 3.49228
# Velocity P-wave (km/s) = 4.59665 5.28554 4.95309
#
# Compressibility (1/GPa) = 0.09252330
#
# Stress axis : x y z
#
# Youngs Moduli (GPa) = 32.94447 63.13081 26.24581
#
# Poissons Ratio (x) = 0.46691 -0.41970
# Poissons Ratio (y) = 0.24366 0.11761
# Poissons Ratio (z) = -0.52682 0.28291
#
# Static dielectric constant tensor:
#      x y z
#    x 1.588120 0.000000 0.000560 
#    y 0.000000 1.585540 0.000000 
#    z 0.000560 0.000000 1.587340 
# 
# From -- ./inp_files/85663.got.cif
#   From: 2010.05.17/outbox.cif.g08.bks.cpg/sg12_43_cif.got.tgz:85663.got - 2010.06.03 13:09:07.
