data_PCOD9205132
_publ_section_title
;
Structure prediction by ZEFSAII (Michael W. Deem and Ramdas Pophale) SiO2 
 PCOD9205132
Probable space group: C 2/M
;
_chemical_formula_sum "Si O2"
_cell_formula_units_Z 56
_cell_length_a 14.958425
_cell_length_b 8.392450
_cell_length_c 31.265115
_cell_angle_alpha 90.000000
_cell_angle_beta 139.035648
_cell_angle_gamma 90.000000
_cell_volume 2573.158538
_symmetry_space_group_name_H-M "C 2/M"
_symmetry_group_IT_number 12
_symmetry_cell_setting 'monoclinic'
loop_
_space_group_symop_operation_xyz
x,y,z
-x,y,-z
-x,-y,-z
x,-y,z
1/2+x,1/2+y,z
1/2-x,1/2+y,-z
1/2-x,1/2-y,-z
1/2+x,1/2-y,z
loop_
_atom_site_type_symbol
_atom_site_label
_atom_site_fract_x
_atom_site_fract_y
_atom_site_fract_z
Si Si1 0.863597 0.823270 0.183949
Si Si2 0.930816 0.307702 0.430977
Si Si3 0.192590 0.817501 0.047872
Si Si4 0.618106 0.695564 0.322184
Si Si5 0.795835 0.680799 0.784358
Si Si6 0.533275 0.692306 0.645768
Si Si7 0.435711 0.688887 0.079828
O O1 0.749534 0.754034 0.111864
O O2 0.796625 0.831924 0.206406
O O3 0.011174 0.745993 0.247116
O O4 0.891059 0.000000 0.176664
O O5 0.930992 0.500000 0.431000
O O6 0.773247 0.253279 0.372901
O O7 0.005501 0.250090 0.415117
O O8 0.000000 0.253791 0.500000
O O9 0.322794 0.790945 0.063837
O O10 0.164101 0.000000 0.046668
O O11 0.070318 0.758920 0.972559
O O12 0.613186 0.500000 0.318926
O O13 0.561827 0.742370 0.348898
O O14 0.838923 0.500000 0.788547
O O15 0.688789 0.748599 0.711618
O O16 0.924671 0.782269 0.844956
O O17 0.537654 0.500000 0.648090
O O18 0.402338 0.500000 0.068676
#
# Coordination Sequence:
#
# PCOD9205132 Si02
#       7
#     8   8   8   8   8   8   8
#     4   9  18  34  55  76 100 138 181 217 268 331
#     4  10  21  36  56  85 116 146 183 225 272 327
#     4  10  21  35  50  73 105 137 176 226 268 311
#     4   8  17  36  57  78 111 150 182 220 276 334
#     4   9  19  35  54  77 104 134 175 226 272 319
#     4   9  19  37  58  80 110 147 185 226 273 326
#     4  10  21  35  51  72 102 141 178 216 271 328
#
# _framework density 21.763134999999998
#
# number of rings (size 3 to 8) (size 9 to 14) (size 15 to 20)
#    0.000    2.714    0.000    2.571    2.000    4.286 
#    0.000    5.714    0.000    0.000    0.000    0.000 
#    0.000    0.000    0.000    0.000    0.000    0.000 
#
# Total GULP energy -156096.606084 kJ/mol
# GULP energy per Si atom -5574.878789 kJ/mol
# Density = 2.171360 g / cm^3
# Si number density = 21.763135 Si / 1000 Ang^3
#
#
#
# Elastic Constant Matrix: (Units=GPa)
#
#
# Indices 1 2 3 4 5 6 
#
# 1 46.5701 0.9937 29.3720 0.0000 -3.1055 0.0000
# 2 0.9937 13.1935 12.2413 0.0000 0.6085 0.0000
# 3 29.3720 12.2413 90.7773 0.0000 -26.1720 0.0000
# 4 0.0000 0.0000 0.0000 13.7532 0.0000 0.4687
# 5 -3.1055 0.6085 -26.1720 0.0000 38.0591 0.0000
# 6 0.0000 0.0000 0.0000 0.4687 0.0000 11.2267
#
#
#
# Elastic Compliance Matrix: (Units=1/GPa)
#
#
# Indices 1 2 3 4 5 6 
#
# 1 0.028669 0.009644 -0.012406 0.000000 -0.006346 0.000000
# 2 0.009644 0.094306 -0.020013 0.000000 -0.014483 0.000000
# 3 -0.012406 -0.020013 0.021864 0.000000 0.014343 0.000000
# 4 0.000000 0.000000 0.000000 0.072814 0.000000 -0.003040
# 5 -0.006346 -0.014483 0.014343 0.000000 0.035852 0.000000
# 6 0.000000 0.000000 0.000000 -0.003040 0.000000 0.089200
#
#
# Mechanical properties :
#
#
# Convention : Reuss Voigt Hill
#
# Bulk Modulus (GPa) = 10.07170 26.19498 18.13334
# Shear Modulus (GPa) = 11.86658 19.80339 15.83499
#
# Velocity S-wave (km/s) = 2.33762 3.01981 2.70034
# Velocity P-wave (km/s) = 3.45309 4.92154 4.25120
#
# Compressibility (1/GPa) = 0.09928808
#
# Stress axis : x y z
#
# Youngs Moduli (GPa) = 34.88119 10.60382 45.73694
#
# Poissons Ratio (x) = -0.10227 0.56743
# Poissons Ratio (y) = -0.33641 0.91535
# Poissons Ratio (z) = 0.43275 0.21222
#
# Static dielectric constant tensor:
#      x y z
#    x 1.819400 0.000000 -0.007650 
#    y 0.000000 1.761150 0.000000 
#    z -0.007650 0.000000 1.869360 
# 
# From -- ./inp_files/375139.got.cif
#   From: 2010.05.17/outbox.cif.g08.bks.cpg/sg12_188_cif.got.tgz:375139.got - 2010.06.03 13:09:07.
