data_PCOD9205893
_publ_section_title
;
Structure prediction by ZEFSAII (Michael W. Deem and Ramdas Pophale) SiO2 
 PCOD9205893
Probable space group: C 2/M
;
_chemical_formula_sum "Si O2"
_cell_formula_units_Z 56
_cell_length_a 27.864865
_cell_length_b 17.764810
_cell_length_c 18.682079
_cell_angle_alpha 90.000000
_cell_angle_beta 18.978663
_cell_angle_gamma 90.000000
_cell_volume 3007.562388
_symmetry_space_group_name_H-M "C 2/M"
_symmetry_group_IT_number 12
_symmetry_cell_setting 'monoclinic'
loop_
_space_group_symop_operation_xyz
x,y,z
-x,y,-z
-x,-y,-z
x,-y,z
1/2+x,1/2+y,z
1/2-x,1/2+y,-z
1/2-x,1/2-y,-z
1/2+x,1/2-y,z
loop_
_atom_site_type_symbol
_atom_site_label
_atom_site_fract_x
_atom_site_fract_y
_atom_site_fract_z
Si Si1 0.041241 0.644972 0.598923
Si Si2 0.910014 0.311673 0.051937
Si Si3 0.091941 0.175894 0.551798
Si Si4 0.228592 0.171059 0.989221
Si Si5 0.681184 0.654970 0.887991
Si Si6 0.585404 0.914080 0.693215
Si Si7 0.890817 0.084209 0.331977
O O1 0.064133 0.734437 0.584617
O O2 0.171727 0.628344 0.359241
O O3 0.054270 0.602480 0.654976
O O4 0.879980 0.629179 0.793863
O O5 0.741849 0.341917 0.298188
O O6 0.887209 0.226516 0.056970
O O7 0.000000 0.314312 0.000000
O O8 0.997748 0.358468 0.868948
O O9 0.123139 0.147737 0.587859
O O10 0.931535 0.140380 0.759366
O O11 0.216358 0.178708 0.920505
O O12 0.250000 0.250000 0.000000
O O13 0.552910 0.593389 0.071347
O O14 0.759819 0.904464 0.461003
O O15 0.546903 0.000000 0.765960
O O16 0.873703 0.000000 0.387166
#
# Coordination Sequence:
#
# PCOD9205893 Si02
#       7
#     8   8   8   8   8   8   8
#     4  10  21  37  59  83 113 150 188 236 276 333
#     4  11  21  35  59  88 116 144 185 237 289 340
#     4   9  19  35  58  86 108 144 186 233 284 332
#     4   9  17  36  59  85 115 144 185 235 284 332
#     4  10  22  35  59  89 113 146 188 235 284 336
#     4  11  24  38  55  81 117 155 191 231 283 341
#     4  10  21  36  54  79 115 151 184 229 280 338
#
# _framework density 18.619730000000001
#
# number of rings (size 3 to 8) (size 9 to 14) (size 15 to 20)
#    0.000    2.000    1.429    3.000    4.000    2.571 
#    0.000    6.429    0.000    5.143    0.000    0.000 
#    0.000    0.000    0.000    0.000    0.000    0.000 
#
# Total GULP energy -156037.303970 kJ/mol
# GULP energy per Si atom -5572.760856 kJ/mol
# Density = 1.857735 g / cm^3
# Si number density = 18.619730 Si / 1000 Ang^3
#
#
#
# Elastic Constant Matrix: (Units=GPa)
#
#
# Indices 1 2 3 4 5 6 
#
# 1 92.2888 6.7250 53.6588 0.0001 -5.5674 0.0000
# 2 6.7250 10.9154 20.5054 0.0004 -2.5021 -0.0001
# 3 53.6588 20.5054 118.9876 0.0000 -16.8824 0.0001
# 4 0.0001 0.0004 0.0000 8.8325 -0.0001 -4.9469
# 5 -5.5674 -2.5021 -16.8824 -0.0001 25.1216 0.0000
# 6 0.0000 -0.0001 0.0001 -4.9469 0.0000 8.6593
#
#
#
# Elastic Compliance Matrix: (Units=1/GPa)
#
#
# Indices 1 2 3 4 5 6 
#
# 1 0.014921 0.005177 -0.007825 0.000000 -0.001436 0.000000
# 2 0.005177 0.137401 -0.026429 -0.000009 -0.002928 -0.000003
# 3 -0.007825 -0.026429 0.017540 0.000002 0.007421 0.000000
# 4 0.000000 -0.000009 0.000002 0.166488 0.000001 0.095110
# 5 -0.001436 -0.002928 0.007421 0.000001 0.044184 0.000001
# 6 0.000000 -0.000003 0.000000 0.095110 0.000001 0.169816
#
#
# Mechanical properties :
#
#
# Convention : Reuss Voigt Hill
#
# Bulk Modulus (GPa) = 8.95178 42.66336 25.80757
# Shear Modulus (GPa) = 7.74306 17.94287 12.84296
#
# Velocity S-wave (km/s) = 2.04146 3.10764 2.62916
# Velocity P-wave (km/s) = 3.22100 5.98659 4.80698
#
# Compressibility (1/GPa) = 0.11170959
#
# Stress axis : x y z
#
# Youngs Moduli (GPa) = 67.01871 7.27799 57.01105
#
# Poissons Ratio (x) = -0.03768 0.44610
# Poissons Ratio (y) = -0.34698 1.50674
# Poissons Ratio (z) = 0.52441 0.19235
#
# Static dielectric constant tensor:
#      x y z
#    x 1.615420 0.000000 -0.014600 
#    y 0.000000 1.620470 0.000000 
#    z -0.014600 0.000000 1.684930 
# 
# From -- ./inp_files/293832.got.cif
#   From: 2010.05.17/outbox.cif.g08.bks.cpg/sg12_147_cif.got.tgz:293832.got - 2010.06.03 13:09:07.
