data_PCOD9205706
_publ_section_title
;
Structure prediction by ZEFSAII (Michael W. Deem and Ramdas Pophale) SiO2 
 PCOD9205706
Probable space group: C 2/M
;
_chemical_formula_sum "Si O2"
_cell_formula_units_Z 64
_cell_length_a 21.892385
_cell_length_b 9.154486
_cell_length_c 14.838279
_cell_angle_alpha 90.000000
_cell_angle_beta 102.853175
_cell_angle_gamma 90.000000
_cell_volume 2899.278551
_symmetry_space_group_name_H-M "C 2/M"
_symmetry_group_IT_number 12
_symmetry_cell_setting 'monoclinic'
loop_
_space_group_symop_operation_xyz
x,y,z
-x,y,-z
-x,-y,-z
x,-y,z
1/2+x,1/2+y,z
1/2-x,1/2+y,-z
1/2-x,1/2-y,-z
1/2+x,1/2-y,z
loop_
_atom_site_type_symbol
_atom_site_label
_atom_site_fract_x
_atom_site_fract_y
_atom_site_fract_z
Si Si1 0.119699 0.174096 0.653407
Si Si2 0.653749 0.324333 0.473232
Si Si3 0.594459 0.175258 0.020612
Si Si4 0.805962 0.668152 0.685440
Si Si5 0.640310 0.824987 0.850963
Si Si6 0.763641 0.674109 0.865709
Si Si7 0.482400 0.672569 0.644082
Si Si8 0.449748 0.169398 0.807751
O O1 0.159656 0.221044 0.579496
O O2 0.128583 0.256309 0.749786
O O3 0.045587 0.195489 0.609009
O O4 0.129688 0.000000 0.669974
O O5 0.658403 0.500000 0.472278
O O6 0.695358 0.257811 0.407232
O O7 0.582427 0.280801 0.422785
O O8 0.666564 0.198321 0.074740
O O9 0.552594 0.229530 0.090698
O O10 0.584185 0.000000 0.016639
O O11 0.594287 0.224918 0.916989
O O12 0.791259 0.500000 0.659570
O O13 0.765649 0.711973 0.759332
O O14 0.877430 0.672533 0.748111
O O15 0.710626 0.769514 0.894968
O O16 0.638400 0.000000 0.846901
O O17 0.750591 0.500000 0.869214
O O18 0.476874 0.500000 0.657312
O O19 0.486938 0.748087 0.742775
O O20 0.469496 0.000000 0.816698
#
# Coordination Sequence:
#
# PCOD9205706 Si02
#       8
#     8   8   8   8   8   8   8   8
#     4  10  21  36  50  67  98 136 165 194 242 295
#     4   9  17  31  53  76  96 123 161 202 242 286
#     4   8  16  32  53  75  99 128 161 197 239 289
#     4   8  15  28  49  76 101 123 151 193 243 292
#     4  11  22  34  49  72 100 129 166 207 239 275
#     4   9  17  33  55  75  98 129 160 193 243 297
#     4   9  17  31  52  76  98 122 159 204 243 284
#     4   8  14  28  50  74  99 125 154 192 241 291
#
# _framework density 22.074456999999999
#
# number of rings (size 3 to 8) (size 9 to 14) (size 15 to 20)
#    0.000    3.000    0.000    2.625    0.000    3.000 
#    0.000    5.000    0.000    7.500    0.000    0.000 
#    0.000    0.000    0.000    0.000    0.000    0.000 
#
# Total GULP energy -178601.117413 kJ/mol
# GULP energy per Si atom -5581.284919 kJ/mol
# Density = 2.202421 g / cm^3
# Si number density = 22.074457 Si / 1000 Ang^3
#
#
#
# Elastic Constant Matrix: (Units=GPa)
#
#
# Indices 1 2 3 4 5 6 
#
# 1 78.2973 18.4069 34.4680 0.0000 -21.8554 0.0000
# 2 18.4069 14.1582 39.4895 0.0000 -18.9414 0.0000
# 3 34.4680 39.4895 178.1366 0.0000 -36.9351 0.0000
# 4 0.0000 0.0000 0.0000 24.2689 0.0000 -7.6570
# 5 -21.8554 -18.9414 -36.9351 0.0000 49.5283 0.0000
# 6 0.0000 0.0000 0.0000 -7.6570 0.0000 18.7870
#
#
#
# Elastic Compliance Matrix: (Units=1/GPa)
#
#
# Indices 1 2 3 4 5 6 
#
# 1 0.020843 -0.055127 0.006770 0.000000 -0.006836 0.000000
# 2 -0.055127 0.524274 -0.081652 0.000000 0.115285 0.000000
# 3 0.006770 -0.081652 0.019576 0.000000 -0.013640 0.000000
# 4 0.000000 0.000000 0.000000 0.047285 0.000000 0.019272
# 5 -0.006836 0.115285 -0.013640 0.000000 0.051091 0.000000
# 6 0.000000 0.000000 0.000000 0.019272 0.000000 0.061083
#
#
# Mechanical properties :
#
#
# Convention : Reuss Voigt Hill
#
# Bulk Modulus (GPa) = 3.28217 50.59121 26.93669
# Shear Modulus (GPa) = 4.60520 30.39868 17.50194
#
# Velocity S-wave (km/s) = 1.44594 3.71495 2.81883
# Velocity P-wave (km/s) = 2.06827 6.43190 4.77740
#
# Compressibility (1/GPa) = 0.30467610
#
# Stress axis : x y z
#
# Youngs Moduli (GPa) = 47.97755 1.90740 51.08281
#
# Poissons Ratio (x) = 0.10515 -0.34584
# Poissons Ratio (y) = 2.64487 4.17099
# Poissons Ratio (z) = -0.32482 0.15574
#
# Static dielectric constant tensor:
#      x y z
#    x 1.883890 0.000000 0.061840 
#    y 0.000000 1.723520 0.000000 
#    z 0.061840 0.000000 1.866760 
# 
# From -- ./inp_files/244070.got.cif
#   From: 2010.05.17/outbox.cif.g08.bks.cpg/sg12_123_cif.got.tgz:244070.got - 2010.06.03 13:09:07.
