data_PCOD9205655
_publ_section_title
;
Structure prediction by ZEFSAII (Michael W. Deem and Ramdas Pophale) SiO2 
 PCOD9205655
Probable space group: C 2/M
;
_chemical_formula_sum "Si O2"
_cell_formula_units_Z 64
_cell_length_a 17.623794
_cell_length_b 10.974108
_cell_length_c 32.006684
_cell_angle_alpha 90.000000
_cell_angle_beta 28.862924
_cell_angle_gamma 90.000000
_cell_volume 2988.139080
_symmetry_space_group_name_H-M "C 2/M"
_symmetry_group_IT_number 12
_symmetry_cell_setting 'monoclinic'
loop_
_space_group_symop_operation_xyz
x,y,z
-x,y,-z
-x,-y,-z
x,-y,z
1/2+x,1/2+y,z
1/2-x,1/2+y,-z
1/2-x,1/2-y,-z
1/2+x,1/2-y,z
loop_
_atom_site_type_symbol
_atom_site_label
_atom_site_fract_x
_atom_site_fract_y
_atom_site_fract_z
Si Si1 0.235982 0.752235 0.212991
Si Si2 0.015683 0.365097 0.037751
Si Si3 0.827958 0.213756 0.918654
Si Si4 0.065090 0.865696 0.615596
Si Si5 0.742405 0.638253 0.351874
Si Si6 0.266127 0.360384 0.551643
Si Si7 0.883194 0.634740 0.813444
Si Si8 0.193240 0.862617 0.738608
O O1 0.413644 0.796244 0.121169
O O2 0.174826 0.716558 0.196734
O O3 0.236270 0.650728 0.248814
O O4 0.118457 0.854401 0.286722
O O5 0.945217 0.500000 0.068277
O O6 0.196763 0.372445 0.961900
O O7 0.000000 0.304408 0.000000
O O8 0.829523 0.325166 0.885185
O O9 0.004495 0.161286 0.833395
O O10 0.750000 0.250000 0.000000
O O11 0.147302 0.749882 0.598267
O O12 0.106225 0.854790 0.546831
O O13 0.122860 0.000000 0.601562
O O14 0.703554 0.500000 0.354923
O O15 0.667245 0.655874 0.433992
O O16 0.733691 0.753301 0.324860
O O17 0.928182 0.635935 0.274595
O O18 0.199155 0.500000 0.582115
O O19 0.826116 0.500000 0.831581
O O20 0.219341 0.000000 0.709935
#
# Coordination Sequence:
#
# PCOD9205655 Si02
#       8
#     8   8   8   8   8   8   8   8
#     4  12  22  40  58  87 128 159 201 252 307 367
#     4  11  23  39  58  81 116 159 203 249 304 359
#     4  11  22  43  60  85 118 156 203 255 303 367
#     4  10  21  35  60  97 128 160 206 256 306 361
#     4   9  19  39  63  87 119 162 204 247 304 370
#     4   9  18  37  63  92 126 164 205 251 307 367
#     4  10  21  37  61  86 113 156 201 247 300 359
#     4  11  25  40  62  92 123 162 206 259 315 364
#
# _framework density 21.418012000000001
#
# number of rings (size 3 to 8) (size 9 to 14) (size 15 to 20)
#    0.000    1.625    3.750    1.125    0.000    3.000 
#    0.000    1.250    0.000    3.000    0.000    0.000 
#    0.000    0.000    0.000    0.000    0.000    0.000 
#
# Total GULP energy -178441.598657 kJ/mol
# GULP energy per Si atom -5576.299958 kJ/mol
# Density = 2.136926 g / cm^3
# Si number density = 21.418012 Si / 1000 Ang^3
#
#
#
# Elastic Constant Matrix: (Units=GPa)
#
#
# Indices 1 2 3 4 5 6 
#
# 1 77.3375 31.6878 27.2608 0.0000 15.9389 0.0004
# 2 31.6878 126.3629 40.8681 -0.0001 17.3168 0.0003
# 3 27.2608 40.8681 66.9841 0.0001 23.9333 0.0002
# 4 0.0000 -0.0001 0.0001 17.0799 0.0000 -3.1180
# 5 15.9389 17.3168 23.9333 0.0000 37.1679 0.0000
# 6 0.0004 0.0003 0.0002 -3.1180 0.0000 13.6605
#
#
#
# Elastic Compliance Matrix: (Units=1/GPa)
#
#
# Indices 1 2 3 4 5 6 
#
# 1 0.015916 -0.002276 -0.003934 0.000000 -0.003232 0.000000
# 2 -0.002276 0.010210 -0.005133 0.000000 -0.000476 0.000000
# 3 -0.003934 -0.005133 0.023644 0.000000 -0.011147 0.000000
# 4 0.000000 0.000000 0.000000 0.061094 0.000000 0.013945
# 5 -0.003232 -0.000476 -0.011147 0.000000 0.035690 0.000000
# 6 0.000000 0.000000 0.000000 0.013945 0.000000 0.076387
#
#
# Mechanical properties :
#
#
# Convention : Reuss Voigt Hill
#
# Bulk Modulus (GPa) = 36.92235 52.25753 44.58994
# Shear Modulus (GPa) = 19.63447 24.97284 22.30365
#
# Velocity S-wave (km/s) = 3.03103 3.41834 3.23050
# Velocity P-wave (km/s) = 5.43377 6.32708 5.89736
#
# Compressibility (1/GPa) = 0.02708386
#
# Stress axis : x y z
#
# Youngs Moduli (GPa) = 62.83153 97.94599 42.29341
#
# Poissons Ratio (x) = 0.22292 0.16638
# Poissons Ratio (y) = 0.14300 0.21709
# Poissons Ratio (z) = 0.24718 0.50275
#
# Static dielectric constant tensor:
#      x y z
#    x 1.802630 0.000000 -0.000330 
#    y 0.000000 1.788760 0.000000 
#    z -0.000330 0.000000 1.817550 
# 
# From -- ./inp_files/379073.got.cif
#   From: 2010.05.17/outbox.cif.g08.bks.cpg/sg12_190_cif.got.tgz:379073.got - 2010.06.03 13:09:07.
