data_PCOD9205693
_publ_section_title
;
Structure prediction by ZEFSAII (Michael W. Deem and Ramdas Pophale) SiO2 
 PCOD9205693
Probable space group: C 2/M
;
_chemical_formula_sum "Si O2"
_cell_formula_units_Z 34
_cell_length_a 8.842936
_cell_length_b 18.349238
_cell_length_c 15.875858
_cell_angle_alpha 90.000000
_cell_angle_beta 139.973711
_cell_angle_gamma 90.000000
_cell_volume 1656.748495
_symmetry_space_group_name_H-M "C 2/M"
_symmetry_group_IT_number 12
_symmetry_cell_setting 'monoclinic'
loop_
_space_group_symop_operation_xyz
x,y,z
-x,y,-z
-x,-y,-z
x,-y,z
1/2+x,1/2+y,z
1/2-x,1/2+y,-z
1/2-x,1/2-y,-z
1/2+x,1/2-y,z
loop_
_atom_site_type_symbol
_atom_site_label
_atom_site_fract_x
_atom_site_fract_y
_atom_site_fract_z
Si Si1 0.147895 0.307060 0.388200
Si Si2 0.308758 0.357807 0.143048
Si Si3 0.249029 0.413819 0.561357
Si Si4 0.500000 0.000000 0.000000
Si Si5 0.855268 0.753094 0.796886
O O1 0.250000 0.250000 0.500000
O O2 0.235336 0.383765 0.460617
O O3 0.209408 0.283881 0.320362
O O4 0.865914 0.302590 0.271756
O O5 0.537817 0.376477 0.298343
O O6 0.138949 0.311239 0.132401
O O7 0.418532 0.304068 0.119722
O O8 0.197060 0.434317 0.069533
O O9 0.278682 0.500000 0.576513
O O10 0.000000 0.395105 0.500000
#
# Coordination Sequence:
#
# PCOD9205693 Si02
#       5
#     8   8   8   2   8
#     4  11  17  31  57  95 128 153 177 241 295 388
#     4  11  23  41  64  88 118 165 202 260 289 363
#     4  11  20  32  56  94 127 162 190 234 311 375
#     4  12  28  48  62  80 120 162 224 256 310 330
#     4  10  21  35  64  92 123 153 201 237 312 359
#
# _framework density 20.522126
#
# number of rings (size 3 to 8) (size 9 to 14) (size 15 to 20)
#    0.000    1.176    8.235    0.706    0.000    0.941 
#    2.118    1.176    0.000    5.647    0.000    0.000 
#    0.000    0.000    0.000    0.000    0.000    0.000 
#
# Total GULP energy -94693.852419 kJ/mol
# GULP energy per Si atom -5570.226613 kJ/mol
# Density = 2.047542 g / cm^3
# Si number density = 20.522126 Si / 1000 Ang^3
#
#
#
# Elastic Constant Matrix: (Units=GPa)
#
#
# Indices 1 2 3 4 5 6 
#
# 1 87.5233 45.8065 23.5565 0.0002 13.8999 0.0001
# 2 45.8065 149.2839 37.1155 0.0001 10.1805 0.0000
# 3 23.5565 37.1155 59.9220 0.0006 11.0596 0.0003
# 4 0.0002 0.0001 0.0006 44.7765 0.0003 13.1418
# 5 13.8999 10.1805 11.0596 0.0003 27.1205 0.0001
# 6 0.0001 0.0000 0.0003 13.1418 0.0001 27.3637
#
#
#
# Elastic Compliance Matrix: (Units=1/GPa)
#
#
# Indices 1 2 3 4 5 6 
#
# 1 0.014815 -0.003525 -0.002685 0.000000 -0.005175 0.000000
# 2 -0.003525 0.008785 -0.004088 0.000000 0.000176 0.000000
# 3 -0.002685 -0.004088 0.021345 0.000000 -0.005794 0.000000
# 4 0.000000 0.000000 0.000000 0.025998 0.000000 -0.012486
# 5 -0.005175 0.000176 -0.005794 0.000000 0.041821 0.000000
# 6 0.000000 0.000000 0.000000 -0.012486 0.000000 0.042541
#
#
# Mechanical properties :
#
#
# Convention : Reuss Voigt Hill
#
# Bulk Modulus (GPa) = 41.07130 56.63180 48.85155
# Shear Modulus (GPa) = 27.17120 32.53553 29.85337
#
# Velocity S-wave (km/s) = 3.64262 3.98601 3.81818
# Velocity P-wave (km/s) = 6.14396 6.98855 6.57982
#
# Compressibility (1/GPa) = 0.02434790
#
# Stress axis : x y z
#
# Youngs Moduli (GPa) = 67.49855 113.83446 46.84852
#
# Poissons Ratio (x) = 0.40130 0.12581
# Poissons Ratio (y) = 0.23796 0.19151
# Poissons Ratio (z) = 0.18126 0.46534
#
# Static dielectric constant tensor:
#      x y z
#    x 1.768160 0.000000 0.040170 
#    y 0.000000 1.728960 0.000000 
#    z 0.040170 0.000000 1.769430 
# 
# From -- ./inp_files/118495.got.cif
#   From: 2010.05.17/outbox.cif.g08.bks.cpg/sg12_60_cif.got.tgz:118495.got - 2010.06.03 13:09:07.
