data_PCOD9205075
_publ_section_title
;
Structure prediction by ZEFSAII (Michael W. Deem and Ramdas Pophale) SiO2 
 PCOD9205075
Probable space group: C 2/M
;
_chemical_formula_sum "Si O2"
_cell_formula_units_Z 48
_cell_length_a 23.002631
_cell_length_b 12.283142
_cell_length_c 14.627985
_cell_angle_alpha 90.000000
_cell_angle_beta 139.921639
_cell_angle_gamma 90.000000
_cell_volume 2661.006084
_symmetry_space_group_name_H-M "C 2/M"
_symmetry_group_IT_number 12
_symmetry_cell_setting 'monoclinic'
loop_
_space_group_symop_operation_xyz
x,y,z
-x,y,-z
-x,-y,-z
x,-y,z
1/2+x,1/2+y,z
1/2-x,1/2+y,-z
1/2-x,1/2-y,-z
1/2+x,1/2-y,z
loop_
_atom_site_type_symbol
_atom_site_label
_atom_site_fract_x
_atom_site_fract_y
_atom_site_fract_z
Si Si1 0.192483 0.734789 0.522872
Si Si2 0.304381 0.714341 0.977302
Si Si3 0.000000 0.302822 0.000000
Si Si4 0.199123 0.374117 0.199032
Si Si5 0.039274 0.500000 0.775176
Si Si6 0.498672 0.238178 0.201672
Si Si7 0.349652 0.000000 0.449337
Si Si8 0.804271 0.500000 0.187816
O O1 0.250000 0.750000 0.500000
O O2 0.235315 0.815583 0.649118
O O3 0.194972 0.610679 0.564443
O O4 0.088636 0.757161 0.368302
O O5 0.296488 0.804761 0.888646
O O6 0.258736 0.604757 0.889319
O O7 0.250000 0.750000 0.000000
O O8 0.409682 0.700066 0.127544
O O9 0.094798 0.366560 0.107290
O O10 0.009642 0.238061 0.107049
O O11 0.222711 0.500000 0.213900
O O12 0.027925 0.609659 0.820387
O O13 0.127840 0.500000 0.817579
O O14 0.952471 0.500000 0.606008
O O15 0.352378 0.000000 0.343455
#
# Coordination Sequence:
#
# PCOD9205075 Si02
#       8
#     8   8   4   8   4   8   4   4
#     4  11  22  41  62  90 126 164 202 247 305 364
#     4  11  24  40  62  90 124 161 202 255 305 361
#     4  10  21  34  62  91 122 151 202 260 299 352
#     4  11  24  39  64  93 121 160 203 254 306 358
#     4  10  21  35  64  90 115 152 209 268 297 338
#     4  10  22  37  59  93 123 158 203 250 304 359
#     4  10  23  40  60  93 119 157 213 253 301 357
#     4  12  21  42  62  85 121 166 204 251 307 358
#
# _framework density 18.038291000000001
#
# number of rings (size 3 to 8) (size 9 to 14) (size 15 to 20)
#    0.000    1.333    5.000    0.500    8.167    0.000 
#    1.500    0.833    0.000    4.500    0.000    0.000 
#    0.000    0.000    0.000    0.000    0.000    0.000 
#
# Total GULP energy -133904.248661 kJ/mol
# GULP energy per Si atom -5579.343694 kJ/mol
# Density = 1.799723 g / cm^3
# Si number density = 18.038291 Si / 1000 Ang^3
#
#
#
# Elastic Constant Matrix: (Units=GPa)
#
#
# Indices 1 2 3 4 5 6 
#
# 1 114.7988 33.1353 50.4723 0.0000 4.3878 0.0000
# 2 33.1353 101.2860 49.0989 0.0000 7.2241 0.0000
# 3 50.4723 49.0989 133.4962 0.0000 -0.9216 0.0000
# 4 0.0000 0.0000 0.0000 19.5719 0.0000 -0.4007
# 5 4.3878 7.2241 -0.9216 0.0000 27.6242 0.0000
# 6 0.0000 0.0000 0.0000 -0.4007 0.0000 17.1863
#
#
#
# Elastic Compliance Matrix: (Units=1/GPa)
#
#
# Indices 1 2 3 4 5 6 
#
# 1 0.010784 -0.001764 -0.003438 0.000000 -0.001366 0.000000
# 2 -0.001764 0.012610 -0.003993 0.000000 -0.003151 0.000000
# 3 -0.003438 -0.003993 0.010272 0.000000 0.001933 0.000000
# 4 0.000000 0.000000 0.000000 0.051118 0.000000 0.001192
# 5 -0.001366 -0.003151 0.001933 0.000000 0.037306 0.000000
# 6 0.000000 0.000000 0.000000 0.001192 0.000000 0.058214
#
#
# Mechanical properties :
#
#
# Convention : Reuss Voigt Hill
#
# Bulk Modulus (GPa) = 65.45586 68.33266 66.89426
# Shear Modulus (GPa) = 24.53558 27.33478 25.93518
#
# Velocity S-wave (km/s) = 3.69208 3.89700 3.79593
# Velocity P-wave (km/s) = 7.38520 7.62975 7.50847
#
# Compressibility (1/GPa) = 0.01527747
#
# Stress axis : x y z
#
# Youngs Moduli (GPa) = 92.73259 79.29986 97.34738
#
# Poissons Ratio (x) = 0.13988 0.33466
# Poissons Ratio (y) = 0.16357 0.38869
# Poissons Ratio (z) = 0.31879 0.31663
#
# Static dielectric constant tensor:
#      x y z
#    x 1.615580 0.000000 -0.007850 
#    y 0.000000 1.637530 0.000000 
#    z -0.007850 0.000000 1.642860 
# 
# From -- ./inp_files/232852.got.cif
#   From: 2010.05.17/outbox.cif.g08.bks.cpg/sg12_117_cif.got.tgz:232852.got - 2010.06.03 13:09:07.
