data_PCOD9205225
_publ_section_title
;
Structure prediction by ZEFSAII (Michael W. Deem and Ramdas Pophale) SiO2 
 PCOD9205225
Probable space group: C 2/M
;
_chemical_formula_sum "Si O2"
_cell_formula_units_Z 64
_cell_length_a 19.760783
_cell_length_b 7.470696
_cell_length_c 19.457999
_cell_angle_alpha 90.000000
_cell_angle_beta 101.300422
_cell_angle_gamma 90.000000
_cell_volume 2816.833207
_symmetry_space_group_name_H-M "C 2/M"
_symmetry_group_IT_number 12
_symmetry_cell_setting 'monoclinic'
loop_
_space_group_symop_operation_xyz
x,y,z
-x,y,-z
-x,-y,-z
x,-y,z
1/2+x,1/2+y,z
1/2-x,1/2+y,-z
1/2-x,1/2-y,-z
1/2+x,1/2-y,z
loop_
_atom_site_type_symbol
_atom_site_label
_atom_site_fract_x
_atom_site_fract_y
_atom_site_fract_z
Si Si1 0.087246 0.294410 0.170927
Si Si2 0.078914 0.718612 0.512798
Si Si3 0.308833 0.212940 0.568130
Si Si4 0.950021 0.281117 0.216095
Si Si5 0.168073 0.712763 0.060229
Si Si6 0.369932 0.781016 0.329325
Si Si7 0.675793 0.215631 0.905726
Si Si8 0.281493 0.296555 0.717991
O O1 0.067714 0.500000 0.152024
O O2 0.113492 0.213544 0.104179
O O3 0.154354 0.295263 0.232830
O O4 0.021846 0.216474 0.198190
O O5 0.079820 0.500000 0.512702
O O6 0.120542 0.775095 0.453780
O O7 0.116802 0.776575 0.590165
O O8 0.000000 0.775743 0.500000
O O9 0.250000 0.250000 0.500000
O O10 0.293104 0.297023 0.638272
O O11 0.312508 0.000000 0.580173
O O12 0.952006 0.500000 0.217943
O O13 0.930449 0.226791 0.289522
O O14 0.885844 0.225842 0.155569
O O15 0.156381 0.500000 0.053559
O O16 0.246734 0.736858 0.101390
O O17 0.165523 0.783295 0.981863
O O18 0.295255 0.720536 0.287487
O O19 0.367288 0.000000 0.329705
O O20 0.673430 0.000000 0.906771
O O21 0.281353 0.500000 0.744173
#
# Coordination Sequence:
#
# PCOD9205225 Si02
#       8
#     8   8   8   8   8   8   8   8
#     4  10  21  35  52  79 107 137 174 220 272 314
#     4   9  18  31  51  78 104 134 173 216 258 302
#     4  11  21  36  58  83 108 138 176 221 268 316
#     4   9  18  31  51  77 105 136 178 222 261 313
#     4   9  18  32  52  79 111 138 172 220 267 314
#     4   9  17  31  50  74 101 133 176 219 254 303
#     4   9  17  32  54  79 105 142 181 214 257 314
#     4  11  22  37  56  78 106 140 178 221 263 315
#
# _framework density 22.720551
#
# number of rings (size 3 to 8) (size 9 to 14) (size 15 to 20)
#    0.000    2.375    1.250    1.500    1.750    2.000 
#    0.000    3.125    0.000    4.500    0.000    4.375 
#    0.000    0.000    0.000    0.000    0.000    0.000 
#
# Total GULP energy -178785.061088 kJ/mol
# GULP energy per Si atom -5587.033159 kJ/mol
# Density = 2.266884 g / cm^3
# Si number density = 22.720551 Si / 1000 Ang^3
#
#
#
# Elastic Constant Matrix: (Units=GPa)
#
#
# Indices 1 2 3 4 5 6 
#
# 1 112.6118 -3.4044 20.4328 0.0000 -37.9939 0.0000
# 2 -3.4044 69.4914 -6.3078 0.0000 -3.7611 0.0000
# 3 20.4328 -6.3078 63.8407 0.0000 -27.2547 0.0000
# 4 0.0000 0.0000 0.0000 6.8525 0.0000 7.4110
# 5 -37.9939 -3.7611 -27.2547 0.0000 42.9842 0.0000
# 6 0.0000 0.0000 0.0000 7.4110 0.0000 9.1726
#
#
#
# Elastic Compliance Matrix: (Units=1/GPa)
#
#
# Indices 1 2 3 4 5 6 
#
# 1 0.012832 0.001408 0.001271 0.000000 0.012272 0.000000
# 2 0.001408 0.014961 0.002904 0.000000 0.004395 0.000000
# 3 0.001271 0.002904 0.022120 0.000000 0.015403 0.000000
# 4 0.000000 0.000000 0.000000 1.156329 0.000000 -0.934258
# 5 0.012272 0.004395 0.015403 0.000000 0.044262 0.000000
# 6 0.000000 0.000000 0.000000 -0.934258 0.000000 0.863856
#
#
# Mechanical properties :
#
#
# Convention : Reuss Voigt Hill
#
# Bulk Modulus (GPa) = 16.37224 29.70947 23.04085
# Shear Modulus (GPa) = 2.35454 27.48340 14.91897
#
# Velocity S-wave (km/s) = 1.01910 3.48174 2.56526
# Velocity P-wave (km/s) = 2.93365 5.40997 4.35167
#
# Compressibility (1/GPa) = 0.06107901
#
# Stress axis : x y z
#
# Youngs Moduli (GPa) = 77.92807 66.84173 45.20818
#
# Poissons Ratio (x) = -0.09413 -0.05746
# Poissons Ratio (y) = -0.10974 -0.13127
# Poissons Ratio (z) = -0.09905 -0.19409
#
# Static dielectric constant tensor:
#      x y z
#    x 1.817840 0.000000 -0.025120 
#    y 0.000000 1.814080 0.000000 
#    z -0.025120 0.000000 1.829970 
# 
# From -- ./inp_files/314143.got.cif
#   From: 2010.05.17/outbox.cif.g08.bks.cpg/sg12_158_cif.got.tgz:314143.got - 2010.06.03 13:09:07.
