data_PCOD9205762
_publ_section_title
;
Structure prediction by ZEFSAII (Michael W. Deem and Ramdas Pophale) SiO2 
 PCOD9205762
Probable space group: C 2/M
;
_chemical_formula_sum "Si O2"
_cell_formula_units_Z 48
_cell_length_a 16.074271
_cell_length_b 9.467360
_cell_length_c 25.555547
_cell_angle_alpha 90.000000
_cell_angle_beta 33.700173
_cell_angle_gamma 90.000000
_cell_volume 2157.836592
_symmetry_space_group_name_H-M "C 2/M"
_symmetry_group_IT_number 12
_symmetry_cell_setting 'monoclinic'
loop_
_space_group_symop_operation_xyz
x,y,z
-x,y,-z
-x,-y,-z
x,-y,z
1/2+x,1/2+y,z
1/2-x,1/2+y,-z
1/2-x,1/2-y,-z
1/2+x,1/2-y,z
loop_
_atom_site_type_symbol
_atom_site_label
_atom_site_fract_x
_atom_site_fract_y
_atom_site_fract_z
Si Si1 0.882220 0.162404 0.865558
Si Si2 0.966249 0.166794 0.357671
Si Si3 0.758567 0.834017 0.201310
Si Si4 0.095745 0.837497 0.018801
Si Si5 0.315840 0.666484 0.542895
Si Si6 0.278424 0.335010 0.316828
O O1 0.891105 0.165500 0.924589
O O2 0.048514 0.208118 0.761884
O O3 0.861549 0.000000 0.860899
O O4 0.738644 0.252016 0.924330
O O5 0.827687 0.253343 0.406605
O O6 0.944806 0.182495 0.431810
O O7 0.121758 0.234058 0.257663
O O8 0.955805 0.000000 0.351314
O O9 0.761727 0.826509 0.263226
O O10 0.925762 0.790908 0.095459
O O11 0.733928 0.000000 0.201079
O O12 0.108848 0.000000 0.995831
O O13 0.287939 0.500000 0.563392
O O14 0.329143 0.739072 0.592228
O O15 0.259653 0.500000 0.340906
#
# Coordination Sequence:
#
# PCOD9205762 Si02
#       6
#     8   8   8   8   8   8
#     4   8  14  25  42  66  96 128 160 193 231 278
#     4  10  21  36  53  72  95 126 164 203 244 293
#     4   9  18  32  50  74 103 132 162 198 241 287
#     4   8  14  25  42  66  96 128 160 193 231 278
#     4  10  21  36  53  72  95 126 164 203 244 293
#     4   9  18  32  50  74 103 132 162 198 241 287
#
# _framework density 22.244502000000001
#
# number of rings (size 3 to 8) (size 9 to 14) (size 15 to 20)
#    0.000    3.000    0.000    3.000    0.000    4.667 
#    0.000    6.667    0.000    1.000    0.000    7.000 
#    0.000    0.000    0.000    0.000    0.000    0.000 
#
# Total GULP energy -134091.713623 kJ/mol
# GULP energy per Si atom -5587.154734 kJ/mol
# Density = 2.219387 g / cm^3
# Si number density = 22.244502 Si / 1000 Ang^3
#
#
#
# Elastic Constant Matrix: (Units=GPa)
#
#
# Indices 1 2 3 4 5 6 
#
# 1 66.3830 21.1020 26.5267 0.0000 -0.4403 0.0000
# 2 21.1020 70.0407 68.6090 0.0000 -12.6185 0.0000
# 3 26.5267 68.6090 145.1335 0.0000 -6.5749 0.0000
# 4 0.0000 0.0000 0.0000 33.2977 0.0000 -1.6408
# 5 -0.4403 -12.6185 -6.5749 0.0000 50.2031 0.0000
# 6 0.0000 0.0000 0.0000 -1.6408 0.0000 12.6451
#
#
#
# Elastic Compliance Matrix: (Units=1/GPa)
#
#
# Indices 1 2 3 4 5 6 
#
# 1 0.016834 -0.004095 -0.001188 0.000000 -0.001037 0.000000
# 2 -0.004095 0.028933 -0.012676 0.000000 0.005576 0.000000
# 3 -0.001188 -0.012676 0.013032 0.000000 -0.001490 0.000000
# 4 0.000000 0.000000 0.000000 0.030225 0.000000 0.003922
# 5 -0.001037 0.005576 -0.001490 0.000000 0.021116 0.000000
# 6 0.000000 0.000000 0.000000 0.003922 0.000000 0.079591
#
#
# Mechanical properties :
#
#
# Convention : Reuss Voigt Hill
#
# Bulk Modulus (GPa) = 43.70534 57.11474 50.41004
# Shear Modulus (GPa) = 21.43373 30.25048 25.84210
#
# Velocity S-wave (km/s) = 3.10748 3.69169 3.41211
# Velocity P-wave (km/s) = 5.70663 6.62594 6.18339
#
# Compressibility (1/GPa) = 0.02288050
#
# Stress axis : x y z
#
# Youngs Moduli (GPa) = 59.40496 34.56254 76.73172
#
# Poissons Ratio (x) = 0.14153 0.09116
# Poissons Ratio (y) = 0.24325 0.97269
# Poissons Ratio (z) = 0.07057 0.43813
#
# Static dielectric constant tensor:
#      x y z
#    x 1.914840 0.000000 0.046670 
#    y 0.000000 1.736660 0.000000 
#    z 0.046670 0.000000 1.813310 
# 
# From -- ./inp_files/123021.got.cif
#   From: 2010.05.17/outbox.cif.g08.bks.cpg/sg12_62_cif.got.tgz:123021.got - 2010.06.03 13:09:07.
