data_PCOD9205175
_publ_section_title
;
Structure prediction by ZEFSAII (Michael W. Deem and Ramdas Pophale) SiO2 
 PCOD9205175
Probable space group: C 2/M
;
_chemical_formula_sum "Si O2"
_cell_formula_units_Z 56
_cell_length_a 22.056530
_cell_length_b 7.705674
_cell_length_c 18.833126
_cell_angle_alpha 90.000000
_cell_angle_beta 122.325275
_cell_angle_gamma 90.000000
_cell_volume 2704.832152
_symmetry_space_group_name_H-M "C 2/M"
_symmetry_group_IT_number 12
_symmetry_cell_setting 'monoclinic'
loop_
_space_group_symop_operation_xyz
x,y,z
-x,y,-z
-x,-y,-z
x,-y,z
1/2+x,1/2+y,z
1/2-x,1/2+y,-z
1/2-x,1/2-y,-z
1/2+x,1/2-y,z
loop_
_atom_site_type_symbol
_atom_site_label
_atom_site_fract_x
_atom_site_fract_y
_atom_site_fract_z
Si Si1 0.642776 0.291038 0.270901
Si Si2 0.790214 0.712475 0.293151
Si Si3 0.920329 0.292604 0.467999
Si Si4 0.335486 0.293037 0.558448
Si Si5 0.238996 0.710737 0.884541
Si Si6 0.365973 0.204246 0.059147
Si Si7 0.489587 0.208787 0.912549
O O1 0.644342 0.500000 0.274674
O O2 0.720617 0.231088 0.293232
O O3 0.633903 0.227885 0.346414
O O4 0.583302 0.245361 0.175197
O O5 0.790812 0.500000 0.294382
O O6 0.862314 0.775129 0.375270
O O7 0.781124 0.766440 0.206445
O O8 0.924122 0.500000 0.460996
O O9 0.884207 0.265683 0.522680
O O10 0.000000 0.224334 0.500000
O O11 0.339213 0.500000 0.560984
O O12 0.250000 0.250000 0.500000
O O13 0.240866 0.500000 0.887940
O O14 0.180836 0.776200 0.905324
O O15 0.316467 0.773933 0.958791
O O16 0.443884 0.277924 0.092378
O O17 0.374296 0.000000 0.079123
O O18 0.496168 0.000000 0.920539
O O19 0.500000 0.273242 0.000000
#
# Coordination Sequence:
#
# PCOD9205175 Si02
#       7
#     8   8   8   8   8   8   8
#     4  10  21  36  56  80 108 145 188 235 281 339
#     4   9  17  33  53  77 106 136 182 231 274 332
#     4  10  21  38  61  87 117 153 192 238 295 356
#     4  11  22  39  62  86 117 153 195 246 297 352
#     4   9  17  30  52  73  96 137 179 218 267 327
#     4   9  18  32  48  72 105 135 171 223 273 321
#     4  10  21  35  51  76 112 145 179 229 281 334
#
# _framework density 20.703686000000001
#
# number of rings (size 3 to 8) (size 9 to 14) (size 15 to 20)
#    0.000    2.286    1.429    1.286    0.000    3.429 
#    0.000    3.571    0.000    0.000    0.000    0.000 
#    0.000    0.000    0.000    0.000    0.000    0.000 
#
# Total GULP energy -156238.729818 kJ/mol
# GULP energy per Si atom -5579.954636 kJ/mol
# Density = 2.065656 g / cm^3
# Si number density = 20.703686 Si / 1000 Ang^3
#
#
#
# Elastic Constant Matrix: (Units=GPa)
#
#
# Indices 1 2 3 4 5 6 
#
# 1 128.4986 -9.1049 56.8805 0.0000 18.7622 0.0000
# 2 -9.1049 25.4899 -23.3812 0.0000 0.7204 0.0000
# 3 56.8805 -23.3812 116.9251 0.0000 -2.9012 0.0000
# 4 0.0000 0.0000 0.0000 21.8021 0.0000 0.7370
# 5 18.7622 0.7204 -2.9012 0.0000 34.1033 0.0000
# 6 0.0000 0.0000 0.0000 0.7370 0.0000 9.1947
#
#
#
# Elastic Compliance Matrix: (Units=1/GPa)
#
#
# Indices 1 2 3 4 5 6 
#
# 1 0.011282 -0.001185 -0.005891 0.000000 -0.006683 0.000000
# 2 -0.001185 0.048169 0.010221 0.000000 0.000504 0.000000
# 3 -0.005891 0.010221 0.013566 0.000000 0.004179 0.000000
# 4 0.000000 0.000000 0.000000 0.045992 0.000000 -0.003686
# 5 -0.006683 0.000504 0.004179 0.000000 0.033344 0.000000
# 6 0.000000 0.000000 0.000000 -0.003686 0.000000 0.109054
#
#
# Mechanical properties :
#
#
# Convention : Reuss Voigt Hill
#
# Bulk Modulus (GPa) = 12.60913 35.52247 24.06580
# Shear Modulus (GPa) = 17.75873 29.45463 23.60668
#
# Velocity S-wave (km/s) = 2.93193 3.77593 3.38037
# Velocity P-wave (km/s) = 4.19107 6.01706 5.18508
#
# Compressibility (1/GPa) = 0.07930762
#
# Stress axis : x y z
#
# Youngs Moduli (GPa) = 88.63961 20.76006 73.71440
#
# Poissons Ratio (x) = 0.02460 0.43425
# Poissons Ratio (y) = 0.10504 -0.75346
# Poissons Ratio (z) = 0.52217 -0.21219
#
# Static dielectric constant tensor:
#      x y z
#    x 1.752720 0.000000 -0.016410 
#    y 0.000000 1.755640 0.000000 
#    z -0.016410 0.000000 1.729460 
# 
# From -- ./inp_files/281757.got.cif
#   From: 2010.05.17/outbox.cif.g08.bks.cpg/sg12_141_cif.got.tgz:281757.got - 2010.06.03 13:09:07.
