data_PCOD9205910
_publ_section_title
;
Structure prediction by ZEFSAII (Michael W. Deem and Ramdas Pophale) SiO2 
 PCOD9205910
Probable space group: C 2/M
;
_chemical_formula_sum "Si O2"
_cell_formula_units_Z 48
_cell_length_a 15.995818
_cell_length_b 9.027744
_cell_length_c 17.190411
_cell_angle_alpha 90.000000
_cell_angle_beta 89.311762
_cell_angle_gamma 90.000000
_cell_volume 2482.221980
_symmetry_space_group_name_H-M "C 2/M"
_symmetry_group_IT_number 12
_symmetry_cell_setting 'monoclinic'
loop_
_space_group_symop_operation_xyz
x,y,z
-x,y,-z
-x,-y,-z
x,-y,z
1/2+x,1/2+y,z
1/2-x,1/2+y,-z
1/2-x,1/2-y,-z
1/2+x,1/2-y,z
loop_
_atom_site_type_symbol
_atom_site_label
_atom_site_fract_x
_atom_site_fract_y
_atom_site_fract_z
Si Si1 0.600161 0.827850 0.494679
Si Si2 0.586049 0.176981 0.183952
Si Si3 0.914596 0.176966 0.181868
Si Si4 0.653177 0.826004 0.665969
Si Si5 0.148861 0.172408 0.335908
Si Si6 0.248963 0.178488 0.915459
O O1 0.500000 0.822884 0.500000
O O2 0.634824 0.778146 0.577869
O O3 0.630439 0.731877 0.422103
O O4 0.625663 0.000000 0.482708
O O5 0.501033 0.249792 0.154198
O O6 0.601234 0.233519 0.271467
O O7 0.667813 0.220660 0.133398
O O8 0.578835 0.000000 0.183348
O O9 0.895334 0.233258 0.269157
O O10 0.834836 0.221269 0.130460
O O11 0.921767 0.000000 0.180688
O O12 0.751974 0.813898 0.679633
O O13 0.628967 0.000000 0.672269
O O14 0.125499 0.000000 0.329512
O O15 0.248882 0.000000 0.921895
O O16 0.250000 0.250000 0.000000
#
# Coordination Sequence:
#
# PCOD9205910 Si02
#       6
#     8   8   8   8   8   8
#     4  10  21  36  54  80 118 163 210 258 308 364
#     4  11  23  42  65  92 126 167 208 251 310 372
#     4  11  23  41  65  96 127 162 208 257 308 364
#     4  10  21  37  58  87 122 165 210 253 309 368
#     4  11  22  36  58  88 120 161 212 260 307 361
#     4  10  24  44  67  94 127 163 202 250 309 371
#
# _framework density 19.337513999999999
#
# number of rings (size 3 to 8) (size 9 to 14) (size 15 to 20)
#    0.000    1.500    1.667    3.000    0.000    6.333 
#    0.000    3.333    0.000    0.000    0.000    0.000 
#    0.000    0.000    0.000    0.000    0.000    0.000 
#
# Total GULP energy -134182.741525 kJ/mol
# GULP energy per Si atom -5590.947564 kJ/mol
# Density = 1.929350 g / cm^3
# Si number density = 19.337514 Si / 1000 Ang^3
#
#
#
# Elastic Constant Matrix: (Units=GPa)
#
#
# Indices 1 2 3 4 5 6 
#
# 1 137.3194 55.2330 64.7591 0.0000 5.9278 0.0000
# 2 55.2330 57.9553 42.6829 0.0000 -0.4072 0.0000
# 3 64.7591 42.6829 118.5117 0.0000 4.0590 0.0000
# 4 0.0000 0.0000 0.0000 32.8946 0.0000 4.4754
# 5 5.9278 -0.4072 4.0590 0.0000 6.2444 0.0000
# 6 0.0000 0.0000 0.0000 4.4754 0.0000 25.3553
#
#
#
# Elastic Compliance Matrix: (Units=1/GPa)
#
#
# Indices 1 2 3 4 5 6 
#
# 1 0.013571 -0.010675 -0.003177 0.000000 -0.011514 0.000000
# 2 -0.010675 0.032200 -0.006324 0.000000 0.016344 0.000000
# 3 -0.003177 -0.006324 0.012644 0.000000 -0.005615 0.000000
# 4 0.000000 0.000000 0.000000 0.031148 0.000000 -0.005498
# 5 -0.011514 0.016344 -0.005615 0.000000 0.175791 0.000000
# 6 0.000000 0.000000 0.000000 -0.005498 0.000000 0.040410
#
#
# Mechanical properties :
#
#
# Convention : Reuss Voigt Hill
#
# Bulk Modulus (GPa) = 55.35786 71.01514 63.18650
# Shear Modulus (GPa) = 14.19903 22.97295 18.58599
#
# Velocity S-wave (km/s) = 2.71269 3.45048 3.10358
# Velocity P-wave (km/s) = 6.20491 7.25797 6.75200
#
# Compressibility (1/GPa) = 0.01806428
#
# Stress axis : x y z
#
# Youngs Moduli (GPa) = 73.68545 31.05550 79.09035
#
# Poissons Ratio (x) = 0.33152 0.25125
# Poissons Ratio (y) = 0.78659 0.50015
# Poissons Ratio (z) = 0.23408 0.19639
#
# Static dielectric constant tensor:
#      x y z
#    x 1.682840 0.000000 0.008090 
#    y 0.000000 1.653730 0.000000 
#    z 0.008090 0.000000 1.637750 
# 
# From -- ./inp_files/267689.got.cif
#   From: 2010.05.17/outbox.cif.g08.bks.cpg/sg12_134_cif.got.tgz:267689.got - 2010.06.03 13:09:07.
