data_PCOD9205939
_publ_section_title
;
Structure prediction by ZEFSAII (Michael W. Deem and Ramdas Pophale) SiO2 
 PCOD9205939
Probable space group: C 2/M
;
_chemical_formula_sum "Si O2"
_cell_formula_units_Z 36
_cell_length_a 21.150736
_cell_length_b 17.773375
_cell_length_c 5.381081
_cell_angle_alpha 90.000000
_cell_angle_beta 113.931813
_cell_angle_gamma 90.000000
_cell_volume 1848.948557
_symmetry_space_group_name_H-M "C 2/M"
_symmetry_group_IT_number 12
_symmetry_cell_setting 'monoclinic'
loop_
_space_group_symop_operation_xyz
x,y,z
-x,y,-z
-x,-y,-z
x,-y,z
1/2+x,1/2+y,z
1/2-x,1/2+y,-z
1/2-x,1/2-y,-z
1/2+x,1/2-y,z
loop_
_atom_site_type_symbol
_atom_site_label
_atom_site_fract_x
_atom_site_fract_y
_atom_site_fract_z
Si Si1 0.924237 0.771565 0.254642
Si Si2 0.500000 0.644560 0.000000
Si Si3 0.108347 0.917592 0.507707
Si Si4 0.705039 0.826301 0.936553
Si Si5 0.247510 0.413001 0.505276
O O1 0.941067 0.799536 0.004899
O O2 0.887207 0.844677 0.313868
O O3 0.874398 0.701240 0.198133
O O4 0.000000 0.760772 0.500000
O O5 0.466167 0.592549 0.738795
O O6 0.169481 0.912894 0.403226
O O7 0.114608 0.000000 0.639219
O O8 0.725329 0.874244 0.726276
O O9 0.750000 0.750000 0.000000
O O10 0.719013 0.870124 0.215835
O O11 0.225143 0.500000 0.467883
#
# Coordination Sequence:
#
# PCOD9205939 Si02
#       5
#     8   4   8   8   8
#     4  10  23  37  59  88 123 160 209 254 314 365
#     4  10  21  36  54  86 121 168 208 242 309 372
#     4  10  21  36  55  87 127 165 201 246 307 382
#     4  12  23  41  69  94 127 165 213 260 315 367
#     4  11  25  42  66  95 129 164 209 261 318 373
#
# _framework density 19.470523
#
# number of rings (size 3 to 8) (size 9 to 14) (size 15 to 20)
#    0.000    1.333    2.222    3.000    6.222    4.889 
#    0.000    0.000    0.000    4.000    0.000    0.000 
#    0.000    0.000    0.000    0.000    0.000    0.000 
#
# Total GULP energy -100502.400438 kJ/mol
# GULP energy per Si atom -5583.466691 kJ/mol
# Density = 1.942621 g / cm^3
# Si number density = 19.470523 Si / 1000 Ang^3
#
#
#
# Elastic Constant Matrix: (Units=GPa)
#
#
# Indices 1 2 3 4 5 6 
#
# 1 84.3052 46.3239 23.5962 0.0000 -2.2157 0.0000
# 2 46.3239 131.0335 56.8802 0.0000 -7.1407 0.0000
# 3 23.5962 56.8802 83.1837 0.0000 -12.8361 0.0000
# 4 0.0000 0.0000 0.0000 27.8830 0.0000 -8.9400
# 5 -2.2157 -7.1407 -12.8361 0.0000 35.5749 0.0000
# 6 0.0000 0.0000 0.0000 -8.9400 0.0000 35.5370
#
#
#
# Elastic Compliance Matrix: (Units=1/GPa)
#
#
# Indices 1 2 3 4 5 6 
#
# 1 0.014772 -0.004833 -0.000946 0.000000 -0.000391 0.000000
# 2 -0.004833 0.012444 -0.007200 0.000000 -0.000401 0.000000
# 3 -0.000946 -0.007200 0.017982 0.000000 0.004984 0.000000
# 4 0.000000 0.000000 0.000000 0.039011 0.000000 0.009814
# 5 -0.000391 -0.000401 0.004984 0.000000 0.029803 0.000000
# 6 0.000000 0.000000 0.000000 0.009814 0.000000 0.030609
#
#
# Mechanical properties :
#
#
# Convention : Reuss Voigt Hill
#
# Bulk Modulus (GPa) = 51.97423 61.34698 56.66061
# Shear Modulus (GPa) = 28.25004 31.24713 29.74858
#
# Velocity S-wave (km/s) = 3.81322 4.01039 3.91305
# Velocity P-wave (km/s) = 6.79259 7.28151 7.04129
#
# Compressibility (1/GPa) = 0.01924030
#
# Stress axis : x y z
#
# Youngs Moduli (GPa) = 67.69700 80.36175 55.61048
#
# Poissons Ratio (x) = 0.38838 0.05260
# Poissons Ratio (y) = 0.32717 0.40039
# Poissons Ratio (z) = 0.06403 0.57859
#
# Static dielectric constant tensor:
#      x y z
#    x 1.719110 0.000000 -0.003210 
#    y 0.000000 1.661640 0.000000 
#    z -0.003210 0.000000 1.729100 
# 
# From -- ./inp_files/14931.got.cif
#   From: 2010.05.17/outbox.cif.g08.bks.cpg/sg12_8_cif.got.tgz:14931.got - 2010.06.03 13:09:07.
