data_PCOD9205342
_publ_section_title
;
Structure prediction by ZEFSAII (Michael W. Deem and Ramdas Pophale) SiO2 
 PCOD9205342
Probable space group: C 2/M
;
_chemical_formula_sum "Si O2"
_cell_formula_units_Z 64
_cell_length_a 16.076895
_cell_length_b 11.801243
_cell_length_c 16.234232
_cell_angle_alpha 90.000000
_cell_angle_beta 84.745490
_cell_angle_gamma 90.000000
_cell_volume 3067.134386
_symmetry_space_group_name_H-M "C 2/M"
_symmetry_group_IT_number 12
_symmetry_cell_setting 'monoclinic'
loop_
_space_group_symop_operation_xyz
x,y,z
-x,y,-z
-x,-y,-z
x,-y,z
1/2+x,1/2+y,z
1/2-x,1/2+y,-z
1/2-x,1/2-y,-z
1/2+x,1/2-y,z
loop_
_atom_site_type_symbol
_atom_site_label
_atom_site_fract_x
_atom_site_fract_y
_atom_site_fract_z
Si Si1 0.336748 0.229799 0.538872
Si Si2 0.417802 0.777047 0.365711
Si Si3 0.583191 0.629262 0.336003
Si Si4 0.397739 0.122537 0.203479
Si Si5 0.059658 0.868377 0.874477
Si Si6 0.784392 0.796353 0.812542
Si Si7 0.762563 0.127845 0.315331
Si Si8 0.630856 0.627648 0.043478
O O1 0.250000 0.250000 0.500000
O O2 0.401402 0.194570 0.462590
O O3 0.365464 0.341690 0.585534
O O4 0.314582 0.144598 0.614780
O O5 0.504108 0.711310 0.346378
O O6 0.411761 0.876559 0.300358
O O7 0.340649 0.697025 0.344303
O O8 0.555596 0.500000 0.337226
O O9 0.642190 0.652041 0.251838
O O10 0.432117 0.248005 0.174005
O O11 0.299677 0.131161 0.190706
O O12 0.429803 0.000000 0.167724
O O13 0.964402 0.869619 0.915012
O O14 0.072796 0.000000 0.840576
O O15 0.121505 0.853914 0.947093
O O16 0.762475 0.678338 0.770434
O O17 0.815097 0.792008 0.903232
O O18 0.786621 0.000000 0.307639
O O19 0.663025 0.500000 0.054352
#
# Coordination Sequence:
#
# PCOD9205342 Si02
#       8
#     8   8   8   8   8   8   8   8
#     4   9  20  35  51  78 111 142 178 225 286 344
#     4  10  21  36  56  82 108 141 190 239 284 335
#     4  11  21  35  58  84 109 141 190 248 292 326
#     4  11  23  38  56  82 119 156 189 227 280 345
#     4   9  20  38  62  88 112 144 188 238 285 332
#     4  10  21  35  54  81 112 147 187 229 278 340
#     4   9  19  36  55  78 110 146 185 232 286 339
#     4   9  17  36  63  86 110 142 185 234 283 334
#
# _framework density 20.866382999999999
#
# number of rings (size 3 to 8) (size 9 to 14) (size 15 to 20)
#    0.000    2.250    0.000    4.125    0.000    7.500 
#    0.000    7.500    0.000    3.750    0.000    0.000 
#    0.000    0.000    0.000    0.000    0.000    0.000 
#
# Total GULP energy -178339.295063 kJ/mol
# GULP energy per Si atom -5573.102971 kJ/mol
# Density = 2.081889 g / cm^3
# Si number density = 20.866383 Si / 1000 Ang^3
#
#
#
# Elastic Constant Matrix: (Units=GPa)
#
#
# Indices 1 2 3 4 5 6 
#
# 1 48.9631 9.5757 -8.1719 0.0000 5.5176 0.0000
# 2 9.5757 121.0047 32.5932 0.0000 -5.9849 0.0000
# 3 -8.1719 32.5932 61.6562 0.0000 10.7486 0.0000
# 4 0.0000 0.0000 0.0000 3.5097 0.0000 -9.1286
# 5 5.5176 -5.9849 10.7486 0.0000 35.1339 0.0000
# 6 0.0000 0.0000 0.0000 -9.1286 0.0000 -10.9177
#
#
#
# Elastic Compliance Matrix: (Units=1/GPa)
#
#
# Indices 1 2 3 4 5 6 
#
# 1 0.022854 -0.003744 0.006069 0.000000 -0.006084 0.000000
# 2 -0.003744 0.010645 -0.006911 0.000000 0.004516 0.000000
# 3 0.006069 -0.006911 0.022234 0.000000 -0.008932 0.000000
# 4 0.000000 0.000000 0.000000 0.089748 0.000000 -0.075041
# 5 -0.006084 0.004516 -0.008932 0.000000 0.032920 0.000000
# 6 0.000000 0.000000 0.000000 -0.075041 0.000000 -0.028851
#
#
# Mechanical properties :
#
#
# Convention : Reuss Voigt Hill
#
# Bulk Modulus (GPa) = 21.47714 33.29089 27.38402
# Shear Modulus (GPa) = 28.69561 18.72031 23.70796
#
# Velocity S-wave (km/s) = 3.71240 2.99850 3.37438
# Velocity P-wave (km/s) = 5.35639 5.28932 5.32296
#
# Compressibility (1/GPa) = 0.04656114
#
# Stress axis : x y z
#
# Youngs Moduli (GPa) = 43.75555 93.93856 44.97658
#
# Poissons Ratio (x) = 0.35172 -0.27296
# Poissons Ratio (y) = 0.16383 0.31083
# Poissons Ratio (z) = -0.26555 0.64920
#
# Static dielectric constant tensor:
#      x y z
#    x 1.763610 0.000000 -0.021450 
#    y 0.000000 1.733920 0.000000 
#    z -0.021450 0.000000 1.815410 
# 
# From -- ./inp_files/269293.got.cif
#   From: 2010.05.17/outbox.cif.g08.bks.cpg/sg12_135_cif.got.tgz:269293.got - 2010.06.03 13:09:07.
