data_PCOD9205131
_publ_section_title
;
Structure prediction by ZEFSAII (Michael W. Deem and Ramdas Pophale) SiO2 
 PCOD9205131
Probable space group: C 2/M
;
_chemical_formula_sum "Si O2"
_cell_formula_units_Z 64
_cell_length_a 32.534981
_cell_length_b 8.184073
_cell_length_c 26.233659
_cell_angle_alpha 90.000000
_cell_angle_beta 149.860814
_cell_angle_gamma 90.000000
_cell_volume 3507.285725
_symmetry_space_group_name_H-M "C 2/M"
_symmetry_group_IT_number 12
_symmetry_cell_setting 'monoclinic'
loop_
_space_group_symop_operation_xyz
x,y,z
-x,y,-z
-x,-y,-z
x,-y,z
1/2+x,1/2+y,z
1/2-x,1/2+y,-z
1/2-x,1/2-y,-z
1/2+x,1/2-y,z
loop_
_atom_site_type_symbol
_atom_site_label
_atom_site_fract_x
_atom_site_fract_y
_atom_site_fract_z
Si Si1 0.140014 0.197450 0.926353
Si Si2 0.445925 0.696729 0.894893
Si Si3 0.516556 0.302874 0.178754
Si Si4 0.891040 0.697168 0.430135
Si Si5 0.731551 0.805107 0.319498
Si Si6 0.323048 0.197396 0.145877
Si Si7 0.074501 0.699569 0.647276
Si Si8 0.805545 0.304784 0.606384
O O1 0.136051 0.250216 0.863317
O O2 0.063483 0.256905 0.877398
O O3 0.139913 0.000000 0.927760
O O4 0.228450 0.253595 0.042252
O O5 0.452417 0.500000 0.901426
O O6 0.476931 0.756746 0.872781
O O7 0.350285 0.740060 0.795584
O O8 0.500000 0.758487 0.000000
O O9 0.512693 0.500000 0.173040
O O10 0.600980 0.255180 0.296680
O O11 0.890412 0.500000 0.429711
O O12 0.813896 0.755779 0.379255
O O13 0.890103 0.749693 0.369810
O O14 0.979269 0.749902 0.546946
O O15 0.727905 0.744978 0.374387
O O16 0.726269 0.000000 0.314864
O O17 0.372397 0.256802 0.248032
O O18 0.322147 0.000000 0.146465
O O19 0.075129 0.500000 0.648433
O O20 0.806153 0.500000 0.608104
O O21 0.750000 0.250000 0.500000
#
# Coordination Sequence:
#
# PCOD9205131 Si02
#       8
#     8   8   8   8   8   8   8   8
#     4   9  18  31  47  69  98 129 160 199 244 286
#     4   9  18  33  54  77  98 127 169 208 242 288
#     4   9  18  33  51  73 102 132 164 205 249 291
#     4   9  17  32  53  74  97 126 162 202 242 288
#     4  10  21  35  50  73 104 133 161 199 250 299
#     4   9  17  31  50  71  97 128 162 199 240 288
#     4   8  16  31  51  74  97 124 161 204 244 281
#     4  10  21  36  53  73  99 131 166 205 247 293
#
# _framework density 18.247729
#
# number of rings (size 3 to 8) (size 9 to 14) (size 15 to 20)
#    0.000    2.875    0.000    1.500    0.000    4.250 
#    0.000    8.750    0.000    3.000    0.000    0.000 
#    0.000    0.000    0.000    0.000    0.000    0.000 
#
# Total GULP energy -178419.664544 kJ/mol
# GULP energy per Si atom -5575.614517 kJ/mol
# Density = 1.820620 g / cm^3
# Si number density = 18.247729 Si / 1000 Ang^3
#
#
#
# Elastic Constant Matrix: (Units=GPa)
#
#
# Indices 1 2 3 4 5 6 
#
# 1 139.3612 9.4402 110.2034 0.0000 20.2634 0.0000
# 2 9.4402 7.7711 11.2249 0.0000 -0.9597 0.0000
# 3 110.2034 11.2249 166.5387 0.0000 -15.3863 0.0000
# 4 0.0000 0.0000 0.0000 15.5011 0.0000 -0.5367
# 5 20.2634 -0.9597 -15.3863 0.0000 30.4771 0.0000
# 6 0.0000 0.0000 0.0000 -0.5367 0.0000 23.4512
#
#
#
# Elastic Compliance Matrix: (Units=1/GPa)
#
#
# Indices 1 2 3 4 5 6 
#
# 1 0.029408 -0.008097 -0.021760 0.000000 -0.030793 0.000000
# 2 -0.008097 0.144795 -0.003653 0.000000 0.008099 0.000000
# 3 -0.021760 -0.003653 0.023051 0.000000 0.025990 0.000000
# 4 0.000000 0.000000 0.000000 0.064563 0.000000 0.001477
# 5 -0.030793 0.008099 0.025990 0.000000 0.066661 0.000000
# 6 0.000000 0.000000 0.000000 0.001477 0.000000 0.042676
#
#
# Mechanical properties :
#
#
# Convention : Reuss Voigt Hill
#
# Bulk Modulus (GPa) = 7.67842 63.93422 35.80632
# Shear Modulus (GPa) = 10.38237 26.07269 18.22753
#
# Velocity S-wave (km/s) = 2.38789 3.78407 3.16396
# Velocity P-wave (km/s) = 3.43798 7.36241 5.74564
#
# Compressibility (1/GPa) = 0.13023517
#
# Stress axis : x y z
#
# Youngs Moduli (GPa) = 34.00383 6.90630 43.38233
#
# Poissons Ratio (x) = 0.05592 0.94398
# Poissons Ratio (y) = 0.27535 0.15846
# Poissons Ratio (z) = 0.73991 0.02523
#
# Static dielectric constant tensor:
#      x y z
#    x 1.619120 0.000000 -0.008340 
#    y 0.000000 1.646310 0.000000 
#    z -0.008340 0.000000 1.612150 
# 
# From -- ./inp_files/353558.got.cif
#   From: 2010.05.17/outbox.cif.g08.bks.cpg/sg12_177_cif.got.tgz:353558.got - 2010.06.03 13:09:07.
