data_PCOD9205350
_publ_section_title
;
Structure prediction by ZEFSAII (Michael W. Deem and Ramdas Pophale) SiO2 
 PCOD9205350
Probable space group: C 2/M
;
_chemical_formula_sum "Si O2"
_cell_formula_units_Z 64
_cell_length_a 8.997057
_cell_length_b 28.973207
_cell_length_c 15.536166
_cell_angle_alpha 90.000000
_cell_angle_beta 52.026696
_cell_angle_gamma 90.000000
_cell_volume 3192.501112
_symmetry_space_group_name_H-M "C 2/M"
_symmetry_group_IT_number 12
_symmetry_cell_setting 'monoclinic'
loop_
_space_group_symop_operation_xyz
x,y,z
-x,y,-z
-x,-y,-z
x,-y,z
1/2+x,1/2+y,z
1/2-x,1/2+y,-z
1/2-x,1/2-y,-z
1/2+x,1/2-y,z
loop_
_atom_site_type_symbol
_atom_site_label
_atom_site_fract_x
_atom_site_fract_y
_atom_site_fract_z
Si Si1 0.463637 0.671865 0.706260
Si Si2 0.309046 0.553995 0.031927
Si Si3 0.985972 0.215815 0.132738
Si Si4 0.310285 0.192666 0.904465
Si Si5 0.593877 0.947366 0.760592
Si Si6 0.832530 0.698977 0.490907
Si Si7 0.694235 0.101018 0.897975
Si Si8 0.856127 0.348876 0.303957
O O1 0.513947 0.707035 0.765580
O O2 0.663080 0.667242 0.588255
O O3 0.354947 0.631640 0.796367
O O4 0.310932 0.679607 0.684390
O O5 0.339492 0.500000 0.003942
O O6 0.133686 0.556170 0.160014
O O7 0.500000 0.575103 0.000000
O O8 0.265947 0.577002 0.957310
O O9 0.064882 0.267390 0.096178
O O10 0.797892 0.209700 0.143835
O O11 0.143210 0.183336 0.031085
O O12 0.459222 0.154928 0.822167
O O13 0.641565 0.936524 0.843623
O O14 0.683019 0.903862 0.677711
O O15 0.648317 0.000000 0.718507
O O16 0.750000 0.750000 0.500000
O O17 0.896513 0.675144 0.379656
O O18 0.000000 0.702493 0.500000
O O19 0.500000 0.125655 0.000000
#
# Coordination Sequence:
#
# PCOD9205350 Si02
#       8
#     8   8   8   8   8   8   8   8
#     4  11  23  37  60  87 118 155 201 249 298 357
#     4   9  17  29  49  80 118 157 197 245 302 360
#     4  10  21  35  54  81 123 157 200 238 302 363
#     4  10  21  36  53  84 117 164 195 244 295 367
#     4   9  19  36  58  85 117 161 205 251 303 362
#     4  12  26  46  68  90 121 161 206 255 302 361
#     4   9  19  34  56  86 118 160 197 247 300 365
#     4  11  23  39  63  87 120 153 209 252 307 356
#
# _framework density 20.046979
#
# number of rings (size 3 to 8) (size 9 to 14) (size 15 to 20)
#    0.000    1.875    0.000    3.750    5.250    4.500 
#    0.000    0.000    0.000    7.125    0.000    0.000 
#    0.000    0.000    0.000    0.000    0.000    0.000 
#
# Total GULP energy -178454.667779 kJ/mol
# GULP energy per Si atom -5576.708368 kJ/mol
# Density = 2.000135 g / cm^3
# Si number density = 20.046979 Si / 1000 Ang^3
#
#
#
# Elastic Constant Matrix: (Units=GPa)
#
#
# Indices 1 2 3 4 5 6 
#
# 1 131.7021 19.1526 20.6710 0.0000 6.1196 0.0000
# 2 19.1526 79.2516 21.2715 0.0000 3.5441 0.0000
# 3 20.6710 21.2715 77.6043 0.0000 3.6408 0.0000
# 4 0.0000 0.0000 0.0000 17.1001 0.0000 0.6920
# 5 6.1196 3.5441 3.6408 0.0000 37.0503 0.0000
# 6 0.0000 0.0000 0.0000 0.6920 0.0000 20.1798
#
#
#
# Elastic Compliance Matrix: (Units=1/GPa)
#
#
# Indices 1 2 3 4 5 6 
#
# 1 0.008122 -0.001456 -0.001716 0.000000 -0.001034 0.000000
# 2 -0.001456 0.013914 -0.003390 0.000000 -0.000757 0.000000
# 3 -0.001716 -0.003390 0.014310 0.000000 -0.000798 0.000000
# 4 0.000000 0.000000 0.000000 0.058560 0.000000 -0.002008
# 5 -0.001034 -0.000757 -0.000798 0.000000 0.027312 0.000000
# 6 0.000000 0.000000 0.000000 -0.002008 0.000000 0.049623
#
#
# Mechanical properties :
#
#
# Convention : Reuss Voigt Hill
#
# Bulk Modulus (GPa) = 43.06472 45.63870 44.35171
# Shear Modulus (GPa) = 25.94627 30.03024 27.98826
#
# Velocity S-wave (km/s) = 3.60150 3.87459 3.74054
# Velocity P-wave (km/s) = 6.23081 6.54461 6.38964
#
# Compressibility (1/GPa) = 0.02322086
#
# Stress axis : x y z
#
# Youngs Moduli (GPa) = 123.12290 71.87103 69.88273
#
# Poissons Ratio (x) = 0.10465 0.11990
# Poissons Ratio (y) = 0.17928 0.23693
# Poissons Ratio (z) = 0.21125 0.24367
#
# Static dielectric constant tensor:
#      x y z
#    x 1.750090 0.000000 -0.021530 
#    y 0.000000 1.751840 0.000000 
#    z -0.021530 0.000000 1.718280 
# 
# From -- ./inp_files/201251.got.cif
#   From: 2010.05.17/outbox.cif.g08.bks.cpg/sg12_101_cif.got.tgz:201251.got - 2010.06.03 13:09:07.
