data_PCOD9205532
_publ_section_title
;
Structure prediction by ZEFSAII (Michael W. Deem and Ramdas Pophale) SiO2 
 PCOD9205532
Probable space group: C 2/M
;
_chemical_formula_sum "Si O2"
_cell_formula_units_Z 64
_cell_length_a 18.828548
_cell_length_b 13.443871
_cell_length_c 15.200591
_cell_angle_alpha 90.000000
_cell_angle_beta 129.066479
_cell_angle_gamma 90.000000
_cell_volume 2987.415970
_symmetry_space_group_name_H-M "C 2/M"
_symmetry_group_IT_number 12
_symmetry_cell_setting 'monoclinic'
loop_
_space_group_symop_operation_xyz
x,y,z
-x,y,-z
-x,-y,-z
x,-y,z
1/2+x,1/2+y,z
1/2-x,1/2+y,-z
1/2-x,1/2-y,-z
1/2+x,1/2-y,z
loop_
_atom_site_type_symbol
_atom_site_label
_atom_site_fract_x
_atom_site_fract_y
_atom_site_fract_z
Si Si1 0.267505 0.116190 0.063489
Si Si2 0.450282 0.294680 0.834930
Si Si3 0.083264 0.614522 0.960569
Si Si4 0.659610 0.193754 0.400507
Si Si5 0.293942 0.248708 0.828951
Si Si6 0.791463 0.108951 0.378490
Si Si7 0.533150 0.720348 0.426470
Si Si8 0.912491 0.884440 0.184454
O O1 0.365286 0.124956 0.092744
O O2 0.256324 0.183975 0.139518
O O3 0.253265 0.000000 0.073771
O O4 0.188454 0.142674 0.930186
O O5 0.501113 0.191840 0.898251
O O6 0.389897 0.268287 0.704089
O O7 0.377468 0.315011 0.854191
O O8 0.524943 0.369349 0.854551
O O9 0.058448 0.500000 0.954801
O O10 0.156615 0.654407 0.087523
O O11 0.750000 0.250000 0.500000
O O12 0.704179 0.107599 0.376675
O O13 0.586979 0.186601 0.422932
O O14 0.230564 0.199058 0.705500
O O15 0.886629 0.136701 0.500699
O O16 0.799951 0.000000 0.343243
O O17 0.500000 0.739904 0.500000
O O18 0.455096 0.679428 0.298390
O O19 0.912164 0.000000 0.210207
#
# Coordination Sequence:
#
# PCOD9205532 Si02
#       8
#     8   8   8   8   8   8   8   8
#     4  10  23  40  59  83 119 164 201 241 298 358
#     4  10  21  35  57  85 113 153 195 242 294 346
#     4  11  23  37  54  81 119 160 198 237 288 351
#     4   8  18  38  57  79 116 155 193 235 292 351
#     4  11  22  37  59  87 121 154 200 245 297 350
#     4  10  21  36  59  90 121 156 193 239 297 357
#     4  10  21  36  59  89 116 147 196 251 302 353
#     4  10  21  37  57  84 119 156 194 243 304 356
#
# _framework density 21.423196999999998
#
# number of rings (size 3 to 8) (size 9 to 14) (size 15 to 20)
#    0.000    2.000    1.250    1.500    1.750    5.500 
#    0.000    1.250    0.000    4.875    0.000    0.000 
#    0.000    0.000    0.000    0.000    0.000    0.000 
#
# Total GULP energy -178490.556805 kJ/mol
# GULP energy per Si atom -5577.829900 kJ/mol
# Density = 2.137444 g / cm^3
# Si number density = 21.423197 Si / 1000 Ang^3
#
#
#
# Elastic Constant Matrix: (Units=GPa)
#
#
# Indices 1 2 3 4 5 6 
#
# 1 129.1397 22.0166 18.6114 0.0000 -23.7395 0.0000
# 2 22.0166 58.6399 26.0723 0.0000 -8.0891 0.0000
# 3 18.6114 26.0723 73.0622 0.0000 -11.0523 0.0000
# 4 0.0000 0.0000 0.0000 -9.1285 0.0000 -7.9553
# 5 -23.7395 -8.0891 -11.0523 0.0000 30.7490 0.0000
# 6 0.0000 0.0000 0.0000 -7.9553 0.0000 9.4806
#
#
#
# Elastic Compliance Matrix: (Units=1/GPa)
#
#
# Indices 1 2 3 4 5 6 
#
# 1 0.009417 -0.002394 -0.000571 0.000000 0.006435 0.000000
# 2 -0.002394 0.021123 -0.006733 0.000000 0.001288 0.000000
# 3 -0.000571 -0.006733 0.016815 0.000000 0.003832 0.000000
# 4 0.000000 0.000000 0.000000 -0.063275 0.000000 -0.053096
# 5 0.006435 0.001288 0.003832 0.000000 0.039206 0.000000
# 6 0.000000 0.000000 0.000000 -0.053096 0.000000 0.060926
#
#
# Mechanical properties :
#
#
# Convention : Reuss Voigt Hill
#
# Bulk Modulus (GPa) = 35.76695 43.80470 39.78582
# Shear Modulus (GPa) = 44.27624 19.16298 31.71961
#
# Velocity S-wave (km/s) = 4.55108 2.99406 3.85206
# Velocity P-wave (km/s) = 6.65943 5.69598 6.19646
#
# Compressibility (1/GPa) = 0.02795877
#
# Stress axis : x y z
#
# Youngs Moduli (GPa) = 106.19123 47.34065 59.47141
#
# Poissons Ratio (x) = 0.11334 0.03396
# Poissons Ratio (y) = 0.25423 0.40043
# Poissons Ratio (z) = 0.06064 0.31875
#
# Static dielectric constant tensor:
#      x y z
#    x 1.877030 0.000000 -0.058290 
#    y 0.000000 1.746500 0.000000 
#    z -0.058290 0.000000 1.713900 
# 
# From -- ./inp_files/225310.got.cif
#   From: 2010.05.17/outbox.cif.g08.bks.cpg/sg12_113_cif.got.tgz:225310.got - 2010.06.03 13:09:07.
