data_PCOD9205805
_publ_section_title
;
Structure prediction by ZEFSAII (Michael W. Deem and Ramdas Pophale) SiO2 
 PCOD9205805
Probable space group: C 2/M
;
_chemical_formula_sum "Si O2"
_cell_formula_units_Z 56
_cell_length_a 16.594437
_cell_length_b 7.876332
_cell_length_c 23.528602
_cell_angle_alpha 90.000000
_cell_angle_beta 122.746203
_cell_angle_gamma 90.000000
_cell_volume 2586.528767
_symmetry_space_group_name_H-M "C 2/M"
_symmetry_group_IT_number 12
_symmetry_cell_setting 'monoclinic'
loop_
_space_group_symop_operation_xyz
x,y,z
-x,y,-z
-x,-y,-z
x,-y,z
1/2+x,1/2+y,z
1/2-x,1/2+y,-z
1/2-x,1/2-y,-z
1/2+x,1/2-y,z
loop_
_atom_site_type_symbol
_atom_site_label
_atom_site_fract_x
_atom_site_fract_y
_atom_site_fract_z
Si Si1 0.720693 0.298045 0.339091
Si Si2 0.207769 0.300548 0.209104
Si Si3 0.660487 0.203960 0.926515
Si Si4 0.389578 0.803347 0.216812
Si Si5 0.941241 0.803583 0.644286
Si Si6 0.056188 0.205423 0.578631
Si Si7 0.977791 0.292384 0.927713
O O1 0.706316 0.500000 0.331299
O O2 0.682660 0.222889 0.265295
O O3 0.657850 0.231098 0.368273
O O4 0.833956 0.263313 0.383886
O O5 0.222849 0.500000 0.204119
O O6 0.306468 0.209523 0.231883
O O7 0.123229 0.236483 0.136235
O O8 0.655991 0.263218 0.859541
O O9 0.563908 0.263114 0.920283
O O10 0.659686 0.000000 0.924306
O O11 0.750000 0.250000 0.000000
O O12 0.481850 0.707015 0.275237
O O13 0.417397 0.000000 0.219558
O O14 0.996115 0.728939 0.610358
O O15 0.922198 0.000000 0.622406
O O16 0.000000 0.250664 0.500000
O O17 0.060569 0.000000 0.585035
O O18 0.976290 0.500000 0.926963
O O19 0.000000 0.236999 0.000000
#
# Coordination Sequence:
#
# PCOD9205805 Si02
#       7
#     8   8   8   8   8   8   8
#     4  11  23  39  61  92 126 160 204 255 306 361
#     4  11  21  36  60  85 114 156 201 249 309 366
#     4  10  21  36  53  78 111 148 194 246 303 362
#     4  11  22  36  57  86 119 155 200 254 304 359
#     4  10  22  40  62  90 125 164 204 249 304 365
#     4  10  22  42  66  92 125 166 209 251 300 365
#     4   9  18  33  53  77 106 145 194 243 293 356
#
# _framework density 21.650639999999999
#
# number of rings (size 3 to 8) (size 9 to 14) (size 15 to 20)
#    0.000    1.714    1.429    3.000    0.000    5.429 
#    0.000    1.429    0.000    3.857    0.000    0.000 
#    0.000    0.000    0.000    0.000    0.000    0.000 
#
# Total GULP energy -156419.969594 kJ/mol
# GULP energy per Si atom -5586.427486 kJ/mol
# Density = 2.160136 g / cm^3
# Si number density = 21.650640 Si / 1000 Ang^3
#
#
#
# Elastic Constant Matrix: (Units=GPa)
#
#
# Indices 1 2 3 4 5 6 
#
# 1 154.2613 0.1809 44.4711 0.0000 -10.7273 0.0000
# 2 0.1809 30.3107 0.4945 0.0000 -3.7739 0.0000
# 3 44.4711 0.4945 92.0687 0.0000 -4.3283 0.0000
# 4 0.0000 0.0000 0.0000 14.2690 0.0000 -6.6153
# 5 -10.7273 -3.7739 -4.3283 0.0000 28.5720 0.0000
# 6 0.0000 0.0000 0.0000 -6.6153 0.0000 -0.0754
#
#
#
# Elastic Compliance Matrix: (Units=1/GPa)
#
#
# Indices 1 2 3 4 5 6 
#
# 1 0.007686 0.000309 -0.003602 0.000000 0.002381 0.000000
# 2 0.000309 0.033556 -0.000117 0.000000 0.004531 0.000000
# 3 -0.003602 -0.000117 0.012628 0.000000 0.000545 0.000000
# 4 0.000000 0.000000 0.000000 0.001682 0.000000 -0.147538
# 5 0.002381 0.004531 0.000545 0.000000 0.036574 0.000000
# 6 0.000000 0.000000 0.000000 -0.147538 0.000000 -0.318234
#
#
# Mechanical properties :
#
#
# Convention : Reuss Voigt Hill
#
# Bulk Modulus (GPa) = 21.25378 40.77041 31.01209
# Shear Modulus (GPa) = -24.55729 23.98605 -0.28562
#
# Velocity S-wave (km/s) = -3.37152 3.33208 -0.36360
# Velocity P-wave (km/s) = 2.30612 5.80306 3.76546
#
# Compressibility (1/GPa) = 0.04705046
#
# Stress axis : x y z
#
# Youngs Moduli (GPa) = 130.10321 29.80109 79.19092
#
# Poissons Ratio (x) = -0.00922 0.28527
# Poissons Ratio (y) = -0.04024 0.00924
# Poissons Ratio (z) = 0.46867 0.00348
#
# Static dielectric constant tensor:
#      x y z
#    x 1.801690 0.000000 -0.027350 
#    y 0.000000 1.799110 0.000000 
#    z -0.027350 0.000000 1.773850 
# 
# From -- ./inp_files/339033.got.cif
#   From: 2010.05.17/outbox.cif.g08.bks.cpg/sg12_170_cif.got.tgz:339033.got - 2010.06.03 13:09:07.
