data_PCOD9205495
_publ_section_title
;
Structure prediction by ZEFSAII (Michael W. Deem and Ramdas Pophale) SiO2 
 PCOD9205495
Probable space group: C 2/M
;
_chemical_formula_sum "Si O2"
_cell_formula_units_Z 58
_cell_length_a 26.335477
_cell_length_b 21.164252
_cell_length_c 5.380731
_cell_angle_alpha 90.000000
_cell_angle_beta 71.021905
_cell_angle_gamma 90.000000
_cell_volume 2836.041586
_symmetry_space_group_name_H-M "C 2/M"
_symmetry_group_IT_number 12
_symmetry_cell_setting 'monoclinic'
loop_
_space_group_symop_operation_xyz
x,y,z
-x,y,-z
-x,-y,-z
x,-y,z
1/2+x,1/2+y,z
1/2-x,1/2+y,-z
1/2-x,1/2-y,-z
1/2+x,1/2-y,z
loop_
_atom_site_type_symbol
_atom_site_label
_atom_site_fract_x
_atom_site_fract_y
_atom_site_fract_z
Si Si1 0.465787 0.747452 0.305305
Si Si2 0.779313 0.071694 0.687080
Si Si3 0.947204 0.605889 0.254068
Si Si4 0.000000 0.500000 0.500000
Si Si5 0.665370 0.928605 0.577981
Si Si6 0.779080 0.351122 0.868119
Si Si7 0.308673 0.259168 0.140848
Si Si8 0.643433 0.689125 0.452438
O O1 0.500000 0.745097 0.500000
O O2 0.444219 0.819944 0.325549
O O3 0.419905 0.694664 0.411934
O O4 0.500000 0.737345 0.000000
O O5 0.722794 0.075335 0.626450
O O6 0.824912 0.123307 0.551925
O O7 0.798662 0.000000 0.641201
O O8 0.759818 0.091655 0.993949
O O9 0.891625 0.586517 0.204916
O O10 0.959149 0.556355 0.455670
O O11 0.000000 0.597448 0.000000
O O12 0.670264 0.879059 0.347593
O O13 0.662342 0.000000 0.489894
O O14 0.745076 0.301178 0.764331
O O15 0.794002 0.311353 0.087839
O O16 0.336938 0.265718 0.356132
O O17 0.340661 0.286405 0.848733
#
# Coordination Sequence:
#
# PCOD9205495 Si02
#       8
#     8   8   8   2   8   8   8   8
#     4  11  24  43  67  95 124 161 216 271 315 375
#     4  10  23  40  62  92 130 167 206 256 323 393
#     4  11  25  42  60  85 119 169 219 267 311 365
#     4  12  22  44  60  74 124 164 228 252 318 362
#     4  11  22  38  57  86 124 165 215 262 309 371
#     4  10  21  35  56  87 128 162 213 253 316 373
#     4  10  22  35  63  90 128 168 209 255 316 383
#     4  11  22  43  66  95 129 171 207 266 327 386
#
# _framework density 20.451039999999999
#
# number of rings (size 3 to 8) (size 9 to 14) (size 15 to 20)
#    0.000    1.379    2.759    2.276    3.862    2.759 
#    2.483    0.000    0.000    0.828    0.000    0.000 
#    0.000    0.000    0.000    0.000    0.000    0.000 
#
# Total GULP energy -161583.599157 kJ/mol
# GULP energy per Si atom -5571.848247 kJ/mol
# Density = 2.040449 g / cm^3
# Si number density = 20.451040 Si / 1000 Ang^3
#
#
#
# Elastic Constant Matrix: (Units=GPa)
#
#
# Indices 1 2 3 4 5 6 
#
# 1 87.5879 62.3154 43.3197 0.0000 -20.1842 0.0000
# 2 62.3154 110.2316 35.0084 0.0000 -19.3126 0.0000
# 3 43.3197 35.0084 84.6556 0.0000 -10.7829 0.0000
# 4 0.0000 0.0000 0.0000 12.2583 0.0000 -5.7197
# 5 -20.1842 -19.3126 -10.7829 0.0000 30.1379 0.0000
# 6 0.0000 0.0000 0.0000 -5.7197 0.0000 37.9667
#
#
#
# Elastic Compliance Matrix: (Units=1/GPa)
#
#
# Indices 1 2 3 4 5 6 
#
# 1 0.023505 -0.009827 -0.007084 0.000000 0.006910 0.000000
# 2 -0.009827 0.015461 -0.000986 0.000000 0.002973 0.000000
# 3 -0.007084 -0.000986 0.015884 0.000000 0.000307 0.000000
# 4 0.000000 0.000000 0.000000 0.087745 0.000000 0.013219
# 5 0.006910 0.002973 0.000307 0.000000 0.039824 0.000000
# 6 0.000000 0.000000 0.000000 0.013219 0.000000 0.028330
#
#
# Mechanical properties :
#
#
# Convention : Reuss Voigt Hill
#
# Bulk Modulus (GPa) = 52.47706 62.64025 57.55865
# Shear Modulus (GPa) = 19.77094 25.52800 22.64947
#
# Velocity S-wave (km/s) = 3.11263 3.53689 3.33152
# Velocity P-wave (km/s) = 6.21558 6.88297 6.55777
#
# Compressibility (1/GPa) = 0.01905594
#
# Stress axis : x y z
#
# Youngs Moduli (GPa) = 42.54495 64.67699 62.95473
#
# Poissons Ratio (x) = 0.63559 0.44595
# Poissons Ratio (y) = 0.41809 0.06210
# Poissons Ratio (z) = 0.30137 0.06380
#
# Static dielectric constant tensor:
#      x y z
#    x 1.788980 0.000000 0.007570 
#    y 0.000000 1.726140 0.000000 
#    z 0.007570 0.000000 1.804790 
# 
# From -- ./inp_files/29160.got.cif
#   From: 2010.05.17/outbox.cif.g08.bks.cpg/sg12_15_cif.got.tgz:29160.got - 2010.06.03 13:09:07.
