data_PCOD9205872
_publ_section_title
;
Structure prediction by ZEFSAII (Michael W. Deem and Ramdas Pophale) SiO2 
 PCOD9205872
Probable space group: C 2/M
;
_chemical_formula_sum "Si O2"
_cell_formula_units_Z 44
_cell_length_a 25.176244
_cell_length_b 7.122637
_cell_length_c 12.077838
_cell_angle_alpha 90.000000
_cell_angle_beta 133.054489
_cell_angle_gamma 90.000000
_cell_volume 1582.569895
_symmetry_space_group_name_H-M "C 2/M"
_symmetry_group_IT_number 12
_symmetry_cell_setting 'monoclinic'
loop_
_space_group_symop_operation_xyz
x,y,z
-x,y,-z
-x,-y,-z
x,-y,z
1/2+x,1/2+y,z
1/2-x,1/2+y,-z
1/2-x,1/2-y,-z
1/2+x,1/2-y,z
loop_
_atom_site_type_symbol
_atom_site_label
_atom_site_fract_x
_atom_site_fract_y
_atom_site_fract_z
Si Si1 0.060205 0.000000 0.976310
Si Si2 0.599180 0.785330 0.622533
Si Si3 0.027981 0.274042 0.304510
Si Si4 0.371167 0.223679 0.747626
Si Si5 0.245446 0.725258 0.261365
Si Si6 0.329661 0.777870 0.059454
O O1 0.033514 0.163977 0.848755
O O2 0.077931 0.160612 0.097589
O O3 0.543175 0.712296 0.451975
O O4 0.676323 0.790986 0.666225
O O5 0.618036 0.703616 0.769536
O O6 0.579241 0.000000 0.615262
O O7 0.016542 0.500000 0.286792
O O8 0.101239 0.235723 0.336259
O O9 0.289624 0.275716 0.671192
O O10 0.379160 0.000000 0.776333
O O11 0.248739 0.500000 0.257988
O O12 0.185825 0.797511 0.085706
O O13 0.343689 0.000000 0.068348
O O14 0.250000 0.750000 0.000000
#
# Coordination Sequence:
#
# PCOD9205872 Si02
#       6
#     4   8   8   8   8   8
#     4  12  23  38  60  79 102 145 192 222 259 318
#     4   9  18  31  51  78 108 139 171 215 267 318
#     4  10  21  36  54  79 107 137 178 224 265 312
#     4  10  21  36  54  79 107 137 178 224 265 312
#     4   9  18  31  51  78 108 139 171 215 267 318
#     4   8  14  28  48  72 101 137 176 208 253 313
#
# _framework density 27.802878
#
# number of rings (size 3 to 8) (size 9 to 14) (size 15 to 20)
#    0.000    2.545    0.000    2.182    2.545    2.182 
#    0.000    0.000    0.000    2.182    0.000    6.364 
#    0.000    0.000    0.000    0.000    0.000    0.000 
#
# Total GULP energy -122647.020809 kJ/mol
# GULP energy per Si atom -5574.864582 kJ/mol
# Density = 2.773960 g / cm^3
# Si number density = 27.802878 Si / 1000 Ang^3
#
#
#
# Elastic Constant Matrix: (Units=GPa)
#
#
# Indices 1 2 3 4 5 6 
#
# 1 147.0850 -17.1388 26.7337 0.0000 -5.5947 0.0000
# 2 -17.1388 171.3219 13.2904 0.0000 -15.9293 0.0000
# 3 26.7337 13.2904 199.6816 0.0000 -28.3097 0.0000
# 4 0.0000 0.0000 0.0000 25.8683 0.0000 42.8880
# 5 -5.5947 -15.9293 -28.3097 0.0000 62.0806 0.0000
# 6 0.0000 0.0000 0.0000 42.8880 0.0000 -5.5959
#
#
#
# Elastic Compliance Matrix: (Units=1/GPa)
#
#
# Indices 1 2 3 4 5 6 
#
# 1 0.007082 0.000821 -0.000943 0.000000 0.000419 0.000000
# 2 0.000821 0.006082 -0.000302 0.000000 0.001497 0.000000
# 3 -0.000943 -0.000302 0.005486 0.000000 0.002339 0.000000
# 4 0.000000 0.000000 0.000000 0.002820 0.000000 0.021615
# 5 0.000419 0.001497 0.002339 0.000000 0.017596 0.000000
# 6 0.000000 0.000000 0.000000 0.021615 0.000000 -0.013038
#
#
# Mechanical properties :
#
#
# Convention : Reuss Voigt Hill
#
# Bulk Modulus (GPa) = 56.18341 62.65102 59.41721
# Shear Modulus (GPa) = 152.38199 49.48415 100.93307
#
# Velocity S-wave (km/s) = 7.41127 4.22337 6.03174
# Velocity P-wave (km/s) = 9.66890 6.80921 8.36221
#
# Compressibility (1/GPa) = 0.01779885
#
# Stress axis : x y z
#
# Youngs Moduli (GPa) = 141.20724 164.42878 182.28111
#
# Poissons Ratio (x) = -0.13492 0.17196
# Poissons Ratio (y) = -0.11587 0.05514
# Poissons Ratio (z) = 0.13321 0.04974
#
# Static dielectric constant tensor:
#      x y z
#    x 2.363070 0.000000 0.073260 
#    y 0.000000 2.071840 0.000000 
#    z 0.073260 0.000000 2.100340 
# 
# From -- ./inp_files/186955.got.cif
#   From: 2010.05.17/outbox.cif.g08.bks.cpg/sg12_94_cif.got.tgz:186955.got - 2010.06.03 13:09:07.
