data_PCOD9205293
_publ_section_title
;
Structure prediction by ZEFSAII (Michael W. Deem and Ramdas Pophale) SiO2 
 PCOD9205293
Probable space group: C 2/M
;
_chemical_formula_sum "Si O2"
_cell_formula_units_Z 40
_cell_length_a 13.979897
_cell_length_b 11.509684
_cell_length_c 12.881322
_cell_angle_alpha 90.000000
_cell_angle_beta 47.141877
_cell_angle_gamma 90.000000
_cell_volume 1519.342275
_symmetry_space_group_name_H-M "C 2/M"
_symmetry_group_IT_number 12
_symmetry_cell_setting 'monoclinic'
loop_
_space_group_symop_operation_xyz
x,y,z
-x,y,-z
-x,-y,-z
x,-y,z
1/2+x,1/2+y,z
1/2-x,1/2+y,-z
1/2-x,1/2-y,-z
1/2+x,1/2-y,z
loop_
_atom_site_type_symbol
_atom_site_label
_atom_site_fract_x
_atom_site_fract_y
_atom_site_fract_z
Si Si1 0.704978 0.131319 0.711379
Si Si2 0.600621 0.873279 0.102148
Si Si3 0.962897 0.869145 0.908523
Si Si4 0.124081 0.868043 0.595745
Si Si5 0.084972 0.302536 0.345138
O O1 0.549269 0.127874 0.830502
O O2 0.738317 0.147979 0.563362
O O3 0.789038 0.228795 0.709334
O O4 0.749079 0.000000 0.708740
O O5 0.630546 0.739212 0.047324
O O6 0.609245 0.873317 0.221586
O O7 0.652563 0.000000 0.026420
O O8 0.092274 0.857395 0.740645
O O9 0.911769 0.000000 0.926129
O O10 0.000000 0.864178 0.000000
O O11 0.018469 0.792786 0.615673
O O12 0.090528 0.000000 0.597259
O O13 0.000000 0.362961 0.500000
#
# Coordination Sequence:
#
# PCOD9205293 Si02
#       5
#     8   8   8   8   8
#     4   9  17  31  52  79 111 143 173 209 262 325
#     4  10  21  35  53  81 113 141 171 214 270 322
#     4   9  18  33  53  76 102 137 182 224 259 303
#     4   8  14  26  47  74 102 134 173 215 257 306
#     4   9  17  28  47  74 109 143 175 210 255 311
#
# _framework density 26.327182000000001
#
# number of rings (size 3 to 8) (size 9 to 14) (size 15 to 20)
#    0.000    3.000    0.000    0.600    0.000   11.200 
#    0.000    1.000    0.000    4.800    0.000    2.800 
#    0.000    0.000    0.000    0.000    0.000    0.000 
#
# Total GULP energy -111552.537755 kJ/mol
# GULP energy per Si atom -5577.626888 kJ/mol
# Density = 2.626726 g / cm^3
# Si number density = 26.327182 Si / 1000 Ang^3
#
#
#
# Elastic Constant Matrix: (Units=GPa)
#
#
# Indices 1 2 3 4 5 6 
#
# 1 139.6352 28.7365 37.9661 0.0000 -3.0748 0.0000
# 2 28.7365 199.6926 25.2865 0.0000 16.0267 0.0000
# 3 37.9661 25.2865 134.9500 0.0000 12.2703 0.0000
# 4 0.0000 0.0000 0.0000 -48.4882 0.0000 48.5378
# 5 -3.0748 16.0267 12.2703 0.0000 28.0735 0.0000
# 6 0.0000 0.0000 0.0000 48.5378 0.0000 -48.6370
#
#
#
# Elastic Compliance Matrix: (Units=1/GPa)
#
#
# Indices 1 2 3 4 5 6 
#
# 1 0.008060 -0.001070 -0.002294 0.000000 0.002496 0.000000
# 2 -0.001070 0.005462 -0.000446 0.000000 -0.003040 0.000000
# 3 -0.002294 -0.000446 0.008476 0.000000 -0.003701 0.000000
# 4 0.000000 0.000000 0.000000-20.222866 0.000000-20.181619
# 5 0.002496 -0.003040 -0.003701 0.000000 0.039248 0.000000
# 6 0.000000 0.000000 0.000000-20.181619 0.000000-20.161017
#
#
# Mechanical properties :
#
#
# Convention : Reuss Voigt Hill
#
# Bulk Modulus (GPa) = 69.54969 73.13954 71.34462
# Shear Modulus (GPa) = -0.12404 11.67559 5.77577
#
# Velocity S-wave (km/s) = -0.21729 2.10818 1.48277
# Velocity P-wave (km/s) = 5.13925 5.81096 5.48539
#
# Compressibility (1/GPa) = 0.01437821
#
# Stress axis : x y z
#
# Youngs Moduli (GPa) = 124.06307 183.07847 117.98439
#
# Poissons Ratio (x) = 0.19585 0.27068
# Poissons Ratio (y) = 0.13272 0.05263
# Poissons Ratio (z) = 0.28462 0.08167
#
# Static dielectric constant tensor:
#      x y z
#    x 1.998430 0.000000 -0.013100 
#    y 0.000000 2.159280 0.000000 
#    z -0.013100 0.000000 2.168760 
# 
# From -- ./inp_files/141906.got.cif
#   From: 2010.05.17/outbox.cif.g08.bks.cpg/sg12_71_cif.got.tgz:141906.got - 2010.06.03 13:09:07.
