data_PCOD9205204
_publ_section_title
;
Structure prediction by ZEFSAII (Michael W. Deem and Ramdas Pophale) SiO2 
 PCOD9205204
Probable space group: C 2/M
;
_chemical_formula_sum "Si O2"
_cell_formula_units_Z 48
_cell_length_a 14.488140
_cell_length_b 11.193644
_cell_length_c 27.896797
_cell_angle_alpha 90.000000
_cell_angle_beta 30.893738
_cell_angle_gamma 90.000000
_cell_volume 2322.921234
_symmetry_space_group_name_H-M "C 2/M"
_symmetry_group_IT_number 12
_symmetry_cell_setting 'monoclinic'
loop_
_space_group_symop_operation_xyz
x,y,z
-x,y,-z
-x,-y,-z
x,-y,z
1/2+x,1/2+y,z
1/2-x,1/2+y,-z
1/2-x,1/2-y,-z
1/2+x,1/2-y,z
loop_
_atom_site_type_symbol
_atom_site_label
_atom_site_fract_x
_atom_site_fract_y
_atom_site_fract_z
Si Si1 0.409126 0.634750 0.382278
Si Si2 0.503693 0.633635 0.106127
Si Si3 0.058181 0.792078 0.525526
Si Si4 0.284067 0.638973 0.296787
Si Si5 0.127797 0.361633 0.995433
Si Si6 0.632037 0.356871 0.197196
O O1 0.356995 0.500000 0.391176
O O2 0.250126 0.724954 0.438674
O O3 0.435114 0.634857 0.427878
O O4 0.589423 0.666163 0.271851
O O5 0.490755 0.500000 0.088921
O O6 0.340256 0.646094 0.216264
O O7 0.686252 0.631038 0.056666
O O8 0.520545 0.752323 0.066970
O O9 0.000000 0.846985 0.500000
O O10 0.900450 0.698359 0.606810
O O11 0.271433 0.500000 0.314321
O O12 0.453971 0.691834 0.249899
O O13 0.055168 0.500000 0.029412
O O14 0.196342 0.325598 0.911634
O O15 0.630952 0.500000 0.192148
#
# Coordination Sequence:
#
# PCOD9205204 Si02
#       6
#     8   8   8   8   8   8
#     4  10  21  35  52  77 107 138 173 216 268 320
#     4   8  14  24  41  70 103 133 168 214 266 314
#     4  11  21  33  54  79 102 135 177 219 263 318
#     4   9  16  28  49  75 100 129 173 222 258 301
#     4   8  13  23  43  70 100 131 170 218 259 308
#     4   8  14  27  49  74  97 128 171 217 259 302
#
# _framework density 20.663636
#
# number of rings (size 3 to 8) (size 9 to 14) (size 15 to 20)
#    0.000    3.000    1.667    2.500    0.000    1.000 
#    0.000    0.833    0.000    7.000    0.000    5.833 
#    0.000    0.000    0.000    0.000    0.000    0.000 
#
# Total GULP energy -133623.291403 kJ/mol
# GULP energy per Si atom -5567.637142 kJ/mol
# Density = 2.061660 g / cm^3
# Si number density = 20.663636 Si / 1000 Ang^3
#
#
#
# Elastic Constant Matrix: (Units=GPa)
#
#
# Indices 1 2 3 4 5 6 
#
# 1 96.0115 34.7118 20.6394 0.0000 17.4649 0.0000
# 2 34.7118 78.8507 41.9615 -0.0001 19.8436 0.0000
# 3 20.6394 41.9615 119.4711 0.0003 25.9028 0.0001
# 4 0.0000 -0.0001 0.0003 25.9069 0.0001 3.9787
# 5 17.4649 19.8436 25.9028 0.0001 31.8992 0.0000
# 6 0.0000 0.0000 0.0001 3.9787 0.0000 10.2828
#
#
#
# Elastic Compliance Matrix: (Units=1/GPa)
#
#
# Indices 1 2 3 4 5 6 
#
# 1 0.012852 -0.004767 0.000409 0.000000 -0.004403 0.000000
# 2 -0.004767 0.018513 -0.004549 0.000000 -0.005213 0.000000
# 3 0.000409 -0.004549 0.011326 0.000000 -0.006591 0.000000
# 4 0.000000 0.000000 0.000000 0.041038 0.000000 -0.015879
# 5 -0.004403 -0.005213 -0.006591 0.000000 0.042355 0.000000
# 6 0.000000 0.000000 0.000000 -0.015879 0.000000 0.103394
#
#
# Mechanical properties :
#
#
# Convention : Reuss Voigt Hill
#
# Bulk Modulus (GPa) = 40.19704 54.32876 47.26290
# Shear Modulus (GPa) = 19.56295 26.75247 23.15771
#
# Velocity S-wave (km/s) = 3.08024 3.60205 3.35132
# Velocity P-wave (km/s) = 5.66972 6.60672 6.15607
#
# Compressibility (1/GPa) = 0.02487746
#
# Stress axis : x y z
#
# Youngs Moduli (GPa) = 77.80904 54.01510 88.29005
#
# Poissons Ratio (x) = 0.25750 -0.03608
# Poissons Ratio (y) = 0.37093 0.40159
# Poissons Ratio (z) = -0.03180 0.24569
#
# Static dielectric constant tensor:
#      x y z
#    x 1.829520 0.000000 0.010150 
#    y 0.000000 1.714720 0.000000 
#    z 0.010150 0.000000 1.752570 
# 
# From -- ./inp_files/246005.got.cif
#   From: 2010.05.17/outbox.cif.g08.bks.cpg/sg12_124_cif.got.tgz:246005.got - 2010.06.03 13:09:07.
