data_PCOD9205997
_publ_section_title
;
Structure prediction by ZEFSAII (Michael W. Deem and Ramdas Pophale) SiO2 
 PCOD9205997
Probable space group: C 2/M
;
_chemical_formula_sum "Si O2"
_cell_formula_units_Z 64
_cell_length_a 27.835892
_cell_length_b 7.431058
_cell_length_c 22.905430
_cell_angle_alpha 90.000000
_cell_angle_beta 148.705650
_cell_angle_gamma 90.000000
_cell_volume 2461.077711
_symmetry_space_group_name_H-M "C 2/M"
_symmetry_group_IT_number 12
_symmetry_cell_setting 'monoclinic'
loop_
_space_group_symop_operation_xyz
x,y,z
-x,y,-z
-x,-y,-z
x,-y,z
1/2+x,1/2+y,z
1/2-x,1/2+y,-z
1/2-x,1/2-y,-z
1/2+x,1/2-y,z
loop_
_atom_site_type_symbol
_atom_site_label
_atom_site_fract_x
_atom_site_fract_y
_atom_site_fract_z
Si Si1 0.050924 0.280120 0.285461
Si Si2 0.901016 0.284766 0.226027
Si Si3 0.339523 0.720253 0.763045
Si Si4 0.526064 0.296628 0.918192
Si Si5 0.719382 0.701632 0.082215
Si Si6 0.690095 0.291366 0.707082
Si Si7 0.293370 0.795038 0.471278
Si Si8 0.559220 0.714274 0.474167
O O1 0.051275 0.500000 0.283261
O O2 0.149960 0.220756 0.414755
O O3 0.968414 0.224193 0.244072
O O4 0.027133 0.199987 0.198694
O O5 0.893428 0.500000 0.212985
O O6 0.796042 0.213861 0.119148
O O7 0.957117 0.246809 0.344165
O O8 0.338572 0.500000 0.761038
O O9 0.446182 0.779262 0.876950
O O10 0.274222 0.779813 0.747795
O O11 0.290545 0.788553 0.652291
O O12 0.547508 0.500000 0.961576
O O13 0.623385 0.208360 0.001874
O O14 0.695806 0.500000 0.036201
O O15 0.776007 0.689774 0.201178
O O16 0.675744 0.500000 0.708265
O O17 0.599731 0.224464 0.578247
O O18 0.374227 0.797134 0.505815
O O19 0.270293 0.000000 0.460580
O O20 0.574118 0.500000 0.489186
#
# Coordination Sequence:
#
# PCOD9205997 Si02
#       8
#     8   8   8   8   8   8   8   8
#     4   9  18  33  53  77 105 136 171 214 263 311
#     4   9  19  36  56  77 104 140 177 210 253 314
#     4   9  18  35  57  78 105 141 175 210 256 310
#     4  10  22  37  53  77 105 136 181 225 256 298
#     4  10  22  39  55  73 102 141 183 220 254 303
#     4  10  21  36  55  81 109 135 168 214 266 314
#     4   8  15  30  52  77 105 137 171 205 250 316
#     4   9  17  30  51  80 109 132 161 210 265 312
#
# _framework density 26.004866
#
# number of rings (size 3 to 8) (size 9 to 14) (size 15 to 20)
#    0.000    2.750    0.000    1.500    0.000    7.000 
#    0.000    5.000    0.000    0.000    0.000    0.000 
#    0.000    0.000    0.000    0.000    0.000    0.000 
#
# Total GULP energy -178779.894969 kJ/mol
# GULP energy per Si atom -5586.871718 kJ/mol
# Density = 2.594568 g / cm^3
# Si number density = 26.004866 Si / 1000 Ang^3
#
#
#
# Elastic Constant Matrix: (Units=GPa)
#
#
# Indices 1 2 3 4 5 6 
#
# 1 81.1346 1.6538 34.4163 0.0000 34.9995 0.0000
# 2 1.6538 97.0150 1.8632 0.0000 7.0377 0.0000
# 3 34.4163 1.8632 78.2552 0.0000 36.0380 0.0000
# 4 0.0000 0.0000 0.0000 20.9153 0.0000 -5.3695
# 5 34.9995 7.0377 36.0380 0.0000 67.0839 0.0000
# 6 0.0000 0.0000 0.0000 -5.3695 0.0000 11.3117
#
#
#
# Elastic Compliance Matrix: (Units=1/GPa)
#
#
# Indices 1 2 3 4 5 6 
#
# 1 0.017033 0.000267 -0.004507 0.000000 -0.006493 0.000000
# 2 0.000267 0.010398 0.000268 0.000000 -0.001374 0.000000
# 3 -0.004507 0.000268 0.018183 0.000000 -0.007445 0.000000
# 4 0.000000 0.000000 0.000000 0.054447 0.000000 0.025845
# 5 -0.006493 -0.001374 -0.007445 0.000000 0.022438 0.000000
# 6 0.000000 0.000000 0.000000 0.025845 0.000000 0.100672
#
#
# Mechanical properties :
#
#
# Convention : Reuss Voigt Hill
#
# Bulk Modulus (GPa) = 26.54699 36.91904 31.73302
# Shear Modulus (GPa) = 20.51947 34.42695 27.47321
#
# Velocity S-wave (km/s) = 2.81207 3.64244 3.25386
# Velocity P-wave (km/s) = 4.55788 5.64957 5.13283
#
# Compressibility (1/GPa) = 0.03766905
#
# Stress axis : x y z
#
# Youngs Moduli (GPa) = 58.71105 96.17547 54.99677
#
# Poissons Ratio (x) = -0.02570 0.24787
# Poissons Ratio (y) = -0.01569 -0.01472
# Poissons Ratio (z) = 0.26461 -0.02574
#
# Static dielectric constant tensor:
#      x y z
#    x 2.101210 0.000000 0.046470 
#    y 0.000000 2.006120 0.000000 
#    z 0.046470 0.000000 2.050740 
# 
# From -- ./inp_files/353484.got.cif
#   From: 2010.05.17/outbox.cif.g08.bks.cpg/sg12_177_cif.got.tgz:353484.got - 2010.06.03 13:09:07.
