data_PCOD9205722
_publ_section_title
;
Structure prediction by ZEFSAII (Michael W. Deem and Ramdas Pophale) SiO2 
 PCOD9205722
Probable space group: C 2/M
;
_chemical_formula_sum "Si O2"
_cell_formula_units_Z 48
_cell_length_a 27.044042
_cell_length_b 14.306769
_cell_length_c 10.839223
_cell_angle_alpha 90.000000
_cell_angle_beta 38.442626
_cell_angle_gamma 90.000000
_cell_volume 2607.435622
_symmetry_space_group_name_H-M "C 2/M"
_symmetry_group_IT_number 12
_symmetry_cell_setting 'monoclinic'
loop_
_space_group_symop_operation_xyz
x,y,z
-x,y,-z
-x,-y,-z
x,-y,z
1/2+x,1/2+y,z
1/2-x,1/2+y,-z
1/2-x,1/2-y,-z
1/2+x,1/2-y,z
loop_
_atom_site_type_symbol
_atom_site_label
_atom_site_fract_x
_atom_site_fract_y
_atom_site_fract_z
Si Si1 0.837611 0.888723 0.442166
Si Si2 0.168488 0.888489 0.276260
Si Si3 0.834422 0.112771 0.179368
Si Si4 0.942203 0.720814 0.502378
Si Si5 0.277601 0.111883 0.830607
Si Si6 0.501064 0.724381 0.133553
O O1 0.799327 0.864445 0.648931
O O2 0.800654 0.863187 0.382085
O O3 0.925880 0.845763 0.272690
O O4 0.844333 0.000000 0.428216
O O5 0.088880 0.827474 0.417204
O O6 0.153194 0.000000 0.299795
O O7 0.229628 0.864274 0.048858
O O8 0.775625 0.137727 0.183829
O O9 0.847685 0.000000 0.147655
O O10 0.917877 0.166746 0.005542
O O11 0.862119 0.660997 0.660240
O O12 0.000000 0.694467 0.500000
O O13 0.984371 0.714443 0.286973
O O14 0.287763 0.000000 0.808983
O O15 0.500000 0.771774 0.000000
#
# Coordination Sequence:
#
# PCOD9205722 Si02
#       6
#     8   8   8   8   8   8
#     4   8  14  26  47  76 106 130 153 189 244 306
#     4   9  18  33  53  78 104 126 155 200 252 303
#     4   9  16  29  51  76 101 129 160 199 248 298
#     4  11  22  35  52  73 100 133 168 207 248 292
#     4  10  21  36  52  71  98 133 173 210 242 283
#     4   9  17  30  48  75 104 129 157 194 246 303
#
# _framework density 18.408892999999999
#
# number of rings (size 3 to 8) (size 9 to 14) (size 15 to 20)
#    0.000    2.667    0.000    2.000    0.000    3.333 
#    0.000    9.167    0.000    0.500    0.000    0.000 
#    0.000    0.000    0.000    0.000    0.000    0.000 
#
# Total GULP energy -133725.373313 kJ/mol
# GULP energy per Si atom -5571.890555 kJ/mol
# Density = 1.836699 g / cm^3
# Si number density = 18.408893 Si / 1000 Ang^3
#
#
#
# Elastic Constant Matrix: (Units=GPa)
#
#
# Indices 1 2 3 4 5 6 
#
# 1 169.8737 23.8499 128.7340 0.0000 48.9396 0.0000
# 2 23.8499 24.6055 6.6557 0.0000 1.7219 0.0000
# 3 128.7340 6.6557 15.4615 0.0000 -5.4912 0.0000
# 4 0.0000 0.0000 0.0000 13.0244 0.0000 -3.8031
# 5 48.9396 1.7219 -5.4912 0.0000 12.9009 0.0000
# 6 0.0000 0.0000 0.0000 -3.8031 0.0000 4.6885
#
#
#
# Elastic Compliance Matrix: (Units=1/GPa)
#
#
# Indices 1 2 3 4 5 6 
#
# 1 -0.000515 -0.001704 0.006829 0.000000 0.005088 0.000000
# 2 -0.001704 0.043828 -0.005255 0.000000 -0.001622 0.000000
# 3 0.006829 -0.005255 0.001329 0.000000 -0.024639 0.000000
# 4 0.000000 0.000000 0.000000 0.100609 0.000000 0.081610
# 5 0.005088 -0.001622 -0.024639 0.000000 0.047942 0.000000
# 6 0.000000 0.000000 0.000000 0.081610 0.000000 0.279486
#
#
# Mechanical properties :
#
#
# Convention : Reuss Voigt Hill
#
# Bulk Modulus (GPa) = 22.53139 58.71334 40.62236
# Shear Modulus (GPa) = 10.25154 9.50284 9.87719
#
# Velocity S-wave (km/s) = 2.36239 2.27449 2.31886
# Velocity P-wave (km/s) = 4.43927 6.23386 5.41148
#
# Compressibility (1/GPa) = 0.04438253
#
# Stress axis : x y z
#
# Youngs Moduli (GPa) = -1941.50455 22.81656 752.52239
#
# Poissons Ratio (x) = 0.03888 -5.13900
# Poissons Ratio (y) = -3.30843 3.95414
# Poissons Ratio (z) = 13.25861 0.11989
#
# Static dielectric constant tensor:
#      x y z
#    x 1.662350 0.000000 0.062150 
#    y 0.000000 1.632610 0.000000 
#    z 0.062150 0.000000 1.620760 
# 
# From -- ./inp_files/142856.got.cif
#   From: 2010.05.17/outbox.cif.g08.bks.cpg/sg12_72_cif.got.tgz:142856.got - 2010.06.03 13:09:07.
