data_PCOD9205902
_publ_section_title
;
Structure prediction by ZEFSAII (Michael W. Deem and Ramdas Pophale) SiO2 
 PCOD9205902
Probable space group: C 2/M
;
_chemical_formula_sum "Si O2"
_cell_formula_units_Z 56
_cell_length_a 9.611174
_cell_length_b 15.827932
_cell_length_c 25.245602
_cell_angle_alpha 90.000000
_cell_angle_beta 49.742721
_cell_angle_gamma 90.000000
_cell_volume 2930.869427
_symmetry_space_group_name_H-M "C 2/M"
_symmetry_group_IT_number 12
_symmetry_cell_setting 'monoclinic'
loop_
_space_group_symop_operation_xyz
x,y,z
-x,y,-z
-x,-y,-z
x,-y,z
1/2+x,1/2+y,z
1/2-x,1/2+y,-z
1/2-x,1/2-y,-z
1/2+x,1/2-y,z
loop_
_atom_site_type_symbol
_atom_site_label
_atom_site_fract_x
_atom_site_fract_y
_atom_site_fract_z
Si Si1 0.337861 0.598986 0.192909
Si Si2 0.534711 0.746111 0.553196
Si Si3 0.223953 0.175205 0.081071
Si Si4 0.473001 0.097368 0.805864
Si Si5 0.538847 0.096460 0.356813
Si Si6 0.073471 0.654335 0.067846
Si Si7 0.720816 0.599674 0.347082
O O1 0.373795 0.500000 0.174302
O O2 0.532668 0.642116 0.149502
O O3 0.213141 0.606350 0.275531
O O4 0.209823 0.633868 0.176527
O O5 0.500000 0.743928 0.500000
O O6 0.750000 0.750000 0.500000
O O7 0.461605 0.830142 0.600046
O O8 0.444743 0.663307 0.602064
O O9 0.384932 0.177304 0.084482
O O10 0.177575 0.266607 0.068609
O O11 0.298291 0.122424 0.011719
O O12 0.468890 0.099964 0.869918
O O13 0.657902 0.130414 0.733226
O O14 0.472326 0.000000 0.787875
O O15 0.361356 0.105069 0.362222
O O16 0.538497 0.000000 0.377760
O O17 0.668754 0.500000 0.354150
#
# Coordination Sequence:
#
# PCOD9205902 Si02
#       7
#     8   8   8   8   8   8   8
#     4   9  19  37  60  84 112 152 194 234 290 350
#     4  12  24  40  63  95 121 150 200 245 294 358
#     4  10  21  36  54  80 115 154 193 239 292 340
#     4   9  19  37  60  85 112 149 196 239 285 346
#     4   9  20  41  64  87 123 162 196 243 299 355
#     4  10  21  36  54  80 115 153 194 241 289 339
#     4   9  20  41  65  87 120 164 201 238 294 362
#
# _framework density 19.106959
#
# number of rings (size 3 to 8) (size 9 to 14) (size 15 to 20)
#    0.000    2.286    1.429    2.571    2.000    4.000 
#    2.571    2.857    0.000    0.000    0.000    0.000 
#    0.000    0.000    0.000    0.000    0.000    0.000 
#
# Total GULP energy -155987.067960 kJ/mol
# GULP energy per Si atom -5570.966713 kJ/mol
# Density = 1.906347 g / cm^3
# Si number density = 19.106959 Si / 1000 Ang^3
#
#
#
# Elastic Constant Matrix: (Units=GPa)
#
#
# Indices 1 2 3 4 5 6 
#
# 1 62.6635 -3.4717 23.1892 -0.0004 -18.9584 0.0003
# 2 -3.4717 53.4851 28.0574 -0.0001 -10.0308 0.0000
# 3 23.1892 28.0574 69.3453 0.0000 -14.7027 0.0000
# 4 -0.0004 -0.0001 0.0000 198.3117 0.0001 -94.5904
# 5 -18.9584 -10.0308 -14.7027 0.0001 33.2039 0.0000
# 6 0.0003 0.0000 0.0000 -94.5904 0.0000 78.7893
#
#
#
# Elastic Compliance Matrix: (Units=1/GPa)
#
#
# Indices 1 2 3 4 5 6 
#
# 1 0.023193 0.008233 -0.008555 0.000000 0.011941 0.000000
# 2 0.008233 0.026973 -0.012076 0.000000 0.007502 0.000000
# 3 -0.008555 -0.012076 0.022468 0.000000 0.001416 0.000000
# 4 0.000000 0.000000 0.000000 0.011799 0.000000 0.014166
# 5 0.011941 0.007502 0.001416 0.000000 0.039828 0.000000
# 6 0.000000 0.000000 0.000000 0.014166 0.000000 0.029698
#
#
# Mechanical properties :
#
#
# Convention : Reuss Voigt Hill
#
# Bulk Modulus (GPa) = 20.90416 31.22708 26.06562
# Shear Modulus (GPa) = 25.68035 71.24226 48.46131
#
# Velocity S-wave (km/s) = 3.67008 6.11285 5.04165
# Velocity P-wave (km/s) = 5.37807 8.13642 6.89656
#
# Compressibility (1/GPa) = 0.04783737
#
# Stress axis : x y z
#
# Youngs Moduli (GPa) = 43.11649 37.07424 44.50868
#
# Poissons Ratio (x) = -0.30522 0.38077
# Poissons Ratio (y) = -0.35497 0.53748
# Poissons Ratio (z) = 0.36886 0.44770
#
# Static dielectric constant tensor:
#      x y z
#    x 1.642030 0.000000 -0.006420 
#    y 0.000000 1.699610 0.000000 
#    z -0.006420 0.000000 1.689500 
# 
# From -- ./inp_files/333312.got.cif
#   From: 2010.05.17/outbox.cif.g08.bks.cpg/sg12_167_cif.got.tgz:333312.got - 2010.06.03 13:09:07.
