data_PCOD9205032
_publ_section_title
;
Structure prediction by ZEFSAII (Michael W. Deem and Ramdas Pophale) SiO2 
 PCOD9205032
Probable space group: C 2/M
;
_chemical_formula_sum "Si O2"
_cell_formula_units_Z 64
_cell_length_a 29.953150
_cell_length_b 13.962880
_cell_length_c 10.172459
_cell_angle_alpha 90.000000
_cell_angle_beta 126.434177
_cell_angle_gamma 90.000000
_cell_volume 3422.874083
_symmetry_space_group_name_H-M "C 2/M"
_symmetry_group_IT_number 12
_symmetry_cell_setting 'monoclinic'
loop_
_space_group_symop_operation_xyz
x,y,z
-x,y,-z
-x,-y,-z
x,-y,z
1/2+x,1/2+y,z
1/2-x,1/2+y,-z
1/2-x,1/2-y,-z
1/2+x,1/2-y,z
loop_
_atom_site_type_symbol
_atom_site_label
_atom_site_fract_x
_atom_site_fract_y
_atom_site_fract_z
Si Si1 0.852414 0.892397 0.911891
Si Si2 0.184132 0.112317 0.449434
Si Si3 0.832667 0.699281 0.221194
Si Si4 0.396488 0.798844 0.071593
Si Si5 0.780224 0.892657 0.050058
Si Si6 0.990649 0.610408 0.827057
Si Si7 0.625841 0.796449 0.422116
Si Si8 0.188872 0.614602 0.282421
O O1 0.821874 0.877103 0.719490
O O2 0.809203 0.886719 0.957139
O O3 0.875754 0.000000 0.951218
O O4 0.896848 0.809781 0.017368
O O5 0.139278 0.183873 0.431657
O O6 0.246190 0.141366 0.601871
O O7 0.175969 0.000000 0.465769
O O8 0.880936 0.700323 0.197310
O O9 0.783940 0.631319 0.083161
O O10 0.851948 0.670081 0.398374
O O11 0.806982 0.806806 0.179650
O O12 0.452934 0.853220 0.140133
O O13 0.345454 0.845574 0.900911
O O14 0.788178 0.000000 0.116761
O O15 0.979013 0.500000 0.770202
O O16 0.938150 0.675852 0.702425
O O17 0.000000 0.613330 0.000000
O O18 0.659209 0.846079 0.361388
O O19 0.185736 0.500000 0.277050
#
# Coordination Sequence:
#
# PCOD9205032 Si02
#       8
#     8   8   8   8   8   8   8   8
#     4   9  17  34  58  86 116 156 201 243 295 352
#     4  10  21  34  57  92 122 150 195 248 302 354
#     4  10  24  36  56  89 120 158 199 235 299 355
#     4  11  22  40  60  84 119 157 200 247 289 347
#     4   9  19  36  57  82 124 164 194 235 290 362
#     4  11  23  42  65  87 113 154 206 248 292 349
#     4  12  23  39  60  86 124 158 196 249 296 348
#     4  11  22  36  60  88 117 156 196 242 300 357
#
# _framework density 18.697738000000001
#
# number of rings (size 3 to 8) (size 9 to 14) (size 15 to 20)
#    0.000    1.625    2.500    1.875    5.250    4.000 
#    0.000    1.250    0.000    2.250    0.000    4.375 
#    0.000    0.000    0.000    0.000    0.000    0.000 
#
# Total GULP energy -178789.672497 kJ/mol
# GULP energy per Si atom -5587.177266 kJ/mol
# Density = 1.865518 g / cm^3
# Si number density = 18.697738 Si / 1000 Ang^3
#
#
#
# Elastic Constant Matrix: (Units=GPa)
#
#
# Indices 1 2 3 4 5 6 
#
# 1 40.1099 22.6953 23.1507 0.0000 7.6646 0.0000
# 2 22.6953 74.9961 14.2649 0.0000 11.3304 0.0000
# 3 23.1507 14.2649 68.0879 0.0000 -0.3134 0.0000
# 4 0.0000 0.0000 0.0000 14.8800 0.0000 3.9037
# 5 7.6646 11.3304 -0.3134 0.0000 27.5585 0.0000
# 6 0.0000 0.0000 0.0000 3.9037 0.0000 27.1320
#
#
#
# Elastic Compliance Matrix: (Units=1/GPa)
#
#
# Indices 1 2 3 4 5 6 
#
# 1 0.037222 -0.008093 -0.010993 0.000000 -0.007150 0.000000
# 2 -0.008093 0.016620 -0.000751 0.000000 -0.004591 0.000000
# 3 -0.010993 -0.000751 0.018599 0.000000 0.003578 0.000000
# 4 0.000000 0.000000 0.000000 0.069840 0.000000 -0.010048
# 5 -0.007150 -0.004591 0.003578 0.000000 0.040203 0.000000
# 6 0.000000 0.000000 0.000000 -0.010048 0.000000 0.038303
#
#
# Mechanical properties :
#
#
# Convention : Reuss Voigt Hill
#
# Bulk Modulus (GPa) = 30.52026 33.71285 32.11655
# Shear Modulus (GPa) = 18.42411 22.11964 20.27188
#
# Velocity S-wave (km/s) = 3.14246 3.44322 3.29627
# Velocity P-wave (km/s) = 5.43370 5.82042 5.63038
#
# Compressibility (1/GPa) = 0.03276513
#
# Stress axis : x y z
#
# Youngs Moduli (GPa) = 26.86571 60.16996 53.76730
#
# Poissons Ratio (x) = 0.48695 0.59108
# Poissons Ratio (y) = 0.21742 0.04040
# Poissons Ratio (z) = 0.29534 0.04521
#
# Static dielectric constant tensor:
#      x y z
#    x 1.615960 0.000000 -0.021090 
#    y 0.000000 1.675090 0.000000 
#    z -0.021090 0.000000 1.637590 
# 
# From -- ./inp_files/112052.got.cif
#   From: 2010.05.17/outbox.cif.g08.bks.cpg/sg12_57_cif.got.tgz:112052.got - 2010.06.03 13:09:07.
