data_PCOD9205860
_publ_section_title
;
Structure prediction by ZEFSAII (Michael W. Deem and Ramdas Pophale) SiO2 
 PCOD9205860
Probable space group: C 2/M
;
_chemical_formula_sum "Si O2"
_cell_formula_units_Z 56
_cell_length_a 10.038022
_cell_length_b 7.499745
_cell_length_c 33.080906
_cell_angle_alpha 90.000000
_cell_angle_beta 66.719748
_cell_angle_gamma 90.000000
_cell_volume 2287.653675
_symmetry_space_group_name_H-M "C 2/M"
_symmetry_group_IT_number 12
_symmetry_cell_setting 'monoclinic'
loop_
_space_group_symop_operation_xyz
x,y,z
-x,y,-z
-x,-y,-z
x,-y,z
1/2+x,1/2+y,z
1/2-x,1/2+y,-z
1/2-x,1/2-y,-z
1/2+x,1/2-y,z
loop_
_atom_site_type_symbol
_atom_site_label
_atom_site_fract_x
_atom_site_fract_y
_atom_site_fract_z
Si Si1 0.242576 0.287392 0.048313
Si Si2 0.669429 0.283262 0.186380
Si Si3 0.851488 0.707520 0.237887
Si Si4 0.094603 0.708105 0.680056
Si Si5 0.573078 0.206107 0.901027
Si Si6 0.915349 0.283313 0.627404
Si Si7 0.915998 0.713284 0.471381
O O1 0.245587 0.500000 0.053054
O O2 0.373897 0.213411 0.058991
O O3 0.087502 0.215457 0.083077
O O4 0.250000 0.250000 0.000000
O O5 0.665688 0.500000 0.186072
O O6 0.507337 0.219831 0.197150
O O7 0.793345 0.218549 0.140783
O O8 0.725706 0.221541 0.223899
O O9 0.815891 0.500000 0.248158
O O10 0.880318 0.789750 0.278528
O O11 0.058525 0.500000 0.690284
O O12 0.251432 0.722487 0.640172
O O13 0.975420 0.781976 0.663562
O O14 0.560846 0.000000 0.890153
O O15 0.916191 0.500000 0.628339
O O16 0.019596 0.221411 0.578772
O O17 0.936703 0.500000 0.467790
O O18 0.750000 0.750000 0.500000
O O19 0.000000 0.785978 0.500000
#
# Coordination Sequence:
#
# PCOD9205860 Si02
#       7
#     8   8   8   8   8   8   8
#     4  11  23  39  60  85 114 148 185 227 274 323
#     4  10  21  37  57  81 109 143 182 222 268 322
#     4  10  21  37  56  81 112 143 180 225 270 321
#     4  10  21  36  55  80 109 142 180 222 270 324
#     4  10  22  39  57  81 113 145 181 226 271 319
#     4  10  21  36  54  79 109 140 180 227 272 324
#     4  10  21  36  54  78 107 140 180 225 273 327
#
# _framework density 24.479230999999999
#
# number of rings (size 3 to 8) (size 9 to 14) (size 15 to 20)
#    0.000    1.857    0.000    3.429    0.000    7.143 
#    0.000    0.000    0.000    0.000    0.000    0.000 
#    0.000    0.000    0.000    0.000    0.000    0.000 
#
# Total GULP energy -156648.955687 kJ/mol
# GULP energy per Si atom -5594.605560 kJ/mol
# Density = 2.442351 g / cm^3
# Si number density = 24.479231 Si / 1000 Ang^3
#
#
#
# Elastic Constant Matrix: (Units=GPa)
#
#
# Indices 1 2 3 4 5 6 
#
# 1 107.9500 -9.7362 -12.8957 0.0000 1.9120 0.0000
# 2 -9.7362 78.0420 -0.5747 0.0000 5.0205 0.0000
# 3 -12.8957 -0.5747 74.1816 0.0000 -0.2590 0.0000
# 4 0.0000 0.0000 0.0000 4.9399 0.0000 -15.6301
# 5 1.9120 5.0205 -0.2590 0.0000 46.8940 0.0000
# 6 0.0000 0.0000 0.0000 -15.6301 0.0000 10.7848
#
#
#
# Elastic Compliance Matrix: (Units=1/GPa)
#
#
# Indices 1 2 3 4 5 6 
#
# 1 0.009585 0.001241 0.001674 0.000000 -0.000514 0.000000
# 2 0.001241 0.013064 0.000312 0.000000 -0.001448 0.000000
# 3 0.001674 0.000312 0.013774 0.000000 -0.000026 0.000000
# 4 0.000000 0.000000 0.000000 -0.056457 0.000000 -0.081822
# 5 -0.000514 -0.001448 -0.000026 0.000000 0.021500 0.000000
# 6 0.000000 0.000000 0.000000 -0.081822 0.000000 -0.025860
#
#
# Mechanical properties :
#
#
# Convention : Reuss Voigt Hill
#
# Bulk Modulus (GPa) = 23.32287 23.75115 23.53701
# Shear Modulus (GPa) = -301.99188 31.41576 -135.28806
#
# Velocity S-wave (km/s) = -11.11910 3.58629 -7.44221
# Velocity P-wave (km/s) = 12.46184 5.18385 8.01328
#
# Compressibility (1/GPa) = 0.04287637
#
# Stress axis : x y z
#
# Youngs Moduli (GPa) = 104.33431 76.54699 72.60177
#
# Poissons Ratio (x) = -0.09501 -0.12154
# Poissons Ratio (y) = -0.12949 -0.02265
# Poissons Ratio (z) = -0.17466 -0.02388
#
# Static dielectric constant tensor:
#      x y z
#    x 1.873110 0.000000 0.012780 
#    y 0.000000 1.943520 0.000000 
#    z 0.012780 0.000000 1.986730 
# 
# From -- ./inp_files/373576.got.cif
#   From: 2010.05.17/outbox.cif.g08.bks.cpg/sg12_187_cif.got.tgz:373576.got - 2010.06.03 13:09:07.
