data_PCOD9205863
_publ_section_title
;
Structure prediction by ZEFSAII (Michael W. Deem and Ramdas Pophale) SiO2 
 PCOD9205863
Probable space group: C 2/M
;
_chemical_formula_sum "Si O2"
_cell_formula_units_Z 56
_cell_length_a 22.162181
_cell_length_b 7.609080
_cell_length_c 14.193828
_cell_angle_alpha 90.000000
_cell_angle_beta 87.845577
_cell_angle_gamma 90.000000
_cell_volume 2391.867349
_symmetry_space_group_name_H-M "C 2/M"
_symmetry_group_IT_number 12
_symmetry_cell_setting 'monoclinic'
loop_
_space_group_symop_operation_xyz
x,y,z
-x,y,-z
-x,-y,-z
x,-y,z
1/2+x,1/2+y,z
1/2-x,1/2+y,-z
1/2-x,1/2-y,-z
1/2+x,1/2-y,z
loop_
_atom_site_type_symbol
_atom_site_label
_atom_site_fract_x
_atom_site_fract_y
_atom_site_fract_z
Si Si1 0.939707 0.799576 0.187493
Si Si2 0.247418 0.790661 0.611978
Si Si3 0.812121 0.789335 0.884035
Si Si4 0.180774 0.211339 0.900473
Si Si5 0.067108 0.211458 0.221632
Si Si6 0.121351 0.289444 0.406071
Si Si7 0.613372 0.202897 0.619797
O O1 0.880648 0.718685 0.142183
O O2 0.924240 0.801189 0.299232
O O3 0.006246 0.718896 0.176886
O O4 0.944248 0.000000 0.151696
O O5 0.250000 0.750000 0.500000
O O6 0.313696 0.723996 0.637943
O O7 0.183920 0.710777 0.646116
O O8 0.243201 0.000000 0.628575
O O9 0.745443 0.748782 0.848847
O O10 0.870798 0.720027 0.827038
O O11 0.816605 0.000000 0.886104
O O12 0.814691 0.724704 0.992044
O O13 0.176461 0.000000 0.900922
O O14 0.070988 0.249900 0.332477
O O15 0.066170 0.000000 0.211586
O O16 0.127881 0.500000 0.414700
O O17 0.109900 0.225369 0.513114
O O18 0.593777 0.000000 0.620371
#
# Coordination Sequence:
#
# PCOD9205863 Si02
#       7
#     8   8   8   8   8   8   8
#     4  10  22  38  55  81 114 150 189 229 280 335
#     4   9  17  31  51  77 106 139 182 231 280 330
#     4   9  19  37  60  87 113 141 181 228 277 334
#     4   9  19  37  61  85 112 145 180 224 280 338
#     4  10  22  37  55  82 114 148 188 232 277 328
#     4   9  20  36  53  76 109 148 188 228 277 331
#     4  10  21  36  54  78 109 149 192 236 281 329
#
# _framework density 23.412671
#
# number of rings (size 3 to 8) (size 9 to 14) (size 15 to 20)
#    0.000    2.571    0.000    1.714    2.000    6.286 
#    0.000    5.714    0.000    0.000    0.000    6.000 
#    0.000    0.000    0.000    0.000    0.000    0.000 
#
# Total GULP energy -156295.737145 kJ/mol
# GULP energy per Si atom -5581.990612 kJ/mol
# Density = 2.335938 g / cm^3
# Si number density = 23.412671 Si / 1000 Ang^3
#
#
#
# Elastic Constant Matrix: (Units=GPa)
#
#
# Indices 1 2 3 4 5 6 
#
# 1 167.2274 -6.9409 58.6343 0.0000 35.4231 0.0000
# 2 -6.9409 56.6232 -6.7280 0.0000 1.6021 0.0000
# 3 58.6343 -6.7280 67.1896 0.0000 15.9647 0.0000
# 4 0.0000 0.0000 0.0000 9.7450 0.0000 0.4486
# 5 35.4231 1.6021 15.9647 0.0000 27.5963 0.0000
# 6 0.0000 0.0000 0.0000 0.4486 0.0000 19.4690
#
#
#
# Elastic Compliance Matrix: (Units=1/GPa)
#
#
# Indices 1 2 3 4 5 6 
#
# 1 0.010376 0.000740 -0.006731 0.000000 -0.009468 0.000000
# 2 0.000740 0.018065 0.001899 0.000000 -0.003097 0.000000
# 3 -0.006731 0.001899 0.021936 0.000000 -0.004160 0.000000
# 4 0.000000 0.000000 0.000000 0.102726 0.000000 -0.002367
# 5 -0.009468 -0.003097 -0.004160 0.000000 0.050977 0.000000
# 6 0.000000 0.000000 0.000000 -0.002367 0.000000 0.051418
#
#
# Mechanical properties :
#
#
# Convention : Reuss Voigt Hill
#
# Bulk Modulus (GPa) = 23.70092 42.33010 33.01551
# Shear Modulus (GPa) = 18.00204 27.76704 22.88454
#
# Velocity S-wave (km/s) = 2.77592 3.44755 3.12980
# Velocity P-wave (km/s) = 4.51878 5.82809 5.21469
#
# Compressibility (1/GPa) = 0.04219245
#
# Stress axis : x y z
#
# Youngs Moduli (GPa) = 96.37281 55.35694 45.58691
#
# Poissons Ratio (x) = -0.04096 0.30686
# Poissons Ratio (y) = -0.07132 -0.08657
# Poissons Ratio (z) = 0.64872 -0.10513
#
# Static dielectric constant tensor:
#      x y z
#    x 1.922730 0.000000 0.016860 
#    y 0.000000 1.871280 0.000000 
#    z 0.016860 0.000000 1.885990 
# 
# From -- ./inp_files/231069.got.cif
#   From: 2010.05.17/outbox.cif.g08.bks.cpg/sg12_116_cif.got.tgz:231069.got - 2010.06.03 13:09:07.
