data_PCOD9205673
_publ_section_title
;
Structure prediction by ZEFSAII (Michael W. Deem and Ramdas Pophale) SiO2 
 PCOD9205673
Probable space group: C 2/M
;
_chemical_formula_sum "Si O2"
_cell_formula_units_Z 32
_cell_length_a 13.756241
_cell_length_b 18.067773
_cell_length_c 10.489238
_cell_angle_alpha 90.000000
_cell_angle_beta 37.796043
_cell_angle_gamma 90.000000
_cell_volume 1597.733312
_symmetry_space_group_name_H-M "C 2/M"
_symmetry_group_IT_number 12
_symmetry_cell_setting 'monoclinic'
loop_
_space_group_symop_operation_xyz
x,y,z
-x,y,-z
-x,-y,-z
x,-y,z
1/2+x,1/2+y,z
1/2-x,1/2+y,-z
1/2-x,1/2-y,-z
1/2+x,1/2-y,z
loop_
_atom_site_type_symbol
_atom_site_label
_atom_site_fract_x
_atom_site_fract_y
_atom_site_fract_z
Si Si1 0.604572 0.193725 0.018083
Si Si2 0.083974 0.320698 0.543267
Si Si3 0.939200 0.826218 0.759888
Si Si4 0.613038 0.581918 0.760098
O O1 0.785149 0.165763 0.831508
O O2 0.500000 0.189028 0.000000
O O3 0.511982 0.154765 0.231312
O O4 0.616752 0.278992 0.056008
O O5 0.257744 0.353502 0.365501
O O6 0.000000 0.343914 0.500000
O O7 0.067698 0.231298 0.569315
O O8 0.012941 0.900409 0.737007
O O9 0.686210 0.500000 0.678938
O O10 0.500000 0.584020 0.000000
#
# Coordination Sequence:
#
# PCOD9205673 Si02
#       4
#     8   8   8   8
#     4   9  19  35  63  90 116 149 196 260 305 351
#     4  10  21  35  61  94 118 153 202 259 298 354
#     4   9  20  35  60  90 116 152 199 252 302 349
#     4  11  23  38  58  86 129 168 201 248 304 363
#
# _framework density 20.028372999999998
#
# number of rings (size 3 to 8) (size 9 to 14) (size 15 to 20)
#    1.500    0.750    0.000    3.000    3.500    0.500 
#    0.000    1.250    0.000    8.250    0.000    0.000 
#    0.000    0.000    0.000    0.000    0.000    0.000 
#
# Total GULP energy -89129.048981 kJ/mol
# GULP energy per Si atom -5570.565561 kJ/mol
# Density = 1.998279 g / cm^3
# Si number density = 20.028373 Si / 1000 Ang^3
#
#
#
# Elastic Constant Matrix: (Units=GPa)
#
#
# Indices 1 2 3 4 5 6 
#
# 1 168.7000 31.7442 44.2619 -0.0021 12.8379 0.0022
# 2 31.7442 40.7230 34.6416 -0.0014 -6.7672 0.0015
# 3 44.2619 34.6416 79.8799 -0.0013 0.0884 0.0016
# 4 -0.0021 -0.0014 -0.0013 10.1379 0.0016 7.6205
# 5 12.8379 -6.7672 0.0884 0.0016 28.5080 -0.0019
# 6 0.0022 0.0015 0.0016 7.6205 -0.0019 -0.4424
#
#
#
# Elastic Compliance Matrix: (Units=1/GPa)
#
#
# Indices 1 2 3 4 5 6 
#
# 1 0.007793 -0.005050 -0.002123 -0.000002 -0.004701 0.000004
# 2 -0.005050 0.044809 -0.016648 -0.000001 0.012963 0.000002
# 3 -0.002123 -0.016648 0.020918 -0.000001 -0.003061 0.000002
# 4 -0.000002 -0.000001 -0.000001 0.007072 0.000008 0.121817
# 5 -0.004701 0.012963 -0.003061 0.000008 0.040282 -0.000018
# 6 0.000004 0.000002 0.000002 0.121817 -0.000018 -0.162060
#
#
# Mechanical properties :
#
#
# Convention : Reuss Voigt Hill
#
# Bulk Modulus (GPa) = 38.64340 56.73314 47.68827
# Shear Modulus (GPa) = 331.51058 19.55105 175.53081
#
# Velocity S-wave (km/s) = 12.87943 3.12776 9.37184
# Velocity P-wave (km/s) = 15.50836 6.43675 11.87310
#
# Compressibility (1/GPa) = 0.02587764
#
# Stress axis : x y z
#
# Youngs Moduli (GPa) = 128.32585 22.31687 47.80495
#
# Poissons Ratio (x) = 0.11270 0.10147
# Poissons Ratio (y) = 0.64806 0.79588
# Poissons Ratio (z) = 0.27239 0.37154
#
# Static dielectric constant tensor:
#      x y z
#    x 1.742220 0.000000 0.008850 
#    y 0.000000 1.675720 0.000000 
#    z 0.008850 0.000000 1.785880 
# 
# From -- ./inp_files/48302.got.cif
#   From: 2010.05.17/outbox.cif.g08.bks.cpg/sg12_25_cif.got.tgz:48302.got - 2010.06.03 13:09:07.
