data_PCOD9205520
_publ_section_title
;
Structure prediction by ZEFSAII (Michael W. Deem and Ramdas Pophale) SiO2 
 PCOD9205520
Probable space group: C 2/M
;
_chemical_formula_sum "Si O2"
_cell_formula_units_Z 52
_cell_length_a 25.287760
_cell_length_b 21.967859
_cell_length_c 13.497106
_cell_angle_alpha 90.000000
_cell_angle_beta 156.229435
_cell_angle_gamma 90.000000
_cell_volume 3022.211290
_symmetry_space_group_name_H-M "C 2/M"
_symmetry_group_IT_number 12
_symmetry_cell_setting 'monoclinic'
loop_
_space_group_symop_operation_xyz
x,y,z
-x,y,-z
-x,-y,-z
x,-y,z
1/2+x,1/2+y,z
1/2-x,1/2+y,-z
1/2-x,1/2-y,-z
1/2+x,1/2-y,z
loop_
_atom_site_type_symbol
_atom_site_label
_atom_site_fract_x
_atom_site_fract_y
_atom_site_fract_z
Si Si1 0.636339 0.759200 0.387502
Si Si2 0.468100 0.626685 0.750053
Si Si3 0.643782 0.073363 0.709992
Si Si4 0.425813 0.426557 0.271489
Si Si5 0.500000 0.162885 0.000000
Si Si6 0.280171 0.069741 0.580214
Si Si7 0.257938 0.873798 0.327507
O O1 0.750000 0.750000 0.500000
O O2 0.590633 0.694578 0.349046
O O3 0.691177 0.806078 0.561976
O O4 0.521199 0.794019 0.130737
O O5 0.502952 0.603473 0.700381
O O6 0.363705 0.582992 0.624025
O O7 0.602988 0.627106 0.042431
O O8 0.500000 0.093597 0.500000
O O9 0.674487 0.099214 0.653950
O O10 0.641351 0.000000 0.700069
O O11 0.770299 0.089389 0.995676
O O12 0.500000 0.409430 0.500000
O O13 0.434400 0.500000 0.276765
O O14 0.623319 0.117989 0.202610
O O15 0.284777 0.086632 0.471812
O O16 0.317942 0.000000 0.661204
#
# Coordination Sequence:
#
# PCOD9205520 Si02
#       7
#     8   8   8   8   4   8   8
#     4  11  20  36  56  79 113 153 193 224 276 338
#     4  11  21  35  59  84 110 147 191 233 280 338
#     4   9  18  36  59  83 110 144 187 235 287 341
#     4   9  19  38  59  83 113 146 188 238 291 343
#     4  10  21  36  52  74 117 156 182 224 274 348
#     4  11  22  35  53  84 118 146 182 235 293 343
#     4  10  21  35  57  83 111 148 187 235 277 337
#
# _framework density 17.205945
#
# number of rings (size 3 to 8) (size 9 to 14) (size 15 to 20)
#    0.000    1.846    3.077    2.538    0.000    2.462 
#    5.538    0.769    0.000    3.692    0.000    0.000 
#    0.000    0.000    0.000    0.000    0.000    0.000 
#
# Total GULP energy -145053.853841 kJ/mol
# GULP energy per Si atom -5578.994378 kJ/mol
# Density = 1.716678 g / cm^3
# Si number density = 17.205945 Si / 1000 Ang^3
#
#
#
# Elastic Constant Matrix: (Units=GPa)
#
#
# Indices 1 2 3 4 5 6 
#
# 1 77.3925 24.4835 64.2270 0.0000 6.9084 0.0000
# 2 24.4835 68.0075 26.4315 0.0000 -1.4729 0.0000
# 3 64.2270 26.4315 107.5230 0.0000 0.2410 0.0000
# 4 0.0000 0.0000 0.0000 16.1989 0.0000 4.9754
# 5 6.9084 -1.4729 0.2410 0.0000 29.9050 0.0000
# 6 0.0000 0.0000 0.0000 4.9754 0.0000 23.0087
#
#
#
# Elastic Compliance Matrix: (Units=1/GPa)
#
#
# Indices 1 2 3 4 5 6 
#
# 1 0.027650 -0.004070 -0.015501 0.000000 -0.006463 0.000000
# 2 -0.004070 0.016877 -0.001722 0.000000 0.001785 0.000000
# 3 -0.015501 -0.001722 0.018975 0.000000 0.003343 0.000000
# 4 0.000000 0.000000 0.000000 0.066124 0.000000 -0.014299
# 5 -0.006463 0.001785 0.003343 0.000000 0.034993 0.000000
# 6 0.000000 0.000000 0.000000 -0.014299 0.000000 0.046554
#
#
# Mechanical properties :
#
#
# Convention : Reuss Voigt Hill
#
# Bulk Modulus (GPa) = 47.80773 53.68965 50.74869
# Shear Modulus (GPa) = 19.17682 23.00793 21.09237
#
# Velocity S-wave (km/s) = 3.34210 3.66075 3.50505
# Velocity P-wave (km/s) = 6.53749 7.00999 6.77786
#
# Compressibility (1/GPa) = 0.02091712
#
# Stress axis : x y z
#
# Youngs Moduli (GPa) = 36.16671 59.25135 52.69954
#
# Poissons Ratio (x) = 0.24113 0.81691
# Poissons Ratio (y) = 0.14718 0.09074
# Poissons Ratio (z) = 0.56063 0.10203
#
# Static dielectric constant tensor:
#      x y z
#    x 1.546980 0.000000 0.006500 
#    y 0.000000 1.572710 0.000000 
#    z 0.006500 0.000000 1.621230 
# 
# From -- ./inp_files/169874.got.cif
#   From: 2010.05.17/outbox.cif.g08.bks.cpg/sg12_85_cif.got.tgz:169874.got - 2010.06.03 13:09:07.
