data_PCOD9205109
_publ_section_title
;
Structure prediction by ZEFSAII (Michael W. Deem and Ramdas Pophale) SiO2 
 PCOD9205109
Probable space group: C 2/M
;
_chemical_formula_sum "Si O2"
_cell_formula_units_Z 64
_cell_length_a 22.772383
_cell_length_b 18.196250
_cell_length_c 7.391307
_cell_angle_alpha 90.000000
_cell_angle_beta 95.125372
_cell_angle_gamma 90.000000
_cell_volume 3050.504381
_symmetry_space_group_name_H-M "C 2/M"
_symmetry_group_IT_number 12
_symmetry_cell_setting 'monoclinic'
loop_
_space_group_symop_operation_xyz
x,y,z
-x,y,-z
-x,-y,-z
x,-y,z
1/2+x,1/2+y,z
1/2-x,1/2+y,-z
1/2-x,1/2-y,-z
1/2+x,1/2-y,z
loop_
_atom_site_type_symbol
_atom_site_label
_atom_site_fract_x
_atom_site_fract_y
_atom_site_fract_z
Si Si1 0.106534 0.416517 0.724816
Si Si2 0.661243 0.411720 0.208949
Si Si3 0.373443 0.411898 0.399196
Si Si4 0.276933 0.829471 0.308844
Si Si5 0.141599 0.416579 0.156135
Si Si6 0.016979 0.589631 0.208567
Si Si7 0.257547 0.666027 0.278546
Si Si8 0.442796 0.589399 0.091423
O O1 0.111577 0.500000 0.653713
O O2 0.159071 0.365613 0.674701
O O3 0.039173 0.389824 0.684825
O O4 0.118078 0.421236 0.944562
O O5 0.667808 0.500000 0.215436
O O6 0.633405 0.387443 0.394954
O O7 0.725487 0.376943 0.200566
O O8 0.614265 0.392482 0.043691
O O9 0.376162 0.500000 0.404545
O O10 0.313359 0.387516 0.283738
O O11 0.428387 0.385825 0.292032
O O12 0.275714 0.747873 0.227960
O O13 0.258017 0.828647 0.512990
O O14 0.157712 0.500000 0.217669
O O15 0.085169 0.389476 0.257742
O O16 0.198645 0.365838 0.174718
O O17 0.017231 0.500000 0.208888
O O18 0.000000 0.613990 0.000000
O O19 0.447749 0.500000 0.098676
O O20 0.500000 0.616944 0.000000
#
# Coordination Sequence:
#
# PCOD9205109 Si02
#       8
#     8   8   8   8   8   8   8   8
#     4   9  17  30  52  78 102 132 168 207 252 303
#     4   9  18  33  53  76 104 136 170 214 265 310
#     4   9  18  33  53  76 104 136 170 214 265 310
#     4  10  21  35  50  70 102 138 172 210 255 307
#     4   9  17  30  52  78 102 132 168 207 252 303
#     4   7  12  26  47  73 103 129 158 199 248 301
#     4  10  21  35  50  70 102 138 172 210 255 307
#     4   9  18  32  53  80 104 127 167 220 262 310
#
# _framework density 20.980136999999999
#
# number of rings (size 3 to 8) (size 9 to 14) (size 15 to 20)
#    0.000    3.000    0.000    2.250    1.750    2.500 
#    0.000    3.125    2.750    2.250    0.000    0.000 
#    0.000    0.000    0.000    0.000    0.000    0.000 
#
# Total GULP energy -178418.837031 kJ/mol
# GULP energy per Si atom -5575.588657 kJ/mol
# Density = 2.093239 g / cm^3
# Si number density = 20.980137 Si / 1000 Ang^3
#
#
#
# Elastic Constant Matrix: (Units=GPa)
#
#
# Indices 1 2 3 4 5 6 
#
# 1 83.6209 23.9420 9.0181 0.0000 -28.3911 0.0000
# 2 23.9420 24.8575 6.5436 0.0000 -4.3174 0.0000
# 3 9.0181 6.5436 35.7105 0.0000 -10.2326 0.0000
# 4 0.0000 0.0000 0.0000 8.6622 0.0000 -6.9258
# 5 -28.3911 -4.3174 -10.2326 0.0000 33.6247 0.0000
# 6 0.0000 0.0000 0.0000 -6.9258 0.0000 -4.8032
#
#
#
# Elastic Compliance Matrix: (Units=1/GPa)
#
#
# Indices 1 2 3 4 5 6 
#
# 1 0.023701 -0.020440 0.003004 0.000000 0.018302 0.000000
# 2 -0.020440 0.060246 -0.009429 0.000000 -0.012392 0.000000
# 3 0.003004 -0.009429 0.032156 0.000000 0.011112 0.000000
# 4 0.000000 0.000000 0.000000 0.053623 0.000000 -0.077321
# 5 0.018302 -0.012392 0.011112 0.000000 0.046983 0.000000
# 6 0.000000 0.000000 0.000000 -0.077321 0.000000 -0.096707
#
#
# Mechanical properties :
#
#
# Convention : Reuss Voigt Hill
#
# Bulk Modulus (GPa) = 16.03225 24.79958 20.41591
# Shear Modulus (GPa) = 25.70386 14.47578 20.08982
#
# Velocity S-wave (km/s) = 3.50401 2.62959 3.09781
# Velocity P-wave (km/s) = 4.90194 4.58975 4.74841
#
# Compressibility (1/GPa) = 0.06237428
#
# Stress axis : x y z
#
# Youngs Moduli (GPa) = 42.19261 16.59858 31.09840
#
# Poissons Ratio (x) = 0.33928 -0.09343
# Poissons Ratio (y) = 0.86242 0.29322
# Poissons Ratio (z) = -0.12677 0.15650
#
# Static dielectric constant tensor:
#      x y z
#    x 1.767690 0.000000 -0.031920 
#    y 0.000000 1.714850 0.000000 
#    z -0.031920 0.000000 1.839280 
# 
# From -- ./inp_files/87987.got.cif
#   From: 2010.05.17/outbox.cif.g08.bks.cpg/sg12_44_cif.got.tgz:87987.got - 2010.06.03 13:09:07.
