data_PCOD9205727
_publ_section_title
;
Structure prediction by ZEFSAII (Michael W. Deem and Ramdas Pophale) SiO2 
 PCOD9205727
Probable space group: C 2/M
;
_chemical_formula_sum "Si O2"
_cell_formula_units_Z 56
_cell_length_a 14.417992
_cell_length_b 7.552300
_cell_length_c 23.957802
_cell_angle_alpha 90.000000
_cell_angle_beta 72.731035
_cell_angle_gamma 90.000000
_cell_volume 2491.143605
_symmetry_space_group_name_H-M "C 2/M"
_symmetry_group_IT_number 12
_symmetry_cell_setting 'monoclinic'
loop_
_space_group_symop_operation_xyz
x,y,z
-x,y,-z
-x,-y,-z
x,-y,z
1/2+x,1/2+y,z
1/2-x,1/2+y,-z
1/2-x,1/2-y,-z
1/2+x,1/2-y,z
loop_
_atom_site_type_symbol
_atom_site_label
_atom_site_fract_x
_atom_site_fract_y
_atom_site_fract_z
Si Si1 0.182774 0.211561 0.224926
Si Si2 0.297568 0.711357 0.903596
Si Si3 0.613489 0.211353 0.549375
Si Si4 0.999326 0.786897 0.326681
Si Si5 0.897262 0.786325 0.996666
Si Si6 0.301190 0.287004 0.304097
Si Si7 0.686824 0.797553 0.424365
O O1 0.186664 0.282321 0.161425
O O2 0.278443 0.244305 0.244554
O O3 0.093760 0.282496 0.278136
O O4 0.170546 0.000000 0.223292
O O5 0.312446 0.500000 0.898317
O O6 0.189031 0.742251 0.945333
O O7 0.366776 0.780407 0.940720
O O8 0.520580 0.240743 0.605109
O O9 0.617178 0.277663 0.484900
O O10 0.706406 0.295483 0.564389
O O11 0.630221 0.000000 0.544241
O O12 0.904007 0.724387 0.309532
O O13 0.001157 0.000000 0.324138
O O14 0.902050 0.000000 0.992527
O O15 0.000000 0.719800 0.000000
O O16 0.300407 0.500000 0.310112
O O17 0.214937 0.214748 0.359895
O O18 0.655648 0.000000 0.420297
#
# Coordination Sequence:
#
# PCOD9205727 Si02
#       7
#     8   8   8   8   8   8   8
#     4  10  21  36  52  72 103 140 171 202 246 298
#     4   9  19  35  53  77 109 138 165 203 248 289
#     4   9  15  25  46  72  94 122 165 213 257 305
#     4   9  19  35  51  69  99 136 169 206 257 308
#     4   9  18  34  58  84 106 132 168 204 239 288
#     4   9  18  33  52  72  96 130 172 214 254 300
#     4   8  15  28  45  67  96 128 161 205 264 314
#
# _framework density 22.479635999999999
#
# number of rings (size 3 to 8) (size 9 to 14) (size 15 to 20)
#    0.000    3.000    0.000    1.286    0.000    5.429 
#    0.000    3.571    0.000    4.286    0.000    0.000 
#    0.000    0.000    0.000    0.000    0.000    0.000 
#
# Total GULP energy -156258.855140 kJ/mol
# GULP energy per Si atom -5580.673398 kJ/mol
# Density = 2.242847 g / cm^3
# Si number density = 22.479636 Si / 1000 Ang^3
#
#
#
# Elastic Constant Matrix: (Units=GPa)
#
#
# Indices 1 2 3 4 5 6 
#
# 1 81.1433 -2.7143 44.8619 0.0000 9.7431 0.0000
# 2 -2.7143 65.5096 0.3987 0.0000 1.1503 0.0000
# 3 44.8619 0.3987 148.6667 0.0000 28.6488 0.0000
# 4 0.0000 0.0000 0.0000 21.8130 0.0000 -1.6614
# 5 9.7431 1.1503 28.6488 0.0000 14.3914 0.0000
# 6 0.0000 0.0000 0.0000 -1.6614 0.0000 9.6871
#
#
#
# Elastic Compliance Matrix: (Units=1/GPa)
#
#
# Indices 1 2 3 4 5 6 
#
# 1 0.014851 0.000674 -0.004113 0.000000 -0.001920 0.000000
# 2 0.000674 0.015326 0.000129 0.000000 -0.001938 0.000000
# 3 -0.004113 0.000129 0.012059 0.000000 -0.021230 0.000000
# 4 0.000000 0.000000 0.000000 0.046451 0.000000 0.007967
# 5 -0.001920 -0.001938 -0.021230 0.000000 0.113203 0.000000
# 6 0.000000 0.000000 0.000000 0.007967 0.000000 0.104597
#
#
# Mechanical properties :
#
#
# Convention : Reuss Voigt Hill
#
# Bulk Modulus (GPa) = 28.07791 42.26801 35.17296
# Shear Modulus (GPa) = 15.38560 26.02985 20.70773
#
# Velocity S-wave (km/s) = 2.61899 3.40653 3.03838
# Velocity P-wave (km/s) = 4.65435 5.85800 5.29052
#
# Compressibility (1/GPa) = 0.03561518
#
# Stress axis : x y z
#
# Youngs Moduli (GPa) = 67.33507 65.24807 82.92891
#
# Poissons Ratio (x) = -0.04398 0.34111
# Poissons Ratio (y) = -0.04539 -0.01069
# Poissons Ratio (z) = 0.27697 -0.00841
#
# Static dielectric constant tensor:
#      x y z
#    x 1.846170 0.000000 0.006780 
#    y 0.000000 1.887710 0.000000 
#    z 0.006780 0.000000 1.844650 
# 
# From -- ./inp_files/337835.got.cif
#   From: 2010.05.17/outbox.cif.g08.bks.cpg/sg12_169_cif.got.tgz:337835.got - 2010.06.03 13:09:07.
