data_PCOD9205672
_publ_section_title
;
Structure prediction by ZEFSAII (Michael W. Deem and Ramdas Pophale) SiO2 
 PCOD9205672
Probable space group: C 2/M
;
_chemical_formula_sum "Si O2"
_cell_formula_units_Z 48
_cell_length_a 16.407352
_cell_length_b 27.770792
_cell_length_c 12.459495
_cell_angle_alpha 90.000000
_cell_angle_beta 25.502186
_cell_angle_gamma 90.000000
_cell_volume 2444.253742
_symmetry_space_group_name_H-M "C 2/M"
_symmetry_group_IT_number 12
_symmetry_cell_setting 'monoclinic'
loop_
_space_group_symop_operation_xyz
x,y,z
-x,y,-z
-x,-y,-z
x,-y,z
1/2+x,1/2+y,z
1/2-x,1/2+y,-z
1/2-x,1/2-y,-z
1/2+x,1/2-y,z
loop_
_atom_site_type_symbol
_atom_site_label
_atom_site_fract_x
_atom_site_fract_y
_atom_site_fract_z
Si Si1 0.098089 0.052900 0.213468
Si Si2 0.792608 0.575694 0.203905
Si Si3 0.720883 0.214329 0.263314
Si Si4 0.302801 0.180783 0.103096
Si Si5 0.209440 0.305636 0.519366
Si Si6 0.921571 0.155793 0.835286
O O1 0.882977 0.059785 0.513176
O O2 0.235729 0.056157 0.153614
O O3 0.137519 0.099959 0.095806
O O4 0.116528 0.000000 0.142320
O O5 0.792072 0.633464 0.187981
O O6 0.000000 0.561390 0.000000
O O7 0.500000 0.215472 0.500000
O O8 0.791076 0.269454 0.180578
O O9 0.745740 0.190384 0.349328
O O10 0.823356 0.186317 0.045706
O O11 0.138006 0.177430 0.209255
O O12 0.497522 0.181316 0.804575
O O13 0.250000 0.250000 0.500000
O O14 0.357230 0.338288 0.406718
#
# Coordination Sequence:
#
# PCOD9205672 Si02
#       6
#     8   8   8   8   8   8
#     4  10  23  41  62  87 118 157 203 256 306 348
#     4  10  21  35  61  93 124 154 195 244 306 368
#     4  12  24  38  60  85 126 164 200 242 294 355
#     4  11  24  37  56  91 126 162 195 238 294 366
#     4  12  24  38  59  86 122 165 202 236 293 356
#     4  11  23  42  58  87 121 158 199 252 293 354
#
# _framework density 19.637896000000001
#
# number of rings (size 3 to 8) (size 9 to 14) (size 15 to 20)
#    0.000    1.000    3.333    4.000    9.333    1.333 
#    0.000    0.000    0.000    2.500    0.000    0.000 
#    0.000    0.000    0.000    0.000    0.000    0.000 
#
# Total GULP energy -134309.656637 kJ/mol
# GULP energy per Si atom -5596.235693 kJ/mol
# Density = 1.959320 g / cm^3
# Si number density = 19.637896 Si / 1000 Ang^3
#
#
#
# Elastic Constant Matrix: (Units=GPa)
#
#
# Indices 1 2 3 4 5 6 
#
# 1 93.0560 13.3369 35.5016 -0.0001 -25.3124 0.0002
# 2 13.3369 124.4115 8.3290 -0.0004 2.6772 -0.0005
# 3 35.5016 8.3290 52.1771 -0.0029 -16.2937 -0.0010
# 4 -0.0001 -0.0004 -0.0029 18.0373 0.0007 1.7225
# 5 -25.3124 2.6772 -16.2937 0.0007 38.0970 0.0009
# 6 0.0002 -0.0005 -0.0010 1.7225 0.0009 1.7315
#
#
#
# Elastic Compliance Matrix: (Units=1/GPa)
#
#
# Indices 1 2 3 4 5 6 
#
# 1 0.016139 -0.001313 -0.008534 -0.000001 0.007166 -0.000011
# 2 -0.001313 0.008288 -0.001020 0.000000 -0.001891 0.000003
# 3 -0.008534 -0.001020 0.026992 0.000003 0.005946 0.000010
# 4 -0.000001 0.000000 0.000003 0.061261 0.000001 -0.060944
# 5 0.007166 -0.001891 0.005946 0.000001 0.033686 -0.000018
# 6 -0.000011 0.000003 0.000010 -0.060944 -0.000018 0.638162
#
#
# Mechanical properties :
#
#
# Convention : Reuss Voigt Hill
#
# Bulk Modulus (GPa) = 33.68792 42.66440 38.17616
# Shear Modulus (GPa) = 6.12628 25.73830 15.93229
#
# Velocity S-wave (km/s) = 1.76816 3.62421 2.85143
# Velocity P-wave (km/s) = 4.62172 6.26785 5.50664
#
# Compressibility (1/GPa) = 0.02968423
#
# Stress axis : x y z
#
# Youngs Moduli (GPa) = 61.96037 120.66245 37.04861
#
# Poissons Ratio (x) = 0.15843 0.31617
# Poissons Ratio (y) = 0.08135 0.03779
# Poissons Ratio (z) = 0.52877 0.12309
#
# Static dielectric constant tensor:
#      x y z
#    x 1.693970 0.000000 -0.020990 
#    y 0.000000 1.688180 0.000000 
#    z -0.020990 0.000000 1.700080 
# 
# From -- ./inp_files/149606.got.cif
#   From: 2010.05.17/outbox.cif.g08.bks.cpg/sg12_75_cif.got.tgz:149606.got - 2010.06.03 13:09:07.
