data_PCOD9205105
_publ_section_title
;
Structure prediction by ZEFSAII (Michael W. Deem and Ramdas Pophale) SiO2 
 PCOD9205105
Probable space group: C 2/M
;
_chemical_formula_sum "Si O2"
_cell_formula_units_Z 56
_cell_length_a 15.758558
_cell_length_b 7.678236
_cell_length_c 23.528408
_cell_angle_alpha 90.000000
_cell_angle_beta 45.711810
_cell_angle_gamma 90.000000
_cell_volume 2037.907280
_symmetry_space_group_name_H-M "C 2/M"
_symmetry_group_IT_number 12
_symmetry_cell_setting 'monoclinic'
loop_
_space_group_symop_operation_xyz
x,y,z
-x,y,-z
-x,-y,-z
x,-y,z
1/2+x,1/2+y,z
1/2-x,1/2+y,-z
1/2-x,1/2-y,-z
1/2+x,1/2-y,z
loop_
_atom_site_type_symbol
_atom_site_label
_atom_site_fract_x
_atom_site_fract_y
_atom_site_fract_z
Si Si1 0.158981 0.291751 0.877459
Si Si2 0.979320 0.207429 0.691207
Si Si3 0.383240 0.787714 0.980375
Si Si4 0.490299 0.298085 0.442762
Si Si5 0.813571 0.205852 0.258934
Si Si6 0.915204 0.299364 0.843972
Si Si7 0.748643 0.709951 0.590807
O O1 0.165928 0.500000 0.877185
O O2 0.223103 0.240914 0.788875
O O3 0.021341 0.244285 0.929091
O O4 0.182498 0.227650 0.931042
O O5 0.956800 0.284053 0.639052
O O6 0.906989 0.232196 0.783351
O O7 0.113960 0.263351 0.641762
O O8 0.979961 0.000000 0.682649
O O9 0.359887 0.716110 0.927554
O O10 0.377778 0.000000 0.980725
O O11 0.500000 0.209389 0.500000
O O12 0.526908 0.500000 0.430413
O O13 0.346496 0.294998 0.505246
O O14 0.943301 0.288531 0.207933
O O15 0.734804 0.260534 0.349881
O O16 0.830995 0.000000 0.256867
O O17 0.884104 0.500000 0.857269
O O18 0.756281 0.500000 0.582181
#
# Coordination Sequence:
#
# PCOD9205105 Si02
#       7
#     8   8   8   8   8   8   8
#     4   8  12  20  33  49  74 111 147 175 209 252
#     4   9  18  32  47  66  92 116 143 182 223 260
#     4   7  11  19  31  49  76 108 142 178 210 246
#     4  10  21  35  50  68  90 115 143 179 222 266
#     4   9  16  25  36  56  85 112 142 181 220 254
#     4   9  15  24  39  58  80 111 149 181 212 254
#     4   9  18  31  47  66  89 118 148 181 218 256
#
# _framework density 27.47917
#
# number of rings (size 3 to 8) (size 9 to 14) (size 15 to 20)
#    0.000    3.286    0.000    3.857    0.000    3.714 
#    0.000    6.429    0.000    0.000    0.000    0.000 
#    0.000    1.143    0.000    2.571    0.000    8.571 
#
# Total GULP energy -156501.638000 kJ/mol
# GULP energy per Si atom -5589.344214 kJ/mol
# Density = 2.741663 g / cm^3
# Si number density = 27.479170 Si / 1000 Ang^3
#
#
#
# Elastic Constant Matrix: (Units=GPa)
#
#
# Indices 1 2 3 4 5 6 
#
# 1 91.8049 12.6716 78.9989 0.0001 40.6799 0.0002
# 2 12.6716 80.3714 11.5908 0.0002 6.9955 0.0004
# 3 78.9989 11.5908 308.0319 0.0000 32.3954 0.0001
# 4 0.0001 0.0002 0.0000 20.9722 0.0000 -2.1397
# 5 40.6799 6.9955 32.3954 0.0000 74.5974 0.0001
# 6 0.0002 0.0004 0.0001 -2.1397 0.0001 24.8098
#
#
#
# Elastic Compliance Matrix: (Units=1/GPa)
#
#
# Indices 1 2 3 4 5 6 
#
# 1 0.017795 -0.001584 -0.003667 0.000000 -0.007963 0.000000
# 2 -0.001584 0.012725 -0.000040 0.000000 -0.000312 0.000000
# 3 -0.003667 -0.000040 0.004168 0.000000 0.000193 0.000000
# 4 0.000000 0.000000 0.000000 0.048105 0.000000 0.004149
# 5 -0.007963 -0.000312 0.000193 0.000000 0.017693 0.000000
# 6 0.000000 0.000000 0.000000 0.004149 0.000000 0.040664
#
#
# Mechanical properties :
#
#
# Convention : Reuss Voigt Hill
#
# Bulk Modulus (GPa) = 41.48086 76.30341 58.89214
# Shear Modulus (GPa) = 31.29550 49.20568 40.25059
#
# Velocity S-wave (km/s) = 3.37839 4.23620 3.83138
# Velocity P-wave (km/s) = 5.50874 7.19411 6.40708
#
# Compressibility (1/GPa) = 0.02410750
#
# Stress axis : x y z
#
# Youngs Moduli (GPa) = 56.19520 78.58629 239.92512
#
# Poissons Ratio (x) = 0.12446 0.87974
# Poissons Ratio (y) = 0.08900 0.00955
# Poissons Ratio (z) = 0.20605 0.00313
#
# Static dielectric constant tensor:
#      x y z
#    x 2.310760 0.000000 0.024840 
#    y 0.000000 1.965840 0.000000 
#    z 0.024840 0.000000 2.204510 
# 
# From -- ./inp_files/319052.got.cif
#   From: 2010.05.17/outbox.cif.g08.bks.cpg/sg12_160_cif.got.tgz:319052.got - 2010.06.03 13:09:07.
