data_PCOD9205975
_publ_section_title
;
Structure prediction by ZEFSAII (Michael W. Deem and Ramdas Pophale) SiO2 
 PCOD9205975
Probable space group: C 2/M
;
_chemical_formula_sum "Si O2"
_cell_formula_units_Z 64
_cell_length_a 24.518140
_cell_length_b 8.951882
_cell_length_c 20.571417
_cell_angle_alpha 90.000000
_cell_angle_beta 126.824646
_cell_angle_gamma 90.000000
_cell_volume 3614.207675
_symmetry_space_group_name_H-M "C 2/M"
_symmetry_group_IT_number 12
_symmetry_cell_setting 'monoclinic'
loop_
_space_group_symop_operation_xyz
x,y,z
-x,y,-z
-x,-y,-z
x,-y,z
1/2+x,1/2+y,z
1/2-x,1/2+y,-z
1/2-x,1/2-y,-z
1/2+x,1/2-y,z
loop_
_atom_site_type_symbol
_atom_site_label
_atom_site_fract_x
_atom_site_fract_y
_atom_site_fract_z
Si Si1 0.440363 0.177343 0.551410
Si Si2 0.305047 0.677293 0.703736
Si Si3 0.940509 0.321052 0.190117
Si Si4 0.100199 0.324813 0.332597
Si Si5 0.056889 0.680980 0.951446
Si Si6 0.660105 0.677972 0.621534
Si Si7 0.583273 0.322177 0.693881
Si Si8 0.098256 0.680668 0.120891
O O1 0.399088 0.198860 0.589514
O O2 0.401157 0.257240 0.465495
O O3 0.514716 0.245344 0.617488
O O4 0.446185 0.000000 0.544099
O O5 0.301467 0.500000 0.704617
O O6 0.347482 0.727838 0.670775
O O7 0.230024 0.746449 0.650200
O O8 0.346076 0.742916 0.794622
O O9 0.930704 0.500000 0.188759
O O10 0.920085 0.268903 0.103379
O O11 0.905745 0.241082 0.226104
O O12 0.022098 0.294978 0.255188
O O13 0.113426 0.500000 0.328451
O O14 0.058463 0.500000 0.951575
O O15 0.977485 0.719256 0.906855
O O16 0.098426 0.726510 0.045146
O O17 0.663981 0.500000 0.615733
O O18 0.642609 0.708843 0.684494
O O19 0.572653 0.500000 0.689091
O O20 0.105118 0.500000 0.129804
#
# Coordination Sequence:
#
# PCOD9205975 Si02
#       8
#     8   8   8   8   8   8   8   8
#     4  10  21  37  59  83 105 131 169 219 266 308
#     4  12  24  35  51  76 108 142 177 217 260 308
#     4   9  16  30  54  82 108 136 173 215 257 304
#     4   9  18  34  54  76 106 141 172 205 255 316
#     4   8  14  27  53  82 105 137 176 208 249 308
#     4  11  24  40  56  73 100 141 182 217 259 314
#     4  10  21  36  55  80 106 136 174 216 264 310
#     4   9  16  31  53  76 107 142 174 209 250 310
#
# _framework density 17.707892999999999
#
# number of rings (size 3 to 8) (size 9 to 14) (size 15 to 20)
#    0.000    2.250    1.250    4.125    0.000    6.500 
#    0.000    1.875    0.000    0.750    0.000    0.000 
#    0.000    0.000    0.000    0.000    0.000    0.000 
#
# Total GULP energy -178554.738883 kJ/mol
# GULP energy per Si atom -5579.835590 kJ/mol
# Density = 1.766759 g / cm^3
# Si number density = 17.707893 Si / 1000 Ang^3
#
#
#
# Elastic Constant Matrix: (Units=GPa)
#
#
# Indices 1 2 3 4 5 6 
#
# 1 55.7973 39.1899 7.7221 0.0000 -18.8713 0.0000
# 2 39.1899 59.8627 9.2439 0.0000 -12.9283 0.0000
# 3 7.7221 9.2439 28.2625 0.0000 -22.2409 0.0000
# 4 0.0000 0.0000 0.0000 21.9273 0.0000 -5.1318
# 5 -18.8713 -12.9283 -22.2409 0.0000 25.8370 0.0000
# 6 0.0000 0.0000 0.0000 -5.1318 0.0000 26.0976
#
#
#
# Elastic Compliance Matrix: (Units=1/GPa)
#
#
# Indices 1 2 3 4 5 6 
#
# 1 0.051891 -0.027397 0.042843 0.000000 0.061072 0.000000
# 2 -0.027397 0.033332 -0.018720 0.000000 -0.019447 0.000000
# 3 0.042843 -0.018720 0.145862 0.000000 0.147487 0.000000
# 4 0.000000 0.000000 0.000000 0.047805 0.000000 0.009400
# 5 0.061072 -0.019447 0.147487 0.000000 0.200540 0.000000
# 6 0.000000 0.000000 0.000000 0.009400 0.000000 0.040166
#
#
# Mechanical properties :
#
#
# Convention : Reuss Voigt Hill
#
# Bulk Modulus (GPa) = 4.45360 28.47048 16.46204
# Shear Modulus (GPa) = 8.31961 20.62349 14.47155
#
# Velocity S-wave (km/s) = 2.16990 3.41640 2.86184
# Velocity P-wave (km/s) = 2.96621 5.62807 4.49853
#
# Compressibility (1/GPa) = 0.22453725
#
# Stress axis : x y z
#
# Youngs Moduli (GPa) = 19.27117 30.00137 6.85577
#
# Poissons Ratio (x) = 0.82196 -0.29372
# Poissons Ratio (y) = 0.52798 0.12834
# Poissons Ratio (z) = -0.82563 0.56161
#
# Static dielectric constant tensor:
#      x y z
#    x 1.603360 0.000000 -0.035030 
#    y 0.000000 1.585780 0.000000 
#    z -0.035030 0.000000 1.608230 
# 
# From -- ./inp_files/324290.got.cif
#   From: 2010.05.17/outbox.cif.g08.bks.cpg/sg12_163_cif.got.tgz:324290.got - 2010.06.03 13:09:07.
