data_PCOD9205464
_publ_section_title
;
Structure prediction by ZEFSAII (Michael W. Deem and Ramdas Pophale) SiO2 
 PCOD9205464
Probable space group: C 2/M
;
_chemical_formula_sum "Si O2"
_cell_formula_units_Z 32
_cell_length_a 11.746062
_cell_length_b 19.186189
_cell_length_c 7.443365
_cell_angle_alpha 90.000000
_cell_angle_beta 123.996418
_cell_angle_gamma 90.000000
_cell_volume 1390.730083
_symmetry_space_group_name_H-M "C 2/M"
_symmetry_group_IT_number 12
_symmetry_cell_setting 'monoclinic'
loop_
_space_group_symop_operation_xyz
x,y,z
-x,y,-z
-x,-y,-z
x,-y,z
1/2+x,1/2+y,z
1/2-x,1/2+y,-z
1/2-x,1/2-y,-z
1/2+x,1/2-y,z
loop_
_atom_site_type_symbol
_atom_site_label
_atom_site_fract_x
_atom_site_fract_y
_atom_site_fract_z
Si Si1 0.894973 0.000000 0.132681
Si Si2 0.863174 0.372567 0.771381
Si Si3 0.033461 0.263432 0.719379
Si Si4 0.299810 0.500000 0.470214
Si Si5 0.211751 0.851882 0.004814
O O1 0.841974 0.000000 0.294257
O O2 0.837615 0.929214 0.994557
O O3 0.059654 0.000000 0.294643
O O4 0.793556 0.431701 0.589994
O O5 0.758623 0.353061 0.836746
O O6 0.911419 0.305920 0.702807
O O7 0.000000 0.398698 0.000000
O O8 0.093244 0.205571 0.905179
O O9 0.000000 0.229767 0.500000
O O10 0.153164 0.320502 0.784089
#
# Coordination Sequence:
#
# PCOD9205464 Si02
#       5
#     4   8   8   4   8
#     4   9  18  34  58  79 107 137 184 238 261 306
#     4   9  18  34  55  82 108 141 182 230 263 315
#     4  10  21  35  56  83 112 146 175 219 276 329
#     4   9  17  30  56  85 102 140 187 226 271 305
#     4   9  20  38  56  84 108 139 185 227 269 312
#
# _framework density 23.009495999999999
#
# number of rings (size 3 to 8) (size 9 to 14) (size 15 to 20)
#    0.000    2.750    0.000    0.375    7.000    4.000 
#    0.000    2.500    0.000    1.500    0.000    0.000 
#    0.000    0.000    0.000    0.000    0.000    0.000 
#
# Total GULP energy -89388.812691 kJ/mol
# GULP energy per Si atom -5586.800793 kJ/mol
# Density = 2.295713 g / cm^3
# Si number density = 23.009496 Si / 1000 Ang^3
#
#
#
# Elastic Constant Matrix: (Units=GPa)
#
#
# Indices 1 2 3 4 5 6 
#
# 1 80.0534 42.8163 15.8084 0.0000 8.4029 0.0000
# 2 42.8163 118.5018 6.0270 0.0000 23.5948 0.0000
# 3 15.8084 6.0270 34.7008 0.0000 9.8871 0.0000
# 4 0.0000 0.0000 0.0000 15.8716 0.0000 4.5248
# 5 8.4029 23.5948 9.8871 0.0000 22.7313 0.0000
# 6 0.0000 0.0000 0.0000 4.5248 0.0000 19.6382
#
#
#
# Elastic Compliance Matrix: (Units=1/GPa)
#
#
# Indices 1 2 3 4 5 6 
#
# 1 0.017129 -0.006562 -0.007762 0.000000 0.003855 0.000000
# 2 -0.006562 0.013218 0.004465 0.000000 -0.013237 0.000000
# 3 -0.007762 0.004465 0.036620 0.000000 -0.017693 0.000000
# 4 0.000000 0.000000 0.000000 0.067435 0.000000 -0.015538
# 5 0.003855 -0.013237 -0.017693 0.000000 0.064002 0.000000
# 6 0.000000 0.000000 0.000000 -0.015538 0.000000 0.054501
#
#
# Mechanical properties :
#
#
# Convention : Reuss Voigt Hill
#
# Bulk Modulus (GPa) = 21.16457 40.28438 30.72447
# Shear Modulus (GPa) = 17.33859 22.88849 20.11354
#
# Velocity S-wave (km/s) = 2.74805 3.15737 2.95979
# Velocity P-wave (km/s) = 4.39172 5.55317 5.00624
#
# Compressibility (1/GPa) = 0.04724878
#
# Stress axis : x y z
#
# Youngs Moduli (GPa) = 58.37887 75.65416 27.30765
#
# Poissons Ratio (x) = 0.49644 0.21197
# Poissons Ratio (y) = 0.38308 -0.12193
# Poissons Ratio (z) = 0.45316 -0.33780
#
# Static dielectric constant tensor:
#      x y z
#    x 1.876650 0.000000 0.012830 
#    y 0.000000 1.867610 0.000000 
#    z 0.012830 0.000000 1.857360 
# 
# From -- ./inp_files/48313.got.cif
#   From: 2010.05.17/outbox.cif.g08.bks.cpg/sg12_25_cif.got.tgz:48313.got - 2010.06.03 13:09:07.
