data_PCOD9205936
_publ_section_title
;
Structure prediction by ZEFSAII (Michael W. Deem and Ramdas Pophale) SiO2 
 PCOD9205936
Probable space group: C 2/M
;
_chemical_formula_sum "Si O2"
_cell_formula_units_Z 40
_cell_length_a 25.838178
_cell_length_b 9.275191
_cell_length_c 8.218032
_cell_angle_alpha 90.000000
_cell_angle_beta 94.663557
_cell_angle_gamma 90.000000
_cell_volume 1962.964169
_symmetry_space_group_name_H-M "C 2/M"
_symmetry_group_IT_number 12
_symmetry_cell_setting 'monoclinic'
loop_
_space_group_symop_operation_xyz
x,y,z
-x,y,-z
-x,-y,-z
x,-y,z
1/2+x,1/2+y,z
1/2-x,1/2+y,-z
1/2-x,1/2-y,-z
1/2+x,1/2-y,z
loop_
_atom_site_type_symbol
_atom_site_label
_atom_site_fract_x
_atom_site_fract_y
_atom_site_fract_z
Si Si1 0.297770 0.338829 0.583288
Si Si2 0.094306 0.674377 0.402812
Si Si3 0.391680 0.827101 0.228816
Si Si4 0.059656 0.167233 0.070668
Si Si5 0.225232 0.345475 0.860228
O O1 0.306761 0.500000 0.514043
O O2 0.250000 0.250000 0.500000
O O3 0.348322 0.241129 0.600992
O O4 0.273287 0.360752 0.752673
O O5 0.093749 0.500000 0.387863
O O6 0.080995 0.709451 0.590072
O O7 0.064408 0.747695 0.243754
O O8 0.410423 0.744802 0.071726
O O9 0.329552 0.796302 0.231002
O O10 0.398809 0.000000 0.210067
O O11 0.077289 0.000000 0.095973
O O12 0.000000 0.165593 0.000000
O O13 0.211461 0.500000 0.930147
O O14 0.250000 0.250000 0.000000
#
# Coordination Sequence:
#
# PCOD9205936 Si02
#       5
#     8   8   8   8   8
#     4  11  21  36  58  88 127 167 207 248 300 363
#     4  11  23  42  67  96 129 167 215 264 315 377
#     4  10  22  42  65  91 125 165 213 263 313 376
#     4  11  26  46  66  93 127 162 208 267 329 388
#     4  10  21  36  54  84 123 161 205 251 298 359
#
# _framework density 20.377345999999999
#
# number of rings (size 3 to 8) (size 9 to 14) (size 15 to 20)
#    0.000    1.400    2.000    3.000    0.000    9.600 
#    0.000    4.000    0.000    0.000    0.000    0.000 
#    0.000    0.000    0.000    0.000    0.000    0.000 
#
# Total GULP energy -111344.422571 kJ/mol
# GULP energy per Si atom -5567.221129 kJ/mol
# Density = 2.033097 g / cm^3
# Si number density = 20.377346 Si / 1000 Ang^3
#
#
#
# Elastic Constant Matrix: (Units=GPa)
#
#
# Indices 1 2 3 4 5 6 
#
# 1 22.4094 2.1154 6.2508 0.0000 6.3208 0.0000
# 2 2.1154 97.9827 74.4716 0.0000 9.4148 0.0000
# 3 6.2508 74.4716 146.2896 0.0000 15.1199 0.0000
# 4 0.0000 0.0000 0.0000 32.5573 0.0000 2.6961
# 5 6.3208 9.4148 15.1199 0.0000 35.7703 0.0000
# 6 0.0000 0.0000 0.0000 2.6961 0.0000 23.6734
#
#
#
# Elastic Compliance Matrix: (Units=1/GPa)
#
#
# Indices 1 2 3 4 5 6 
#
# 1 0.047236 0.001064 -0.001745 0.000000 -0.007889 0.000000
# 2 0.001064 0.016695 -0.008439 0.000000 -0.001015 0.000000
# 3 -0.001745 -0.008439 0.011445 0.000000 -0.002308 0.000000
# 4 0.000000 0.000000 0.000000 0.031008 0.000000 -0.003531
# 5 -0.007889 -0.001015 -0.002308 0.000000 0.030593 0.000000
# 6 0.000000 0.000000 0.000000 -0.003531 0.000000 0.042644
#
#
# Mechanical properties :
#
#
# Convention : Reuss Voigt Hill
#
# Bulk Modulus (GPa) = 17.50210 48.03971 32.77090
# Shear Modulus (GPa) = 23.05160 30.65645 26.85402
#
# Velocity S-wave (km/s) = 3.36703 3.88292 3.63414
# Velocity P-wave (km/s) = 4.87068 6.61279 5.80743
#
# Compressibility (1/GPa) = 0.05713602
#
# Stress axis : x y z
#
# Youngs Moduli (GPa) = 21.17045 59.89903 87.37356
#
# Poissons Ratio (x) = -0.06375 0.15244
# Poissons Ratio (y) = -0.02253 0.73738
# Poissons Ratio (z) = 0.03694 0.50551
#
# Static dielectric constant tensor:
#      x y z
#    x 1.742950 0.000000 0.024560 
#    y 0.000000 2.064850 0.000000 
#    z 0.024560 0.000000 1.749340 
# 
# From -- ./inp_files/101201.got.cif
#   From: 2010.05.17/outbox.cif.g08.bks.cpg/sg12_51_cif.got.tgz:101201.got - 2010.06.03 13:09:07.
