data_PCOD9205974
_publ_section_title
;
Structure prediction by ZEFSAII (Michael W. Deem and Ramdas Pophale) SiO2 
 PCOD9205974
Probable space group: C 2/M
;
_chemical_formula_sum "Si O2"
_cell_formula_units_Z 64
_cell_length_a 14.345308
_cell_length_b 9.471015
_cell_length_c 27.065188
_cell_angle_alpha 90.000000
_cell_angle_beta 115.537331
_cell_angle_gamma 90.000000
_cell_volume 3317.955967
_symmetry_space_group_name_H-M "C 2/M"
_symmetry_group_IT_number 12
_symmetry_cell_setting 'monoclinic'
loop_
_space_group_symop_operation_xyz
x,y,z
-x,y,-z
-x,-y,-z
x,-y,z
1/2+x,1/2+y,z
1/2-x,1/2+y,-z
1/2-x,1/2-y,-z
1/2+x,1/2-y,z
loop_
_atom_site_type_symbol
_atom_site_label
_atom_site_fract_x
_atom_site_fract_y
_atom_site_fract_z
Si Si1 0.624948 0.838168 0.818601
Si Si2 0.649335 0.834939 0.993844
Si Si3 0.347483 0.338267 0.909713
Si Si4 0.576363 0.664402 0.372819
Si Si5 0.347378 0.336347 0.273181
Si Si6 0.974024 0.336624 0.869503
Si Si7 0.761252 0.667699 0.342469
Si Si8 0.011746 0.332577 0.559164
O O1 0.723636 0.836429 0.877472
O O2 0.647221 0.735817 0.778723
O O3 0.525406 0.802678 0.828753
O O4 0.614354 0.000000 0.798163
O O5 0.617500 0.760950 0.037622
O O6 0.672346 0.000000 0.007532
O O7 0.750000 0.750000 0.000000
O O8 0.563474 0.826952 0.931694
O O9 0.381323 0.500000 0.924327
O O10 0.389358 0.272806 0.868491
O O11 0.597271 0.500000 0.389310
O O12 0.464523 0.672208 0.321036
O O13 0.666001 0.712048 0.355624
O O14 0.562912 0.753010 0.419712
O O15 0.317581 0.500000 0.263304
O O16 0.273963 0.253813 0.294695
O O17 0.938028 0.500000 0.860724
O O18 0.750053 0.500000 0.329513
O O19 0.869802 0.687781 0.396151
O O20 0.990131 0.500000 0.556282
O O21 0.000000 0.284800 0.500000
#
# Coordination Sequence:
#
# PCOD9205974 Si02
#       8
#     8   8   8   8   8   8   8   8
#     4  10  22  41  58  76 110 145 175 217 275 330
#     4  11  21  37  60  83 112 146 180 219 267 321
#     4  11  23  39  58  84 111 141 181 221 266 326
#     4   9  19  35  54  77 106 141 182 224 267 318
#     4  10  21  36  55  80 105 132 179 231 269 315
#     4  10  22  40  58  81 112 145 178 218 270 325
#     4   9  18  35  56  76 106 147 181 216 272 323
#     4   9  18  32  51  79 113 146 182 221 262 315
#
# _framework density 19.288983999999999
#
# number of rings (size 3 to 8) (size 9 to 14) (size 15 to 20)
#    0.000    2.125    1.250    1.500    0.000    6.750 
#    0.000    3.750    0.000    0.000    0.000    0.000 
#    0.000    0.000    0.000    0.000    0.000    0.000 
#
# Total GULP energy -178668.983531 kJ/mol
# GULP energy per Si atom -5583.405735 kJ/mol
# Density = 1.924508 g / cm^3
# Si number density = 19.288984 Si / 1000 Ang^3
#
#
#
# Elastic Constant Matrix: (Units=GPa)
#
#
# Indices 1 2 3 4 5 6 
#
# 1 112.9773 52.5085 16.7376 0.0000 -38.3370 0.0000
# 2 52.5085 90.2033 45.0377 0.0000 -27.6637 0.0000
# 3 16.7376 45.0377 71.3705 0.0000 -34.1473 0.0000
# 4 0.0000 0.0000 0.0000 26.5837 0.0000 -9.0299
# 5 -38.3370 -27.6637 -34.1473 0.0000 29.5677 0.0000
# 6 0.0000 0.0000 0.0000 -9.0299 0.0000 30.9532
#
#
#
# Elastic Compliance Matrix: (Units=1/GPa)
#
#
# Indices 1 2 3 4 5 6 
#
# 1 0.038029 -0.018014 0.040177 0.000000 0.078853 0.000000
# 2 -0.018014 0.025495 -0.025984 0.000000 -0.029512 0.000000
# 3 0.040177 -0.025984 0.076610 0.000000 0.116257 0.000000
# 4 0.000000 0.000000 0.000000 0.041755 0.000000 0.012181
# 5 0.078853 -0.029512 0.116257 0.000000 0.242712 0.000000
# 6 0.000000 0.000000 0.000000 0.012181 0.000000 0.035860
#
#
# Mechanical properties :
#
#
# Convention : Reuss Voigt Hill
#
# Bulk Modulus (GPa) = 7.54770 55.90208 31.72489
# Shear Modulus (GPa) = 9.76051 28.10541 18.93296
#
# Velocity S-wave (km/s) = 2.25192 3.82130 3.13636
# Velocity P-wave (km/s) = 3.26848 6.96520 5.44045
#
# Compressibility (1/GPa) = 0.13249065
#
# Stress axis : x y z
#
# Youngs Moduli (GPa) = 26.29554 39.22301 13.05320
#
# Poissons Ratio (x) = 0.70658 -0.52444
# Poissons Ratio (y) = 0.47370 0.33918
# Poissons Ratio (z) = -1.05647 1.01917
#
# Static dielectric constant tensor:
#      x y z
#    x 1.693210 0.000000 0.003070 
#    y 0.000000 1.649220 0.000000 
#    z 0.003070 0.000000 1.670120 
# 
# From -- ./inp_files/359937.got.cif
#   From: 2010.05.17/outbox.cif.g08.bks.cpg/sg12_180_cif.got.tgz:359937.got - 2010.06.03 13:09:07.
