data_PCOD9205463
_publ_section_title
;
Structure prediction by ZEFSAII (Michael W. Deem and Ramdas Pophale) SiO2 
 PCOD9205463
Probable space group: C 2/M
;
_chemical_formula_sum "Si O2"
_cell_formula_units_Z 56
_cell_length_a 17.900147
_cell_length_b 20.505964
_cell_length_c 20.691741
_cell_angle_alpha 90.000000
_cell_angle_beta 160.240635
_cell_angle_gamma 90.000000
_cell_volume 2567.681549
_symmetry_space_group_name_H-M "C 2/M"
_symmetry_group_IT_number 12
_symmetry_cell_setting 'monoclinic'
loop_
_space_group_symop_operation_xyz
x,y,z
-x,y,-z
-x,-y,-z
x,-y,z
1/2+x,1/2+y,z
1/2-x,1/2+y,-z
1/2-x,1/2-y,-z
1/2+x,1/2-y,z
loop_
_atom_site_type_symbol
_atom_site_label
_atom_site_fract_x
_atom_site_fract_y
_atom_site_fract_z
Si Si1 0.599921 0.924603 0.010435
Si Si2 0.805382 0.200212 0.140077
Si Si3 0.903234 0.119192 0.100586
Si Si4 0.678008 0.075553 0.484264
Si Si5 0.015624 0.702525 0.617677
Si Si6 0.083230 0.574283 0.271241
Si Si7 0.123547 0.786356 0.196520
O O1 0.429328 0.904745 0.813747
O O2 0.667587 0.000000 0.052258
O O3 0.500000 0.922647 0.000000
O O4 0.789595 0.870880 0.160291
O O5 0.863222 0.183061 0.113473
O O6 0.967349 0.250166 0.307054
O O7 0.562641 0.231493 0.951164
O O8 0.094179 0.079162 0.291132
O O9 0.992952 0.146567 0.106290
O O10 0.672398 0.081982 0.913952
O O11 0.518906 0.127837 0.388936
O O12 0.708705 0.101570 0.435604
O O13 0.602593 0.000000 0.421506
O O14 0.237281 0.711760 0.755920
O O15 0.807961 0.720115 0.403015
O O16 0.157932 0.500000 0.328065
#
# Coordination Sequence:
#
# PCOD9205463 Si02
#       7
#     8   8   8   8   8   8   8
#     4   9  18  33  54  80 108 143 186 228 278 338
#     4  11  21  35  59  83 112 151 189 238 293 340
#     4  10  21  35  56  83 111 148 193 238 285 343
#     4  10  21  38  59  84 117 154 193 239 286 338
#     4  10  22  38  57  84 116 151 195 238 284 343
#     4   9  18  33  54  79 109 146 186 231 283 335
#     4  10  21  37  55  81 114 148 189 240 288 336
#
# _framework density 21.809557999999999
#
# number of rings (size 3 to 8) (size 9 to 14) (size 15 to 20)
#    0.000    2.143    0.000    3.000    0.000    6.286 
#    0.000    6.429    0.000    6.857    0.000   21.000 
#    0.000    0.000    0.000    0.000    0.000    0.000 
#
# Total GULP energy -156192.952708 kJ/mol
# GULP energy per Si atom -5578.319740 kJ/mol
# Density = 2.175992 g / cm^3
# Si number density = 21.809558 Si / 1000 Ang^3
#
#
#
# Elastic Constant Matrix: (Units=GPa)
#
#
# Indices 1 2 3 4 5 6 
#
# 1 63.0796 22.0966 19.4019 -0.0404 4.8257 -0.0257
# 2 22.0966 100.7868 21.7055 -0.0293 -6.6820 -0.0118
# 3 19.4019 21.7055 58.2540 0.0694 -0.9690 -0.0072
# 4 -0.0404 -0.0293 0.0694 24.7177 -0.0432 1.4010
# 5 4.8257 -6.6820 -0.9690 -0.0432 26.0632 0.0159
# 6 -0.0257 -0.0118 -0.0072 1.4010 0.0159 31.6744
#
#
#
# Elastic Compliance Matrix: (Units=1/GPa)
#
#
# Indices 1 2 3 4 5 6 
#
# 1 0.018957 -0.003351 -0.005141 0.000033 -0.004560 0.000014
# 2 -0.003351 0.011562 -0.003134 0.000023 0.003468 -0.000002
# 3 -0.005141 -0.003134 0.020061 -0.000067 0.000894 0.000002
# 4 0.000033 0.000023 -0.000067 0.040559 0.000066 -0.001794
# 5 -0.004560 0.003468 0.000894 0.000066 0.040135 -0.000025
# 6 0.000014 -0.000002 0.000002 -0.001794 -0.000025 0.031651
#
#
# Mechanical properties :
#
#
# Convention : Reuss Voigt Hill
#
# Bulk Modulus (GPa) = 36.59363 38.72537 37.65950
# Shear Modulus (GPa) = 25.60346 27.08549 26.34447
#
# Velocity S-wave (km/s) = 3.43002 3.52790 3.47930
# Velocity P-wave (km/s) = 5.70104 5.86425 5.78322
#
# Compressibility (1/GPa) = 0.02732716
#
# Stress axis : x y z
#
# Youngs Moduli (GPa) = 52.75071 86.49355 49.84770
#
# Poissons Ratio (x) = 0.28987 0.25627
# Poissons Ratio (y) = 0.17679 0.15622
# Poissons Ratio (z) = 0.27119 0.27107
#
# Static dielectric constant tensor:
#      x y z
#    x 1.821690 -0.000010 -0.041470 
#    y -0.000010 1.792760 -0.000080 
#    z -0.041470 -0.000080 1.822540 
# 
# From -- ./inp_files/318050.got.cif
#   From: 2010.05.17/outbox.cif.g08.bks.cpg/sg12_160_cif.got.tgz:318050.got - 2010.06.03 13:09:07.
