data_PCOD9205428
_publ_section_title
;
Structure prediction by ZEFSAII (Michael W. Deem and Ramdas Pophale) SiO2 
 PCOD9205428
Probable space group: C 2/M
;
_chemical_formula_sum "Si O2"
_cell_formula_units_Z 36
_cell_length_a 21.306019
_cell_length_b 17.713863
_cell_length_c 16.780097
_cell_angle_alpha 90.000000
_cell_angle_beta 161.494064
_cell_angle_gamma 90.000000
_cell_volume 2010.115229
_symmetry_space_group_name_H-M "C 2/M"
_symmetry_group_IT_number 12
_symmetry_cell_setting 'monoclinic'
loop_
_space_group_symop_operation_xyz
x,y,z
-x,y,-z
-x,-y,-z
x,-y,z
1/2+x,1/2+y,z
1/2-x,1/2+y,-z
1/2-x,1/2-y,-z
1/2+x,1/2-y,z
loop_
_atom_site_type_symbol
_atom_site_label
_atom_site_fract_x
_atom_site_fract_y
_atom_site_fract_z
Si Si1 0.500000 0.184432 0.000000
Si Si2 0.618063 0.588858 0.943265
Si Si3 0.532315 0.088858 0.357513
Si Si4 0.680943 0.090243 0.361896
Si Si5 0.290296 0.188009 0.290298
O O1 0.588621 0.134015 0.177247
O O2 0.670563 0.238401 0.170567
O O3 0.609025 0.500000 0.954592
O O4 0.411615 0.608997 0.653691
O O5 0.663374 0.638374 0.075381
O O6 0.804213 0.598403 0.108437
O O7 0.572504 0.108997 0.314573
O O8 0.660625 0.138373 0.572627
O O9 0.582087 0.000000 0.427650
O O10 0.665434 0.000000 0.330876
O O11 0.500000 0.204504 0.500000
#
# Coordination Sequence:
#
# PCOD9205428 Si02
#       5
#     4   8   8   8   8
#     4  12  25  38  51  74 110 148 184 220 259 306
#     4   9  18  35  59  84 108 136 173 217 265 317
#     4   9  18  35  59  84 108 136 173 217 265 317
#     4  10  22  39  57  75 100 141 189 228 259 300
#     4  10  21  35  55  85 115 139 165 209 272 331
#
# _framework density 17.909420999999998
#
# number of rings (size 3 to 8) (size 9 to 14) (size 15 to 20)
#    0.000    2.222    0.000    2.333    0.000    8.000 
#    0.000    8.889    0.000    6.667    0.000    0.000 
#    0.000    0.000    0.000    0.000    0.000    0.000 
#
# Total GULP energy -100532.768647 kJ/mol
# GULP energy per Si atom -5585.153814 kJ/mol
# Density = 1.786866 g / cm^3
# Si number density = 17.909421 Si / 1000 Ang^3
#
#
#
# Elastic Constant Matrix: (Units=GPa)
#
#
# Indices 1 2 3 4 5 6 
#
# 1 55.2719 84.0100 174.1460 -0.0069 -4.0281 0.0053
# 2 84.0100 81.0259 95.4551 0.0002 -17.6439 -0.0001
# 3 174.1460 95.4551 91.2481 0.0076 -51.3731 -0.0045
# 4 -0.0069 0.0002 0.0076 -13.9254 0.0026 31.4769
# 5 -4.0281 -17.6439 -51.3731 0.0026 14.1999 -0.0012
# 6 0.0053 -0.0001 -0.0045 31.4769 -0.0012 6.6804
#
#
#
# Elastic Compliance Matrix: (Units=1/GPa)
#
#
# Indices 1 2 3 4 5 6 
#
# 1 0.013910 -0.026421 0.014629 0.000001 0.024044 -0.000002
# 2 -0.026421 0.064538 -0.022991 0.000001 -0.010481 0.000000
# 3 0.014629 -0.022991 0.006420 -0.000002 -0.001189 0.000001
# 4 0.000001 0.000001 -0.000002 -0.006164 -0.000002 0.029042
# 5 0.024044 -0.010481 -0.001189 -0.000002 0.059918 0.000000
# 6 -0.000002 0.000000 0.000001 0.029042 0.000000 0.012848
#
#
# Mechanical properties :
#
#
# Convention : Reuss Voigt Hill
#
# Bulk Modulus (GPa) = 65.34294 103.86312 84.60303
# Shear Modulus (GPa) = 22.11056 -7.01335 7.54860
#
# Velocity S-wave (km/s) = 3.51747 -1.98104 2.05524
# Velocity P-wave (km/s) = 7.28431 7.27233 7.27832
#
# Compressibility (1/GPa) = 0.01530387
#
# Stress axis : x y z
#
# Youngs Moduli (GPa) = 71.89299 15.49470 155.75625
#
# Poissons Ratio (x) = 0.40938 -2.27862
# Poissons Ratio (y) = 1.89946 3.58095
# Poissons Ratio (z) = -1.05175 0.35623
#
# Static dielectric constant tensor:
#      x y z
#    x 1.602090 0.000000 0.027380 
#    y 0.000000 1.591930 0.000000 
#    z 0.027380 0.000000 1.584160 
# 
# From -- ./inp_files/46534.got.cif
#   From: 2010.05.17/outbox.cif.g08.bks.cpg/sg12_24_cif.got.tgz:46534.got - 2010.06.03 13:09:07.
