data_PCOD9205080
_publ_section_title
;
Structure prediction by ZEFSAII (Michael W. Deem and Ramdas Pophale) SiO2 
 PCOD9205080
Probable space group: C 2/M
;
_chemical_formula_sum "Si O2"
_cell_formula_units_Z 56
_cell_length_a 14.894583
_cell_length_b 13.945505
_cell_length_c 27.317980
_cell_angle_alpha 90.000000
_cell_angle_beta 31.352296
_cell_angle_gamma 90.000000
_cell_volume 2952.323849
_symmetry_space_group_name_H-M "C 2/M"
_symmetry_group_IT_number 12
_symmetry_cell_setting 'monoclinic'
loop_
_space_group_symop_operation_xyz
x,y,z
-x,y,-z
-x,-y,-z
x,-y,z
1/2+x,1/2+y,z
1/2-x,1/2+y,-z
1/2-x,1/2-y,-z
1/2+x,1/2-y,z
loop_
_atom_site_type_symbol
_atom_site_label
_atom_site_fract_x
_atom_site_fract_y
_atom_site_fract_z
Si Si1 0.290347 0.609529 0.100075
Si Si2 0.835729 0.387306 0.048978
Si Si3 0.201232 0.792278 0.804312
Si Si4 0.142437 0.888253 0.236897
Si Si5 0.756205 0.883804 0.410374
Si Si6 0.601163 0.116011 0.377645
Si Si7 0.822421 0.117268 0.978017
O O1 0.236727 0.500000 0.133801
O O2 0.235855 0.672160 0.171356
O O3 0.500000 0.609876 0.000000
O O4 0.237142 0.639457 0.070246
O O5 0.876991 0.500000 0.022141
O O6 0.683843 0.382675 0.159474
O O7 0.785333 0.351893 0.019173
O O8 0.000000 0.341527 0.000000
O O9 0.223504 0.678133 0.796788
O O10 0.316831 0.835499 0.707564
O O11 0.009748 0.834254 0.887618
O O12 0.947466 0.852916 0.335983
O O13 0.159877 0.000000 0.242103
O O14 0.597447 0.856136 0.519113
O O15 0.706087 0.857039 0.378126
O O16 0.760451 0.000000 0.408379
O O17 0.609713 0.000000 0.368870
O O18 0.845730 0.000000 0.966019
#
# Coordination Sequence:
#
# PCOD9205080 Si02
#       7
#     8   8   8   8   8   8   8
#     4   8  15  28  46  73 108 136 160 199 255 314
#     4   9  18  34  55  75  97 131 174 216 257 304
#     4  11  19  28  48  78 106 139 175 207 248 304
#     4  10  21  35  47  65 101 141 175 212 251 294
#     4   8  16  32  52  75 103 132 163 210 266 306
#     4   9  16  29  54  83 103 122 161 215 265 312
#     4   9  17  32  55  79 105 134 163 208 268 315
#
# _framework density 18.968108999999998
#
# number of rings (size 3 to 8) (size 9 to 14) (size 15 to 20)
#    0.000    2.857    0.000    3.857    0.000    4.571 
#    0.000    4.286    0.000    0.000    0.000   10.000 
#    0.000    0.571    0.000    2.000    0.000    0.429 
#
# Total GULP energy -156223.951709 kJ/mol
# GULP energy per Si atom -5579.426847 kJ/mol
# Density = 1.892494 g / cm^3
# Si number density = 18.968109 Si / 1000 Ang^3
#
#
#
# Elastic Constant Matrix: (Units=GPa)
#
#
# Indices 1 2 3 4 5 6 
#
# 1 106.4386 31.3926 45.9179 -0.0001 10.8628 0.0001
# 2 31.3926 73.7238 28.5356 -0.0001 10.1035 0.0001
# 3 45.9179 28.5356 96.0239 0.0009 13.2777 -0.0003
# 4 -0.0001 -0.0001 0.0009 16.3875 0.0000 -3.3798
# 5 10.8628 10.1035 13.2777 0.0000 27.6550 -0.0001
# 6 0.0001 0.0001 -0.0003 -3.3798 -0.0001 14.3148
#
#
#
# Elastic Compliance Matrix: (Units=1/GPa)
#
#
# Indices 1 2 3 4 5 6 
#
# 1 0.012605 -0.003295 -0.004852 0.000000 -0.001418 0.000000
# 2 -0.003295 0.016541 -0.002874 0.000000 -0.003369 0.000000
# 3 -0.004852 -0.002874 0.014117 -0.000001 -0.003822 0.000000
# 4 0.000000 0.000000 -0.000001 0.064146 0.000000 0.015145
# 5 -0.001418 -0.003369 -0.003822 0.000000 0.039782 0.000000
# 6 0.000000 0.000000 0.000000 0.015145 0.000000 0.073433
#
#
# Mechanical properties :
#
#
# Convention : Reuss Voigt Hill
#
# Bulk Modulus (GPa) = 47.12455 54.20874 50.66664
# Shear Modulus (GPa) = 20.02074 23.02748 21.52411
#
# Velocity S-wave (km/s) = 3.25236 3.48804 3.37226
# Velocity P-wave (km/s) = 6.24515 6.69797 6.47552
#
# Compressibility (1/GPa) = 0.02122036
#
# Stress axis : x y z
#
# Youngs Moduli (GPa) = 79.33430 60.45454 70.83643
#
# Poissons Ratio (x) = 0.19919 0.34373
# Poissons Ratio (y) = 0.26140 0.20360
# Poissons Ratio (z) = 0.38496 0.17376
#
# Static dielectric constant tensor:
#      x y z
#    x 1.687540 0.000000 -0.019850 
#    y 0.000000 1.689770 0.000000 
#    z -0.019850 0.000000 1.659420 
# 
# From -- ./inp_files/361409.got.cif
#   From: 2010.05.17/outbox.cif.g08.bks.cpg/sg12_181_cif.got.tgz:361409.got - 2010.06.03 13:09:07.
