data_PCOD9205012
_publ_section_title
;
Structure prediction by ZEFSAII (Michael W. Deem and Ramdas Pophale) SiO2 
 PCOD9205012
Probable space group: C 2/M
;
_chemical_formula_sum "Si O2"
_cell_formula_units_Z 60
_cell_length_a 27.279972
_cell_length_b 28.146779
_cell_length_c 8.856303
_cell_angle_alpha 90.000000
_cell_angle_beta 151.141984
_cell_angle_gamma 90.000000
_cell_volume 3282.079347
_symmetry_space_group_name_H-M "C 2/M"
_symmetry_group_IT_number 12
_symmetry_cell_setting 'monoclinic'
loop_
_space_group_symop_operation_xyz
x,y,z
-x,y,-z
-x,-y,-z
x,-y,z
1/2+x,1/2+y,z
1/2-x,1/2+y,-z
1/2-x,1/2-y,-z
1/2+x,1/2-y,z
loop_
_atom_site_type_symbol
_atom_site_label
_atom_site_fract_x
_atom_site_fract_y
_atom_site_fract_z
Si Si1 0.172302 0.206056 0.176966
Si Si2 0.150177 0.148464 0.604681
Si Si3 0.113886 0.884678 0.837543
Si Si4 0.311198 0.554631 0.691950
Si Si5 0.203879 0.358379 0.258513
Si Si6 0.476845 0.793183 0.257991
Si Si7 0.500000 0.585844 0.000000
Si Si8 0.327820 0.756253 0.348235
O O1 0.224527 0.179835 0.459292
O O2 0.262680 0.225816 0.313883
O O3 0.113191 0.163854 0.932308
O O4 0.094324 0.249125 0.987039
O O5 0.159542 0.130795 0.800627
O O6 0.256138 0.141937 0.804151
O O7 0.124220 0.203785 0.512991
O O8 0.065262 0.117949 0.290183
O O9 0.000000 0.901084 0.500000
O O10 0.168282 0.923858 0.086523
O O11 0.280402 0.500000 0.612339
O O12 0.230146 0.590662 0.399234
O O13 0.415409 0.559107 0.873230
O O14 0.090013 0.339604 0.954680
O O15 0.500000 0.787715 0.500000
O O16 0.582168 0.791404 0.453478
O O17 0.250000 0.750000 0.000000
#
# Coordination Sequence:
#
# PCOD9205012 Si02
#       8
#     8   8   8   8   8   8   4   8
#     4  11  22  38  53  88 125 165 205 238 291 351
#     4  11  20  35  53  82 122 160 195 238 296 349
#     4  11  20  35  56  83 117 157 200 246 295 354
#     4  10  22  40  60  84 116 154 198 259 319 367
#     4  10  24  39  57  84 123 157 200 250 295 361
#     4  12  22  36  57  85 122 166 205 242 289 344
#     4  10  21  34  56  86 118 154 192 248 305 374
#     4  12  22  33  56  84 123 167 202 244 280 343
#
# _framework density 18.281094
#
# number of rings (size 3 to 8) (size 9 to 14) (size 15 to 20)
#    0.000    1.067    5.333    1.800    3.733    0.800 
#    0.000    0.667    0.000    0.400    0.000    7.467 
#    0.000    0.000    0.000    0.000    0.000    0.000 
#
# Total GULP energy -167577.630194 kJ/mol
# GULP energy per Si atom -5585.921006 kJ/mol
# Density = 1.823949 g / cm^3
# Si number density = 18.281094 Si / 1000 Ang^3
#
#
#
# Elastic Constant Matrix: (Units=GPa)
#
#
# Indices 1 2 3 4 5 6 
#
# 1 74.0162 14.4212 11.1953 0.0000 6.6105 0.0000
# 2 14.4212 109.8693 28.2083 0.0000 3.7674 0.0000
# 3 11.1953 28.2083 57.9641 0.0000 13.3396 0.0000
# 4 0.0000 0.0000 0.0000 9.8493 0.0000 4.0290
# 5 6.6105 3.7674 13.3396 0.0000 32.4417 0.0000
# 6 0.0000 0.0000 0.0000 4.0290 0.0000 15.3481
#
#
#
# Elastic Compliance Matrix: (Units=1/GPa)
#
#
# Indices 1 2 3 4 5 6 
#
# 1 0.014207 -0.001385 -0.001591 0.000000 -0.002080 0.000000
# 2 -0.001385 0.010564 -0.005143 0.000000 0.001170 0.000000
# 3 -0.001591 -0.005143 0.021925 0.000000 -0.008094 0.000000
# 4 0.000000 0.000000 0.000000 0.113744 0.000000 -0.029859
# 5 -0.002080 0.001170 -0.008094 0.000000 0.034440 0.000000
# 6 0.000000 0.000000 0.000000 -0.029859 0.000000 0.072993
#
#
# Mechanical properties :
#
#
# Convention : Reuss Voigt Hill
#
# Bulk Modulus (GPa) = 32.83264 38.83325 35.83294
# Shear Modulus (GPa) = 16.99158 24.06279 20.52719
#
# Velocity S-wave (km/s) = 3.05202 3.63197 3.35455
# Velocity P-wave (km/s) = 5.51531 6.23512 5.88623
#
# Compressibility (1/GPa) = 0.03045750
#
# Stress axis : x y z
#
# Youngs Moduli (GPa) = 70.38865 94.66357 45.61063
#
# Poissons Ratio (x) = 0.13110 0.07258
# Poissons Ratio (y) = 0.09748 0.23456
# Poissons Ratio (z) = 0.11201 0.48682
#
# Static dielectric constant tensor:
#      x y z
#    x 1.689280 0.000000 -0.000660 
#    y 0.000000 1.622700 0.000000 
#    z -0.000660 0.000000 1.640750 
# 
# From -- ./inp_files/106988.got.cif
#   From: 2010.05.17/outbox.cif.g08.bks.cpg/sg12_54_cif.got.tgz:106988.got - 2010.06.03 13:09:07.
