data_PCOD9205506
_publ_section_title
;
Structure prediction by ZEFSAII (Michael W. Deem and Ramdas Pophale) SiO2 
 PCOD9205506
Probable space group: C 2/M
;
_chemical_formula_sum "Si O2"
_cell_formula_units_Z 48
_cell_length_a 18.719805
_cell_length_b 27.241320
_cell_length_c 9.040799
_cell_angle_alpha 90.000000
_cell_angle_beta 147.640131
_cell_angle_gamma 90.000000
_cell_volume 2467.635533
_symmetry_space_group_name_H-M "C 2/M"
_symmetry_group_IT_number 12
_symmetry_cell_setting 'monoclinic'
loop_
_space_group_symop_operation_xyz
x,y,z
-x,y,-z
-x,-y,-z
x,-y,z
1/2+x,1/2+y,z
1/2-x,1/2+y,-z
1/2-x,1/2-y,-z
1/2+x,1/2-y,z
loop_
_atom_site_type_symbol
_atom_site_label
_atom_site_fract_x
_atom_site_fract_y
_atom_site_fract_z
Si Si1 0.139049 0.054464 0.154587
Si Si2 0.247072 0.743716 0.816150
Si Si3 0.125335 0.715275 0.326856
Si Si4 0.607567 0.646952 0.892148
Si Si5 0.703631 0.352035 0.730081
Si Si6 0.152723 0.397371 0.275842
O O1 0.258015 0.065739 0.475209
O O2 0.151310 0.000000 0.110002
O O3 0.137751 0.099159 0.039031
O O4 0.000000 0.056538 0.000000
O O5 0.116834 0.727622 0.489725
O O6 0.273458 0.799905 0.818998
O O7 0.250000 0.750000 0.000000
O O8 0.345434 0.698541 0.956991
O O9 0.250000 0.750000 0.500000
O O10 0.155361 0.657301 0.355919
O O11 0.000000 0.726488 0.000000
O O12 0.449006 0.650126 0.592040
O O13 0.685914 0.641317 0.873848
O O14 0.784008 0.391202 0.776193
O O15 0.000000 0.412335 0.000000
#
# Coordination Sequence:
#
# PCOD9205506 Si02
#       6
#     8   8   8   8   8   8
#     4  11  23  42  70  96 119 162 222 278 329 381
#     4  10  21  35  56  90 130 174 212 259 322 387
#     4  11  23  35  56  88 125 171 214 257 312 381
#     4  10  21  39  63  90 130 170 211 279 317 378
#     4  10  21  38  60  93 130 171 216 255 327 395
#     4  11  23  39  61  90 129 166 209 264 328 389
#
# _framework density 19.451820000000001
#
# number of rings (size 3 to 8) (size 9 to 14) (size 15 to 20)
#    0.000    1.500    5.000    0.000    2.333    1.000 
#    0.000    4.167    0.000    1.000    0.000    0.000 
#    0.000    0.000    0.000    0.000    0.000    0.000 
#
# Total GULP energy -133818.271488 kJ/mol
# GULP energy per Si atom -5575.761312 kJ/mol
# Density = 1.940755 g / cm^3
# Si number density = 19.451820 Si / 1000 Ang^3
#
#
#
# Elastic Constant Matrix: (Units=GPa)
#
#
# Indices 1 2 3 4 5 6 
#
# 1 81.7545 36.0245 41.8725 0.0000 0.1214 0.0000
# 2 36.0245 108.4220 38.4727 0.0000 2.5222 0.0000
# 3 41.8725 38.4727 113.6070 0.0000 -2.7253 0.0000
# 4 0.0000 0.0000 0.0000 9.0702 0.0000 -4.2906
# 5 0.1214 2.5222 -2.7253 0.0000 25.3898 0.0000
# 6 0.0000 0.0000 0.0000 -4.2906 0.0000 21.4116
#
#
#
# Elastic Compliance Matrix: (Units=1/GPa)
#
#
# Indices 1 2 3 4 5 6 
#
# 1 0.016309 -0.003727 -0.004754 0.000000 -0.000218 0.000000
# 2 -0.003727 0.011386 -0.002516 0.000000 -0.001383 0.000000
# 3 -0.004754 -0.002516 0.011442 0.000000 0.001501 0.000000
# 4 0.000000 0.000000 0.000000 0.121796 0.000000 0.024406
# 5 -0.000218 -0.001383 0.001501 0.000000 0.039685 0.000000
# 6 0.000000 0.000000 0.000000 0.024406 0.000000 0.051594
#
#
# Mechanical properties :
#
#
# Convention : Reuss Voigt Hill
#
# Bulk Modulus (GPa) = 58.32700 59.61366 58.97033
# Shear Modulus (GPa) = 17.86209 23.66857 20.76533
#
# Velocity S-wave (km/s) = 3.03359 3.49202 3.27085
# Velocity P-wave (km/s) = 6.50544 6.85363 6.68180
#
# Compressibility (1/GPa) = 0.01714472
#
# Stress axis : x y z
#
# Youngs Moduli (GPa) = 61.31462 87.82484 87.39380
#
# Poissons Ratio (x) = 0.32731 0.41550
# Poissons Ratio (y) = 0.22851 0.21984
# Poissons Ratio (z) = 0.29151 0.22092
#
# Static dielectric constant tensor:
#      x y z
#    x 1.762680 0.000000 -0.026780 
#    y 0.000000 1.642120 0.000000 
#    z -0.026780 0.000000 1.734490 
# 
# From -- ./inp_files/91282.got.cif
#   From: 2010.05.17/outbox.cif.g08.bks.cpg/sg12_46_cif.got.tgz:91282.got - 2010.06.03 13:09:07.
