data_PCOD9205921
_publ_section_title
;
Structure prediction by ZEFSAII (Michael W. Deem and Ramdas Pophale) SiO2 
 PCOD9205921
Probable space group: C 2/M
;
_chemical_formula_sum "Si O2"
_cell_formula_units_Z 60
_cell_length_a 10.474989
_cell_length_b 26.845033
_cell_length_c 15.105308
_cell_angle_alpha 90.000000
_cell_angle_beta 125.845334
_cell_angle_gamma 90.000000
_cell_volume 3443.135337
_symmetry_space_group_name_H-M "C 2/M"
_symmetry_group_IT_number 12
_symmetry_cell_setting 'monoclinic'
loop_
_space_group_symop_operation_xyz
x,y,z
-x,y,-z
-x,-y,-z
x,-y,z
1/2+x,1/2+y,z
1/2-x,1/2+y,-z
1/2-x,1/2-y,-z
1/2+x,1/2-y,z
loop_
_atom_site_type_symbol
_atom_site_label
_atom_site_fract_x
_atom_site_fract_y
_atom_site_fract_z
Si Si1 0.426491 0.794914 0.057464
Si Si2 0.744258 0.803058 0.392545
Si Si3 0.819123 0.557688 0.901594
Si Si4 0.607482 0.882897 0.223806
Si Si5 0.903584 0.809829 0.129492
Si Si6 0.718273 0.058606 0.913106
Si Si7 0.500000 0.370416 0.000000
Si Si8 0.493015 0.281844 0.642280
O O1 0.539332 0.833920 0.148479
O O2 0.392318 0.749918 0.109163
O O3 0.500000 0.771438 0.000000
O O4 0.276379 0.825112 0.961161
O O5 0.691802 0.858259 0.341780
O O6 0.593877 0.768968 0.359156
O O7 0.862830 0.804729 0.523611
O O8 0.847263 0.778461 0.352926
O O9 0.816922 0.500000 0.873650
O O10 0.778318 0.590357 0.800286
O O11 0.739197 0.561412 0.964320
O O12 0.000000 0.570531 0.000000
O O13 0.456510 0.919087 0.176589
O O14 0.991990 0.836474 0.085017
O O15 0.968277 0.814121 0.254526
O O16 0.848979 0.094180 0.924997
O O17 0.723472 0.000000 0.891359
#
# Coordination Sequence:
#
# PCOD9205921 Si02
#       8
#     8   8   8   8   8   8   4   8
#     4  11  20  31  47  78 111 145 179 219 272 332
#     4  10  22  37  58  79 110 158 204 237 283 328
#     4   8  16  30  50  77 106 134 174 229 283 334
#     4  11  18  32  57  82 106 144 190 235 281 336
#     4  11  23  33  50  77 117 150 184 222 276 344
#     4  10  21  36  54  82 116 147 187 235 294 358
#     4  12  23  36  50  84 114 160 185 220 294 366
#     4  10  22  39  54  79 116 158 198 241 275 333
#
# _framework density 17.425978000000001
#
# number of rings (size 3 to 8) (size 9 to 14) (size 15 to 20)
#    0.000    1.733    3.333    3.400    1.867    1.067 
#    0.000    0.000    0.000    0.000    0.000   12.133 
#    0.000    0.000    0.000    0.000    0.000    0.000 
#
# Total GULP energy -167060.161219 kJ/mol
# GULP energy per Si atom -5568.672041 kJ/mol
# Density = 1.738632 g / cm^3
# Si number density = 17.425978 Si / 1000 Ang^3
#
#
#
# Elastic Constant Matrix: (Units=GPa)
#
#
# Indices 1 2 3 4 5 6 
#
# 1 67.9311 17.2573 26.0338 0.0000 -7.2233 0.0000
# 2 17.2573 77.2887 32.1712 0.0000 -5.5148 0.0000
# 3 26.0338 32.1712 97.4547 0.0000 -15.3615 0.0000
# 4 0.0000 0.0000 0.0000 27.0780 0.0000 -4.9447
# 5 -7.2233 -5.5148 -15.3615 0.0000 19.4008 0.0000
# 6 0.0000 0.0000 0.0000 -4.9447 0.0000 26.1523
#
#
#
# Elastic Compliance Matrix: (Units=1/GPa)
#
#
# Indices 1 2 3 4 5 6 
#
# 1 0.016864 -0.002171 -0.003309 0.000000 0.003042 0.000000
# 2 -0.002171 0.015282 -0.004465 0.000000 0.000000 0.000000
# 3 -0.003309 -0.004465 0.013968 0.000000 0.008559 0.000000
# 4 0.000000 0.000000 0.000000 0.038251 0.000000 0.007232
# 5 0.003042 0.000000 0.008559 0.000000 0.059454 0.000000
# 6 0.000000 0.000000 0.000000 0.007232 0.000000 0.039605
#
#
# Mechanical properties :
#
#
# Convention : Reuss Voigt Hill
#
# Bulk Modulus (GPa) = 38.13231 43.73320 40.93276
# Shear Modulus (GPa) = 23.57890 25.67369 24.62630
#
# Velocity S-wave (km/s) = 3.68243 3.84252 3.76333
# Velocity P-wave (km/s) = 6.32537 6.69609 6.51337
#
# Compressibility (1/GPa) = 0.02622448
#
# Stress axis : x y z
#
# Youngs Moduli (GPa) = 59.29852 65.43767 71.59205
#
# Poissons Ratio (x) = 0.14207 0.23688
# Poissons Ratio (y) = 0.12874 0.31963
# Poissons Ratio (z) = 0.19621 0.29216
#
# Static dielectric constant tensor:
#      x y z
#    x 1.686960 0.000000 -0.009290 
#    y 0.000000 1.611930 0.000000 
#    z -0.009290 0.000000 1.607830 
# 
# From -- ./inp_files/208975.got.cif
#   From: 2010.05.17/outbox.cif.g08.bks.cpg/sg12_105_cif.got.tgz:208975.got - 2010.06.03 13:09:07.
