data_PCOD9205681
_publ_section_title
;
Structure prediction by ZEFSAII (Michael W. Deem and Ramdas Pophale) SiO2 
 PCOD9205681
Probable space group: C 2/M
;
_chemical_formula_sum "Si O2"
_cell_formula_units_Z 64
_cell_length_a 16.051608
_cell_length_b 17.785735
_cell_length_c 11.868891
_cell_angle_alpha 90.000000
_cell_angle_beta 89.788664
_cell_angle_gamma 90.000000
_cell_volume 3388.422442
_symmetry_space_group_name_H-M "C 2/M"
_symmetry_group_IT_number 12
_symmetry_cell_setting 'monoclinic'
loop_
_space_group_symop_operation_xyz
x,y,z
-x,y,-z
-x,-y,-z
x,-y,z
1/2+x,1/2+y,z
1/2-x,1/2+y,-z
1/2-x,1/2-y,-z
1/2+x,1/2-y,z
loop_
_atom_site_type_symbol
_atom_site_label
_atom_site_fract_x
_atom_site_fract_y
_atom_site_fract_z
Si Si1 0.691253 0.803271 0.576926
Si Si2 0.187318 0.588311 0.382690
Si Si3 0.052837 0.418656 0.111726
Si Si4 0.964048 0.809324 0.382208
Si Si5 0.414904 0.791255 0.755169
Si Si6 0.249759 0.711505 0.823603
Si Si7 0.836581 0.134593 0.217291
Si Si8 0.760766 0.416623 0.987383
O O1 0.750000 0.750000 0.500000
O O2 0.685348 0.880606 0.509141
O O3 0.606189 0.754949 0.590911
O O4 0.732515 0.818142 0.697620
O O5 0.172940 0.500000 0.375523
O O6 0.122006 0.641734 0.320445
O O7 0.271659 0.609075 0.314827
O O8 0.042312 0.500000 0.171662
O O9 0.024858 0.340855 0.168000
O O10 0.151030 0.411199 0.080132
O O11 0.000000 0.424050 0.000000
O O12 0.922149 0.862597 0.287179
O O13 0.000000 0.841320 0.500000
O O14 0.039833 0.768130 0.321601
O O15 0.340753 0.750224 0.822151
O O16 0.185163 0.781205 0.827123
O O17 0.242455 0.649628 0.920655
O O18 0.812754 0.088347 0.105700
O O19 0.759172 0.500000 0.039851
#
# Coordination Sequence:
#
# PCOD9205681 Si02
#       8
#     8   8   8   8   8   8   8   8
#     4  11  19  39  58  87 118 157 200 246 289 353
#     4  11  20  36  62  89 118 157 199 243 297 360
#     4  10  22  36  53  82 125 161 191 236 294 361
#     4  11  21  35  60  89 120 154 198 253 307 346
#     4  11  21  35  57  87 116 153 196 243 301 356
#     4  10  21  35  62  83 116 152 208 244 287 354
#     4  10  21  36  63  88 116 159 211 246 283 363
#     4  11  22  39  60  85 120 161 202 249 303 355
#
# _framework density 18.887844999999999
#
# number of rings (size 3 to 8) (size 9 to 14) (size 15 to 20)
#    0.000    1.375    7.500    1.125    3.500    0.500 
#    0.000    1.875    0.000    3.750    0.000    0.000 
#    0.000    0.000    0.000    0.000    0.000    0.000 
#
# Total GULP energy -178238.412374 kJ/mol
# GULP energy per Si atom -5569.950387 kJ/mol
# Density = 1.884486 g / cm^3
# Si number density = 18.887845 Si / 1000 Ang^3
#
#
#
# Elastic Constant Matrix: (Units=GPa)
#
#
# Indices 1 2 3 4 5 6 
#
# 1 35.9170 4.6802 -0.5658 0.0000 14.5765 0.0000
# 2 4.6802 54.9216 18.4215 0.0000 10.3516 0.0000
# 3 -0.5658 18.4215 72.9183 0.0000 20.2913 0.0000
# 4 0.0000 0.0000 0.0000 31.5038 0.0000 10.6330
# 5 14.5765 10.3516 20.2913 0.0000 22.1880 0.0000
# 6 0.0000 0.0000 0.0000 10.6330 0.0000 15.6067
#
#
#
# Elastic Compliance Matrix: (Units=1/GPa)
#
#
# Indices 1 2 3 4 5 6 
#
# 1 0.043883 -0.000152 0.011243 0.000000 -0.039039 0.000000
# 2 -0.000152 0.020569 -0.003427 0.000000 -0.006362 0.000000
# 3 0.011243 -0.003427 0.021834 0.000000 -0.025754 0.000000
# 4 0.000000 0.000000 0.000000 0.041221 0.000000 -0.028084
# 5 -0.039039 -0.006362 -0.025754 0.000000 0.097237 0.000000
# 6 0.000000 0.000000 0.000000 -0.028084 0.000000 0.083209
#
#
# Mechanical properties :
#
#
# Convention : Reuss Voigt Hill
#
# Bulk Modulus (GPa) = 9.84139 23.20318 16.52228
# Shear Modulus (GPa) = 15.31407 23.27446 19.29427
#
# Velocity S-wave (km/s) = 2.85053 3.51414 3.19959
# Velocity P-wave (km/s) = 4.00696 5.36442 4.73459
#
# Compressibility (1/GPa) = 0.10161170
#
# Stress axis : x y z
#
# Youngs Moduli (GPa) = 22.78811 48.61590 45.80058
#
# Poissons Ratio (x) = 0.00741 -0.51492
# Poissons Ratio (y) = 0.00347 0.15697
# Poissons Ratio (z) = -0.25620 0.16662
#
# Static dielectric constant tensor:
#      x y z
#    x 1.684770 0.000000 0.051140 
#    y 0.000000 1.691920 0.000000 
#    z 0.051140 0.000000 1.739020 
# 
# From -- ./inp_files/157837.got.cif
#   From: 2010.05.17/outbox.cif.g08.bks.cpg/sg12_79_cif.got.tgz:157837.got - 2010.06.03 13:09:07.
