data_PCOD9205831
_publ_section_title
;
Structure prediction by ZEFSAII (Michael W. Deem and Ramdas Pophale) SiO2 
 PCOD9205831
Probable space group: C 2/M
;
_chemical_formula_sum "Si O2"
_cell_formula_units_Z 56
_cell_length_a 14.130792
_cell_length_b 18.289162
_cell_length_c 16.692516
_cell_angle_alpha 90.000000
_cell_angle_beta 46.880571
_cell_angle_gamma 90.000000
_cell_volume 3148.934625
_symmetry_space_group_name_H-M "C 2/M"
_symmetry_group_IT_number 12
_symmetry_cell_setting 'monoclinic'
loop_
_space_group_symop_operation_xyz
x,y,z
-x,y,-z
-x,-y,-z
x,-y,z
1/2+x,1/2+y,z
1/2-x,1/2+y,-z
1/2-x,1/2-y,-z
1/2+x,1/2-y,z
loop_
_atom_site_type_symbol
_atom_site_label
_atom_site_fract_x
_atom_site_fract_y
_atom_site_fract_z
Si Si1 0.153018 0.084126 0.400161
Si Si2 0.101759 0.588470 0.059850
Si Si3 0.644422 0.157914 0.373235
Si Si4 0.215727 0.280081 0.606470
Si Si5 0.452095 0.851420 0.747205
Si Si6 0.185446 0.412325 0.841857
Si Si7 0.315376 0.000000 0.616813
Si Si8 0.954419 0.500000 0.381516
O O1 0.219140 0.140995 0.420435
O O2 0.198973 0.107545 0.284450
O O3 0.000000 0.086880 0.500000
O O4 0.196459 0.000000 0.387217
O O5 0.114272 0.500000 0.062506
O O6 0.129466 0.629152 0.126738
O O7 0.951236 0.603986 0.122985
O O8 0.181978 0.614024 0.935402
O O9 0.500000 0.150896 0.500000
O O10 0.719334 0.225441 0.368051
O O11 0.621299 0.168031 0.292137
O O12 0.726850 0.083449 0.341204
O O13 0.250000 0.250000 0.500000
O O14 0.062264 0.292280 0.702485
O O15 0.524216 0.927968 0.682537
O O16 0.187237 0.500000 0.848425
O O17 0.332192 0.000000 0.510738
O O18 0.435397 0.000000 0.612003
#
# Coordination Sequence:
#
# PCOD9205831 Si02
#       8
#     8   8   8   8   8   8   4   4
#     4  10  21  36  54  76 107 144 176 209 253 316
#     4   9  15  26  49  80 106 128 169 222 267 313
#     4  11  19  33  46  70 103 135 178 217 266 316
#     4  12  23  33  49  74 106 143 178 212 264 313
#     4  11  19  29  51  74 104 137 170 216 263 316
#     4   8  15  28  47  77 108 132 168 218 264 306
#     4   9  14  30  46  64  93 136 162 219 268 302
#     4   9  14  24  46  71  94 123 171 204 260 308
#
# _framework density 17.783792999999999
#
# number of rings (size 3 to 8) (size 9 to 14) (size 15 to 20)
#    0.000    2.000    6.429    1.286    1.000    0.000 
#    1.286    0.000    0.000    0.857    3.714    0.000 
#    0.000    0.000    0.000    9.714    0.000    0.000 
#
# Total GULP energy -155868.946763 kJ/mol
# GULP energy per Si atom -5566.748099 kJ/mol
# Density = 1.774332 g / cm^3
# Si number density = 17.783793 Si / 1000 Ang^3
#
#
#
# Elastic Constant Matrix: (Units=GPa)
#
#
# Indices 1 2 3 4 5 6 
#
# 1 70.8998 41.1976 38.6284 0.0000 30.4438 0.0000
# 2 41.1976 74.5069 21.5687 0.0000 8.4349 0.0000
# 3 38.6284 21.5687 104.7703 0.0000 31.4899 0.0000
# 4 0.0000 0.0000 0.0000 13.5389 0.0000 9.9516
# 5 30.4438 8.4349 31.4899 0.0000 30.3020 0.0000
# 6 0.0000 0.0000 0.0000 9.9516 0.0000 28.5495
#
#
#
# Elastic Compliance Matrix: (Units=1/GPa)
#
#
# Indices 1 2 3 4 5 6 
#
# 1 0.039287 -0.017698 -0.000667 0.000000 -0.033851 0.000000
# 2 -0.017698 0.022282 -0.002242 0.000000 0.013908 0.000000
# 3 -0.000667 -0.002242 0.014343 0.000000 -0.013611 0.000000
# 4 0.000000 0.000000 0.000000 0.099304 0.000000 -0.034615
# 5 -0.033851 0.013908 -0.013611 0.000000 0.077284 0.000000
# 6 0.000000 0.000000 0.000000 -0.034615 0.000000 0.047093
#
#
# Mechanical properties :
#
#
# Convention : Reuss Voigt Hill
#
# Bulk Modulus (GPa) = 28.82066 50.32960 39.57513
# Shear Modulus (GPa) = 14.18951 24.39689 19.29320
#
# Velocity S-wave (km/s) = 2.82776 3.70788 3.29732
# Velocity P-wave (km/s) = 5.18681 6.83326 6.06615
#
# Compressibility (1/GPa) = 0.03469733
#
# Stress axis : x y z
#
# Youngs Moduli (GPa) = 25.45380 44.87953 69.71914
#
# Poissons Ratio (x) = 0.79427 0.04652
# Poissons Ratio (y) = 0.45047 0.15633
# Poissons Ratio (z) = 0.01698 0.10064
#
# Static dielectric constant tensor:
#      x y z
#    x 1.641800 0.000000 0.050470 
#    y 0.000000 1.647060 0.000000 
#    z 0.050470 0.000000 1.715700 
# 
# From -- ./inp_files/271422.got.cif
#   From: 2010.05.17/outbox.cif.g08.bks.cpg/sg12_136_cif.got.tgz:271422.got - 2010.06.03 13:09:07.
