data_PCOD9205015
_publ_section_title
;
Structure prediction by ZEFSAII (Michael W. Deem and Ramdas Pophale) SiO2 
 PCOD9205015
Probable space group: C 2/M
;
_chemical_formula_sum "Si O2"
_cell_formula_units_Z 44
_cell_length_a 15.093231
_cell_length_b 28.227177
_cell_length_c 5.312841
_cell_angle_alpha 90.000000
_cell_angle_beta 114.025812
_cell_angle_gamma 90.000000
_cell_volume 2067.376066
_symmetry_space_group_name_H-M "C 2/M"
_symmetry_group_IT_number 12
_symmetry_cell_setting 'monoclinic'
loop_
_space_group_symop_operation_xyz
x,y,z
-x,y,-z
-x,-y,-z
x,-y,z
1/2+x,1/2+y,z
1/2-x,1/2+y,-z
1/2-x,1/2-y,-z
1/2+x,1/2-y,z
loop_
_atom_site_type_symbol
_atom_site_label
_atom_site_fract_x
_atom_site_fract_y
_atom_site_fract_z
Si Si1 0.585317 0.655111 0.397380
Si Si2 0.228706 0.674564 0.071082
Si Si3 0.337725 0.738926 0.795426
Si Si4 0.143425 0.946819 0.406439
Si Si5 0.733043 0.070989 0.943906
Si Si6 0.063265 0.500000 0.823354
O O1 0.500000 0.658560 0.500000
O O2 0.695564 0.657972 0.628369
O O3 0.584896 0.703947 0.239616
O O4 0.580380 0.601115 0.288738
O O5 0.142952 0.708447 0.072570
O O6 0.293249 0.707339 0.965715
O O7 0.206696 0.626417 0.903134
O O8 0.250000 0.750000 0.500000
O O9 0.221725 0.944629 0.270185
O O10 0.098522 0.000000 0.346770
O O11 0.191853 0.940752 0.740487
O O12 0.635490 0.044120 0.897758
O O13 0.000000 0.500000 0.500000
O O14 0.000000 0.500000 0.000000
#
# Coordination Sequence:
#
# PCOD9205015 Si02
#       6
#     8   8   8   8   8   4
#     4  10  21  34  56  88 125 158 200 259 310 349
#     4   9  19  35  62  82 111 161 206 246 291 379
#     4   9  17  35  58  85 108 150 209 243 300 371
#     4  11  20  37  60  91 116 168 210 239 296 374
#     4  11  21  39  64  87 118 161 207 247 302 379
#     4  12  24  40  64  94 121 154 197 266 322 358
#
# _framework density 21.283016
#
# number of rings (size 3 to 8) (size 9 to 14) (size 15 to 20)
#    0.000    1.818    3.636    1.091    0.000    1.091 
#    0.000    0.000   12.000    3.273    0.000    0.000 
#    0.000    0.000    0.000    0.000    0.000    0.000 
#
# Total GULP energy -122529.080726 kJ/mol
# GULP energy per Si atom -5569.503669 kJ/mol
# Density = 2.123457 g / cm^3
# Si number density = 21.283016 Si / 1000 Ang^3
#
#
#
# Elastic Constant Matrix: (Units=GPa)
#
#
# Indices 1 2 3 4 5 6 
#
# 1 75.0718 40.3309 -2.5148 0.0000 -25.8075 0.0000
# 2 40.3309 208.8503 -3.9924 0.0000 -14.3259 0.0000
# 3 -2.5148 -3.9924 56.1496 0.0000 -3.4444 0.0000
# 4 0.0000 0.0000 0.0000 15.1746 0.0000 -22.6398
# 5 -25.8075 -14.3259 -3.4444 0.0000 39.2348 0.0000
# 6 0.0000 0.0000 0.0000 -22.6398 0.0000 7.6245
#
#
#
# Elastic Compliance Matrix: (Units=1/GPa)
#
#
# Indices 1 2 3 4 5 6 
#
# 1 0.018825 -0.002823 0.001346 0.000000 0.011470 0.000000
# 2 -0.002823 0.005346 0.000261 0.000000 0.000118 0.000000
# 3 0.001346 0.000261 0.018046 0.000000 0.002565 0.000000
# 4 0.000000 0.000000 0.000000 -0.019212 0.000000 -0.057047
# 5 0.011470 0.000118 0.002565 0.000000 0.033301 0.000000
# 6 0.000000 0.000000 0.000000 -0.057047 0.000000 -0.038236
#
#
# Mechanical properties :
#
#
# Convention : Reuss Voigt Hill
#
# Bulk Modulus (GPa) = 25.13462 45.30212 35.21837
# Shear Modulus (GPa) = 148.08916 32.82330 90.45623
#
# Velocity S-wave (km/s) = 8.35057 3.93138 6.52640
# Velocity P-wave (km/s) = 10.23774 6.47607 8.56594
#
# Compressibility (1/GPa) = 0.03978576
#
# Stress axis : x y z
#
# Youngs Moduli (GPa) = 53.12001 187.04413 55.41469
#
# Poissons Ratio (x) = 0.52799 -0.07459
# Poissons Ratio (y) = 0.14995 -0.01446
# Poissons Ratio (z) = -0.07150 -0.04881
#
# Static dielectric constant tensor:
#      x y z
#    x 1.668010 0.000000 -0.116140 
#    y 0.000000 1.845580 0.000000 
#    z -0.116140 0.000000 1.661390 
# 
# From -- ./inp_files/12157.got.cif
#   From: 2010.05.17/outbox.cif.g08.bks.cpg/sg12_7_cif.got.tgz:12157.got - 2010.06.03 13:09:07.
