data_PCOD9205055
_publ_section_title
;
Structure prediction by ZEFSAII (Michael W. Deem and Ramdas Pophale) SiO2 
 PCOD9205055
Probable space group: C 2/M
;
_chemical_formula_sum "Si O2"
_cell_formula_units_Z 28
_cell_length_a 13.821953
_cell_length_b 5.693953
_cell_length_c 20.470393
_cell_angle_alpha 90.000000
_cell_angle_beta 41.133210
_cell_angle_gamma 90.000000
_cell_volume 1059.768992
_symmetry_space_group_name_H-M "C 2/M"
_symmetry_group_IT_number 12
_symmetry_cell_setting 'monoclinic'
loop_
_space_group_symop_operation_xyz
x,y,z
-x,y,-z
-x,-y,-z
x,-y,z
1/2+x,1/2+y,z
1/2-x,1/2+y,-z
1/2-x,1/2-y,-z
1/2+x,1/2-y,z
loop_
_atom_site_type_symbol
_atom_site_label
_atom_site_fract_x
_atom_site_fract_y
_atom_site_fract_z
Si Si1 0.794555 0.000000 0.679177
Si Si2 0.376916 0.750443 0.129100
Si Si3 0.838221 0.250025 0.886443
Si Si4 0.140651 0.500000 0.620074
Si Si5 0.580386 0.500000 0.608614
O O1 0.725271 0.217283 0.755519
O O2 0.741419 0.000000 0.632948
O O3 0.966827 0.000000 0.606170
O O4 0.455303 0.500000 0.091185
O O5 0.274279 0.749176 0.117313
O O6 0.461601 0.000000 0.085264
O O7 0.920961 0.500000 0.841155
O O8 0.918685 0.000000 0.842520
O O9 0.750000 0.250000 0.000000
O O10 0.251688 0.500000 0.501381
O O11 0.057025 0.750342 0.657181
#
# Coordination Sequence:
#
# PCOD9205055 Si02
#       5
#     4   8   8   4   4
#     4  10  21  34  60  74 112 138 168 220 270 292
#     4   8  16  25  41  70  95 129 168 202 250 306
#     4   8  12  20  33  54  91 126 152 204 244 278
#     4  10  23  39  56  81 106 136 178 212 256 321
#     4  10  23  39  56  81 106 136 178 212 256 321
#
# _framework density 26.420853000000001
#
# number of rings (size 3 to 8) (size 9 to 14) (size 15 to 20)
#    0.857    2.286    0.000    0.429    4.000    0.000 
#    0.000    4.286    0.000    0.000    0.000    0.000 
#    0.000    6.857    0.000    0.000    0.000    0.000 
#
# Total GULP energy -78204.070658 kJ/mol
# GULP energy per Si atom -5586.005047 kJ/mol
# Density = 2.636072 g / cm^3
# Si number density = 26.420853 Si / 1000 Ang^3
#
#
#
# Elastic Constant Matrix: (Units=GPa)
#
#
# Indices 1 2 3 4 5 6 
#
# 1 140.9422 44.8531 9.4570 0.0002 45.8102 0.0010
# 2 44.8531 327.2820 32.1123 0.0003 -0.6547 0.0005
# 3 9.4570 32.1123 71.8554 -0.0003 11.7976 0.0003
# 4 0.0002 0.0003 -0.0003 31.0231 -0.0001 -3.2743
# 5 45.8102 -0.6547 11.7976 -0.0001 59.0218 0.0000
# 6 0.0010 0.0005 0.0003 -3.2743 0.0000 -2.6183
#
#
#
# Elastic Compliance Matrix: (Units=1/GPa)
#
#
# Indices 1 2 3 4 5 6 
#
# 1 0.010118 -0.001465 0.000636 0.000000 -0.007996 0.000003
# 2 -0.001465 0.003414 -0.001578 0.000000 0.001490 0.000000
# 3 0.000636 -0.001578 0.015118 0.000000 -0.003533 0.000001
# 4 0.000000 0.000000 0.000000 0.028476 0.000000 -0.035610
# 5 -0.007996 0.001490 -0.003533 0.000000 0.023872 -0.000003
# 6 0.000003 0.000000 0.000001 -0.035610 -0.000003 -0.337395
#
#
# Mechanical properties :
#
#
# Convention : Reuss Voigt Hill
#
# Bulk Modulus (GPa) = 41.95216 79.21381 60.58298
# Shear Modulus (GPa) = -20.52220 47.72912 13.60346
#
# Velocity S-wave (km/s) = -2.79003 4.25490 2.27155
# Velocity P-wave (km/s) = 2.35241 7.36108 5.46440
#
# Compressibility (1/GPa) = 0.02383668
#
# Stress axis : x y z
#
# Youngs Moduli (GPa) = 98.83697 292.91026 66.14527
#
# Poissons Ratio (x) = 0.42911 -0.04207
# Poissons Ratio (y) = 0.14480 0.10435
# Poissons Ratio (z) = -0.06286 0.46209
#
# Static dielectric constant tensor:
#      x y z
#    x 1.957030 0.000000 0.006820 
#    y 0.000000 2.116440 0.000000 
#    z 0.006820 0.000000 2.062840 
# 
# From -- ./inp_files/266426.got.cif
#   From: 2010.05.17/outbox.cif.g08.bks.cpg/sg12_134_cif.got.tgz:266426.got - 2010.06.03 13:09:07.
