data_PCOD9205371
_publ_section_title
;
Structure prediction by ZEFSAII (Michael W. Deem and Ramdas Pophale) SiO2 
 PCOD9205371
Probable space group: C 2/M
;
_chemical_formula_sum "Si O2"
_cell_formula_units_Z 56
_cell_length_a 9.121572
_cell_length_b 24.381950
_cell_length_c 17.276256
_cell_angle_alpha 90.000000
_cell_angle_beta 141.649255
_cell_angle_gamma 90.000000
_cell_volume 2384.027348
_symmetry_space_group_name_H-M "C 2/M"
_symmetry_group_IT_number 12
_symmetry_cell_setting 'monoclinic'
loop_
_space_group_symop_operation_xyz
x,y,z
-x,y,-z
-x,-y,-z
x,-y,z
1/2+x,1/2+y,z
1/2-x,1/2+y,-z
1/2-x,1/2-y,-z
1/2+x,1/2-y,z
loop_
_atom_site_type_symbol
_atom_site_label
_atom_site_fract_x
_atom_site_fract_y
_atom_site_fract_z
Si Si1 0.074401 0.436165 0.617811
Si Si2 0.889545 0.094652 0.129143
Si Si3 0.261224 0.743671 0.628576
Si Si4 0.078611 0.800234 0.962608
Si Si5 0.247221 0.781466 0.794681
Si Si6 0.722615 0.872893 0.379989
Si Si7 0.424473 0.101104 0.854760
O O1 0.012950 0.500000 0.600079
O O2 0.348667 0.428659 0.754412
O O3 0.000000 0.419556 0.500000
O O4 0.922551 0.400996 0.613660
O O5 0.918858 0.157639 0.110111
O O6 0.773652 0.082704 0.165977
O O7 0.676276 0.076107 0.982945
O O8 0.280553 0.751755 0.727276
O O9 0.471085 0.705975 0.685035
O O10 0.300045 0.806822 0.618027
O O11 0.000000 0.725264 0.500000
O O12 0.830873 0.766767 0.884873
O O13 0.250000 0.750000 0.000000
O O14 0.000000 0.843877 0.000000
O O15 0.412493 0.833566 0.869101
O O16 0.635499 0.895920 0.260601
O O17 0.000000 0.884408 0.500000
#
# Coordination Sequence:
#
# PCOD9205371 Si02
#       7
#     8   8   8   8   8   8   8
#     4  11  26  48  75 104 132 168 224 291 363 436
#     4  11  23  41  65  98 139 181 227 287 346 413
#     4  10  21  35  54  84 127 180 228 277 330 384
#     4  12  23  35  59  93 133 185 236 278 333 400
#     4  11  20  34  53  84 129 176 230 278 313 387
#     4  10  22  42  67  96 134 180 228 285 350 418
#     4  10  22  39  63  95 138 182 230 276 342 408
#
# _framework density 23.489664000000001
#
# number of rings (size 3 to 8) (size 9 to 14) (size 15 to 20)
#    0.000    1.286    1.429    4.714    4.000    0.286 
#    0.000    8.571    0.000    0.000    0.000    0.000 
#    0.000    0.000    0.000    0.000    0.000    0.000 
#
# Total GULP energy -155885.936223 kJ/mol
# GULP energy per Si atom -5567.354865 kJ/mol
# Density = 2.343620 g / cm^3
# Si number density = 23.489664 Si / 1000 Ang^3
#
#
#
# Elastic Constant Matrix: (Units=GPa)
#
#
# Indices 1 2 3 4 5 6 
#
# 1 126.6795 26.2552 37.5802 0.0001 4.0893 0.0000
# 2 26.2552 15.6983 19.2300 -0.0013 7.3410 -0.0006
# 3 37.5802 19.2300 113.5440 0.0005 27.7388 -0.0032
# 4 0.0001 -0.0013 0.0005 33.6636 -0.0020 -4.8911
# 5 4.0893 7.3410 27.7388 -0.0020 24.0839 -0.0025
# 6 0.0000 -0.0006 -0.0032 -4.8911 -0.0025 15.3895
#
#
#
# Elastic Compliance Matrix: (Units=1/GPa)
#
#
# Indices 1 2 3 4 5 6 
#
# 1 0.012944 -0.022223 -0.002280 0.000000 0.007202 0.000000
# 2 -0.022223 0.121227 -0.007056 0.000003 -0.025051 0.000001
# 3 -0.002280 -0.007056 0.014106 -0.000001 -0.013708 0.000000
# 4 0.000000 0.000003 -0.000001 0.031144 0.000004 0.009898
# 5 0.007202 -0.025051 -0.013708 0.000004 0.063724 0.000008
# 6 0.000000 0.000001 0.000000 0.009898 0.000008 0.068125
#
#
# Mechanical properties :
#
#
# Convention : Reuss Voigt Hill
#
# Bulk Modulus (GPa) = 11.74273 46.89472 29.31872
# Shear Modulus (GPa) = 12.41393 26.15116 19.28254
#
# Velocity S-wave (km/s) = 2.30137 3.34024 2.86823
# Velocity P-wave (km/s) = 3.47444 5.90624 4.84538
#
# Compressibility (1/GPa) = 0.08515909
#
# Stress axis : x y z
#
# Youngs Moduli (GPa) = 77.25782 8.24895 70.89374
#
# Poissons Ratio (x) = 0.18332 0.16161
# Poissons Ratio (y) = 1.71693 0.50021
# Poissons Ratio (z) = 0.17612 0.05820
#
# Static dielectric constant tensor:
#      x y z
#    x 1.555820 0.000000 0.871690 
#    y 0.000000 1.910540 -0.000010 
#    z 0.871690 -0.000010 0.021210 
# 
# From -- ./inp_files/259876.got.cif
#   From: 2010.05.17/outbox.cif.g08.bks.cpg/sg12_130_cif.got.tgz:259876.got - 2010.06.03 13:09:07.
