data_PCOD9205011
_publ_section_title
;
Structure prediction by ZEFSAII (Michael W. Deem and Ramdas Pophale) SiO2 
 PCOD9205011
Probable space group: C 2/M
;
_chemical_formula_sum "Si O2"
_cell_formula_units_Z 52
_cell_length_a 11.028604
_cell_length_b 29.211629
_cell_length_c 8.788876
_cell_angle_alpha 90.000000
_cell_angle_beta 87.665171
_cell_angle_gamma 90.000000
_cell_volume 2829.104321
_symmetry_space_group_name_H-M "C 2/M"
_symmetry_group_IT_number 12
_symmetry_cell_setting 'monoclinic'
loop_
_space_group_symop_operation_xyz
x,y,z
-x,y,-z
-x,-y,-z
x,-y,z
1/2+x,1/2+y,z
1/2-x,1/2+y,-z
1/2-x,1/2-y,-z
1/2+x,1/2-y,z
loop_
_atom_site_type_symbol
_atom_site_label
_atom_site_fract_x
_atom_site_fract_y
_atom_site_fract_z
Si Si1 0.375801 0.500000 0.408483
Si Si2 0.747797 0.321492 0.866719
Si Si3 0.386205 0.227994 0.120392
Si Si4 0.278898 0.572526 0.185786
Si Si5 0.009292 0.333822 0.323438
Si Si6 0.639282 0.500000 0.046941
Si Si7 0.805589 0.500000 0.315403
Si Si8 0.001806 0.429153 0.818832
O O1 0.500000 0.500000 0.500000
O O2 0.362228 0.545598 0.303721
O O3 0.254191 0.500000 0.517064
O O4 0.659452 0.279013 0.846825
O O5 0.701049 0.373565 0.847614
O O6 0.857126 0.319505 0.739104
O O7 0.798765 0.307110 0.031746
O O8 0.421332 0.206583 0.279001
O O9 0.500000 0.230897 0.000000
O O10 0.302139 0.544863 0.030492
O O11 0.136612 0.564105 0.232317
O O12 0.974569 0.376309 0.217673
O O13 0.000000 0.345971 0.500000
O O14 0.500000 0.500000 0.000000
O O15 0.685250 0.500000 0.215729
O O16 0.895060 0.458125 0.269842
O O17 0.000000 0.438594 0.000000
#
# Coordination Sequence:
#
# PCOD9205011 Si02
#       8
#     4   8   8   8   8   4   4   8
#     4  11  26  44  56  77 127 167 197 237 294 352
#     4   9  19  36  61  83 111 151 194 237 295 340
#     4   9  18  36  59  86 116 148 188 241 287 346
#     4  10  21  39  60  81 120 157 188 256 291 346
#     4  10  21  34  56  85 120 152 180 232 298 354
#     4  11  22  37  56  82 114 157 204 238 286 339
#     4  12  23  34  64  89 111 156 195 243 288 351
#     4  11  21  37  60  94 117 140 197 253 302 341
#
# _framework density 18.380375999999998
#
# number of rings (size 3 to 8) (size 9 to 14) (size 15 to 20)
#    0.000    1.846    1.538    4.385    4.308    1.846 
#    0.000    0.769    3.385    0.000    0.000    0.000 
#    0.000    0.000    0.000    0.000    0.000    0.000 
#
# Total GULP energy -144784.699568 kJ/mol
# GULP energy per Si atom -5568.642291 kJ/mol
# Density = 1.833854 g / cm^3
# Si number density = 18.380376 Si / 1000 Ang^3
#
#
#
# Elastic Constant Matrix: (Units=GPa)
#
#
# Indices 1 2 3 4 5 6 
#
# 1 51.0240 46.0430 -7.0578 0.0000 11.2438 0.0000
# 2 46.0430 137.3086 28.0384 0.0000 11.1901 0.0000
# 3 -7.0578 28.0384 45.3909 0.0000 -2.6019 0.0000
# 4 0.0000 0.0000 0.0000 18.0334 0.0000 -1.5975
# 5 11.2438 11.1901 -2.6019 0.0000 27.9272 0.0000
# 6 0.0000 0.0000 0.0000 -1.5975 0.0000 27.1976
#
#
#
# Elastic Compliance Matrix: (Units=1/GPa)
#
#
# Indices 1 2 3 4 5 6 
#
# 1 0.036200 -0.014408 0.014099 0.000000 -0.007488 0.000000
# 2 -0.014408 0.014499 -0.011257 0.000000 -0.001058 0.000000
# 3 0.014099 -0.011257 0.031277 0.000000 0.001748 0.000000
# 4 0.000000 0.000000 0.000000 0.055743 0.000000 0.003274
# 5 -0.007488 -0.001058 0.001748 0.000000 0.039409 0.000000
# 6 0.000000 0.000000 0.000000 0.003274 0.000000 0.036960
#
#
# Mechanical properties :
#
#
# Convention : Reuss Voigt Hill
#
# Bulk Modulus (GPa) = 16.99379 40.86341 28.92860
# Shear Modulus (GPa) = 19.46788 25.74497 22.60642
#
# Velocity S-wave (km/s) = 3.25801 3.74662 3.51083
# Velocity P-wave (km/s) = 4.83927 6.40286 5.67517
#
# Compressibility (1/GPa) = 0.05884501
#
# Stress axis : x y z
#
# Youngs Moduli (GPa) = 27.62433 68.97049 31.97248
#
# Poissons Ratio (x) = 0.99370 -0.45078
# Poissons Ratio (y) = 0.39800 0.35991
# Poissons Ratio (z) = -0.38948 0.77640
#
# Static dielectric constant tensor:
#      x y z
#    x 1.680650 0.000000 0.027020 
#    y 0.000000 1.657510 0.000000 
#    z 0.027020 0.000000 1.620750 
# 
# From -- ./inp_files/52627.got.cif
#   From: 2010.05.17/outbox.cif.g08.bks.cpg/sg12_27_cif.got.tgz:52627.got - 2010.06.03 13:09:07.
