data_PCOD9205444
_publ_section_title
;
Structure prediction by ZEFSAII (Michael W. Deem and Ramdas Pophale) SiO2 
 PCOD9205444
Probable space group: C 2/M
;
_chemical_formula_sum "Si O2"
_cell_formula_units_Z 40
_cell_length_a 10.947911
_cell_length_b 27.719586
_cell_length_c 6.747213
_cell_angle_alpha 90.000000
_cell_angle_beta 113.103023
_cell_angle_gamma 90.000000
_cell_volume 1883.372389
_symmetry_space_group_name_H-M "C 2/M"
_symmetry_group_IT_number 12
_symmetry_cell_setting 'monoclinic'
loop_
_space_group_symop_operation_xyz
x,y,z
-x,y,-z
-x,-y,-z
x,-y,z
1/2+x,1/2+y,z
1/2-x,1/2+y,-z
1/2-x,1/2-y,-z
1/2+x,1/2-y,z
loop_
_atom_site_type_symbol
_atom_site_label
_atom_site_fract_x
_atom_site_fract_y
_atom_site_fract_z
Si Si1 0.643421 0.119230 0.023923
Si Si2 0.609355 0.302085 0.408260
Si Si3 0.846384 0.446683 0.331913
Si Si4 0.640581 0.590217 0.511108
Si Si5 0.675335 0.226893 0.139016
O O1 0.763042 0.104980 0.245803
O O2 0.625891 0.176905 0.011623
O O3 0.500000 0.098743 0.000000
O O4 0.674932 0.096617 0.833159
O O5 0.500000 0.287448 0.500000
O O6 0.601513 0.359594 0.374054
O O7 0.598597 0.269657 0.206356
O O8 0.742671 0.292589 0.617886
O O9 0.831776 0.500000 0.230248
O O10 0.736063 0.441063 0.432361
O O11 0.000000 0.443023 0.500000
O O12 0.500000 0.569615 0.500000
O O13 0.750000 0.250000 0.000000
#
# Coordination Sequence:
#
# PCOD9205444 Si02
#       5
#     8   8   8   8   8
#     4  11  23  40  64  99 128 172 225 272 325 390
#     4   9  20  37  55  83 124 167 208 254 316 378
#     4  11  24  43  69  98 129 170 220 278 339 394
#     4  10  22  44  67  93 135 174 211 271 332 392
#     4  10  21  35  55  88 122 166 212 260 311 381
#
# _framework density 21.238499000000001
#
# number of rings (size 3 to 8) (size 9 to 14) (size 15 to 20)
#    0.000    1.800    2.000    1.200    2.800    2.400 
#    0.000    7.000    0.000    0.000    0.000    0.000 
#    0.000    0.000    0.000    0.000    0.000    0.000 
#
# Total GULP energy -111417.636006 kJ/mol
# GULP energy per Si atom -5570.881800 kJ/mol
# Density = 2.119016 g / cm^3
# Si number density = 21.238499 Si / 1000 Ang^3
#
#
#
# Elastic Constant Matrix: (Units=GPa)
#
#
# Indices 1 2 3 4 5 6 
#
# 1 145.3686 31.8494 31.5846 0.0000 -14.0213 0.0000
# 2 31.8494 93.5695 47.8127 0.0000 -14.9495 0.0000
# 3 31.5846 47.8127 64.8943 0.0000 -12.4402 0.0000
# 4 0.0000 0.0000 0.0000 5.1594 0.0000 -1.9314
# 5 -14.0213 -14.9495 -12.4402 0.0000 36.9217 0.0000
# 6 0.0000 0.0000 0.0000 -1.9314 0.0000 21.1455
#
#
#
# Elastic Compliance Matrix: (Units=1/GPa)
#
#
# Indices 1 2 3 4 5 6 
#
# 1 0.007859 -0.000992 -0.002778 0.000000 0.001647 0.000000
# 2 -0.000992 0.017555 -0.011931 0.000000 0.002711 0.000000
# 3 -0.002778 -0.011931 0.026111 0.000000 0.002912 0.000000
# 4 0.000000 0.000000 0.000000 0.200685 0.000000 0.018330
# 5 0.001647 0.002711 0.002912 0.000000 0.029788 0.000000
# 6 0.000000 0.000000 0.000000 0.018330 0.000000 0.048966
#
#
# Mechanical properties :
#
#
# Convention : Reuss Voigt Hill
#
# Bulk Modulus (GPa) = 49.70000 58.48066 54.09033
# Shear Modulus (GPa) = 13.54741 25.48436 19.51589
#
# Velocity S-wave (km/s) = 2.52835 3.46773 3.03461
# Velocity P-wave (km/s) = 5.65465 6.60519 6.14832
#
# Compressibility (1/GPa) = 0.02012073
#
# Stress axis : x y z
#
# Youngs Moduli (GPa) = 127.24372 56.96405 38.29833
#
# Poissons Ratio (x) = 0.05653 0.10640
# Poissons Ratio (y) = 0.12627 0.45695
# Poissons Ratio (z) = 0.35351 0.67966
#
# Static dielectric constant tensor:
#      x y z
#    x 1.912230 0.000000 0.059180 
#    y 0.000000 1.764110 0.000000 
#    z 0.059180 0.000000 1.727490 
# 
# From -- ./inp_files/8523.got.cif
#   From: 2010.05.17/outbox.cif.g08.bks.cpg/sg12_5_cif.got.tgz:8523.got - 2010.06.03 13:09:07.
