data_PCOD9205010
_publ_section_title
;
Structure prediction by ZEFSAII (Michael W. Deem and Ramdas Pophale) SiO2 
 PCOD9205010
Probable space group: C 2/M
;
_chemical_formula_sum "Si O2"
_cell_formula_units_Z 44
_cell_length_a 11.826047
_cell_length_b 27.911479
_cell_length_c 10.279377
_cell_angle_alpha 90.000000
_cell_angle_beta 141.489758
_cell_angle_gamma 90.000000
_cell_volume 2112.692994
_symmetry_space_group_name_H-M "C 2/M"
_symmetry_group_IT_number 12
_symmetry_cell_setting 'monoclinic'
loop_
_space_group_symop_operation_xyz
x,y,z
-x,y,-z
-x,-y,-z
x,-y,z
1/2+x,1/2+y,z
1/2-x,1/2+y,-z
1/2-x,1/2-y,-z
1/2+x,1/2-y,z
loop_
_atom_site_type_symbol
_atom_site_label
_atom_site_fract_x
_atom_site_fract_y
_atom_site_fract_z
Si Si1 0.000000 0.343081 0.000000
Si Si2 0.006091 0.500000 0.661537
Si Si3 0.566390 0.500000 0.909855
Si Si4 0.714269 0.272068 0.668210
Si Si5 0.505935 0.895142 0.278213
Si Si6 0.788127 0.177751 0.611277
Si Si7 0.925336 0.896079 0.079544
O O1 0.829803 0.306744 0.865370
O O2 0.972875 0.376281 0.849998
O O3 0.930165 0.449859 0.644879
O O4 0.000000 0.500000 0.500000
O O5 0.216344 0.500000 0.891099
O O6 0.517372 0.447929 0.809402
O O7 0.500000 0.500000 0.000000
O O8 0.500000 0.271424 0.500000
O O9 0.784582 0.217472 0.720992
O O10 0.745789 0.295105 0.554616
O O11 0.627456 0.860950 0.477831
O O12 0.291683 0.892285 0.116428
O O13 0.974111 0.148451 0.765533
O O14 0.000000 0.895905 0.000000
#
# Coordination Sequence:
#
# PCOD9205010 Si02
#       7
#     4   4   4   8   8   8   8
#     4  10  22  43  62  80 114 163 202 238 290 336
#     4  10  22  35  59  91 121 151 183 240 300 340
#     4   8  18  34  49  79 114 150 173 221 280 350
#     4  10  22  39  58  79 117 150 198 246 285 345
#     4  10  23  39  60  88 119 155 197 239 286 358
#     4  10  23  36  56  89 109 155 195 238 299 335
#     4  10  21  34  56  85 119 148 187 236 297 347
#
# _framework density 20.826499999999999
#
# number of rings (size 3 to 8) (size 9 to 14) (size 15 to 20)
#    0.000    2.182    0.000    1.091   11.455    0.364 
#    0.000    5.455    0.000    0.000    0.000   12.727 
#    0.000    0.000    0.000    0.000    0.000    0.000 
#
# Total GULP energy -122751.884050 kJ/mol
# GULP energy per Si atom -5579.631093 kJ/mol
# Density = 2.077910 g / cm^3
# Si number density = 20.826500 Si / 1000 Ang^3
#
#
#
# Elastic Constant Matrix: (Units=GPa)
#
#
# Indices 1 2 3 4 5 6 
#
# 1 43.5282 28.0244 7.5971 0.0000 12.8526 0.0000
# 2 28.0244 188.3852 49.1371 0.0000 2.3609 0.0000
# 3 7.5971 49.1371 62.1136 0.0000 13.2578 0.0000
# 4 0.0000 0.0000 0.0000 -61.6013 0.0000 -3.2439
# 5 12.8526 2.3609 13.2578 0.0000 39.1098 0.0000
# 6 0.0000 0.0000 0.0000 -3.2439 0.0000 27.9285
#
#
#
# Elastic Compliance Matrix: (Units=1/GPa)
#
#
# Indices 1 2 3 4 5 6 
#
# 1 0.028532 -0.004739 0.002371 0.000000 -0.009894 0.000000
# 2 -0.004739 0.007558 -0.006074 0.000000 0.003160 0.000000
# 3 0.002371 -0.006074 0.022317 0.000000 -0.007978 0.000000
# 4 0.000000 0.000000 0.000000 -0.016135 0.000000 -0.001874
# 5 -0.009894 0.003160 -0.007978 0.000000 0.031334 0.000000
# 6 0.000000 0.000000 0.000000 -0.001874 0.000000 0.035588
#
#
# Mechanical properties :
#
#
# Convention : Reuss Voigt Hill
#
# Bulk Modulus (GPa) = 24.08249 51.50489 37.79369
# Shear Modulus (GPa) = 35.73476 15.03862 25.38669
#
# Velocity S-wave (km/s) = 4.14675 2.69009 3.49515
# Velocity P-wave (km/s) = 5.87502 5.86796 5.87149
#
# Compressibility (1/GPa) = 0.04152394
#
# Stress axis : x y z
#
# Youngs Moduli (GPa) = 35.04800 132.31220 44.80841
#
# Poissons Ratio (x) = 0.62702 -0.10624
# Poissons Ratio (y) = 0.16609 0.27216
# Poissons Ratio (z) = -0.08310 0.80364
#
# Static dielectric constant tensor:
#      x y z
#    x 1.707380 0.000000 0.008160 
#    y 0.000000 1.817690 0.000000 
#    z 0.008160 0.000000 1.777130 
# 
# From -- ./inp_files/136877.got.cif
#   From: 2010.05.17/outbox.cif.g08.bks.cpg/sg12_69_cif.got.tgz:136877.got - 2010.06.03 13:09:07.
