data_PCOD9205841
_publ_section_title
;
Structure prediction by ZEFSAII (Michael W. Deem and Ramdas Pophale) SiO2 
 PCOD9205841
Probable space group: C 2/M
;
_chemical_formula_sum "Si O2"
_cell_formula_units_Z 56
_cell_length_a 16.889468
_cell_length_b 9.548811
_cell_length_c 22.621555
_cell_angle_alpha 90.000000
_cell_angle_beta 51.312742
_cell_angle_gamma 90.000000
_cell_volume 2847.732975
_symmetry_space_group_name_H-M "C 2/M"
_symmetry_group_IT_number 12
_symmetry_cell_setting 'monoclinic'
loop_
_space_group_symop_operation_xyz
x,y,z
-x,y,-z
-x,-y,-z
x,-y,z
1/2+x,1/2+y,z
1/2-x,1/2+y,-z
1/2-x,1/2-y,-z
1/2+x,1/2-y,z
loop_
_atom_site_type_symbol
_atom_site_label
_atom_site_fract_x
_atom_site_fract_y
_atom_site_fract_z
Si Si1 0.440882 0.667757 0.466230
Si Si2 0.796475 0.663455 0.924369
Si Si3 0.805230 0.842202 0.804562
Si Si4 0.033831 0.650488 0.794726
Si Si5 0.028298 0.229576 0.674723
Si Si6 0.259006 0.845976 0.586067
Si Si7 0.214812 0.838574 0.742458
O O1 0.500000 0.694946 0.500000
O O2 0.445716 0.500000 0.452847
O O3 0.485907 0.749805 0.388696
O O4 0.326300 0.723424 0.527351
O O5 0.763995 0.500000 0.938329
O O6 0.773344 0.746850 0.874839
O O7 0.919072 0.662700 0.870210
O O8 0.750000 0.750000 0.000000
O O9 0.769122 0.761952 0.763167
O O10 0.927764 0.849493 0.743501
O O11 0.765587 0.000000 0.827588
O O12 0.076579 0.500000 0.794094
O O13 0.034238 0.653151 0.722779
O O14 0.102155 0.777471 0.785071
O O15 0.139790 0.161034 0.626495
O O16 0.264895 0.832808 0.654245
O O17 0.297715 0.000000 0.550102
O O18 0.214596 0.000000 0.762105
#
# Coordination Sequence:
#
# PCOD9205841 Si02
#       7
#     8   8   8   8   8   8   8
#     4  11  23  37  53  76 108 146 189 235 282 335
#     4  10  21  38  60  88 120 150 186 229 274 329
#     4  11  21  36  61  86 113 151 189 228 278 333
#     4   9  20  38  61  86 111 145 188 231 276 333
#     4  10  21  36  56  81 110 144 188 235 280 333
#     4  10  21  36  54  77 107 144 187 235 284 333
#     4  10  21  37  57  84 117 148 185 234 283 333
#
# _framework density 19.664764999999999
#
# number of rings (size 3 to 8) (size 9 to 14) (size 15 to 20)
#    0.000    1.857    0.000    3.857    0.000   10.000 
#    0.000    0.714    0.000    4.286    0.000    0.000 
#    0.000    0.000    0.000    0.000    0.000    0.000 
#
# Total GULP energy -156105.894527 kJ/mol
# GULP energy per Si atom -5575.210519 kJ/mol
# Density = 1.962001 g / cm^3
# Si number density = 19.664765 Si / 1000 Ang^3
#
#
#
# Elastic Constant Matrix: (Units=GPa)
#
#
# Indices 1 2 3 4 5 6 
#
# 1 68.4733 34.8722 30.6560 0.0000 14.6931 0.0000
# 2 34.8722 122.4488 38.5873 0.0000 0.6782 0.0001
# 3 30.6560 38.5873 106.0783 0.0000 7.4386 0.0000
# 4 0.0000 0.0000 0.0000 5.1853 0.0000 4.6977
# 5 14.6931 0.6782 7.4386 0.0000 22.8902 0.0000
# 6 0.0000 0.0001 0.0000 4.6977 0.0000 8.5678
#
#
#
# Elastic Compliance Matrix: (Units=1/GPa)
#
#
# Indices 1 2 3 4 5 6 
#
# 1 0.021335 -0.004900 -0.003513 0.000000 -0.012408 0.000000
# 2 -0.004900 0.010365 -0.002613 0.000000 0.003687 0.000000
# 3 -0.003513 -0.002613 0.011491 0.000000 -0.001402 0.000000
# 4 0.000000 0.000000 0.000000 0.383213 0.000000 -0.210115
# 5 -0.012408 0.003687 -0.001402 0.000000 0.051998 0.000000
# 6 0.000000 0.000000 0.000000 -0.210115 0.000000 0.231922
#
#
# Mechanical properties :
#
#
# Convention : Reuss Voigt Hill
#
# Bulk Modulus (GPa) = 47.30611 56.13682 51.72146
# Shear Modulus (GPa) = 6.76203 20.18767 13.47485
#
# Velocity S-wave (km/s) = 1.85637 3.20752 2.62053
# Velocity P-wave (km/s) = 5.35755 6.50588 5.95944
#
# Compressibility (1/GPa) = 0.02113892
#
# Stress axis : x y z
#
# Youngs Moduli (GPa) = 46.87089 96.47674 87.02435
#
# Poissons Ratio (x) = 0.47276 0.30573
# Poissons Ratio (y) = 0.22968 0.22739
# Poissons Ratio (z) = 0.16466 0.25208
#
# Static dielectric constant tensor:
#      x y z
#    x 1.716270 0.000000 0.023260 
#    y 0.000000 1.287130 0.000000 
#    z 0.023260 0.000000 1.673680 
# 
# From -- ./inp_files/313753.got.cif
#   From: 2010.05.17/outbox.cif.g08.bks.cpg/sg12_157_cif.got.tgz:313753.got - 2010.06.03 13:09:07.
