data_PCOD9205546
_publ_section_title
;
Structure prediction by ZEFSAII (Michael W. Deem and Ramdas Pophale) SiO2 
 PCOD9205546
Probable space group: C 2/M
;
_chemical_formula_sum "Si O2"
_cell_formula_units_Z 48
_cell_length_a 13.866981
_cell_length_b 19.671163
_cell_length_c 13.956670
_cell_angle_alpha 90.000000
_cell_angle_beta 137.564847
_cell_angle_gamma 90.000000
_cell_volume 2568.857956
_symmetry_space_group_name_H-M "C 2/M"
_symmetry_group_IT_number 12
_symmetry_cell_setting 'monoclinic'
loop_
_space_group_symop_operation_xyz
x,y,z
-x,y,-z
-x,-y,-z
x,-y,z
1/2+x,1/2+y,z
1/2-x,1/2+y,-z
1/2-x,1/2-y,-z
1/2+x,1/2-y,z
loop_
_atom_site_type_symbol
_atom_site_label
_atom_site_fract_x
_atom_site_fract_y
_atom_site_fract_z
Si Si1 0.648099 0.661063 0.865985
Si Si2 0.604366 0.178746 0.807177
Si Si3 0.708644 0.171810 0.474009
Si Si4 0.535231 0.572678 0.136568
Si Si5 0.651589 0.887464 0.634502
Si Si6 0.524777 0.580923 0.405240
O O1 0.625127 0.739511 0.820625
O O2 0.529441 0.636048 0.855237
O O3 0.611822 0.612495 0.750387
O O4 0.797116 0.653801 0.032485
O O5 0.437035 0.161108 0.692883
O O6 0.651078 0.146921 0.739048
O O7 0.750000 0.250000 0.500000
O O8 0.667299 0.162228 0.555234
O O9 0.836316 0.122534 0.531970
O O10 0.474174 0.500000 0.126284
O O11 0.704694 0.570524 0.268384
O O12 0.500000 0.579496 0.000000
O O13 0.500000 0.922085 0.500000
O O14 0.500000 0.591039 0.500000
O O15 0.541712 0.500000 0.399865
#
# Coordination Sequence:
#
# PCOD9205546 Si02
#       6
#     8   8   8   8   8   8
#     4  11  21  39  61  85 127 159 203 255 306 377
#     4  10  22  37  58  96 123 156 200 254 320 363
#     4  11  21  38  64  91 122 163 204 261 311 362
#     4  11  21  36  57  84 120 160 198 239 297 366
#     4  10  21  35  57  88 123 152 194 249 304 364
#     4  11  25  43  65  90 121 169 217 255 307 379
#
# _framework density 18.685345999999999
#
# number of rings (size 3 to 8) (size 9 to 14) (size 15 to 20)
#    0.000    1.333    5.000    0.500    2.333    0.333 
#    0.000    5.000    0.000    2.000    0.000    0.000 
#    0.000    0.000    0.000    0.000    0.000    0.000 
#
# Total GULP energy -133736.447061 kJ/mol
# GULP energy per Si atom -5572.351961 kJ/mol
# Density = 1.864282 g / cm^3
# Si number density = 18.685346 Si / 1000 Ang^3
#
#
#
# Elastic Constant Matrix: (Units=GPa)
#
#
# Indices 1 2 3 4 5 6 
#
# 1 57.6781 29.4954 38.3161 0.0000 -6.6987 0.0000
# 2 29.4954 99.9006 45.4919 0.0000 -2.4303 0.0000
# 3 38.3161 45.4919 170.3442 0.0000 0.8731 0.0000
# 4 0.0000 0.0000 0.0000 177.9967 0.0000 -134.4501
# 5 -6.6987 -2.4303 0.8731 0.0000 37.5113 0.0000
# 6 0.0000 0.0000 0.0000 -134.4501 0.0000 122.9623
#
#
#
# Elastic Compliance Matrix: (Units=1/GPa)
#
#
# Indices 1 2 3 4 5 6 
#
# 1 0.022848 -0.004899 -0.003851 0.000000 0.003852 0.000000
# 2 -0.004899 0.012471 -0.002228 0.000000 -0.000015 0.000000
# 3 -0.003851 -0.002228 0.007337 0.000000 -0.001003 0.000000
# 4 0.000000 0.000000 0.000000 0.032273 0.000000 0.035288
# 5 0.003852 -0.000015 -0.001003 0.000000 0.027369 0.000000
# 6 0.000000 0.000000 0.000000 0.035288 0.000000 0.046718
#
#
# Mechanical properties :
#
#
# Convention : Reuss Voigt Hill
#
# Bulk Modulus (GPa) = 48.30922 61.61442 54.96182
# Shear Modulus (GPa) = 28.11017 82.00202 55.05610
#
# Velocity S-wave (km/s) = 3.88286 6.63182 5.43404
# Velocity P-wave (km/s) = 6.78324 9.57537 8.29759
#
# Compressibility (1/GPa) = 0.02069998
#
# Stress axis : x y z
#
# Youngs Moduli (GPa) = 43.76701 80.18822 136.29688
#
# Poissons Ratio (x) = 0.39281 0.52486
# Poissons Ratio (y) = 0.21440 0.30373
# Poissons Ratio (z) = 0.16854 0.17870
#
# Static dielectric constant tensor:
#      x y z
#    x 1.643800 0.000000 0.010380 
#    y 0.000000 1.646650 0.000000 
#    z 0.010380 0.000000 1.695410 
# 
# From -- ./inp_files/217466.got.cif
#   From: 2010.05.17/outbox.cif.g08.bks.cpg/sg12_109_cif.got.tgz:217466.got - 2010.06.03 13:09:07.
