data_PCOD9205816
_publ_section_title
;
Structure prediction by ZEFSAII (Michael W. Deem and Ramdas Pophale) SiO2 
 PCOD9205816
Probable space group: C 2/M
;
_chemical_formula_sum "Si O2"
_cell_formula_units_Z 48
_cell_length_a 21.361307
_cell_length_b 16.746437
_cell_length_c 10.059215
_cell_angle_alpha 90.000000
_cell_angle_beta 132.238271
_cell_angle_gamma 90.000000
_cell_volume 2664.126160
_symmetry_space_group_name_H-M "C 2/M"
_symmetry_group_IT_number 12
_symmetry_cell_setting 'monoclinic'
loop_
_space_group_symop_operation_xyz
x,y,z
-x,y,-z
-x,-y,-z
x,-y,z
1/2+x,1/2+y,z
1/2-x,1/2+y,-z
1/2-x,1/2-y,-z
1/2+x,1/2-y,z
loop_
_atom_site_type_symbol
_atom_site_label
_atom_site_fract_x
_atom_site_fract_y
_atom_site_fract_z
Si Si1 0.675231 0.253348 0.214287
Si Si2 0.160048 0.209192 0.898721
Si Si3 0.980831 0.341055 0.329058
Si Si4 0.401141 0.590890 0.397438
Si Si5 0.630565 0.729877 0.443413
Si Si6 0.416076 0.910611 0.970901
O O1 0.630444 0.282025 0.284763
O O2 0.775475 0.257465 0.380765
O O3 0.650468 0.298535 0.043807
O O4 0.647828 0.160906 0.153956
O O5 0.149543 0.129760 0.797977
O O6 0.087714 0.270466 0.747233
O O7 0.250000 0.250000 0.000000
O O8 0.063221 0.297007 0.388054
O O9 0.000000 0.377720 0.500000
O O10 0.944258 0.398320 0.163760
O O11 0.500000 0.592070 0.500000
O O12 0.375508 0.500000 0.386826
O O13 0.388591 0.649336 0.503926
O O14 0.382540 0.000000 0.901634
O O15 0.500000 0.901136 0.000000
#
# Coordination Sequence:
#
# PCOD9205816 Si02
#       6
#     8   8   8   8   8   8
#     4  10  22  33  61  83 111 151 194 231 276 338
#     4  11  19  36  57  87 110 144 190 237 276 341
#     4  11  19  34  59  79 110 150 189 230 272 340
#     4  11  22  38  60  85 116 153 191 239 290 336
#     4  11  19  38  55  86 110 148 195 231 274 343
#     4  10  21  36  53  82 117 145 180 232 286 330
#
# _framework density 18.017166
#
# number of rings (size 3 to 8) (size 9 to 14) (size 15 to 20)
#    0.000    1.333    6.667    0.000    0.000    1.000 
#    0.000    0.833    0.000    6.000    0.000    0.000 
#    0.000    0.000    0.000    0.000    0.000    0.000 
#
# Total GULP energy -133998.259928 kJ/mol
# GULP energy per Si atom -5583.260830 kJ/mol
# Density = 1.797616 g / cm^3
# Si number density = 18.017166 Si / 1000 Ang^3
#
#
#
# Elastic Constant Matrix: (Units=GPa)
#
#
# Indices 1 2 3 4 5 6 
#
# 1 74.7553 16.8144 23.6574 0.0000 -9.1719 0.0000
# 2 16.8144 77.0327 17.9465 0.0000 -9.7309 0.0000
# 3 23.6574 17.9465 84.1456 0.0000 -23.7769 0.0000
# 4 0.0000 0.0000 0.0000 19.5374 0.0000 -3.2132
# 5 -9.1719 -9.7309 -23.7769 0.0000 46.7666 0.0000
# 6 0.0000 0.0000 0.0000 -3.2132 0.0000 16.8788
#
#
#
# Elastic Compliance Matrix: (Units=1/GPa)
#
#
# Indices 1 2 3 4 5 6 
#
# 1 0.015120 -0.002389 -0.003555 0.000000 0.000661 0.000000
# 2 -0.002389 0.014140 -0.001921 0.000000 0.001497 0.000000
# 3 -0.003555 -0.001921 0.015162 0.000000 0.006611 0.000000
# 4 0.000000 0.000000 0.000000 0.052838 0.000000 0.010059
# 5 0.000661 0.001497 0.006611 0.000000 0.025185 0.000000
# 6 0.000000 0.000000 0.000000 0.010059 0.000000 0.061161
#
#
# Mechanical properties :
#
#
# Convention : Reuss Voigt Hill
#
# Bulk Modulus (GPa) = 34.85279 39.19670 37.02474
# Shear Modulus (GPa) = 23.93503 28.47092 26.20298
#
# Velocity S-wave (km/s) = 3.64875 3.97950 3.81771
# Velocity P-wave (km/s) = 6.09405 6.55116 6.32673
#
# Compressibility (1/GPa) = 0.02869211
#
# Stress axis : x y z
#
# Youngs Moduli (GPa) = 66.13611 70.72361 65.95647
#
# Poissons Ratio (x) = 0.16894 0.23446
# Poissons Ratio (y) = 0.15798 0.12671
# Poissons Ratio (z) = 0.23510 0.13587
#
# Static dielectric constant tensor:
#      x y z
#    x 1.639560 0.000000 -0.012610 
#    y 0.000000 1.588830 0.000000 
#    z -0.012610 0.000000 1.633040 
# 
# From -- ./inp_files/87143.got.cif
#   From: 2010.05.17/outbox.cif.g08.bks.cpg/sg12_44_cif.got.tgz:87143.got - 2010.06.03 13:09:07.
