data_PCOD9205165
_publ_section_title
;
Structure prediction by ZEFSAII (Michael W. Deem and Ramdas Pophale) SiO2 
 PCOD9205165
Probable space group: C 2/M
;
_chemical_formula_sum "Si O2"
_cell_formula_units_Z 56
_cell_length_a 28.350343
_cell_length_b 8.074340
_cell_length_c 14.141307
_cell_angle_alpha 90.000000
_cell_angle_beta 121.990602
_cell_angle_gamma 90.000000
_cell_volume 2745.490148
_symmetry_space_group_name_H-M "C 2/M"
_symmetry_group_IT_number 12
_symmetry_cell_setting 'monoclinic'
loop_
_space_group_symop_operation_xyz
x,y,z
-x,y,-z
-x,-y,-z
x,-y,z
1/2+x,1/2+y,z
1/2-x,1/2+y,-z
1/2-x,1/2-y,-z
1/2+x,1/2-y,z
loop_
_atom_site_type_symbol
_atom_site_label
_atom_site_fract_x
_atom_site_fract_y
_atom_site_fract_z
Si Si1 0.330042 0.803220 0.114394
Si Si2 0.967528 0.689313 0.066461
Si Si3 0.423805 0.800382 0.724799
Si Si4 0.364133 0.802174 0.849185
Si Si5 0.065007 0.200145 0.673340
Si Si6 0.733026 0.691752 0.137154
Si Si7 0.436506 0.698986 0.537367
O O1 0.393807 0.769475 0.204715
O O2 0.292552 0.743706 0.163865
O O3 0.321079 0.000000 0.092242
O O4 0.305702 0.715498 0.996616
O O5 0.957185 0.500000 0.088081
O O6 0.013762 0.766229 0.184575
O O7 0.908495 0.766179 0.974120
O O8 0.000000 0.680434 0.000000
O O9 0.383104 0.742895 0.765760
O O10 0.406785 0.755262 0.601030
O O11 0.427199 0.000000 0.734517
O O12 0.301584 0.770140 0.814684
O O13 0.372601 0.000000 0.858993
O O14 0.083891 0.253750 0.587630
O O15 0.001049 0.253613 0.614434
O O16 0.066416 0.000000 0.679410
O O17 0.739754 0.500000 0.166470
O O18 0.436644 0.500000 0.535735
#
# Coordination Sequence:
#
# PCOD9205165 Si02
#       7
#     8   8   8   8   8   8   8
#     4  10  21  36  54  75  99 130 168 210 252 294
#     4   7  12  24  40  61  92 127 159 191 230 276
#     4   9  17  29  47  72 102 134 167 205 245 290
#     4   9  17  30  48  71 101 135 168 203 245 294
#     4   9  19  36  54  73 101 134 166 205 253 300
#     4  10  21  35  51  75 104 132 165 205 251 301
#     4   9  19  34  51  74 104 135 165 201 251 304
#
# _framework density 20.397086000000002
#
# number of rings (size 3 to 8) (size 9 to 14) (size 15 to 20)
#    0.000    3.000    0.000    3.429    2.000    3.429 
#    0.000    1.429    0.000    3.429    0.000    0.000 
#    0.000    0.000    0.000    0.000    0.000    0.000 
#
# Total GULP energy -156042.061256 kJ/mol
# GULP energy per Si atom -5572.930759 kJ/mol
# Density = 2.035066 g / cm^3
# Si number density = 20.397086 Si / 1000 Ang^3
#
#
#
# Elastic Constant Matrix: (Units=GPa)
#
#
# Indices 1 2 3 4 5 6 
#
# 1 70.9022 1.9000 -3.5567 0.0000 -15.6384 0.0000
# 2 1.9000 8.5877 -6.2597 0.0000 -1.7801 0.0000
# 3 -3.5567 -6.2597 37.9715 0.0000 -10.8598 0.0000
# 4 0.0000 0.0000 0.0000 15.1313 0.0000 -2.4249
# 5 -15.6384 -1.7801 -10.8598 0.0000 31.0545 0.0000
# 6 0.0000 0.0000 0.0000 -2.4249 0.0000 22.8198
#
#
#
# Elastic Compliance Matrix: (Units=1/GPa)
#
#
# Indices 1 2 3 4 5 6 
#
# 1 0.016515 0.001894 0.004743 0.000000 0.010084 0.000000
# 2 0.001894 0.141070 0.028910 0.000000 0.019150 0.000000
# 3 0.004743 0.028910 0.036337 0.000000 0.016753 0.000000
# 4 0.000000 0.000000 0.000000 0.067233 0.000000 0.007144
# 5 0.010084 0.019150 0.016753 0.000000 0.044236 0.000000
# 6 0.000000 0.000000 0.000000 0.007144 0.000000 0.044581
#
#
# Mechanical properties :
#
#
# Convention : Reuss Voigt Hill
#
# Bulk Modulus (GPa) = 3.77336 11.29204 7.53270
# Shear Modulus (GPa) = 13.61595 22.15966 17.88780
#
# Velocity S-wave (km/s) = 2.58649 3.29965 2.96459
# Velocity P-wave (km/s) = 3.28236 4.47941 3.92676
#
# Compressibility (1/GPa) = 0.26501551
#
# Stress axis : x y z
#
# Youngs Moduli (GPa) = 60.55007 7.08869 27.52021
#
# Poissons Ratio (x) = -0.01342 -0.13053
# Poissons Ratio (y) = -0.11466 -0.79561
# Poissons Ratio (z) = -0.28720 -0.20493
#
# Static dielectric constant tensor:
#      x y z
#    x 1.778420 0.000000 -0.014010 
#    y 0.000000 1.729790 0.000000 
#    z -0.014010 0.000000 1.735540 
# 
# From -- ./inp_files/244273.got.cif
#   From: 2010.05.17/outbox.cif.g08.bks.cpg/sg12_123_cif.got.tgz:244273.got - 2010.06.03 13:09:07.
