data_PCOD9205067
_publ_section_title
;
Structure prediction by ZEFSAII (Michael W. Deem and Ramdas Pophale) SiO2 
 PCOD9205067
Probable space group: C 2/M
;
_chemical_formula_sum "Si O2"
_cell_formula_units_Z 48
_cell_length_a 19.466861
_cell_length_b 14.843628
_cell_length_c 12.017402
_cell_angle_alpha 90.000000
_cell_angle_beta 48.259003
_cell_angle_gamma 90.000000
_cell_volume 2591.073336
_symmetry_space_group_name_H-M "C 2/M"
_symmetry_group_IT_number 12
_symmetry_cell_setting 'monoclinic'
loop_
_space_group_symop_operation_xyz
x,y,z
-x,y,-z
-x,-y,-z
x,-y,z
1/2+x,1/2+y,z
1/2-x,1/2+y,-z
1/2-x,1/2-y,-z
1/2+x,1/2-y,z
loop_
_atom_site_type_symbol
_atom_site_label
_atom_site_fract_x
_atom_site_fract_y
_atom_site_fract_z
Si Si1 0.640930 0.500000 0.626341
Si Si2 0.237811 0.500000 0.982224
Si Si3 0.104791 0.331946 0.875450
Si Si4 0.940536 0.000000 0.765721
Si Si5 0.264212 0.000000 0.281327
Si Si6 0.491819 0.304618 0.636841
Si Si7 0.840719 0.305737 0.931556
Si Si8 0.342862 0.698088 0.370043
O O1 0.529806 0.500000 0.749287
O O2 0.678139 0.500000 0.457876
O O3 0.675036 0.593734 0.640267
O O4 0.180938 0.410295 0.069040
O O5 0.338923 0.500000 0.927776
O O6 0.258216 0.500000 0.826164
O O7 0.173231 0.411979 0.765505
O O8 0.109584 0.252021 0.781330
O O9 0.137307 0.299256 0.961336
O O10 0.000000 0.365489 0.000000
O O11 0.951552 0.093638 0.687642
O O12 0.500000 0.279506 0.500000
O O13 0.423699 0.237017 0.773245
O O14 0.588328 0.303672 0.598603
O O15 0.750000 0.250000 0.000000
O O16 0.250000 0.750000 0.500000
#
# Coordination Sequence:
#
# PCOD9205067 Si02
#       8
#     4   4   8   4   4   8   8   8
#     4  10  22  36  57  94 121 154 202 253 306 357
#     4  10  22  36  60  91 120 156 206 254 293 355
#     4  11  22  41  62  89 121 160 205 250 305 357
#     4  10  21  34  61  91 120 151 199 260 302 347
#     4  10  21  35  62  91 115 150 208 264 294 343
#     4  11  24  39  63  93 123 158 201 255 306 360
#     4  11  23  40  62  90 124 160 203 248 304 362
#     4  11  23  40  62  89 126 160 201 249 305 368
#
# _framework density 18.525141000000001
#
# number of rings (size 3 to 8) (size 9 to 14) (size 15 to 20)
#    0.000    1.333    5.000    0.500    7.000    0.000 
#    0.000    3.333    0.000    0.000    0.000    0.000 
#    0.000    0.000    0.000    0.000    0.000    0.000 
#
# Total GULP energy -134019.405056 kJ/mol
# GULP energy per Si atom -5584.141877 kJ/mol
# Density = 1.848298 g / cm^3
# Si number density = 18.525141 Si / 1000 Ang^3
#
#
#
# Elastic Constant Matrix: (Units=GPa)
#
#
# Indices 1 2 3 4 5 6 
#
# 1 92.7559 39.1742 30.9593 0.0000 -7.1888 0.0000
# 2 39.1742 143.6889 45.1822 0.0000 1.2423 0.0000
# 3 30.9593 45.1822 69.4319 0.0000 -3.5786 0.0000
# 4 0.0000 0.0000 0.0000 23.9490 0.0000 -12.2574
# 5 -7.1888 1.2423 -3.5786 0.0000 33.4988 0.0000
# 6 0.0000 0.0000 0.0000 -12.2574 0.0000 24.4637
#
#
#
# Elastic Compliance Matrix: (Units=1/GPa)
#
#
# Indices 1 2 3 4 5 6 
#
# 1 0.013399 -0.002309 -0.004344 0.000000 0.002497 0.000000
# 2 -0.002309 0.009177 -0.005013 0.000000 -0.001371 0.000000
# 3 -0.004344 -0.005013 0.019671 0.000000 0.001355 0.000000
# 4 0.000000 0.000000 0.000000 0.056156 0.000000 0.028137
# 5 0.002497 -0.001371 0.001355 0.000000 0.030583 0.000000
# 6 0.000000 0.000000 0.000000 0.028137 0.000000 0.054975
#
#
# Mechanical properties :
#
#
# Convention : Reuss Voigt Hill
#
# Bulk Modulus (GPa) = 52.86266 59.61200 56.23733
# Shear Modulus (GPa) = 23.40840 29.08637 26.24739
#
# Velocity S-wave (km/s) = 3.55857 3.96675 3.76819
# Velocity P-wave (km/s) = 6.74405 7.29582 7.02535
#
# Compressibility (1/GPa) = 0.01891694
#
# Stress axis : x y z
#
# Youngs Moduli (GPa) = 74.63029 108.96617 50.83514
#
# Poissons Ratio (x) = 0.25159 0.22080
# Poissons Ratio (y) = 0.17231 0.25484
# Poissons Ratio (z) = 0.32416 0.54626
#
# Static dielectric constant tensor:
#      x y z
#    x 1.644110 0.000000 -0.016620 
#    y 0.000000 1.646010 0.000000 
#    z -0.016620 0.000000 1.619790 
# 
# From -- ./inp_files/167592.got.cif
#   From: 2010.05.17/outbox.cif.g08.bks.cpg/sg12_84_cif.got.tgz:167592.got - 2010.06.03 13:09:07.
