data_PCOD9205616
_publ_section_title
;
Structure prediction by ZEFSAII (Michael W. Deem and Ramdas Pophale) SiO2 
 PCOD9205616
Probable space group: C 2/M
;
_chemical_formula_sum "Si O2"
_cell_formula_units_Z 58
_cell_length_a 8.487085
_cell_length_b 24.121398
_cell_length_c 19.697949
_cell_angle_alpha 90.000000
_cell_angle_beta 139.406808
_cell_angle_gamma 90.000000
_cell_volume 2623.929481
_symmetry_space_group_name_H-M "C 2/M"
_symmetry_group_IT_number 12
_symmetry_cell_setting 'monoclinic'
loop_
_space_group_symop_operation_xyz
x,y,z
-x,y,-z
-x,-y,-z
x,-y,z
1/2+x,1/2+y,z
1/2-x,1/2+y,-z
1/2-x,1/2-y,-z
1/2+x,1/2-y,z
loop_
_atom_site_type_symbol
_atom_site_label
_atom_site_fract_x
_atom_site_fract_y
_atom_site_fract_z
Si Si1 0.281334 0.123818 0.073156
Si Si2 0.500000 0.000000 0.500000
Si Si3 0.970948 0.857087 0.565766
Si Si4 0.067495 0.435517 0.272528
Si Si5 0.330114 0.300420 0.075055
Si Si6 0.265114 0.706841 0.617018
Si Si7 0.572820 0.900635 0.626472
Si Si8 0.843202 0.275581 0.192464
O O1 0.430033 0.074660 0.156283
O O2 0.375361 0.176757 0.147227
O O3 0.272932 0.143704 0.992186
O O4 0.000000 0.116678 0.000000
O O5 0.386641 0.048493 0.411418
O O6 0.943704 0.812572 0.615507
O O7 0.710927 0.887182 0.478463
O O8 0.000000 0.834217 0.500000
O O9 0.185938 0.900309 0.648401
O O10 0.121144 0.500000 0.300498
O O11 0.914265 0.415240 0.288899
O O12 0.622409 0.296811 0.165566
O O13 0.260391 0.281005 0.127086
O O14 0.250000 0.250000 0.000000
O O15 0.223969 0.653415 0.652649
O O16 0.403232 0.759804 0.691822
O O17 0.000000 0.716701 0.500000
#
# Coordination Sequence:
#
# PCOD9205616 Si02
#       8
#     8   2   8   8   8   8   8   8
#     4   9  21  40  60  85 118 154 200 250 303 366
#     4  12  16  36  58  84 118 166 208 242 274 364
#     4   9  20  36  55  86 121 158 200 239 290 357
#     4  11  23  36  61  93 117 155 201 256 311 348
#     4   9  19  38  60  90 112 156 202 249 293 356
#     4  10  21  39  57  91 125 165 194 241 306 363
#     4  10  21  35  59  85 123 161 203 244 289 361
#     4  10  21  37  65  88 121 155 207 244 302 366
#
# _framework density 22.104254999999998
#
# number of rings (size 3 to 8) (size 9 to 14) (size 15 to 20)
#    0.000    2.207    2.759    1.241    8.690    1.103 
#    0.000    2.759    0.000    0.000    1.793    0.966 
#    0.000    0.000    0.000    0.000    0.000    0.000 
#
# Total GULP energy -161649.966262 kJ/mol
# GULP energy per Si atom -5574.136768 kJ/mol
# Density = 2.205394 g / cm^3
# Si number density = 22.104255 Si / 1000 Ang^3
#
#
#
# Elastic Constant Matrix: (Units=GPa)
#
#
# Indices 1 2 3 4 5 6 
#
# 1 96.4625 29.5496 37.6097 0.0000 2.0551 0.0000
# 2 29.5496 74.0970 37.4087 0.0000 10.1769 0.0000
# 3 37.6097 37.4087 97.8209 -0.0001 2.2022 0.0000
# 4 0.0000 0.0000 -0.0001 10.6964 -0.0001 -13.0684
# 5 2.0551 10.1769 2.2022 -0.0001 20.5068 0.0000
# 6 0.0000 0.0000 0.0000 -13.0684 0.0000 11.5847
#
#
#
# Elastic Compliance Matrix: (Units=1/GPa)
#
#
# Indices 1 2 3 4 5 6 
#
# 1 0.012807 -0.003371 -0.003652 0.000000 0.000782 0.000000
# 2 -0.003371 0.018895 -0.005740 0.000000 -0.008423 0.000000
# 3 -0.003652 -0.005740 0.013783 -0.000001 0.001735 -0.000001
# 4 0.000000 0.000000 -0.000001 -0.247170 -0.000001 -0.278827
# 5 0.000782 -0.008423 0.001735 -0.000001 0.052680 -0.000001
# 6 0.000000 0.000000 -0.000001 -0.278827 -0.000001 -0.228218
#
#
# Mechanical properties :
#
#
# Convention : Reuss Voigt Hill
#
# Bulk Modulus (GPa) = 50.10499 53.05737 51.58118
# Shear Modulus (GPa) = -14.49088 19.47841 2.49376
#
# Velocity S-wave (km/s) = -2.56319 2.97173 1.06331
# Velocity P-wave (km/s) = 3.73589 5.98584 4.98935
#
# Compressibility (1/GPa) = 0.01995809
#
# Stress axis : x y z
#
# Youngs Moduli (GPa) = 78.08446 52.92441 72.55219
#
# Poissons Ratio (x) = 0.17839 0.26499
# Poissons Ratio (y) = 0.26319 0.41647
# Poissons Ratio (z) = 0.28520 0.30380
#
# Static dielectric constant tensor:
#      x y z
#    x 1.867440 0.000000 -0.031770 
#    y 0.000000 1.822090 0.000000 
#    z -0.031770 0.000000 1.889650 
# 
# From -- ./inp_files/302453.got.cif
#   From: 2010.05.17/outbox.cif.g08.bks.cpg/sg12_152_cif.got.tgz:302453.got - 2010.06.03 13:09:07.
