data_PCOD9205212
_publ_section_title
;
Structure prediction by ZEFSAII (Michael W. Deem and Ramdas Pophale) SiO2 
 PCOD9205212
Probable space group: C 2/M
;
_chemical_formula_sum "Si O2"
_cell_formula_units_Z 48
_cell_length_a 19.035042
_cell_length_b 8.877939
_cell_length_c 32.605997
_cell_angle_alpha 90.000000
_cell_angle_beta 150.960826
_cell_angle_gamma 90.000000
_cell_volume 2674.668485
_symmetry_space_group_name_H-M "C 2/M"
_symmetry_group_IT_number 12
_symmetry_cell_setting 'monoclinic'
loop_
_space_group_symop_operation_xyz
x,y,z
-x,y,-z
-x,-y,-z
x,-y,z
1/2+x,1/2+y,z
1/2-x,1/2+y,-z
1/2-x,1/2-y,-z
1/2+x,1/2-y,z
loop_
_atom_site_type_symbol
_atom_site_label
_atom_site_fract_x
_atom_site_fract_y
_atom_site_fract_z
Si Si1 0.689588 0.180619 0.264725
Si Si2 0.177172 0.818147 0.422509
Si Si3 0.841271 0.181318 0.256285
Si Si4 0.667335 0.818209 0.582305
Si Si5 0.430949 0.679885 0.920844
Si Si6 0.906497 0.319605 0.073265
O O1 0.787103 0.221500 0.274659
O O2 0.746184 0.257226 0.334521
O O3 0.524756 0.220752 0.168516
O O4 0.697840 0.000000 0.273442
O O5 0.250000 0.750000 0.500000
O O6 0.260238 0.769979 0.423599
O O7 0.007694 0.776501 0.334657
O O8 0.184752 0.000000 0.428848
O O9 0.731136 0.258854 0.168592
O O10 0.827209 0.000000 0.245347
O O11 0.500000 0.769353 0.500000
O O12 0.670216 0.000000 0.584794
O O13 0.432248 0.500000 0.915906
O O14 0.525968 0.757912 0.934240
O O15 0.500000 0.714905 0.000000
O O16 0.897939 0.500000 0.067408
O O17 0.750000 0.250000 0.000000
#
# Coordination Sequence:
#
# PCOD9205212 Si02
#       6
#     8   8   8   8   8   8
#     4   9  19  35  54  76 102 135 176 219 261 311
#     4  10  21  36  54  78 106 137 176 219 264 318
#     4   9  19  36  55  76 104 139 181 224 267 320
#     4  10  21  35  52  78 109 138 172 215 263 318
#     4  10  21  36  55  81 111 143 183 228 273 325
#     4  10  21  37  57  82 112 145 183 225 270 323
#
# _framework density 17.946148999999998
#
# number of rings (size 3 to 8) (size 9 to 14) (size 15 to 20)
#    0.000    2.333    0.000    3.000    0.000    7.667 
#    0.000    3.333    0.000    0.000    0.000    0.000 
#    0.000    0.000    0.000    0.000    0.000    0.000 
#
# Total GULP energy -133967.795390 kJ/mol
# GULP energy per Si atom -5581.991475 kJ/mol
# Density = 1.790530 g / cm^3
# Si number density = 17.946149 Si / 1000 Ang^3
#
#
#
# Elastic Constant Matrix: (Units=GPa)
#
#
# Indices 1 2 3 4 5 6 
#
# 1 124.0282 41.9062 122.7825 0.0000 5.2993 0.0000
# 2 41.9062 29.0155 63.3664 0.0000 -2.7010 0.0000
# 3 122.7825 63.3664 207.3215 0.0000 1.9616 0.0000
# 4 0.0000 0.0000 0.0000 36.7604 0.0000 -5.9192
# 5 5.2993 -2.7010 1.9616 0.0000 39.2426 0.0000
# 6 0.0000 0.0000 0.0000 -5.9192 0.0000 23.3306
#
#
#
# Elastic Compliance Matrix: (Units=1/GPa)
#
#
# Indices 1 2 3 4 5 6 
#
# 1 0.020622 -0.010403 -0.009005 0.000000 -0.003051 0.000000
# 2 -0.010403 0.111967 -0.028161 0.000000 0.010519 0.000000
# 3 -0.009005 -0.028161 0.018779 0.000000 -0.001661 0.000000
# 4 0.000000 0.000000 0.000000 0.028362 0.000000 0.007196
# 5 -0.003051 0.010519 -0.001661 0.000000 0.026701 0.000000
# 6 0.000000 0.000000 0.000000 0.007196 0.000000 0.044688
#
#
# Mechanical properties :
#
#
# Convention : Reuss Voigt Hill
#
# Bulk Modulus (GPa) = 17.78333 90.71950 54.25142
# Shear Modulus (GPa) = 13.69861 28.68739 21.19300
#
# Velocity S-wave (km/s) = 2.76582 4.00249 3.44018
# Velocity P-wave (km/s) = 4.48670 8.48650 6.78790
#
# Compressibility (1/GPa) = 0.05623242
#
# Stress axis : x y z
#
# Youngs Moduli (GPa) = 48.49167 8.93117 53.25033
#
# Poissons Ratio (x) = 0.09291 0.47951
# Poissons Ratio (y) = 0.50444 1.49958
# Poissons Ratio (z) = 0.43666 0.25151
#
# Static dielectric constant tensor:
#      x y z
#    x 1.596740 0.000000 0.016930 
#    y 0.000000 1.600190 0.000000 
#    z 0.016930 0.000000 1.597550 
# 
# From -- ./inp_files/274024.got.cif
#   From: 2010.05.17/outbox.cif.g08.bks.cpg/sg12_138_cif.got.tgz:274024.got - 2010.06.03 13:09:07.
